data_image0
_chemical_formula_structural       BC2BC2B2C2B2OC5H3OC5H3OC3HOC5H3OC3HOC3HOC3HOC3HOC5H3OC3HOC5H3OC5H3BC2B3C2BC2BOC5H3OC3HOC3HOC5H3OC5H3OC3HOC3HOC5H3OC5H3OC3HOC3HOC5H3C2Sn2C2HTe2HMgC2Sn2C2HTe2HMgC2Sn2C2HTe2HMgC2Sn2C2HTe2HMgC2Sn2C2HTe2HMgC2Sn2C2HTe2HMg
_chemical_formula_sum              "B12 C132 O24 H60 Sn12 Te12 Mg6"
_cell_length_a       37.5385
_cell_length_b       37.8843
_cell_length_c       8.12998
_cell_angle_alpha    107.898
_cell_angle_beta     57.1894
_cell_angle_gamma    120.119

_symmetry_space_group_name_H-M    'P1'
_space_group_IT_number       1

loop_
  _space_group_symop_operation_xyz
  'x, y, z'

loop_
  _atom_site_type_symbol
  _atom_site_label
  _atom_site_symmetry_multiplicity
  _atom_site_fract_x
  _atom_site_fract_y
  _atom_site_fract_z
  _atom_site_occupancy
  B   B1        1.0  0.84274  0.41977  0.27277  1.0000
  C   C1        1.0  0.88961  0.44340  0.27609  1.0000
  C   C2        1.0  0.97984  0.48836  0.25522  1.0000
  B   B2        1.0  0.58262  0.42162  0.23434  1.0000
  C   C3        1.0  0.55954  0.44567  0.23627  1.0000
  C   C4        1.0  0.51416  0.49064  0.26365  1.0000
  B   B3        1.0  0.58028  0.15673  0.22874  1.0000
  B   B4        1.0  0.16212  0.58033  0.24014  1.0000
  C   C5        1.0  0.11510  0.55669  0.23887  1.0000
  C   C6        1.0  0.02615  0.51174  0.24852  1.0000
  B   B5        1.0  0.42598  0.58139  0.26133  1.0000
  B   B6        1.0  0.42488  0.84414  0.25708  1.0000
  O   O1        1.0  0.82009  0.37694  0.25517  1.0000
  C   C7        1.0  0.91384  0.42339  0.26574  1.0000
  C   C8        1.0  0.95792  0.44530  0.25434  1.0000
  C   C9        1.0  0.70719  0.33263  0.24419  1.0000
  C   C10       1.0  0.78017  0.36929  0.25282  1.0000
  C   C11       1.0  0.74519  0.33253  0.24251  1.0000
  H   H1        1.0  0.74707  0.30437  0.23449  1.0000
  H   H2        1.0  0.89794  0.39018  0.26595  1.0000
  H   H3        1.0  0.97553  0.42857  0.24495  1.0000
  O   O2        1.0  0.62499  0.43975  0.24148  1.0000
  C   C12       1.0  0.57721  0.48840  0.27023  1.0000
  C   C13       1.0  0.55485  0.51028  0.28496  1.0000
  C   C14       1.0  0.66851  0.37079  0.24633  1.0000
  C   C15       1.0  0.63205  0.40743  0.24323  1.0000
  C   C16       1.0  0.66831  0.40842  0.25014  1.0000
  H   H4        1.0  0.69591  0.43762  0.25687  1.0000
  H   H5        1.0  0.60816  0.50430  0.29049  1.0000
  H   H6        1.0  0.56843  0.54301  0.31881  1.0000
  O   O3        1.0  0.56278  0.18120  0.22162  1.0000
  C   C17       1.0  0.63148  0.29446  0.23219  1.0000
  C   C18       1.0  0.59488  0.22107  0.22666  1.0000
  C   C19       1.0  0.59423  0.25687  0.22503  1.0000
  H   H7        1.0  0.56582  0.25576  0.21666  1.0000
  O   O4        1.0  0.18581  0.62318  0.24773  1.0000
  C   C20       1.0  0.09443  0.57611  0.21679  1.0000
  C   C21       1.0  0.05128  0.55408  0.21939  1.0000
  C   C22       1.0  0.29926  0.66797  0.25288  1.0000
  C   C23       1.0  0.22580  0.63097  0.24930  1.0000
  C   C24       1.0  0.26131  0.66783  0.25325  1.0000
  H   H8        1.0  0.25987  0.69572  0.25394  1.0000
  H   H9        1.0  0.11286  0.60876  0.19410  1.0000
  H   H10       1.0  0.03749  0.56995  0.19363  1.0000
  O   O5        1.0  0.38255  0.56274  0.26296  1.0000
  C   C25       1.0  0.33835  0.63058  0.25288  1.0000
  C   C26       1.0  0.37559  0.59464  0.25544  1.0000
  C   C27       1.0  0.33846  0.59325  0.25431  1.0000
  H   H11       1.0  0.30994  0.56399  0.25685  1.0000
  O   O6        1.0  0.44370  0.82042  0.26051  1.0000
  C   C28       1.0  0.37596  0.70692  0.25609  1.0000
  C   C29       1.0  0.41170  0.78027  0.25925  1.0000
  C   C30       1.0  0.41345  0.74483  0.25820  1.0000
  H   H12       1.0  0.44276  0.74633  0.26068  1.0000
  O   O7        1.0  0.38192  0.81939  0.25559  1.0000
  C   C31       1.0  0.33784  0.70658  0.25496  1.0000
  C   C32       1.0  0.37444  0.77978  0.25709  1.0000
  C   C33       1.0  0.33775  0.74396  0.25381  1.0000
  H   H13       1.0  0.31019  0.74494  0.24715  1.0000
  O   O8        1.0  0.44564  0.62404  0.25235  1.0000
  C   C34       1.0  0.37626  0.66846  0.25466  1.0000
  C   C35       1.0  0.41331  0.63170  0.25182  1.0000
  C   C36       1.0  0.41425  0.66847  0.25330  1.0000
  H   H14       1.0  0.44335  0.69662  0.25652  1.0000
  O   O9        1.0  0.18687  0.56186  0.23847  1.0000
  C   C37       1.0  0.09033  0.51442  0.26648  1.0000
  C   C38       1.0  0.04679  0.49264  0.27323  1.0000
  C   C39       1.0  0.29956  0.63032  0.25108  1.0000
  C   C40       1.0  0.22632  0.59398  0.24479  1.0000
  C   C41       1.0  0.26211  0.59281  0.24645  1.0000
  H   H15       1.0  0.26115  0.56355  0.24338  1.0000
  H   H16       1.0  0.10498  0.49878  0.28850  1.0000
  H   H17       1.0  0.02809  0.46040  0.30294  1.0000
  O   O10       1.0  0.62259  0.18092  0.23705  1.0000
  C   C42       1.0  0.66877  0.29421  0.23779  1.0000
  C   C43       1.0  0.63109  0.22087  0.23456  1.0000
  C   C44       1.0  0.66789  0.25639  0.24009  1.0000
  H   H18       1.0  0.69470  0.25495  0.25066  1.0000
  O   O11       1.0  0.56381  0.37872  0.23144  1.0000
  C   C45       1.0  0.51896  0.42595  0.21449  1.0000
  C   C46       1.0  0.49703  0.44795  0.22623  1.0000
  C   C47       1.0  0.63144  0.33316  0.23550  1.0000
  C   C48       1.0  0.59539  0.37057  0.23545  1.0000
  C   C49       1.0  0.59428  0.33354  0.23123  1.0000
  H   H19       1.0  0.56565  0.30563  0.22238  1.0000
  H   H20       1.0  0.50488  0.39302  0.18518  1.0000
  H   H21       1.0  0.46698  0.43192  0.19988  1.0000
  O   O12       1.0  0.81745  0.43841  0.28065  1.0000
  C   C50       1.0  0.91144  0.48638  0.27641  1.0000
  C   C51       1.0  0.95531  0.50824  0.26656  1.0000
  C   C52       1.0  0.70669  0.37056  0.25130  1.0000
  C   C53       1.0  0.77894  0.40644  0.26590  1.0000
  C   C54       1.0  0.74340  0.40792  0.26348  1.0000
  H   H22       1.0  0.74390  0.43731  0.27258  1.0000
  H   H23       1.0  0.89368  0.50270  0.28301  1.0000
  H   H24       1.0  0.97055  0.54138  0.26858  1.0000
  B   B7        1.0  0.83684  0.41629  0.76681  1.0000
  C   C55       1.0  0.88368  0.43938  0.76967  1.0000
  C   C56       1.0  0.97260  0.48345  0.76074  1.0000
  B   B8        1.0  0.57791  0.42169  0.73436  1.0000
  B   B9        1.0  0.57301  0.15520  0.73137  1.0000
  B   B10       1.0  0.15593  0.57594  0.73642  1.0000
  C   C57       1.0  0.10903  0.55162  0.73381  1.0000
  C   C58       1.0  0.01878  0.50661  0.75538  1.0000
  B   B11       1.0  0.42096  0.58193  0.76632  1.0000
  C   C59       1.0  0.44437  0.55891  0.77027  1.0000
  C   C60       1.0  0.48733  0.51461  0.76998  1.0000
  B   B12       1.0  0.41767  0.84259  0.75617  1.0000
  O   O13       1.0  0.81330  0.37350  0.75266  1.0000
  C   C61       1.0  0.90440  0.41938  0.78732  1.0000
  C   C62       1.0  0.94758  0.44093  0.78461  1.0000
  C   C63       1.0  0.70073  0.33058  0.74191  1.0000
  C   C64       1.0  0.77362  0.36647  0.75065  1.0000
  C   C65       1.0  0.73842  0.32994  0.74033  1.0000
  H   H25       1.0  0.74003  0.30171  0.73310  1.0000
  H   H26       1.0  0.88611  0.38657  0.80591  1.0000
  H   H27       1.0  0.96154  0.42446  0.80529  1.0000
  O   O14       1.0  0.62019  0.43937  0.74160  1.0000
  C   C66       1.0  0.66236  0.36940  0.74746  1.0000
  C   C67       1.0  0.62665  0.40677  0.74473  1.0000
  C   C68       1.0  0.66264  0.40729  0.75172  1.0000
  H   H28       1.0  0.69054  0.43630  0.75822  1.0000
  O   O15       1.0  0.55453  0.17979  0.73284  1.0000
  C   C69       1.0  0.62433  0.29301  0.73604  1.0000
  C   C70       1.0  0.58731  0.21962  0.73233  1.0000
  C   C71       1.0  0.58626  0.25555  0.73522  1.0000
  H   H29       1.0  0.55691  0.25473  0.73579  1.0000
  O   O16       1.0  0.17840  0.61890  0.74757  1.0000
  C   C72       1.0  0.08524  0.57153  0.73958  1.0000
  C   C73       1.0  0.04118  0.54960  0.75136  1.0000
  C   C74       1.0  0.29210  0.66588  0.75465  1.0000
  C   C75       1.0  0.21865  0.62767  0.75024  1.0000
  C   C76       1.0  0.25376  0.66495  0.75475  1.0000
  H   H30       1.0  0.25197  0.69266  0.75514  1.0000
  H   H31       1.0  0.10152  0.60469  0.73566  1.0000
  H   H32       1.0  0.02413  0.56634  0.75604  1.0000
  O   O17       1.0  0.37753  0.56274  0.76703  1.0000
  C   C77       1.0  0.42002  0.51676  0.80154  1.0000
  C   C78       1.0  0.44082  0.49524  0.80314  1.0000
  C   C79       1.0  0.33201  0.62930  0.75556  1.0000
  C   C80       1.0  0.36989  0.59427  0.76029  1.0000
  C   C81       1.0  0.33276  0.59228  0.75674  1.0000
  H   H33       1.0  0.30487  0.56273  0.75640  1.0000
  H   H34       1.0  0.38420  0.50086  0.82550  1.0000
  H   H35       1.0  0.42056  0.46293  0.83223  1.0000
  O   O18       1.0  0.43649  0.81890  0.75957  1.0000
  C   C82       1.0  0.36874  0.70553  0.75825  1.0000
  C   C83       1.0  0.40442  0.77881  0.75915  1.0000
  C   C84       1.0  0.40610  0.74352  0.76002  1.0000
  H   H36       1.0  0.43535  0.74531  0.76418  1.0000
  O   O19       1.0  0.37464  0.81778  0.75476  1.0000
  C   C85       1.0  0.33045  0.70482  0.75696  1.0000
  C   C86       1.0  0.36704  0.77813  0.75727  1.0000
  C   C87       1.0  0.33015  0.74217  0.75629  1.0000
  H   H37       1.0  0.30213  0.74292  0.75234  1.0000
  O   O20       1.0  0.43977  0.62461  0.75980  1.0000
  C   C88       1.0  0.49057  0.57852  0.74087  1.0000
  C   C89       1.0  0.51168  0.55684  0.73911  1.0000
  C   C90       1.0  0.36948  0.66742  0.75817  1.0000
  C   C91       1.0  0.40710  0.63161  0.75860  1.0000
  C   C92       1.0  0.40759  0.66808  0.75872  1.0000
  H   H38       1.0  0.43655  0.69637  0.76157  1.0000
  H   H39       1.0  0.51037  0.61106  0.71572  1.0000
  H   H40       1.0  0.54786  0.57274  0.71051  1.0000
  O   O21       1.0  0.18156  0.55837  0.73354  1.0000
  C   C93       1.0  0.08676  0.50872  0.73899  1.0000
  C   C94       1.0  0.04281  0.48681  0.74925  1.0000
  C   C95       1.0  0.29306  0.62852  0.75292  1.0000
  C   C96       1.0  0.22017  0.59108  0.74405  1.0000
  C   C97       1.0  0.25618  0.59063  0.74697  1.0000
  H   H41       1.0  0.25575  0.56163  0.74398  1.0000
  H   H42       1.0  0.10413  0.49259  0.73742  1.0000
  H   H43       1.0  0.02702  0.45373  0.75225  1.0000
  O   O22       1.0  0.61639  0.17919  0.72987  1.0000
  C   C98       1.0  0.66214  0.29241  0.73590  1.0000
  C   C99       1.0  0.62460  0.21914  0.73014  1.0000
  C   C100      1.0  0.66172  0.25451  0.73318  1.0000
  H   H44       1.0  0.68920  0.25288  0.73773  1.0000
  O   O23       1.0  0.55873  0.37876  0.73077  1.0000
  C   C101      1.0  0.62489  0.33194  0.73789  1.0000
  C   C102      1.0  0.58980  0.37010  0.73638  1.0000
  C   C103      1.0  0.58819  0.33284  0.73211  1.0000
  H   H45       1.0  0.55968  0.30507  0.72118  1.0000
  O   O24       1.0  0.81225  0.43550  0.77289  1.0000
  C   C104      1.0  0.90845  0.48181  0.74644  1.0000
  C   C105      1.0  0.95197  0.50314  0.73985  1.0000
  C   C106      1.0  0.70050  0.36868  0.75043  1.0000
  C   C107      1.0  0.77314  0.40384  0.76166  1.0000
  C   C108      1.0  0.73768  0.40579  0.76078  1.0000
  H   H46       1.0  0.73873  0.43535  0.76884  1.0000
  H   H47       1.0  0.89378  0.49798  0.72819  1.0000
  H   H48       1.0  0.97059  0.53557  0.71410  1.0000
  C   C109      1.0  0.50268  0.92391  0.23742  1.0000
  C   C110      1.0  0.45803  0.89604  0.26230  1.0000
  C  Sn1       1.0  0.42872  0.90931  0.26786  1.0000
  C  Sn2       1.0  0.44451  0.95127  0.24805  1.0000
  C   C111      1.0  0.48925  0.97891  0.22309  1.0000
  C   C112      1.0  0.51829  0.96531  0.21780  1.0000
  H   H49       1.0  0.52516  0.91339  0.23322  1.0000
  O  Te1       1.0  0.38421  0.88105  0.29289  1.0000
  O  Te2       1.0  0.41594  0.96535  0.25301  1.0000
  H   H50       1.0  0.55287  0.98689  0.19841  1.0000
  Mg  Mg1       1.0  0.35817  0.91508  0.29020  1.0000
  C   C113      1.0  0.41946  0.91997  0.74368  1.0000
  C   C114      1.0  0.43528  0.89367  0.74499  1.0000
  C  Sn3       1.0  0.47684  0.90945  0.75356  1.0000
  C  Sn4       1.0  0.50296  0.95237  0.76101  1.0000
  C   C115      1.0  0.48682  0.97843  0.75977  1.0000
  C   C116      1.0  0.44520  0.96231  0.75110  1.0000
  H   H51       1.0  0.38725  0.90750  0.73708  1.0000
  O  Te3       1.0  0.49214  0.88273  0.75468  1.0000
  O  Te4       1.0  0.54460  0.96896  0.76972  1.0000
  H   H52       1.0  0.43294  0.98269  0.75022  1.0000
  Mg  Mg2       1.0  0.55104  0.92004  0.76778  1.0000
  C   C117      1.0  0.56577  0.05593  0.24272  1.0000
  C   C118      1.0  0.52271  0.02830  0.24945  1.0000
  C  Sn5       1.0  0.49636  0.04194  0.23376  1.0000
  C  Sn6       1.0  0.51353  0.08403  0.21087  1.0000
  C   C119      1.0  0.55667  0.11141  0.20416  1.0000
  C   C120      1.0  0.58275  0.09744  0.22007  1.0000
  H   H53       1.0  0.58597  0.04512  0.25492  1.0000
  O  Te5       1.0  0.45339  0.01393  0.24084  1.0000
  O  Te6       1.0  0.48792  0.09848  0.19476  1.0000
  H   H54       1.0  0.61610  0.11883  0.21472  1.0000
  Mg  Mg3       1.0  0.43133  0.04844  0.21268  1.0000
  C   C121      1.0  0.57289  0.07717  0.71960  1.0000
  C   C122      1.0  0.55738  0.10366  0.71755  1.0000
  C  Sn7       1.0  0.51353  0.08840  0.73023  1.0000
  C  Sn8       1.0  0.48474  0.04582  0.74529  1.0000
  C   C123      1.0  0.50056  0.01958  0.74735  1.0000
  C   C124      1.0  0.54451  0.03517  0.73452  1.0000
  H   H55       1.0  0.60688  0.08923  0.70978  1.0000
  O  Te7       1.0  0.49858  0.11529  0.72791  1.0000
  O  Te8       1.0  0.44076  0.02975  0.75824  1.0000
  H   H56       1.0  0.55649  0.01466  0.73624  1.0000
  Mg  Mg4       1.0  0.43588  0.07872  0.74912  1.0000
  C   C125      1.0  0.55938  0.51053  0.79301  1.0000
  C   C126      1.0  0.52176  0.49728  0.75876  1.0000
  C  Sn9       1.0  0.49865  0.45593  0.71668  1.0000
  C  Sn10      1.0  0.51355  0.42738  0.70890  1.0000
  C   C127      1.0  0.55120  0.44094  0.74353  1.0000
  C   C128      1.0  0.57409  0.48239  0.78544  1.0000
  H   H57       1.0  0.57708  0.54259  0.82555  1.0000
  O  Te9       1.0  0.46113  0.44322  0.68277  1.0000
  O  Te10      1.0  0.49106  0.38588  0.66724  1.0000
  H   H58       1.0  0.60320  0.49263  0.81208  1.0000
  Mg  Mg5       1.0  0.44170  0.38346  0.63161  1.0000
  C   C129      1.0  0.42382  0.50586  0.29958  1.0000
  C   C130      1.0  0.44094  0.54774  0.28521  1.0000
  C  Sn11      1.0  0.48624  0.57399  0.25681  1.0000
  C  Sn12      1.0  0.51484  0.55793  0.24254  1.0000
  C   C131      1.0  0.49738  0.51599  0.25696  1.0000
  C   C132      1.0  0.45200  0.48999  0.28544  1.0000
  H   H59       1.0  0.38871  0.48574  0.32150  1.0000
  O  Te11      1.0  0.50280  0.61576  0.24285  1.0000
  O  Te12      1.0  0.56024  0.58348  0.21408  1.0000
  H   H60       1.0  0.43876  0.45756  0.29643  1.0000
  Mg  Mg6       1.0  0.56705  0.63822  0.20419  1.0000
