data_image0
_chemical_formula_structural       BC2BC2BC2B2C2BOC5H3OC5H3OC5H3OC3HOC5H3OC3HOC3HOC5H3OC3HOC5H3OC5H3OC5H3B2C2B2C2B2OC3HOC5H3OC3HOC5H3OC3HOC3HOC3HOC3HOC5H3OC3HOC5H3OC3HSnCSn2CSnTe4Mg2SnCSn2CSnTe4Mg2SnCSn2CSnTe4Mg2SnCSn2CSnTe4Mg2SnCSn2CSnTe4Mg2SnCSn2CSnTe4Mg2
_chemical_formula_sum              "B12 C120 O24 H48 Sn24 Te24 Mg12"
_cell_length_a       37.5385
_cell_length_b       37.8843
_cell_length_c       8.12998
_cell_angle_alpha    107.898
_cell_angle_beta     57.1894
_cell_angle_gamma    120.119

_symmetry_space_group_name_H-M    'P1'
_space_group_IT_number       1

loop_
  _space_group_symop_operation_xyz
  'x, y, z'

loop_
  _atom_site_type_symbol
  _atom_site_label
  _atom_site_symmetry_multiplicity
  _atom_site_fract_x
  _atom_site_fract_y
  _atom_site_fract_z
  _atom_site_occupancy
  B   B1        1.0  0.84274  0.41977  0.27277  1.0000
  C   C1        1.0  0.88961  0.44340  0.27609  1.0000
  C   C2        1.0  0.97984  0.48836  0.25522  1.0000
  B   B2        1.0  0.58262  0.42162  0.23434  1.0000
  C   C3        1.0  0.55954  0.44567  0.23627  1.0000
  C   C4        1.0  0.51416  0.49064  0.26365  1.0000
  B   B3        1.0  0.58028  0.15673  0.22874  1.0000
  C   C5        1.0  0.55679  0.10997  0.22885  1.0000
  C   C6        1.0  0.51314  0.02288  0.23629  1.0000
  B   B4        1.0  0.16212  0.58033  0.24014  1.0000
  B   B5        1.0  0.42598  0.58139  0.26133  1.0000
  C   C7        1.0  0.44858  0.55821  0.27014  1.0000
  C   C8        1.0  0.49117  0.51395  0.27289  1.0000
  B   B6        1.0  0.42488  0.84414  0.25708  1.0000
  O   O1        1.0  0.82009  0.37694  0.25517  1.0000
  C   C9        1.0  0.91384  0.42339  0.26574  1.0000
  C   C10       1.0  0.95792  0.44530  0.25434  1.0000
  C   C11       1.0  0.70719  0.33263  0.24419  1.0000
  C   C12       1.0  0.78017  0.36929  0.25282  1.0000
  C   C13       1.0  0.74519  0.33253  0.24251  1.0000
  H   H1        1.0  0.74707  0.30437  0.23449  1.0000
  H   H2        1.0  0.89794  0.39018  0.26595  1.0000
  H   H3        1.0  0.97553  0.42857  0.24495  1.0000
  O   O2        1.0  0.62499  0.43975  0.24148  1.0000
  C   C14       1.0  0.57721  0.48840  0.27023  1.0000
  C   C15       1.0  0.55485  0.51028  0.28496  1.0000
  C   C16       1.0  0.66851  0.37079  0.24633  1.0000
  C   C17       1.0  0.63205  0.40743  0.24323  1.0000
  C   C18       1.0  0.66831  0.40842  0.25014  1.0000
  H   H4        1.0  0.69591  0.43762  0.25687  1.0000
  H   H5        1.0  0.60816  0.50430  0.29049  1.0000
  H   H6        1.0  0.56843  0.54301  0.31881  1.0000
  O   O3        1.0  0.56278  0.18120  0.22162  1.0000
  C   C19       1.0  0.51484  0.08689  0.21718  1.0000
  C   C20       1.0  0.49368  0.04444  0.21995  1.0000
  C   C21       1.0  0.63148  0.29446  0.23219  1.0000
  C   C22       1.0  0.59488  0.22107  0.22666  1.0000
  C   C23       1.0  0.59423  0.25687  0.22503  1.0000
  H   H7        1.0  0.56582  0.25576  0.21666  1.0000
  H   H8        1.0  0.49889  0.10242  0.20324  1.0000
  H   H9        1.0  0.46189  0.02803  0.20620  1.0000
  O   O4        1.0  0.18581  0.62318  0.24773  1.0000
  C   C24       1.0  0.29926  0.66797  0.25288  1.0000
  C   C25       1.0  0.22580  0.63097  0.24930  1.0000
  C   C26       1.0  0.26131  0.66783  0.25325  1.0000
  H   H10       1.0  0.25987  0.69572  0.25394  1.0000
  O   O5        1.0  0.38255  0.56274  0.26296  1.0000
  C   C27       1.0  0.42436  0.51596  0.29888  1.0000
  C   C28       1.0  0.44498  0.49442  0.30174  1.0000
  C   C29       1.0  0.33835  0.63058  0.25288  1.0000
  C   C30       1.0  0.37559  0.59464  0.25544  1.0000
  C   C31       1.0  0.33846  0.59325  0.25431  1.0000
  H   H11       1.0  0.30994  0.56399  0.25685  1.0000
  H   H12       1.0  0.38885  0.50009  0.31911  1.0000
  H   H13       1.0  0.42490  0.46198  0.32801  1.0000
  O   O6        1.0  0.44370  0.82042  0.26051  1.0000
  C   C32       1.0  0.37596  0.70692  0.25609  1.0000
  C   C33       1.0  0.41170  0.78027  0.25925  1.0000
  C   C34       1.0  0.41345  0.74483  0.25820  1.0000
  H   H14       1.0  0.44276  0.74633  0.26068  1.0000
  O   O7        1.0  0.38192  0.81939  0.25559  1.0000
  C   C35       1.0  0.33784  0.70658  0.25496  1.0000
  C   C36       1.0  0.37444  0.77978  0.25709  1.0000
  C   C37       1.0  0.33775  0.74396  0.25381  1.0000
  H   H15       1.0  0.31019  0.74494  0.24715  1.0000
  O   O8        1.0  0.44564  0.62404  0.25235  1.0000
  C   C38       1.0  0.49421  0.57805  0.24707  1.0000
  C   C39       1.0  0.51510  0.55637  0.24684  1.0000
  C   C40       1.0  0.37626  0.66846  0.25466  1.0000
  C   C41       1.0  0.41331  0.63170  0.25182  1.0000
  C   C42       1.0  0.41425  0.66847  0.25330  1.0000
  H   H16       1.0  0.44335  0.69662  0.25652  1.0000
  H   H17       1.0  0.51363  0.61078  0.22612  1.0000
  H   H18       1.0  0.55085  0.57250  0.22337  1.0000
  O   O9        1.0  0.18687  0.56186  0.23847  1.0000
  C   C43       1.0  0.29956  0.63032  0.25108  1.0000
  C   C44       1.0  0.22632  0.59398  0.24479  1.0000
  C   C45       1.0  0.26211  0.59281  0.24645  1.0000
  H   H19       1.0  0.26115  0.56355  0.24338  1.0000
  O   O10       1.0  0.62259  0.18092  0.23705  1.0000
  C   C46       1.0  0.57663  0.08848  0.24249  1.0000
  C   C47       1.0  0.55526  0.04616  0.24716  1.0000
  C   C48       1.0  0.66877  0.29421  0.23779  1.0000
  C   C49       1.0  0.63109  0.22087  0.23456  1.0000
  C   C50       1.0  0.66789  0.25639  0.24009  1.0000
  H   H20       1.0  0.69470  0.25495  0.25066  1.0000
  H   H21       1.0  0.60885  0.10526  0.25324  1.0000
  H   H22       1.0  0.57113  0.03115  0.26451  1.0000
  O   O11       1.0  0.56381  0.37872  0.23144  1.0000
  C   C51       1.0  0.51896  0.42595  0.21449  1.0000
  C   C52       1.0  0.49703  0.44795  0.22623  1.0000
  C   C53       1.0  0.63144  0.33316  0.23550  1.0000
  C   C54       1.0  0.59539  0.37057  0.23545  1.0000
  C   C55       1.0  0.59428  0.33354  0.23123  1.0000
  H   H23       1.0  0.56565  0.30563  0.22238  1.0000
  H   H24       1.0  0.50488  0.39302  0.18518  1.0000
  H   H25       1.0  0.46698  0.43192  0.19988  1.0000
  O   O12       1.0  0.81745  0.43841  0.28065  1.0000
  C   C56       1.0  0.91144  0.48638  0.27641  1.0000
  C   C57       1.0  0.95531  0.50824  0.26656  1.0000
  C   C58       1.0  0.70669  0.37056  0.25130  1.0000
  C   C59       1.0  0.77894  0.40644  0.26590  1.0000
  C   C60       1.0  0.74340  0.40792  0.26348  1.0000
  H   H26       1.0  0.74390  0.43731  0.27258  1.0000
  H   H27       1.0  0.89368  0.50270  0.28301  1.0000
  H   H28       1.0  0.97055  0.54138  0.26858  1.0000
  B   B7        1.0  0.83684  0.41629  0.76681  1.0000
  B   B8        1.0  0.57791  0.42169  0.73436  1.0000
  C   C61       1.0  0.55514  0.44603  0.73587  1.0000
  C   C62       1.0  0.51012  0.49122  0.76178  1.0000
  B   B9        1.0  0.57301  0.15520  0.73137  1.0000
  B   B10       1.0  0.15593  0.57594  0.73642  1.0000
  C   C63       1.0  0.10903  0.55162  0.73381  1.0000
  C   C64       1.0  0.01878  0.50661  0.75538  1.0000
  B   B11       1.0  0.42096  0.58193  0.76632  1.0000
  B   B12       1.0  0.41767  0.84259  0.75617  1.0000
  O   O13       1.0  0.81330  0.37350  0.75266  1.0000
  C   C65       1.0  0.70073  0.33058  0.74191  1.0000
  C   C66       1.0  0.77362  0.36647  0.75065  1.0000
  C   C67       1.0  0.73842  0.32994  0.74033  1.0000
  H   H29       1.0  0.74003  0.30171  0.73310  1.0000
  O   O14       1.0  0.62019  0.43937  0.74160  1.0000
  C   C68       1.0  0.57254  0.48872  0.77232  1.0000
  C   C69       1.0  0.55040  0.51072  0.78608  1.0000
  C   C70       1.0  0.66236  0.36940  0.74746  1.0000
  C   C71       1.0  0.62665  0.40677  0.74473  1.0000
  C   C72       1.0  0.66264  0.40729  0.75172  1.0000
  H   H30       1.0  0.69054  0.43630  0.75822  1.0000
  H   H31       1.0  0.60310  0.50444  0.79530  1.0000
  H   H32       1.0  0.56380  0.54338  0.82160  1.0000
  O   O15       1.0  0.55453  0.17979  0.73284  1.0000
  C   C73       1.0  0.62433  0.29301  0.73604  1.0000
  C   C74       1.0  0.58731  0.21962  0.73233  1.0000
  C   C75       1.0  0.58626  0.25555  0.73522  1.0000
  H   H33       1.0  0.55691  0.25473  0.73579  1.0000
  O   O16       1.0  0.17840  0.61890  0.74757  1.0000
  C   C76       1.0  0.08524  0.57153  0.73958  1.0000
  C   C77       1.0  0.04118  0.54960  0.75136  1.0000
  C   C78       1.0  0.29210  0.66588  0.75465  1.0000
  C   C79       1.0  0.21865  0.62767  0.75024  1.0000
  C   C80       1.0  0.25376  0.66495  0.75475  1.0000
  H   H34       1.0  0.25197  0.69266  0.75514  1.0000
  H   H35       1.0  0.10152  0.60469  0.73566  1.0000
  H   H36       1.0  0.02413  0.56634  0.75604  1.0000
  O   O17       1.0  0.37753  0.56274  0.76703  1.0000
  C   C81       1.0  0.33201  0.62930  0.75556  1.0000
  C   C82       1.0  0.36989  0.59427  0.76029  1.0000
  C   C83       1.0  0.33276  0.59228  0.75674  1.0000
  H   H37       1.0  0.30487  0.56273  0.75640  1.0000
  O   O18       1.0  0.43649  0.81890  0.75957  1.0000
  C   C84       1.0  0.36874  0.70553  0.75825  1.0000
  C   C85       1.0  0.40442  0.77881  0.75915  1.0000
  C   C86       1.0  0.40610  0.74352  0.76002  1.0000
  H   H38       1.0  0.43535  0.74531  0.76418  1.0000
  O   O19       1.0  0.37464  0.81778  0.75476  1.0000
  C   C87       1.0  0.33045  0.70482  0.75696  1.0000
  C   C88       1.0  0.36704  0.77813  0.75727  1.0000
  C   C89       1.0  0.33015  0.74217  0.75629  1.0000
  H   H39       1.0  0.30213  0.74292  0.75234  1.0000
  O   O20       1.0  0.43977  0.62461  0.75980  1.0000
  C   C90       1.0  0.36948  0.66742  0.75817  1.0000
  C   C91       1.0  0.40710  0.63161  0.75860  1.0000
  C   C92       1.0  0.40759  0.66808  0.75872  1.0000
  H   H40       1.0  0.43655  0.69637  0.76157  1.0000
  O   O21       1.0  0.18156  0.55837  0.73354  1.0000
  C   C93       1.0  0.08676  0.50872  0.73899  1.0000
  C   C94       1.0  0.04281  0.48681  0.74925  1.0000
  C   C95       1.0  0.29306  0.62852  0.75292  1.0000
  C   C96       1.0  0.22017  0.59108  0.74405  1.0000
  C   C97       1.0  0.25618  0.59063  0.74697  1.0000
  H   H41       1.0  0.25575  0.56163  0.74398  1.0000
  H   H42       1.0  0.10413  0.49259  0.73742  1.0000
  H   H43       1.0  0.02702  0.45373  0.75225  1.0000
  O   O22       1.0  0.61639  0.17919  0.72987  1.0000
  C   C98       1.0  0.66214  0.29241  0.73590  1.0000
  C   C99       1.0  0.62460  0.21914  0.73014  1.0000
  C   C100      1.0  0.66172  0.25451  0.73318  1.0000
  H   H44       1.0  0.68920  0.25288  0.73773  1.0000
  O   O23       1.0  0.55873  0.37876  0.73077  1.0000
  C   C101      1.0  0.51496  0.42651  0.71136  1.0000
  C   C102      1.0  0.49313  0.44860  0.72296  1.0000
  C   C103      1.0  0.62489  0.33194  0.73789  1.0000
  C   C104      1.0  0.58980  0.37010  0.73638  1.0000
  C   C105      1.0  0.58819  0.33284  0.73211  1.0000
  H   H45       1.0  0.55968  0.30507  0.72118  1.0000
  H   H46       1.0  0.50117  0.39364  0.67979  1.0000
  H   H47       1.0  0.46337  0.43278  0.69479  1.0000
  O   O24       1.0  0.81225  0.43550  0.77289  1.0000
  C   C106      1.0  0.70050  0.36868  0.75043  1.0000
  C   C107      1.0  0.77314  0.40384  0.76166  1.0000
  C   C108      1.0  0.73768  0.40579  0.76078  1.0000
  H   H48       1.0  0.73873  0.43535  0.76884  1.0000
  C  Sn1       1.0  0.55303  0.05395  0.77545  1.0000
  C   C109      1.0  0.51010  0.02672  0.77996  1.0000
  C  Sn2       1.0  0.48672  0.03992  0.74154  1.0000
  C  Sn3       1.0  0.50667  0.08119  0.69756  1.0000
  C   C110      1.0  0.54958  0.10840  0.69303  1.0000
  C  Sn4       1.0  0.57298  0.09522  0.73147  1.0000
  O  Te1       1.0  0.57578  0.04009  0.81432  1.0000
  O  Te2       1.0  0.44384  0.01213  0.74698  1.0000
  O  Te3       1.0  0.48388  0.09504  0.65868  1.0000
  O  Te4       1.0  0.61584  0.12298  0.72602  1.0000
  Mg  Mg1       1.0  0.42627  0.04562  0.68358  1.0000
  Mg  Mg2       1.0  0.63345  0.08953  0.78929  1.0000
  C  Sn5       1.0  0.50223  0.57378  0.67930  1.0000
  C   C111      1.0  0.45631  0.55969  0.71719  1.0000
  C  Sn6       1.0  0.42235  0.52221  0.80234  1.0000
  C  Sn7       1.0  0.43453  0.49833  0.85074  1.0000
  C   C112      1.0  0.48042  0.51242  0.81288  1.0000
  C  Sn8       1.0  0.51441  0.54989  0.72770  1.0000
  O  Te5       1.0  0.53561  0.61134  0.59409  1.0000
  O  Te6       1.0  0.37669  0.50877  0.83876  1.0000
  O  Te7       1.0  0.40111  0.46075  0.93601  1.0000
  O  Te8       1.0  0.56005  0.56335  0.69131  1.0000
  Mg  Mg3       1.0  0.34361  0.45554  0.95716  1.0000
  Mg  Mg4       1.0  0.59314  0.61658  0.57302  1.0000
  C  Sn9       1.0  0.93672  0.50322  0.79872  1.0000
  C   C113      1.0  0.96267  0.48808  0.80823  1.0000
  C  Sn10      1.0  0.95092  0.44619  0.78292  1.0000
  C  Sn11      1.0  0.91243  0.41884  0.74724  1.0000
  C   C114      1.0  0.88651  0.43398  0.73771  1.0000
  C  Sn12      1.0  0.89824  0.47587  0.76304  1.0000
  O  Te9       1.0  0.94911  0.54522  0.82445  1.0000
  O  Te10      1.0  0.97737  0.43178  0.79313  1.0000
  O  Te11      1.0  0.90006  0.37681  0.72152  1.0000
  O  Te12      1.0  0.87181  0.49028  0.75281  1.0000
  Mg  Mg5       1.0  0.94678  0.37197  0.74834  1.0000
  Mg  Mg6       1.0  0.90239  0.55008  0.79748  1.0000
  C  Sn13      1.0  0.06719  0.55903  0.15864  1.0000
  C   C115      1.0  0.03784  0.51748  0.18770  1.0000
  C  Sn14      1.0  0.04432  0.49447  0.26632  1.0000
  C  Sn15      1.0  0.08087  0.51338  0.31709  1.0000
  C   C116      1.0  0.11018  0.55490  0.28807  1.0000
  C  Sn16      1.0  0.10374  0.57794  0.20941  1.0000
  O  Te13      1.0  0.06007  0.58144  0.07984  1.0000
  O  Te14      1.0  0.01454  0.45298  0.29396  1.0000
  O  Te15      1.0  0.08797  0.49092  0.39594  1.0000
  O  Te16      1.0  0.13348  0.61940  0.18181  1.0000
  Mg  Mg7       1.0  0.03828  0.43535  0.40602  1.0000
  Mg  Mg8       1.0  0.10977  0.63706  0.06986  1.0000
  C  Sn17      1.0  0.42942  0.91816  0.68043  1.0000
  C   C117      1.0  0.44358  0.89282  0.70214  1.0000
  C  Sn18      1.0  0.47747  0.90931  0.76321  1.0000
  C  Sn19      1.0  0.49760  0.95202  0.80355  1.0000
  C   C118      1.0  0.48344  0.97733  0.78187  1.0000
  C  Sn20      1.0  0.44955  0.96087  0.72077  1.0000
  O  Te17      1.0  0.39548  0.90101  0.61921  1.0000
  O  Te18      1.0  0.49107  0.88337  0.78378  1.0000
  O  Te19      1.0  0.53156  0.96916  0.86480  1.0000
  O  Te20      1.0  0.43594  0.98678  0.70023  1.0000
  Mg  Mg9       1.0  0.53854  0.92124  0.87125  1.0000
  Mg  Mg10      1.0  0.38846  0.94895  0.61288  1.0000
  C  Sn21      1.0  0.49299  0.92426  0.30254  1.0000
  C   C119      1.0  0.45017  0.89657  0.30706  1.0000
  C  Sn22      1.0  0.42743  0.90871  0.25942  1.0000
  C  Sn23      1.0  0.44793  0.94936  0.20604  1.0000
  C   C120      1.0  0.49073  0.97702  0.20151  1.0000
  C  Sn24      1.0  0.51349  0.96491  0.24916  1.0000
  O  Te21      1.0  0.51510  0.91146  0.35071  1.0000
  O  Te22      1.0  0.38464  0.88049  0.26505  1.0000
  O  Te23      1.0  0.42578  0.96214  0.15786  1.0000
  O  Te24      1.0  0.55626  0.99310  0.24351  1.0000
  Mg  Mg11      1.0  0.36805  0.91249  0.18698  1.0000
  Mg  Mg12      1.0  0.57289  0.96113  0.32145  1.0000
