data_image0
_chemical_formula_structural       OBOBOBOBOBOBOBOBOBOBOBOBOBOBOBOBOBOBOBOBOBOBOBOBOBOBOBOBOBOBOBOBOBOBOBOBOBOBOBOBOBOBOBOBOBOBOBOBC12SnCSn2CSnTe4Mg2SnCSn2CSnTe4Mg2SnCSn2CSnTe4Mg2SnCSn2CSnTe4Mg2SnCSn2CSnTe4Mg2SnCSn2CSnTe4Mg2SnCSn2CSnTe4Mg2SnCSn2CSnTe4Mg2SnCSn2CSnTe4Mg2SnCSn2CSnTe4Mg2SnCSn2CSnTe4Mg2SnCSn2CSnTe4Mg2SnCSn2CSnTe4Mg2SnCSn2CSnTe4Mg2SnCSn2CSnTe4Mg2SnCSn2CSnTe4Mg2SnCSn2CSnTe4Mg2SnCSn2CSnTe4Mg2SnCSn2CSnTe4Mg2SnCSn2CSnTe4Mg2SnCSn2CSnTe4Mg2SnCSn2CSnTe4Mg2SnCSn2CSnTe4Mg2SnCSn2CSnTe4Mg2SnCSn2CSnTe4Mg2SnCSn2CSnTe4Mg2SnCSn2CSnTe4Mg2SnCSn2CSnTe4Mg2SnCSn2CSnTe4Mg2SnCSn2CSnTe4Mg2SnCSn2CSnTe4Mg2SnCSn2CSnTe4Mg2SnCSn2CSnTe4Mg2SnCSn2CSnTe4Mg2SnCSn2CSnTe4Mg2SnCSn2CSnTe4Mg2SnCSn2CSnTe4Mg2SnCSn2CSnTe4Mg2SnCSn2CSnTe4Mg2SnCSn2CSnTe4Mg2SnCSn2CSnTe4Mg2SnCSn2CSnTe4Mg2SnCSn2CSnTe4Mg2SnCSn2CSnTe4Mg2SnCSn2CSnTe4Mg2SnCSn2CSnTe4Mg2SnCSn2CSnTe4Mg2SnCSn2CSnTe4Mg2
_chemical_formula_sum              "O48 B48 C108 Sn192 Te192 Mg96"
_cell_length_a       27.1793
_cell_length_b       27.1479
_cell_length_c       27.1311
_cell_angle_alpha    89.9687
_cell_angle_beta     90
_cell_angle_gamma    90.1412

_symmetry_space_group_name_H-M    'P1'
_space_group_IT_number       1

loop_
  _space_group_symop_operation_xyz
  'x, y, z'

loop_
  _atom_site_type_symbol
  _atom_site_label
  _atom_site_symmetry_multiplicity
  _atom_site_fract_x
  _atom_site_fract_y
  _atom_site_fract_z
  _atom_site_occupancy
  O   O1        1.0  0.82780  0.74488  0.30238  1.0000
  B   B1        1.0  0.83342  0.71515  0.26091  1.0000
  O   O2        1.0  0.32483  0.24493  0.80324  1.0000
  B   B2        1.0  0.33318  0.21308  0.76399  1.0000
  O   O3        1.0  0.67104  0.25739  0.80238  1.0000
  B   B3        1.0  0.66450  0.28884  0.76226  1.0000
  O   O4        1.0  0.17384  0.75752  0.30241  1.0000
  B   B4        1.0  0.16698  0.78869  0.26219  1.0000
  O   O5        1.0  0.17437  0.24474  0.19913  1.0000
  B   B5        1.0  0.16632  0.21246  0.23820  1.0000
  O   O6        1.0  0.67365  0.74275  0.69708  1.0000
  B   B6        1.0  0.66760  0.71439  0.73937  1.0000
  O   O7        1.0  0.32136  0.75037  0.70022  1.0000
  B   B7        1.0  0.32834  0.78173  0.74024  1.0000
  O   O8        1.0  0.82901  0.25693  0.19564  1.0000
  B   B8        1.0  0.83632  0.28820  0.23565  1.0000
  O   O9        1.0  0.29574  0.82054  0.74754  1.0000
  B   B9        1.0  0.25842  0.83029  0.71372  1.0000
  O   O10       1.0  0.80446  0.32757  0.24280  1.0000
  B   B10       1.0  0.76556  0.33578  0.21056  1.0000
  O   O11       1.0  0.80007  0.67709  0.25247  1.0000
  B   B11       1.0  0.76171  0.66798  0.28528  1.0000
  O   O12       1.0  0.30224  0.17270  0.75725  1.0000
  B   B12       1.0  0.26324  0.16415  0.78936  1.0000
  O   O13       1.0  0.19753  0.17244  0.24496  1.0000
  B   B13       1.0  0.23637  0.16429  0.21259  1.0000
  O   O14       1.0  0.70156  0.67740  0.74986  1.0000
  B   B14       1.0  0.74005  0.66783  0.71741  1.0000
  O   O15       1.0  0.69755  0.32747  0.75501  1.0000
  B   B15       1.0  0.73701  0.33443  0.78711  1.0000
  O   O16       1.0  0.19982  0.82744  0.25465  1.0000
  B   B16       1.0  0.23984  0.83437  0.28594  1.0000
  O   O17       1.0  0.74287  0.30278  0.82715  1.0000
  B   B17       1.0  0.71046  0.26361  0.83454  1.0000
  O   O18       1.0  0.24711  0.80213  0.32513  1.0000
  B   B18       1.0  0.21449  0.76326  0.33318  1.0000
  O   O19       1.0  0.25279  0.79966  0.67289  1.0000
  B   B19       1.0  0.28373  0.75919  0.66654  1.0000
  O   O20       1.0  0.75925  0.30480  0.17014  1.0000
  B   B20       1.0  0.78954  0.26396  0.16381  1.0000
  O   O21       1.0  0.24297  0.19560  0.17250  1.0000
  B   B21       1.0  0.21277  0.23646  0.16616  1.0000
  O   O22       1.0  0.74679  0.69783  0.67625  1.0000
  B   B22       1.0  0.71387  0.73570  0.66598  1.0000
  O   O23       1.0  0.75481  0.69969  0.32499  1.0000
  B   B23       1.0  0.78776  0.73804  0.33372  1.0000
  O   O24       1.0  0.25664  0.19497  0.82985  1.0000
  B   B24       1.0  0.28654  0.23617  0.83627  1.0000
  O   O25       1.0  0.99312  0.07726  0.55071  1.0000
  B   B25       1.0  0.96012  0.08525  0.51231  1.0000
  O   O26       1.0  0.49320  0.57777  0.05475  1.0000
  B   B26       1.0  0.46238  0.58456  0.01437  1.0000
  O   O27       1.0  0.50667  0.92013  0.05289  1.0000
  B   B27       1.0  0.53606  0.91483  0.01126  1.0000
  O   O28       1.0  0.00939  0.41963  0.55716  1.0000
  B   B28       1.0  0.03957  0.41245  0.51635  1.0000
  O   O29       1.0  0.48849  0.41754  0.44047  1.0000
  B   B29       1.0  0.45852  0.41141  0.48169  1.0000
  O   O30       1.0  0.99520  0.92480  0.94756  1.0000
  B   B30       1.0  0.96189  0.91541  0.98545  1.0000
  O   O31       1.0  0.00715  0.57753  0.94766  1.0000
  B   B31       1.0  0.03838  0.58452  0.98776  1.0000
  O   O32       1.0  0.50470  0.07508  0.44944  1.0000
  B   B32       1.0  0.53640  0.08329  0.48889  1.0000
  O   O33       1.0  0.07751  0.55238  0.99514  1.0000
  B   B33       1.0  0.08424  0.51225  0.96399  1.0000
  O   O34       1.0  0.57647  0.05212  0.49541  1.0000
  B   B34       1.0  0.58658  0.01485  0.46162  1.0000
  O   O35       1.0  0.91930  0.05461  0.50734  1.0000
  B   B35       1.0  0.91371  0.01367  0.53789  1.0000
  O   O36       1.0  0.42317  0.55236  0.00719  1.0000
  B   B36       1.0  0.41424  0.51396  0.03998  1.0000
  O   O37       1.0  0.42062  0.44475  0.49014  1.0000
  B   B37       1.0  0.41380  0.48498  0.45916  1.0000
  O   O38       1.0  0.92087  0.94552  0.99073  1.0000
  B   B38       1.0  0.91469  0.98687  0.96094  1.0000
  O   O39       1.0  0.57421  0.94807  0.00287  1.0000
  B   B39       1.0  0.58326  0.98620  0.03609  1.0000
  O   O40       1.0  0.07837  0.44489  0.50754  1.0000
  B   B40       1.0  0.08603  0.48513  0.53831  1.0000
  O   O41       1.0  0.55268  0.99204  0.07688  1.0000
  B   B41       1.0  0.51335  0.95996  0.08448  1.0000
  O   O42       1.0  0.05459  0.49274  0.57812  1.0000
  B   B42       1.0  0.01563  0.46065  0.58730  1.0000
  O   O43       1.0  0.05224  0.50500  0.92470  1.0000
  B   B43       1.0  0.01387  0.53773  0.91609  1.0000
  O   O44       1.0  0.55685  0.00983  0.42010  1.0000
  B   B44       1.0  0.51456  0.03828  0.41507  1.0000
  O   O45       1.0  0.44579  0.49232  0.41977  1.0000
  B   B45       1.0  0.48363  0.45900  0.41061  1.0000
  O   O46       1.0  0.94769  0.99514  0.92251  1.0000
  B   B46       1.0  0.98771  0.96401  0.91536  1.0000
  O   O47       1.0  0.94772  0.00521  0.57526  1.0000
  B   B47       1.0  0.98702  0.03750  0.58258  1.0000
  O   O48       1.0  0.44553  0.50742  0.08009  1.0000
  B   B48       1.0  0.48599  0.53832  0.08674  1.0000
  C   C1        1.0  0.00081  0.75085  0.12445  1.0000
  C   C2        1.0  0.49790  0.25061  0.62504  1.0000
  C   C3        1.0  0.00035  0.25025  0.37469  1.0000
  C   C4        1.0  0.49829  0.74917  0.87409  1.0000
  C   C5        1.0  0.12464  0.99999  0.74847  1.0000
  C   C6        1.0  0.62641  0.49938  0.24979  1.0000
  C   C7        1.0  0.37636  0.00112  0.24942  1.0000
  C   C8        1.0  0.87578  0.50009  0.75096  1.0000
  C   C9        1.0  0.74907  0.12460  0.99998  1.0000
  C   C10       1.0  0.25008  0.62401  0.49804  1.0000
  C   C11       1.0  0.24946  0.37509  0.00093  1.0000
  C   C12       1.0  0.74943  0.87427  0.49981  1.0000
  C  Sn1       1.0  0.90761  0.70231  0.14954  1.0000
  C   C13       1.0  0.94286  0.73986  0.15051  1.0000
  C  Sn2       1.0  0.94845  0.76926  0.19239  1.0000
  C  Sn3       1.0  0.91820  0.76093  0.23418  1.0000
  C   C14       1.0  0.88299  0.72339  0.23320  1.0000
  C  Sn4       1.0  0.87736  0.69398  0.19133  1.0000
  O  Te1       1.0  0.90266  0.67338  0.10727  1.0000
  O  Te2       1.0  0.98394  0.80659  0.19248  1.0000
  O  Te3       1.0  0.92318  0.78990  0.27646  1.0000
  O  Te4       1.0  0.84191  0.65667  0.19123  1.0000
  Mg  Mg1       1.0  0.97673  0.83619  0.25875  1.0000
  Mg  Mg2       1.0  0.84910  0.62703  0.12499  1.0000
  C  Sn5       1.0  0.40688  0.17956  0.69425  1.0000
  C   C15       1.0  0.38815  0.21152  0.72995  1.0000
  C  Sn6       1.0  0.40004  0.26159  0.72883  1.0000
  C  Sn7       1.0  0.43127  0.28013  0.69124  1.0000
  C   C16       1.0  0.44998  0.24818  0.65556  1.0000
  C  Sn8       1.0  0.43812  0.19809  0.65665  1.0000
  O  Te5       1.0  0.39451  0.12963  0.69607  1.0000
  O  Te6       1.0  0.38088  0.29282  0.76493  1.0000
  O  Te7       1.0  0.44364  0.33010  0.68944  1.0000
  O  Te8       1.0  0.45725  0.16687  0.62057  1.0000
  Mg  Mg3       1.0  0.40836  0.35796  0.74679  1.0000
  Mg  Mg4       1.0  0.42977  0.10174  0.63866  1.0000
  C  Sn9       1.0  0.55165  0.23440  0.71488  1.0000
  C   C17       1.0  0.53606  0.26349  0.67537  1.0000
  C  Sn10      1.0  0.56639  0.30075  0.65683  1.0000
  C  Sn11      1.0  0.61329  0.30910  0.67821  1.0000
  C   C18       1.0  0.62887  0.28002  0.71769  1.0000
  C  Sn12      1.0  0.59856  0.24274  0.73626  1.0000
  O  Te9       1.0  0.52073  0.19734  0.73281  1.0000
  O  Te10      1.0  0.54999  0.32937  0.61732  1.0000
  O  Te11      1.0  0.64422  0.34619  0.66024  1.0000
  O  Te12      1.0  0.61494  0.21413  0.77574  1.0000
  Mg  Mg5       1.0  0.60546  0.37539  0.60586  1.0000
  Mg  Mg6       1.0  0.55952  0.16809  0.78721  1.0000
  C  Sn13      1.0  0.09464  0.72484  0.21480  1.0000
  C   C19       1.0  0.12644  0.76532  0.21691  1.0000
  C  Sn14      1.0  0.11481  0.80892  0.19221  1.0000
  C  Sn15      1.0  0.07047  0.81215  0.16485  1.0000
  C   C20       1.0  0.03870  0.77169  0.16275  1.0000
  C  Sn16      1.0  0.05030  0.72807  0.18744  1.0000
  O  Te13      1.0  0.10700  0.68162  0.23978  1.0000
  O  Te14      1.0  0.14719  0.84890  0.19484  1.0000
  O  Te15      1.0  0.05813  0.85542  0.13985  1.0000
  O  Te16      1.0  0.01795  0.68812  0.18481  1.0000
  Mg  Mg7       1.0  0.11410  0.89983  0.15456  1.0000
  Mg  Mg8       1.0  0.05099  0.63718  0.22510  1.0000
  C  Sn17      1.0  0.05553  0.26914  0.28629  1.0000
  C   C21       1.0  0.03841  0.23884  0.32429  1.0000
  C  Sn18      1.0  0.06713  0.19982  0.34143  1.0000
  C  Sn19      1.0  0.11394  0.19091  0.32018  1.0000
  C   C22       1.0  0.13104  0.22121  0.28221  1.0000
  C  Sn20      1.0  0.10234  0.26024  0.26504  1.0000
  O  Te17      1.0  0.02620  0.30795  0.26973  1.0000
  O  Te18      1.0  0.04922  0.17002  0.37945  1.0000
  O  Te19      1.0  0.14327  0.15207  0.33677  1.0000
  O  Te20      1.0  0.12023  0.29003  0.22705  1.0000
  Mg  Mg9       1.0  0.10281  0.12176  0.38938  1.0000
  Mg  Mg10      1.0  0.06668  0.33832  0.21711  1.0000
  C  Sn21      1.0  0.59417  0.70561  0.85155  1.0000
  C   C23       1.0  0.55660  0.74046  0.84789  1.0000
  C  Sn22      1.0  0.54902  0.76604  0.80386  1.0000
  C  Sn23      1.0  0.57962  0.75656  0.76261  1.0000
  C   C24       1.0  0.61716  0.72171  0.76628  1.0000
  C  Sn24      1.0  0.62477  0.69612  0.81030  1.0000
  O  Te21      1.0  0.60108  0.68047  0.89592  1.0000
  O  Te22      1.0  0.51123  0.80073  0.80110  1.0000
  O  Te23      1.0  0.57268  0.78173  0.71821  1.0000
  O  Te24      1.0  0.66253  0.66145  0.81307  1.0000
  Mg  Mg11      1.0  0.51635  0.82548  0.73263  1.0000
  Mg  Mg12      1.0  0.65743  0.63666  0.88151  1.0000
  C  Sn25      1.0  0.40377  0.72021  0.78542  1.0000
  C   C25       1.0  0.37068  0.75952  0.78429  1.0000
  C  Sn26      1.0  0.38149  0.80336  0.80900  1.0000
  C  Sn27      1.0  0.42632  0.80803  0.83535  1.0000
  C   C26       1.0  0.45939  0.76875  0.83646  1.0000
  C  Sn28      1.0  0.44861  0.72489  0.81177  1.0000
  O  Te25      1.0  0.39221  0.67673  0.76045  1.0000
  O  Te26      1.0  0.34782  0.84213  0.80735  1.0000
  O  Te27      1.0  0.43786  0.85157  0.86032  1.0000
  O  Te28      1.0  0.48225  0.68613  0.81340  1.0000
  Mg  Mg13      1.0  0.38020  0.89398  0.84719  1.0000
  Mg  Mg14      1.0  0.44992  0.63428  0.77356  1.0000
  C  Sn29      1.0  0.90922  0.22492  0.28166  1.0000
  C   C27       1.0  0.87655  0.26457  0.28033  1.0000
  C  Sn30      1.0  0.88655  0.30745  0.30698  1.0000
  C  Sn31      1.0  0.93014  0.31079  0.33554  1.0000
  C   C28       1.0  0.96279  0.27117  0.33686  1.0000
  C  Sn32      1.0  0.95281  0.22826  0.31022  1.0000
  O  Te29      1.0  0.89848  0.18241  0.25472  1.0000
  O  Te30      1.0  0.85332  0.34659  0.30509  1.0000
  O  Te31      1.0  0.94086  0.35334  0.36249  1.0000
  O  Te32      1.0  0.98602  0.18914  0.31210  1.0000
  Mg  Mg15      1.0  0.88423  0.39675  0.34813  1.0000
  Mg  Mg16      1.0  0.95516  0.13898  0.26906  1.0000
  C  Sn33      1.0  0.21378  0.94526  0.76632  1.0000
  C   C29       1.0  0.17547  0.96157  0.73613  1.0000
  C  Sn34      1.0  0.15696  0.93131  0.69883  1.0000
  C  Sn35      1.0  0.17714  0.88373  0.69156  1.0000
  C   C30       1.0  0.21542  0.86744  0.72175  1.0000
  C  Sn36      1.0  0.23396  0.89769  0.75906  1.0000
  O  Te33      1.0  0.23170  0.97614  0.80339  1.0000
  O  Te34      1.0  0.11866  0.94843  0.66910  1.0000
  O  Te35      1.0  0.15918  0.85285  0.65446  1.0000
  O  Te36      1.0  0.27223  0.88058  0.78878  1.0000
  Mg  Mg17      1.0  0.10670  0.89274  0.62353  1.0000
  Mg  Mg18      1.0  0.28420  0.93623  0.83438  1.0000
  C  Sn37      1.0  0.71409  0.44417  0.27027  1.0000
  C   C31       1.0  0.67707  0.46186  0.23925  1.0000
  C  Sn38      1.0  0.66198  0.43446  0.19837  1.0000
  C  Sn39      1.0  0.68433  0.38840  0.18829  1.0000
  C   C32       1.0  0.72132  0.37073  0.21930  1.0000
  C  Sn40      1.0  0.73644  0.39811  0.26019  1.0000
  O  Te37      1.0  0.72859  0.47218  0.31093  1.0000
  O  Te38      1.0  0.62492  0.45292  0.16788  1.0000
  O  Te39      1.0  0.66980  0.36039  0.14758  1.0000
  O  Te40      1.0  0.77348  0.37967  0.29066  1.0000
  Mg  Mg19      1.0  0.61781  0.40116  0.11698  1.0000
  Mg  Mg20      1.0  0.78060  0.43138  0.34159  1.0000
  C  Sn41      1.0  0.69291  0.59319  0.32079  1.0000
  C   C33       1.0  0.72920  0.61149  0.28916  1.0000
  C  Sn42      1.0  0.72975  0.59786  0.23952  1.0000
  C  Sn43      1.0  0.69326  0.56528  0.22111  1.0000
  C   C34       1.0  0.65700  0.54701  0.25273  1.0000
  C  Sn44      1.0  0.65642  0.56061  0.30238  1.0000
  O  Te41      1.0  0.69307  0.60732  0.37028  1.0000
  O  Te42      1.0  0.76641  0.61663  0.20861  1.0000
  O  Te43      1.0  0.69313  0.55117  0.17158  1.0000
  O  Te44      1.0  0.61979  0.54188  0.33328  1.0000
  Mg  Mg21      1.0  0.75065  0.58656  0.14403  1.0000
  Mg  Mg22      1.0  0.63549  0.57193  0.39786  1.0000
  C  Sn45      1.0  0.21410  0.05351  0.73165  1.0000
  C   C35       1.0  0.17478  0.03777  0.76094  1.0000
  C  Sn46      1.0  0.15759  0.06727  0.79939  1.0000
  C  Sn47      1.0  0.18014  0.11350  0.80876  1.0000
  C   C36       1.0  0.21942  0.12923  0.77948  1.0000
  C  Sn48      1.0  0.23665  0.09974  0.74102  1.0000
  O  Te45      1.0  0.23067  0.02342  0.69340  1.0000
  O  Te46      1.0  0.11825  0.05073  0.82818  1.0000
  O  Te47      1.0  0.16353  0.14359  0.84705  1.0000
  O  Te48      1.0  0.27596  0.11626  0.71224  1.0000
  Mg  Mg23      1.0  0.10885  0.10496  0.87601  1.0000
  Mg  Mg24      1.0  0.28537  0.06208  0.66439  1.0000
  C  Sn49      1.0  0.28589  0.05239  0.26679  1.0000
  C   C37       1.0  0.32577  0.03837  0.23752  1.0000
  C  Sn50      1.0  0.34329  0.06966  0.20055  1.0000
  C  Sn51      1.0  0.32050  0.11595  0.19270  1.0000
  C   C38       1.0  0.28065  0.12995  0.22197  1.0000
  C  Sn52      1.0  0.26310  0.09868  0.25894  1.0000
  O  Te49      1.0  0.26898  0.02053  0.30354  1.0000
  O  Te50      1.0  0.38320  0.05482  0.17174  1.0000
  O  Te51      1.0  0.33744  0.14781  0.15592  1.0000
  O  Te52      1.0  0.22322  0.11350  0.28775  1.0000
  Mg  Mg25      1.0  0.39287  0.11110  0.12629  1.0000
  Mg  Mg26      1.0  0.21353  0.05727  0.33322  1.0000
  C  Sn53      1.0  0.80874  0.59446  0.68205  1.0000
  C   C39       1.0  0.77305  0.61254  0.71436  1.0000
  C  Sn54      1.0  0.77313  0.59843  0.76389  1.0000
  C  Sn55      1.0  0.80965  0.56560  0.78149  1.0000
  C   C40       1.0  0.84531  0.54755  0.74918  1.0000
  C  Sn56      1.0  0.84526  0.56163  0.69965  1.0000
  O  Te53      1.0  0.80796  0.60906  0.63269  1.0000
  O  Te54      1.0  0.73706  0.61698  0.79549  1.0000
  O  Te55      1.0  0.81040  0.55101  0.83089  1.0000
  O  Te56      1.0  0.88130  0.54311  0.66806  1.0000
  Mg  Mg27      1.0  0.75354  0.58626  0.85958  1.0000
  Mg  Mg28      1.0  0.86487  0.57382  0.60397  1.0000
  C  Sn57      1.0  0.84719  0.41006  0.80395  1.0000
  C   C41       1.0  0.84955  0.44235  0.76388  1.0000
  C  Sn58      1.0  0.81042  0.44547  0.73067  1.0000
  C  Sn59      1.0  0.76801  0.41572  0.73766  1.0000
  C   C42       1.0  0.76566  0.38346  0.77771  1.0000
  C  Sn60      1.0  0.80479  0.38031  0.81094  1.0000
  O  Te57      1.0  0.88675  0.40755  0.83670  1.0000
  O  Te58      1.0  0.81364  0.47801  0.69088  1.0000
  O  Te59      1.0  0.72844  0.41826  0.70487  1.0000
  O  Te60      1.0  0.80158  0.34780  0.85072  1.0000
  Mg  Mg29      1.0  0.75020  0.46823  0.65633  1.0000
  Mg  Mg30      1.0  0.86498  0.35757  0.88530  1.0000
  C  Sn61      1.0  0.28658  0.94779  0.23260  1.0000
  C   C43       1.0  0.32621  0.96289  0.26178  1.0000
  C  Sn62      1.0  0.34497  0.93178  0.29821  1.0000
  C  Sn63      1.0  0.32370  0.88460  0.30561  1.0000
  C   C44       1.0  0.28410  0.86952  0.27644  1.0000
  C  Sn64      1.0  0.26531  0.90061  0.24000  1.0000
  O  Te61      1.0  0.26842  0.97949  0.19639  1.0000
  O  Te62      1.0  0.38460  0.94769  0.32694  1.0000
  O  Te63      1.0  0.34190  0.85290  0.34186  1.0000
  O  Te64      1.0  0.22571  0.88472  0.21128  1.0000
  Mg  Mg31      1.0  0.39636  0.89122  0.37158  1.0000
  Mg  Mg32      1.0  0.21394  0.94114  0.16661  1.0000
  C  Sn65      1.0  0.76345  0.21648  0.94830  1.0000
  C   C45       1.0  0.73579  0.17531  0.96225  1.0000
  C  Sn66      1.0  0.70040  0.15573  0.93044  1.0000
  C  Sn67      1.0  0.69250  0.17773  0.88368  1.0000
  C   C46       1.0  0.72016  0.21887  0.86975  1.0000
  C  Sn68      1.0  0.75556  0.23848  0.90155  1.0000
  O  Te65      1.0  0.79865  0.23544  0.98070  1.0000
  O  Te66      1.0  0.67318  0.11456  0.94521  1.0000
  O  Te67      1.0  0.65728  0.15874  0.85128  1.0000
  O  Te68      1.0  0.78277  0.27962  0.88679  1.0000
  Mg  Mg33      1.0  0.62949  0.10220  0.88813  1.0000
  Mg  Mg34      1.0  0.82649  0.29199  0.94383  1.0000
  C  Sn69      1.0  0.18031  0.69147  0.40477  1.0000
  C   C47       1.0  0.21199  0.72825  0.38751  1.0000
  C  Sn70      1.0  0.26147  0.72860  0.40143  1.0000
  C  Sn71      1.0  0.27967  0.69141  0.43326  1.0000
  C   C48       1.0  0.24800  0.65466  0.45051  1.0000
  C  Sn72      1.0  0.19851  0.65428  0.43660  1.0000
  O  Te69      1.0  0.13098  0.69184  0.39037  1.0000
  O  Te70      1.0  0.29243  0.76576  0.38371  1.0000
  O  Te71      1.0  0.32904  0.69107  0.44766  1.0000
  O  Te72      1.0  0.16756  0.61715  0.45431  1.0000
  Mg  Mg35      1.0  0.35674  0.74947  0.41378  1.0000
  Mg  Mg36      1.0  0.10325  0.63339  0.42424  1.0000
  C  Sn73      1.0  0.31937  0.68861  0.59399  1.0000
  C   C49       1.0  0.28824  0.72570  0.61122  1.0000
  C  Sn74      1.0  0.23915  0.72743  0.59609  1.0000
  C  Sn75      1.0  0.22078  0.69133  0.56306  1.0000
  C   C50       1.0  0.25190  0.65426  0.54584  1.0000
  C  Sn76      1.0  0.30101  0.65251  0.56096  1.0000
  O  Te73      1.0  0.36832  0.68759  0.60961  1.0000
  O  Te74      1.0  0.20874  0.76487  0.61381  1.0000
  O  Te75      1.0  0.17179  0.69238  0.54744  1.0000
  O  Te76      1.0  0.33141  0.61509  0.54326  1.0000
  Mg  Mg37      1.0  0.14479  0.75063  0.58183  1.0000
  Mg  Mg38      1.0  0.39535  0.62928  0.57523  1.0000
  C  Sn77      1.0  0.82020  0.18831  0.09489  1.0000
  C   C51       1.0  0.79050  0.22694  0.11125  1.0000
  C  Sn78      1.0  0.74136  0.22989  0.09647  1.0000
  C  Sn79      1.0  0.72148  0.19347  0.06469  1.0000
  C   C52       1.0  0.75117  0.15486  0.04835  1.0000
  C  Sn80      1.0  0.80031  0.15188  0.06311  1.0000
  O  Te77      1.0  0.86922  0.18608  0.11014  1.0000
  O  Te78      1.0  0.71240  0.26887  0.11330  1.0000
  O  Te79      1.0  0.67242  0.19572  0.04945  1.0000
  O  Te80      1.0  0.82927  0.11293  0.04630  1.0000
  Mg  Mg39      1.0  0.64772  0.25587  0.08229  1.0000
  Mg  Mg40      1.0  0.89394  0.12588  0.07731  1.0000
  C  Sn81      1.0  0.26877  0.28618  0.05485  1.0000
  C   C53       1.0  0.23833  0.32435  0.03875  1.0000
  C  Sn82      1.0  0.19966  0.34085  0.06832  1.0000
  C  Sn83      1.0  0.19126  0.31877  0.11496  1.0000
  C   C54       1.0  0.22170  0.28063  0.13104  1.0000
  C  Sn84      1.0  0.26037  0.26409  0.10150  1.0000
  O  Te81      1.0  0.30721  0.27027  0.02469  1.0000
  O  Te82      1.0  0.16971  0.37906  0.05142  1.0000
  O  Te83      1.0  0.15278  0.33471  0.14512  1.0000
  O  Te84      1.0  0.29032  0.22592  0.11837  1.0000
  Mg  Mg41      1.0  0.12208  0.38789  0.10590  1.0000
  Mg  Mg42      1.0  0.33798  0.21708  0.06394  1.0000
  C  Sn85      1.0  0.69461  0.84225  0.58701  1.0000
  C   C55       1.0  0.73542  0.84596  0.55588  1.0000
  C  Sn86      1.0  0.76980  0.80787  0.55359  1.0000
  C  Sn87      1.0  0.76324  0.76515  0.58300  1.0000
  C   C56       1.0  0.72245  0.76144  0.61410  1.0000
  C  Sn88      1.0  0.68805  0.79953  0.61642  1.0000
  O  Te85      1.0  0.66071  0.88078  0.58870  1.0000
  O  Te86      1.0  0.81031  0.81244  0.52220  1.0000
  O  Te87      1.0  0.79719  0.72661  0.58129  1.0000
  O  Te88      1.0  0.64756  0.79497  0.64778  1.0000
  Mg  Mg43      1.0  0.84636  0.75004  0.53278  1.0000
  Mg  Mg44      1.0  0.61147  0.85733  0.63721  1.0000
  C  Sn89      1.0  0.82206  0.80505  0.41054  1.0000
  C   C57       1.0  0.78985  0.77042  0.39015  1.0000
  C  Sn90      1.0  0.73950  0.77264  0.40020  1.0000
  C  Sn91      1.0  0.72095  0.81028  0.43126  1.0000
  C   C58       1.0  0.75315  0.84489  0.45162  1.0000
  C  Sn92      1.0  0.80352  0.84269  0.44159  1.0000
  O  Te89      1.0  0.87226  0.80212  0.39998  1.0000
  O  Te90      1.0  0.70801  0.73759  0.37941  1.0000
  O  Te91      1.0  0.67071  0.81318  0.44180  1.0000
  O  Te92      1.0  0.83499  0.87771  0.46236  1.0000
  Mg  Mg45      1.0  0.64256  0.75701  0.40473  1.0000
  Mg  Mg46      1.0  0.90044  0.85834  0.43704  1.0000
  C  Sn93      1.0  0.30177  0.34654  0.91109  1.0000
  C   C59       1.0  0.26204  0.34825  0.94374  1.0000
  C  Sn94      1.0  0.22970  0.30836  0.94756  1.0000
  C  Sn95      1.0  0.23724  0.26586  0.91816  1.0000
  C   C60       1.0  0.27695  0.26416  0.88554  1.0000
  C  Sn96      1.0  0.30931  0.30404  0.88169  1.0000
  O  Te93      1.0  0.33364  0.38685  0.90788  1.0000
  O  Te94      1.0  0.19023  0.31093  0.98045  1.0000
  O  Te95      1.0  0.20533  0.22554  0.92139  1.0000
  O  Te96      1.0  0.34876  0.30148  0.84883  1.0000
  Mg  Mg47      1.0  0.15693  0.24659  0.97161  1.0000
  Mg  Mg48      1.0  0.38210  0.36578  0.85766  1.0000
  C  Sn97      1.0  0.01161  0.17392  0.48255  1.0000
  C   C61       1.0  0.97142  0.14174  0.48356  1.0000
  C  Sn98      1.0  0.93966  0.13853  0.44320  1.0000
  C  Sn99      1.0  0.94828  0.16808  0.40093  1.0000
  C   C62       1.0  0.98846  0.20023  0.39993  1.0000
  C  Sn100     1.0  0.02023  0.20347  0.44028  1.0000
  O  Te97      1.0  0.04288  0.17653  0.52332  1.0000
  O  Te98      1.0  0.89971  0.10609  0.44508  1.0000
  O  Te99      1.0  0.91697  0.16544  0.36015  1.0000
  O  Te100     1.0  0.06016  0.23588  0.43841  1.0000
  Mg  Mg49      1.0  0.86756  0.11569  0.38031  1.0000
  Mg  Mg50      1.0  0.09235  0.22629  0.50314  1.0000
  C  Sn101     1.0  0.43431  0.67426  0.91873  1.0000
  C   C63       1.0  0.47339  0.70779  0.91736  1.0000
  C  Sn102     1.0  0.51631  0.69877  0.94418  1.0000
  C  Sn103     1.0  0.52027  0.65532  0.97295  1.0000
  C   C64       1.0  0.48121  0.62182  0.97430  1.0000
  C  Sn104     1.0  0.43827  0.63081  0.94750  1.0000
  O  Te101     1.0  0.39175  0.68402  0.89163  1.0000
  O  Te102     1.0  0.55488  0.73284  0.94225  1.0000
  O  Te103     1.0  0.56287  0.64613  0.00007  1.0000
  O  Te104     1.0  0.39972  0.59677  0.94942  1.0000
  Mg  Mg51      1.0  0.60536  0.70311  0.98557  1.0000
  Mg  Mg52      1.0  0.34924  0.62645  0.90610  1.0000
  C  Sn105     1.0  0.46727  0.81878  0.94792  1.0000
  C   C65       1.0  0.49568  0.80453  0.90746  1.0000
  C  Sn106     1.0  0.54367  0.82221  0.90188  1.0000
  C  Sn107     1.0  0.56369  0.85481  0.93750  1.0000
  C   C66       1.0  0.53529  0.86904  0.97793  1.0000
  C  Sn108     1.0  0.48730  0.85138  0.98354  1.0000
  O  Te105     1.0  0.41939  0.80064  0.95275  1.0000
  O  Te106     1.0  0.57135  0.80745  0.86111  1.0000
  O  Te107     1.0  0.61162  0.87294  0.93263  1.0000
  O  Te108     1.0  0.45962  0.86666  0.02428  1.0000
  Mg  Mg53      1.0  0.63479  0.84212  0.87077  1.0000
  Mg  Mg54      1.0  0.39619  0.83199  0.01467  1.0000
  C  Sn109     1.0  0.98840  0.32272  0.48546  1.0000
  C   C67       1.0  0.02836  0.35513  0.48774  1.0000
  C  Sn110     1.0  0.06020  0.36005  0.44761  1.0000
  C  Sn111     1.0  0.05191  0.33201  0.40429  1.0000
  C   C68       1.0  0.01197  0.29963  0.40203  1.0000
  C  Sn112     1.0  0.98011  0.29468  0.44215  1.0000
  O  Te109     1.0  0.95703  0.31840  0.52602  1.0000
  O  Te110     1.0  0.09991  0.39268  0.45076  1.0000
  O  Te111     1.0  0.08332  0.33635  0.36372  1.0000
  O  Te112     1.0  0.94042  0.26208  0.43901  1.0000
  Mg  Mg55      1.0  0.13231  0.38569  0.38579  1.0000
  Mg  Mg56      1.0  0.90798  0.26906  0.50394  1.0000
  C  Sn113     1.0  0.52837  0.32125  0.55167  1.0000
  C   C69       1.0  0.49807  0.30529  0.59014  1.0000
  C  Sn114     1.0  0.44843  0.31844  0.59126  1.0000
  C  Sn115     1.0  0.42864  0.34814  0.55312  1.0000
  C   C70       1.0  0.45893  0.36408  0.51467  1.0000
  C  Sn116     1.0  0.50858  0.35095  0.51352  1.0000
  O  Te113     1.0  0.57789  0.30766  0.55130  1.0000
  O  Te114     1.0  0.41887  0.30205  0.63012  1.0000
  O  Te115     1.0  0.37908  0.36173  0.55352  1.0000
  O  Te116     1.0  0.53813  0.36731  0.47470  1.0000
  Mg  Mg57      1.0  0.35366  0.33028  0.61426  1.0000
  Mg  Mg58      1.0  0.60333  0.33909  0.49050  1.0000
  C  Sn117     1.0  0.03094  0.82165  0.05139  1.0000
  C   C71       1.0  0.00122  0.80550  0.09024  1.0000
  C  Sn118     1.0  0.95217  0.82042  0.09334  1.0000
  C  Sn119     1.0  0.93239  0.85212  0.05684  1.0000
  C   C72       1.0  0.96210  0.86824  0.01802  1.0000
  C  Sn120     1.0  0.01116  0.85335  0.01489  1.0000
  O  Te117     1.0  0.07987  0.80626  0.04902  1.0000
  O  Te118     1.0  0.92319  0.80381  0.13253  1.0000
  O  Te119     1.0  0.88341  0.86750  0.05924  1.0000
  O  Te120     1.0  0.04013  0.86939  0.97572  1.0000
  Mg  Mg59      1.0  0.85865  0.83495  0.11967  1.0000
  Mg  Mg60      1.0  0.10466  0.83826  0.98854  1.0000
  C  Sn121     1.0  0.06647  0.67760  0.08018  1.0000
  C   C73       1.0  0.02629  0.70959  0.08172  1.0000
  C  Sn122     1.0  0.98298  0.69811  0.05644  1.0000
  C  Sn123     1.0  0.97976  0.65372  0.02907  1.0000
  C   C74       1.0  0.01992  0.62177  0.02754  1.0000
  C  Sn124     1.0  0.06325  0.63322  0.05281  1.0000
  O  Te121     1.0  0.10940  0.68982  0.10573  1.0000
  O  Te122     1.0  0.94330  0.73067  0.05852  1.0000
  O  Te123     1.0  0.93678  0.64152  0.00351  1.0000
  O  Te124     1.0  0.10290  0.60068  0.05074  1.0000
  Mg  Mg61      1.0  0.89271  0.69772  0.01757  1.0000
  Mg  Mg62      1.0  0.15350  0.63358  0.09170  1.0000
  C  Sn125     1.0  0.56449  0.17948  0.57868  1.0000
  C   C75       1.0  0.52298  0.20960  0.58181  1.0000
  C  Sn126     1.0  0.47911  0.19584  0.55874  1.0000
  C  Sn127     1.0  0.47666  0.15102  0.53200  1.0000
  C   C76       1.0  0.51814  0.12093  0.52888  1.0000
  C  Sn128     1.0  0.56203  0.13466  0.55193  1.0000
  O  Te125     1.0  0.60796  0.19396  0.60203  1.0000
  O  Te126     1.0  0.43811  0.22656  0.56238  1.0000
  O  Te127     1.0  0.43314  0.13655  0.50863  1.0000
  O  Te128     1.0  0.60302  0.10396  0.54831  1.0000
  Mg  Mg63      1.0  0.38722  0.19084  0.52422  1.0000
  Mg  Mg64      1.0  0.65391  0.13963  0.58647  1.0000
  C  Sn129     1.0  0.13754  0.42175  0.94307  1.0000
  C   C77       1.0  0.12123  0.45997  0.97340  1.0000
  C  Sn130     1.0  0.15084  0.47785  0.01177  1.0000
  C  Sn131     1.0  0.19773  0.45657  0.01999  1.0000
  C   C78       1.0  0.21401  0.41783  0.98967  1.0000
  C  Sn132     1.0  0.18443  0.40046  0.95129  1.0000
  O  Te129     1.0  0.10733  0.40501  0.90493  1.0000
  O  Te130     1.0  0.13373  0.51609  0.04160  1.0000
  O  Te131     1.0  0.22793  0.47335  0.05817  1.0000
  O  Te132     1.0  0.20151  0.36226  0.92146  1.0000
  Mg  Mg65      1.0  0.18836  0.52622  0.08882  1.0000
  Mg  Mg66      1.0  0.14693  0.35211  0.87423  1.0000
  C  Sn133     1.0  0.64209  0.92667  0.43779  1.0000
  C   C79       1.0  0.62428  0.96317  0.46936  1.0000
  C  Sn134     1.0  0.65123  0.97718  0.51092  1.0000
  C  Sn135     1.0  0.69695  0.95425  0.52112  1.0000
  C   C80       1.0  0.71474  0.91778  0.48956  1.0000
  C  Sn136     1.0  0.68781  0.90374  0.44800  1.0000
  O  Te133     1.0  0.61454  0.91325  0.39646  1.0000
  O  Te134     1.0  0.63020  0.01375  0.54195  1.0000
  O  Te135     1.0  0.72450  0.96770  0.56249  1.0000
  O  Te136     1.0  0.70636  0.86720  0.41698  1.0000
  Mg  Mg67      1.0  0.68130  0.01937  0.59366  1.0000
  Mg  Mg68      1.0  0.65531  0.86157  0.36524  1.0000
  C  Sn137     1.0  0.85959  0.92337  0.55976  1.0000
  C   C81       1.0  0.87630  0.96137  0.52924  1.0000
  C  Sn138     1.0  0.84741  0.97789  0.49003  1.0000
  C  Sn139     1.0  0.80082  0.95599  0.48114  1.0000
  C   C82       1.0  0.78412  0.91802  0.51164  1.0000
  C  Sn140     1.0  0.81300  0.90147  0.55087  1.0000
  O  Te137     1.0  0.88909  0.90744  0.59875  1.0000
  O  Te138     1.0  0.86245  0.01593  0.46001  1.0000
  O  Te139     1.0  0.77132  0.97195  0.44210  1.0000
  O  Te140     1.0  0.79552  0.86346  0.58087  1.0000
  Mg  Mg69      1.0  0.80875  0.02486  0.41154  1.0000
  Mg  Mg70      1.0  0.84917  0.85452  0.62937  1.0000
  C  Sn141     1.0  0.31877  0.42349  0.06821  1.0000
  C   C83       1.0  0.28884  0.41982  0.02648  1.0000
  C  Sn142     1.0  0.30224  0.44276  0.98266  1.0000
  C  Sn143     1.0  0.34650  0.47047  0.98048  1.0000
  C   C84       1.0  0.37640  0.47466  0.02218  1.0000
  C  Sn144     1.0  0.36303  0.45119  0.06603  1.0000
  O  Te141     1.0  0.30465  0.39970  0.11164  1.0000
  O  Te142     1.0  0.27171  0.43858  0.94143  1.0000
  O  Te143     1.0  0.36060  0.49427  0.93700  1.0000
  O  Te144     1.0  0.39353  0.45536  0.10724  1.0000
  Mg  Mg71      1.0  0.30678  0.47765  0.89071  1.0000
  Mg  Mg72      1.0  0.35851  0.41629  0.15796  1.0000
  C  Sn145     1.0  0.32082  0.57704  0.43150  1.0000
  C   C85       1.0  0.29008  0.58016  0.47267  1.0000
  C  Sn146     1.0  0.30257  0.55622  0.51649  1.0000
  C  Sn147     1.0  0.34672  0.52861  0.51923  1.0000
  C   C86       1.0  0.37743  0.52551  0.47809  1.0000
  C  Sn148     1.0  0.36496  0.54943  0.43424  1.0000
  O  Te145     1.0  0.30760  0.60127  0.38807  1.0000
  O  Te146     1.0  0.27125  0.55987  0.55715  1.0000
  O  Te147     1.0  0.35991  0.50437  0.56271  1.0000
  O  Te148     1.0  0.39626  0.54580  0.39360  1.0000
  Mg  Mg73      1.0  0.30523  0.52034  0.60811  1.0000
  Mg  Mg74      1.0  0.36233  0.58534  0.34264  1.0000
  C  Sn149     1.0  0.81914  0.05111  0.03012  1.0000
  C   C87       1.0  0.80372  0.09061  0.00095  1.0000
  C  Sn150     1.0  0.82028  0.09474  0.95243  1.0000
  C  Sn151     1.0  0.85291  0.05918  0.93263  1.0000
  C   C88       1.0  0.86830  0.01971  0.96179  1.0000
  C  Sn152     1.0  0.85177  0.01555  0.01032  1.0000
  O  Te149     1.0  0.80212  0.04716  0.07853  1.0000
  O  Te150     1.0  0.80437  0.13456  0.92399  1.0000
  O  Te151     1.0  0.86993  0.06316  0.88418  1.0000
  O  Te152     1.0  0.87012  0.97576  0.03875  1.0000
  Mg  Mg75      1.0  0.83778  0.12391  0.86005  1.0000
  Mg  Mg76      1.0  0.83672  0.98636  0.10269  1.0000
  C  Sn153     1.0  0.67399  0.01559  0.98701  1.0000
  C   C89       1.0  0.64081  0.01489  0.02634  1.0000
  C  Sn154     1.0  0.63640  0.05528  0.05789  1.0000
  C  Sn155     1.0  0.66575  0.09782  0.04996  1.0000
  C   C90       1.0  0.69890  0.09906  0.01064  1.0000
  C  Sn156     1.0  0.70334  0.05813  0.97907  1.0000
  O  Te153     1.0  0.68025  0.97479  0.95593  1.0000
  O  Te154     1.0  0.60298  0.05316  0.09697  1.0000
  O  Te155     1.0  0.66193  0.13864  0.08108  1.0000
  O  Te156     1.0  0.73673  0.06024  0.94001  1.0000
  Mg  Mg77      1.0  0.61113  0.11808  0.12921  1.0000
  Mg  Mg78      1.0  0.73105  0.99536  0.90774  1.0000
  C  Sn157     1.0  0.17485  0.51510  0.48571  1.0000
  C   C91       1.0  0.14323  0.51315  0.52629  1.0000
  C  Sn158     1.0  0.13987  0.55308  0.55855  1.0000
  C  Sn159     1.0  0.16869  0.59587  0.55007  1.0000
  C   C92       1.0  0.20028  0.59782  0.50951  1.0000
  C  Sn160     1.0  0.20367  0.55790  0.47723  1.0000
  O  Te157     1.0  0.17762  0.47475  0.45394  1.0000
  O  Te158     1.0  0.10800  0.55025  0.59887  1.0000
  O  Te159     1.0  0.16590  0.63624  0.58189  1.0000
  O  Te160     1.0  0.23551  0.56071  0.43693  1.0000
  Mg  Mg79      1.0  0.11710  0.61477  0.63167  1.0000
  Mg  Mg80      1.0  0.22641  0.49623  0.40410  1.0000
  C  Sn161     1.0  0.42271  0.93358  0.17995  1.0000
  C   C93       1.0  0.41932  0.97590  0.20904  1.0000
  C  Sn162     1.0  0.43999  0.01951  0.19440  1.0000
  C  Sn163     1.0  0.46706  0.02087  0.14972  1.0000
  C   C94       1.0  0.47290  0.97857  0.12065  1.0000
  C  Sn164     1.0  0.44977  0.93494  0.13527  1.0000
  O  Te161     1.0  0.39928  0.89038  0.19531  1.0000
  O  Te162     1.0  0.43609  0.06135  0.22411  1.0000
  O  Te163     1.0  0.49050  0.06412  0.13438  1.0000
  O  Te164     1.0  0.45365  0.89313  0.10559  1.0000
  Mg  Mg81      1.0  0.47448  0.11145  0.18744  1.0000
  Mg  Mg82      1.0  0.41527  0.84301  0.14221  1.0000
  C  Sn165     1.0  0.94519  0.53140  0.67687  1.0000
  C   C95       1.0  0.90872  0.50000  0.69526  1.0000
  C  Sn166     1.0  0.90908  0.44990  0.68355  1.0000
  C  Sn167     1.0  0.94670  0.43078  0.65285  1.0000
  C   C96       1.0  0.98314  0.46216  0.63449  1.0000
  C  Sn168     1.0  0.98280  0.51227  0.64617  1.0000
  O  Te165     1.0  0.94410  0.58136  0.68906  1.0000
  O  Te166     1.0  0.87222  0.41924  0.70236  1.0000
  O  Te167     1.0  0.94775  0.38078  0.64067  1.0000
  O  Te168     1.0  0.01963  0.54292  0.62739  1.0000
  Mg  Mg83      1.0  0.88952  0.35382  0.67532  1.0000
  Mg  Mg84      1.0  0.00239  0.60835  0.65443  1.0000
  C  Sn169     1.0  0.92483  0.55937  0.86129  1.0000
  C   C97       1.0  0.96288  0.52904  0.87786  1.0000
  C  Sn170     1.0  0.97959  0.49012  0.84872  1.0000
  C  Sn171     1.0  0.95784  0.48134  0.80201  1.0000
  C   C98       1.0  0.91983  0.51166  0.78545  1.0000
  C  Sn172     1.0  0.90309  0.55059  0.81458  1.0000
  O  Te169     1.0  0.90871  0.59806  0.89104  1.0000
  O  Te170     1.0  0.01766  0.46030  0.86609  1.0000
  O  Te171     1.0  0.97399  0.44261  0.77226  1.0000
  O  Te172     1.0  0.86504  0.58041  0.79723  1.0000
  Mg  Mg85      1.0  0.02688  0.41221  0.81205  1.0000
  Mg  Mg86      1.0  0.85581  0.62852  0.85122  1.0000
  C  Sn173     1.0  0.48699  0.99102  0.32264  1.0000
  C   C99       1.0  0.48391  0.02873  0.35767  1.0000
  C  Sn174     1.0  0.44203  0.05782  0.36374  1.0000
  C  Sn175     1.0  0.39987  0.04903  0.33418  1.0000
  C   C100      1.0  0.40050  0.01134  0.29917  1.0000
  C  Sn176     1.0  0.44484  0.98223  0.29308  1.0000
  O  Te173     1.0  0.52927  0.96239  0.31721  1.0000
  O  Te174     1.0  0.44229  0.09531  0.39900  1.0000
  O  Te175     1.0  0.35759  0.07770  0.33963  1.0000
  O  Te176     1.0  0.44459  0.94475  0.25785  1.0000
  Mg  Mg87      1.0  0.37585  0.12437  0.39263  1.0000
  Mg  Mg88      1.0  0.51099  0.91566  0.26421  1.0000
  C  Sn177     1.0  0.57431  0.43151  0.31540  1.0000
  C   C101      1.0  0.58105  0.47466  0.28809  1.0000
  C  Sn178     1.0  0.56003  0.51887  0.30374  1.0000
  C  Sn179     1.0  0.53170  0.51998  0.34762  1.0000
  C   C102      1.0  0.52498  0.47685  0.37492  1.0000
  C  Sn180     1.0  0.54598  0.43262  0.35929  1.0000
  O  Te177     1.0  0.59567  0.38772  0.29906  1.0000
  O  Te178     1.0  0.56727  0.56153  0.27580  1.0000
  O  Te179     1.0  0.51033  0.56381  0.36395  1.0000
  O  Te180     1.0  0.53876  0.38999  0.38720  1.0000
  Mg  Mg89      1.0  0.53072  0.61219  0.31326  1.0000
  Mg  Mg90      1.0  0.57531  0.33931  0.34980  1.0000
  C  Sn181     1.0  0.07772  0.93423  0.82056  1.0000
  C   C103      1.0  0.08078  0.97498  0.78920  1.0000
  C  Sn182     1.0  0.05502  0.01908  0.80156  1.0000
  C  Sn183     1.0  0.02811  0.02254  0.84622  1.0000
  C   C104      1.0  0.02753  0.98182  0.87755  1.0000
  C  Sn184     1.0  0.05082  0.93769  0.86522  1.0000
  O  Te181     1.0  0.10131  0.89051  0.80747  1.0000
  O  Te182     1.0  0.05858  0.05931  0.76961  1.0000
  O  Te183     1.0  0.00452  0.06631  0.85930  1.0000
  O  Te184     1.0  0.04727  0.89748  0.89714  1.0000
  Mg  Mg91      1.0  0.02009  0.11091  0.80368  1.0000
  Mg  Mg92      1.0  0.08576  0.84588  0.86313  1.0000
  C  Sn185     1.0  0.07757  0.06669  0.67767  1.0000
  C   C105      1.0  0.08107  0.02523  0.70802  1.0000
  C  Sn186     1.0  0.06053  0.98114  0.69467  1.0000
  C  Sn187     1.0  0.03350  0.97842  0.65003  1.0000
  C   C106      1.0  0.02755  0.01985  0.61971  1.0000
  C  Sn188     1.0  0.05053  0.06396  0.63304  1.0000
  O  Te185     1.0  0.10086  0.11038  0.69175  1.0000
  O  Te186     1.0  0.06454  0.94020  0.72562  1.0000
  O  Te187     1.0  0.01020  0.93468  0.63597  1.0000
  O  Te188     1.0  0.04654  0.10489  0.60211  1.0000
  Mg  Mg93      1.0  0.02633  0.88894  0.69043  1.0000
  Mg  Mg94      1.0  0.08476  0.15615  0.63724  1.0000
  C  Sn189     1.0  0.57840  0.56602  0.17985  1.0000
  C   C107      1.0  0.58262  0.52425  0.20967  1.0000
  C  Sn190     1.0  0.55959  0.48021  0.19624  1.0000
  C  Sn191     1.0  0.53178  0.47784  0.15206  1.0000
  C   C108      1.0  0.52758  0.51958  0.12227  1.0000
  C  Sn192     1.0  0.55059  0.56365  0.13567  1.0000
  O  Te189     1.0  0.60174  0.60966  0.19399  1.0000
  O  Te190     1.0  0.56432  0.43895  0.22666  1.0000
  O  Te191     1.0  0.50844  0.43415  0.13794  1.0000
  O  Te192     1.0  0.54588  0.60489  0.10527  1.0000
  Mg  Mg95      1.0  0.52573  0.38790  0.19160  1.0000
  Mg  Mg96      1.0  0.58447  0.65595  0.14029  1.0000
