data_image0
_chemical_formula_structural       BOBOBOBOBOBOBOBOBOBOBOBOBOBOBOBOBOBOBOBOBOBOBOBOBOBOBOBOBOBOBOBOBOBOBOBOBOBOBOBOBOBOBOBOBOBOBOBOSi12C2Sn2C2HTe2HMgC2Sn2C2HTe2HMgC2Sn2C2HTe2HMgC2Sn2C2HTe2HMgC2Sn2C2HTe2HMgC2Sn2C2HTe2HMgC2Sn2C2HTe2HMgC2Sn2C2HTe2HMgC2Sn2C2HTe2HMgC2Sn2C2HTe2HMgC2Sn2C2HTe2HMgC2Sn2C2HTe2HMgC2Sn2C2HTe2HMgC2Sn2C2HTe2HMgC2Sn2C2HTe2HMgC2Sn2C2HTe2HMgC2Sn2C2HTe2HMgC2Sn2C2HTe2HMgC2Sn2C2HTe2HMgC2Sn2C2HTe2HMgC2Sn2C2HTe2HMgC2Sn2C2HTe2HMgC2Sn2C2HTe2HMgC2Sn2C2HTe2HMgC2Sn2C2HTe2HMgC2Sn2C2HTe2HMgC2Sn2C2HTe2HMgC2Sn2C2HTe2HMgC2Sn2C2HTe2HMgC2Sn2C2HTe2HMgC2Sn2C2HTe2HMgC2Sn2C2HTe2HMgC2Sn2C2HTe2HMgC2Sn2C2HTe2HMgC2Sn2C2HTe2HMgC2Sn2C2HTe2HMgC2Sn2C2HTe2HMgC2Sn2C2HTe2HMgC2Sn2C2HTe2HMgC2Sn2C2HTe2HMgC2Sn2C2HTe2HMgC2Sn2C2HTe2HMgC2Sn2C2HTe2HMgC2Sn2C2HTe2HMgC2Sn2C2HTe2HMgC2Sn2C2HTe2HMgC2Sn2C2HTe2HMgC2Sn2C2HTe2HMg
_chemical_formula_sum              "B48 O48 Si12 C192 Sn96 H96 Te96 Mg48"
_cell_length_a       28.421
_cell_length_b       28.2516
_cell_length_c       28.4831
_cell_angle_alpha    89.9161
_cell_angle_beta     90.0782
_cell_angle_gamma    90.1925

_symmetry_space_group_name_H-M    'P1'
_space_group_IT_number       1

loop_
  _space_group_symop_operation_xyz
  'x, y, z'

loop_
  _atom_site_type_symbol
  _atom_site_label
  _atom_site_symmetry_multiplicity
  _atom_site_fract_x
  _atom_site_fract_y
  _atom_site_fract_z
  _atom_site_occupancy
  B   B1        1.0  0.24009  0.17118  0.21785  1.0000
  O   O1        1.0  0.20393  0.17960  0.24971  1.0000
  B   B2        1.0  0.74396  0.67358  0.72162  1.0000
  O   O2        1.0  0.70663  0.68056  0.75245  1.0000
  B   B3        1.0  0.25737  0.83109  0.71618  1.0000
  O   O3        1.0  0.29538  0.82355  0.74615  1.0000
  B   B4        1.0  0.75769  0.32624  0.21592  1.0000
  O   O4        1.0  0.79598  0.31912  0.24555  1.0000
  B   B5        1.0  0.76051  0.67353  0.28312  1.0000
  O   O5        1.0  0.79987  0.67957  0.25468  1.0000
  B   B6        1.0  0.26226  0.17290  0.78524  1.0000
  O   O6        1.0  0.29979  0.18070  0.75474  1.0000
  B   B7        1.0  0.73982  0.33104  0.78379  1.0000
  O   O7        1.0  0.70272  0.32366  0.75257  1.0000
  B   B8        1.0  0.24300  0.82733  0.28205  1.0000
  O   O8        1.0  0.20688  0.81884  0.24997  1.0000
  B   B9        1.0  0.21602  0.23929  0.17266  1.0000
  O   O9        1.0  0.24503  0.20012  0.17860  1.0000
  B   B10       1.0  0.71845  0.74112  0.67627  1.0000
  O   O10       1.0  0.74991  0.70425  0.68376  1.0000
  B   B11       1.0  0.71683  0.26067  0.82673  1.0000
  O   O11       1.0  0.74566  0.30025  0.82152  1.0000
  B   B12       1.0  0.21660  0.76044  0.32826  1.0000
  O   O12       1.0  0.24792  0.79768  0.32081  1.0000
  B   B13       1.0  0.27959  0.76195  0.67152  1.0000
  O   O13       1.0  0.24976  0.80019  0.67878  1.0000
  B   B14       1.0  0.77963  0.25690  0.17169  1.0000
  O   O14       1.0  0.74990  0.29528  0.17872  1.0000
  B   B15       1.0  0.78318  0.74306  0.32724  1.0000
  O   O15       1.0  0.75232  0.70553  0.31919  1.0000
  B   B16       1.0  0.28782  0.24010  0.83145  1.0000
  O   O16       1.0  0.25704  0.20244  0.82387  1.0000
  B   B17       1.0  0.17279  0.21691  0.24246  1.0000
  O   O17       1.0  0.18038  0.24767  0.20494  1.0000
  B   B18       1.0  0.67452  0.71687  0.74484  1.0000
  O   O18       1.0  0.68106  0.74752  0.70704  1.0000
  B   B19       1.0  0.83002  0.71799  0.26112  1.0000
  O   O19       1.0  0.82144  0.74986  0.29743  1.0000
  B   B20       1.0  0.33152  0.21758  0.76245  1.0000
  O   O20       1.0  0.32541  0.24738  0.80087  1.0000
  B   B21       1.0  0.67306  0.28473  0.75787  1.0000
  O   O21       1.0  0.68086  0.25278  0.79446  1.0000
  B   B22       1.0  0.17435  0.78275  0.25791  1.0000
  O   O22       1.0  0.17881  0.75439  0.29770  1.0000
  B   B23       1.0  0.32529  0.78520  0.73949  1.0000
  O   O23       1.0  0.31684  0.75445  0.70232  1.0000
  B   B24       1.0  0.82586  0.28075  0.23915  1.0000
  O   O24       1.0  0.81702  0.24952  0.20242  1.0000
  B   B25       1.0  0.42298  0.49282  0.46705  1.0000
  O   O25       1.0  0.43072  0.45511  0.49764  1.0000
  B   B26       1.0  0.92165  0.98915  0.96772  1.0000
  O   O26       1.0  0.92868  0.95050  0.99740  1.0000
  B   B27       1.0  0.08050  0.50891  0.96602  1.0000
  O   O27       1.0  0.07369  0.54761  0.99539  1.0000
  B   B28       1.0  0.57761  0.00875  0.46867  1.0000
  O   O28       1.0  0.56910  0.04548  0.50002  1.0000
  B   B29       1.0  0.92377  0.00496  0.53117  1.0000
  O   O29       1.0  0.93098  0.04237  0.50004  1.0000
  B   B30       1.0  0.42265  0.51090  0.03581  1.0000
  O   O30       1.0  0.43080  0.54774  0.00446  1.0000
  B   B31       1.0  0.57348  0.99245  0.02766  1.0000
  O   O31       1.0  0.56512  0.95466  0.99749  1.0000
  B   B32       1.0  0.07770  0.49011  0.53086  1.0000
  O   O32       1.0  0.06922  0.45254  0.50026  1.0000
  B   B33       1.0  0.49057  0.46896  0.42160  1.0000
  O   O33       1.0  0.45288  0.49955  0.42887  1.0000
  B   B34       1.0  0.99052  0.96691  0.92325  1.0000
  O   O34       1.0  0.95277  0.99728  0.93088  1.0000
  B   B35       1.0  0.50619  0.96854  0.07407  1.0000
  O   O35       1.0  0.54280  0.00006  0.06486  1.0000
  B   B36       1.0  0.00976  0.46696  0.57642  1.0000
  O   O36       1.0  0.04745  0.49749  0.56854  1.0000
  B   B37       1.0  0.00948  0.52913  0.92412  1.0000
  O   O37       1.0  0.04891  0.50045  0.92956  1.0000
  B   B38       1.0  0.51079  0.03361  0.42221  1.0000
  O   O38       1.0  0.54769  0.00238  0.43047  1.0000
  B   B39       1.0  0.99120  0.03056  0.57635  1.0000
  O   O39       1.0  0.95470  0.99844  0.56860  1.0000
  B   B40       1.0  0.49069  0.53569  0.08051  1.0000
  O   O40       1.0  0.45265  0.50512  0.07398  1.0000
  B   B41       1.0  0.46792  0.42413  0.49051  1.0000
  O   O41       1.0  0.49763  0.43117  0.45229  1.0000
  B   B42       1.0  0.96680  0.92038  0.99057  1.0000
  O   O42       1.0  0.99758  0.92879  0.95345  1.0000
  B   B43       1.0  0.96756  0.07439  0.50720  1.0000
  O   O43       1.0  0.99746  0.06846  0.54554  1.0000
  B   B44       1.0  0.46760  0.57952  0.01149  1.0000
  O   O44       1.0  0.49750  0.57353  0.04982  1.0000
  B   B45       1.0  0.52855  0.92288  0.00602  1.0000
  O   O45       1.0  0.49975  0.92941  0.04499  1.0000
  B   B46       1.0  0.03197  0.42134  0.50825  1.0000
  O   O46       1.0  0.00234  0.42879  0.54638  1.0000
  B   B47       1.0  0.03328  0.57504  0.99156  1.0000
  O   O47       1.0  0.00029  0.56440  0.95694  1.0000
  B   B48       1.0  0.53288  0.07749  0.49177  1.0000
  O   O48       1.0  0.50421  0.07155  0.45254  1.0000
  Si  Si1       1.0  0.37714  0.00107  0.24960  1.0000
  Si  Si2       1.0  0.12315  0.00326  0.75098  1.0000
  Si  Si3       1.0  0.62621  0.50050  0.25070  1.0000
  Si  Si4       1.0  0.87854  0.50061  0.74950  1.0000
  Si  Si5       1.0  0.25180  0.37476  0.00212  1.0000
  Si  Si6       1.0  0.74933  0.12422  0.99785  1.0000
  Si  Si7       1.0  0.25025  0.62581  0.50020  1.0000
  Si  Si8       1.0  0.74854  0.87299  0.50215  1.0000
  Si  Si9       1.0  0.99826  0.24843  0.37365  1.0000
  Si  Si10      1.0  0.00147  0.74797  0.12523  1.0000
  Si  Si11      1.0  0.50057  0.25124  0.62477  1.0000
  Si  Si12      1.0  0.49792  0.74901  0.87241  1.0000
  C   C1        1.0  0.31954  0.11203  0.18799  1.0000
  C   C2        1.0  0.28135  0.12622  0.21536  1.0000
  C  Sn1       1.0  0.27177  0.10355  0.25792  1.0000
  C  Sn2       1.0  0.30104  0.06599  0.27329  1.0000
  C   C3        1.0  0.33918  0.05208  0.24567  1.0000
  C   C4        1.0  0.34844  0.07501  0.20313  1.0000
  H   H1        1.0  0.32673  0.12978  0.15508  1.0000
  O  Te1       1.0  0.23345  0.11816  0.28482  1.0000
  O  Te2       1.0  0.29227  0.04273  0.31570  1.0000
  H   H2        1.0  0.37804  0.06403  0.18196  1.0000
  Mg  Mg1       1.0  0.23586  0.07548  0.34000  1.0000
  C   C5        1.0  0.77416  0.58731  0.77144  1.0000
  C   C6        1.0  0.77732  0.62537  0.74020  1.0000
  C  Sn3       1.0  0.81200  0.62602  0.70549  1.0000
  C  Sn4       1.0  0.84407  0.58780  0.70207  1.0000
  C   C7        1.0  0.84060  0.54987  0.73347  1.0000
  C   C8        1.0  0.80576  0.54959  0.76808  1.0000
  H   H3        1.0  0.74720  0.58708  0.79820  1.0000
  O  Te3       1.0  0.81467  0.66433  0.67457  1.0000
  O  Te4       1.0  0.87906  0.58754  0.66770  1.0000
  H   H4        1.0  0.80331  0.52010  0.79225  1.0000
  Mg  Mg2       1.0  0.86847  0.64776  0.63371  1.0000
  C   C9        1.0  0.22824  0.91549  0.76930  1.0000
  C   C10       1.0  0.22517  0.87926  0.73608  1.0000
  C  Sn5       1.0  0.19040  0.88043  0.70138  1.0000
  C  Sn6       1.0  0.15816  0.91864  0.70000  1.0000
  C   C11       1.0  0.16154  0.95474  0.73337  1.0000
  C   C12       1.0  0.19646  0.95321  0.76795  1.0000
  H   H5        1.0  0.25527  0.91433  0.79604  1.0000
  O  Te5       1.0  0.18782  0.84393  0.66847  1.0000
  O  Te6       1.0  0.12307  0.92071  0.66569  1.0000
  H   H6        1.0  0.19885  0.98128  0.79364  1.0000
  Mg  Mg3       1.0  0.13384  0.86256  0.62855  1.0000
  C   C13       1.0  0.73176  0.41265  0.26704  1.0000
  C   C14       1.0  0.72611  0.37487  0.23589  1.0000
  C  Sn7       1.0  0.68905  0.37477  0.20361  1.0000
  C  Sn8       1.0  0.65713  0.41326  0.20256  1.0000
  C   C15       1.0  0.66310  0.45090  0.23385  1.0000
  C   C16       1.0  0.70029  0.45063  0.26602  1.0000
  H   H7        1.0  0.76055  0.41245  0.29192  1.0000
  O  Te7       1.0  0.68391  0.33674  0.17275  1.0000
  O  Te8       1.0  0.61979  0.41408  0.17064  1.0000
  H   H8        1.0  0.70467  0.47990  0.29011  1.0000
  Mg  Mg4       1.0  0.62749  0.35407  0.13571  1.0000
  C   C17       1.0  0.67652  0.61746  0.30790  1.0000
  C   C18       1.0  0.71818  0.62920  0.28455  1.0000
  C  Sn9       1.0  0.73320  0.60235  0.24628  1.0000
  C  Sn10      1.0  0.70594  0.56304  0.23119  1.0000
  C   C19       1.0  0.66431  0.55160  0.25477  1.0000
  C   C20       1.0  0.64960  0.57871  0.29303  1.0000
  H   H9        1.0  0.66513  0.63845  0.33749  1.0000
  O  Te9       1.0  0.77492  0.61456  0.22335  1.0000
  O  Te10      1.0  0.72013  0.53560  0.19303  1.0000
  H   H10       1.0  0.61734  0.56963  0.31108  1.0000
  Mg  Mg5       1.0  0.77959  0.56634  0.17317  1.0000
  C   C21       1.0  0.22592  0.09319  0.72896  1.0000
  C   C22       1.0  0.22621  0.12730  0.76445  1.0000
  C  Sn11      1.0  0.19422  0.12428  0.80154  1.0000
  C  Sn12      1.0  0.16139  0.08637  0.80305  1.0000
  C   C23       1.0  0.16140  0.05241  0.76740  1.0000
  C   C24       1.0  0.19355  0.05578  0.73043  1.0000
  H   H11       1.0  0.25081  0.09577  0.70037  1.0000
  O  Te11      1.0  0.19498  0.15867  0.83670  1.0000
  O  Te12      1.0  0.12904  0.08250  0.83973  1.0000
  H   H12       1.0  0.19334  0.02934  0.70298  1.0000
  Mg  Mg6       1.0  0.14389  0.13809  0.87940  1.0000
  C   C25       1.0  0.82084  0.38988  0.81275  1.0000
  C   C26       1.0  0.78166  0.37627  0.78626  1.0000
  C  Sn13      1.0  0.77168  0.39887  0.74375  1.0000
  C  Sn14      1.0  0.80155  0.43575  0.72755  1.0000
  C   C27       1.0  0.84068  0.44908  0.75429  1.0000
  C   C28       1.0  0.85033  0.42624  0.79679  1.0000
  H   H13       1.0  0.82832  0.37219  0.84562  1.0000
  O  Te13      1.0  0.73238  0.38484  0.71772  1.0000
  O  Te14      1.0  0.79240  0.45892  0.68518  1.0000
  H   H14       1.0  0.88068  0.43676  0.81728  1.0000
  Mg  Mg7       1.0  0.73460  0.42713  0.66224  1.0000
  C   C29       1.0  0.27201  0.91310  0.23120  1.0000
  C   C30       1.0  0.27606  0.87563  0.26302  1.0000
  C  Sn15      1.0  0.31150  0.87603  0.29706  1.0000
  C  Sn16      1.0  0.34340  0.91470  0.29922  1.0000
  C   C31       1.0  0.33902  0.95203  0.26725  1.0000
  C   C32       1.0  0.30345  0.95127  0.23331  1.0000
  H   H15       1.0  0.24447  0.91253  0.20495  1.0000
  O  Te15      1.0  0.31506  0.83829  0.32857  1.0000
  O  Te16      1.0  0.37913  0.91601  0.33291  1.0000
  H   H16       1.0  0.30030  0.98030  0.20870  1.0000
  Mg  Mg8       1.0  0.36963  0.85626  0.36811  1.0000
  C   C33       1.0  0.19340  0.32541  0.11839  1.0000
  C   C34       1.0  0.21450  0.28194  0.12839  1.0000
  C  Sn17      1.0  0.25143  0.26542  0.10060  1.0000
  C  Sn18      1.0  0.26745  0.29303  0.06212  1.0000
  C   C35       1.0  0.24612  0.33649  0.05243  1.0000
  C   C36       1.0  0.20919  0.35267  0.08046  1.0000
  H   H17       1.0  0.16484  0.33795  0.14008  1.0000
  O  Te17      1.0  0.27211  0.22190  0.11107  1.0000
  O  Te18      1.0  0.30430  0.27737  0.03379  1.0000
  H   H18       1.0  0.19288  0.38635  0.07273  1.0000
  Mg  Mg9       1.0  0.32119  0.21570  0.06218  1.0000
  C   C37       1.0  0.69046  0.83500  0.59362  1.0000
  C   C38       1.0  0.72812  0.83731  0.56220  1.0000
  C  Sn19      1.0  0.76503  0.80494  0.56553  1.0000
  C  Sn20      1.0  0.76412  0.76963  0.60099  1.0000
  C   C39       1.0  0.72627  0.76760  0.63224  1.0000
  C   C40       1.0  0.68952  0.80018  0.62860  1.0000
  H   H19       1.0  0.66201  0.86019  0.59080  1.0000
  O  Te19      1.0  0.80240  0.80776  0.53386  1.0000
  O  Te20      1.0  0.80055  0.73682  0.60510  1.0000
  H   H20       1.0  0.66035  0.79836  0.65292  1.0000
  Mg  Mg10      1.0  0.84379  0.75510  0.55368  1.0000
  C   C41       1.0  0.69466  0.17321  0.87946  1.0000
  C   C42       1.0  0.71563  0.21699  0.86998  1.0000
  C  Sn21      1.0  0.75155  0.23422  0.89888  1.0000
  C  Sn22      1.0  0.76667  0.20702  0.93797  1.0000
  C   C43       1.0  0.74548  0.16325  0.94714  1.0000
  C   C44       1.0  0.70957  0.14635  0.91800  1.0000
  H   H21       1.0  0.66688  0.16012  0.85690  1.0000
  O  Te21      1.0  0.77211  0.27804  0.88892  1.0000
  O  Te22      1.0  0.80251  0.22339  0.96742  1.0000
  H   H22       1.0  0.69335  0.11244  0.92533  1.0000
  Mg  Mg11      1.0  0.81964  0.28523  0.93935  1.0000
  C   C45       1.0  0.19249  0.66207  0.40761  1.0000
  C   C46       1.0  0.23007  0.66063  0.43927  1.0000
  C  Sn23      1.0  0.26540  0.69509  0.43749  1.0000
  C  Sn24      1.0  0.26296  0.73164  0.40337  1.0000
  C   C47       1.0  0.22520  0.73279  0.37188  1.0000
  C   C48       1.0  0.19005  0.69812  0.37395  1.0000
  H   H23       1.0  0.16528  0.63526  0.40923  1.0000
  O  Te23      1.0  0.30271  0.69311  0.46937  1.0000
  O  Te24      1.0  0.29778  0.76654  0.40083  1.0000
  H   H24       1.0  0.16094  0.69926  0.34946  1.0000
  Mg  Mg12      1.0  0.34161  0.74870  0.45192  1.0000
  C   C49       1.0  0.30828  0.66764  0.59009  1.0000
  C   C50       1.0  0.26983  0.66286  0.55982  1.0000
  C  Sn25      1.0  0.23162  0.69363  0.56332  1.0000
  C  Sn26      1.0  0.23202  0.72984  0.59779  1.0000
  C   C51       1.0  0.27068  0.73435  0.62789  1.0000
  C   C52       1.0  0.30872  0.70335  0.62409  1.0000
  H   H25       1.0  0.33773  0.64368  0.58714  1.0000
  O  Te25      1.0  0.19347  0.68835  0.53281  1.0000
  O  Te26      1.0  0.19431  0.76109  0.60205  1.0000
  H   H26       1.0  0.33850  0.70708  0.64751  1.0000
  Mg  Mg13      1.0  0.15038  0.73960  0.55238  1.0000
  C   C53       1.0  0.80429  0.17280  0.11605  1.0000
  C   C54       1.0  0.78120  0.21485  0.12734  1.0000
  C  Sn27      1.0  0.74383  0.23083  0.09969  1.0000
  C  Sn28      1.0  0.72938  0.20412  0.06003  1.0000
  C   C55       1.0  0.75269  0.16208  0.04905  1.0000
  C   C56       1.0  0.79005  0.14642  0.07695  1.0000
  H   H27       1.0  0.83318  0.16067  0.13766  1.0000
  O  Te27      1.0  0.72115  0.27294  0.11145  1.0000
  O  Te28      1.0  0.69213  0.21927  0.03180  1.0000
  H   H28       1.0  0.80790  0.11384  0.06822  1.0000
  Mg  Mg14      1.0  0.67229  0.27894  0.06218  1.0000
  C   C57       1.0  0.72139  0.79205  0.42730  1.0000
  C   C58       1.0  0.75184  0.82474  0.44825  1.0000
  C  Sn29      1.0  0.79526  0.83516  0.42766  1.0000
  C  Sn30      1.0  0.80833  0.81237  0.38531  1.0000
  C   C59       1.0  0.77760  0.77974  0.36460  1.0000
  C   C60       1.0  0.73425  0.76957  0.38551  1.0000
  H   H29       1.0  0.68784  0.78420  0.44346  1.0000
  O  Te29      1.0  0.82526  0.86789  0.44907  1.0000
  O  Te30      1.0  0.85150  0.82213  0.36397  1.0000
  H   H30       1.0  0.71067  0.74428  0.36927  1.0000
  Mg  Mg15      1.0  0.88035  0.86937  0.40657  1.0000
  C   C61       1.0  0.31351  0.33463  0.91420  1.0000
  C   C62       1.0  0.27408  0.33855  0.94317  1.0000
  C  Sn31      1.0  0.23635  0.30712  0.93823  1.0000
  C  Sn32      1.0  0.23823  0.27112  0.90361  1.0000
  C   C63       1.0  0.27785  0.26747  0.87481  1.0000
  C   C64       1.0  0.31540  0.29913  0.88005  1.0000
  H   H31       1.0  0.34257  0.35911  0.91826  1.0000
  O  Te31      1.0  0.19722  0.31155  0.96746  1.0000
  O  Te32      1.0  0.20102  0.23922  0.89792  1.0000
  H   H32       1.0  0.34594  0.29606  0.85763  1.0000
  Mg  Mg16      1.0  0.15534  0.25964  0.94619  1.0000
  C   C65       1.0  0.06988  0.27548  0.29032  1.0000
  C   C66       1.0  0.05176  0.24551  0.32499  1.0000
  C  Sn33      1.0  0.07527  0.20381  0.33684  1.0000
  C  Sn34      1.0  0.11769  0.19198  0.31350  1.0000
  C   C67       1.0  0.13555  0.22221  0.27889  1.0000
  C   C68       1.0  0.11174  0.26385  0.26729  1.0000
  H   H33       1.0  0.05148  0.30771  0.28136  1.0000
  O  Te33      1.0  0.05667  0.17426  0.37155  1.0000
  O  Te34      1.0  0.14191  0.15052  0.32467  1.0000
  H   H34       1.0  0.12579  0.28706  0.24047  1.0000
  Mg  Mg17      1.0  0.10250  0.12167  0.37441  1.0000
  C   C69       1.0  0.58893  0.76796  0.77096  1.0000
  C   C70       1.0  0.62539  0.73526  0.77595  1.0000
  C  Sn35      1.0  0.62317  0.70047  0.81080  1.0000
  C  Sn36      1.0  0.58367  0.69847  0.84116  1.0000
  C   C71       1.0  0.54736  0.73132  0.83585  1.0000
  C   C72       1.0  0.54995  0.76599  0.80087  1.0000
  H   H35       1.0  0.59091  0.79477  0.74388  1.0000
  O  Te35      1.0  0.65991  0.66809  0.81532  1.0000
  O  Te36      1.0  0.58054  0.66406  0.87627  1.0000
  H   H36       1.0  0.52170  0.79129  0.79699  1.0000
  Mg  Mg18      1.0  0.63951  0.62778  0.86853  1.0000
  C   C73       1.0  0.91023  0.69021  0.16574  1.0000
  C   C74       1.0  0.94189  0.72803  0.16248  1.0000
  C  Sn37      1.0  0.94010  0.76507  0.19486  1.0000
  C  Sn38      1.0  0.90595  0.76414  0.23114  1.0000
  C   C75       1.0  0.87446  0.72613  0.23412  1.0000
  C   C76       1.0  0.87655  0.68926  0.20153  1.0000
  H   H37       1.0  0.91186  0.66166  0.14053  1.0000
  O  Te37      1.0  0.97198  0.80259  0.19108  1.0000
  O  Te38      1.0  0.90340  0.80070  0.26398  1.0000
  H   H38       1.0  0.85205  0.65997  0.20408  1.0000
  Mg  Mg19      1.0  0.95450  0.84412  0.24419  1.0000
  C   C77       1.0  0.41497  0.27113  0.73104  1.0000
  C   C78       1.0  0.37890  0.23745  0.72895  1.0000
  C  Sn39      1.0  0.37964  0.20207  0.69475  1.0000
  C  Sn40      1.0  0.41724  0.20046  0.66208  1.0000
  C   C79       1.0  0.45317  0.23429  0.66448  1.0000
  C   C80       1.0  0.45208  0.26955  0.69884  1.0000
  H   H39       1.0  0.41414  0.29840  0.75764  1.0000
  O  Te39      1.0  0.34331  0.16872  0.69315  1.0000
  O  Te40      1.0  0.41886  0.16547  0.62754  1.0000
  H   H40       1.0  0.48003  0.29559  0.70046  1.0000
  Mg  Mg20      1.0  0.36117  0.12791  0.63962  1.0000
  C   C81       1.0  0.59354  0.30921  0.66037  1.0000
  C   C82       1.0  0.56208  0.27113  0.65869  1.0000
  C  Sn41      1.0  0.56436  0.23525  0.69242  1.0000
  C  Sn42      1.0  0.59879  0.23765  0.72846  1.0000
  C   C83       1.0  0.63008  0.27591  0.72985  1.0000
  C   C84       1.0  0.62750  0.31162  0.69591  1.0000
  H   H41       1.0  0.59153  0.33685  0.63413  1.0000
  O  Te41      1.0  0.53267  0.19744  0.69022  1.0000
  O  Te42      1.0  0.60184  0.20228  0.76262  1.0000
  H   H42       1.0  0.65184  0.34112  0.69724  1.0000
  Mg  Mg21      1.0  0.55084  0.15789  0.74474  1.0000
  C   C85       1.0  0.08670  0.73391  0.23214  1.0000
  C   C86       1.0  0.12611  0.76287  0.22563  1.0000
  C  Sn43      1.0  0.12872  0.79311  0.18686  1.0000
  C  Sn44      1.0  0.09112  0.79431  0.15407  1.0000
  C   C87       1.0  0.05182  0.76521  0.16092  1.0000
  C   C88       1.0  0.04958  0.73508  0.19983  1.0000
  H   H43       1.0  0.08495  0.71061  0.26226  1.0000
  O  Te43      1.0  0.16837  0.82181  0.18087  1.0000
  O  Te44      1.0  0.09281  0.82421  0.11502  1.0000
  H   H44       1.0  0.01905  0.71268  0.20488  1.0000
  Mg  Mg22      1.0  0.15429  0.85660  0.12211  1.0000
  C   C89       1.0  0.42647  0.72326  0.78756  1.0000
  C   C90       1.0  0.44569  0.75270  0.82204  1.0000
  C  Sn45      1.0  0.42366  0.79524  0.83363  1.0000
  C  Sn46      1.0  0.38160  0.80845  0.81020  1.0000
  C   C91       1.0  0.36264  0.77873  0.77578  1.0000
  C   C92       1.0  0.38498  0.73625  0.76445  1.0000
  H   H45       1.0  0.44374  0.69038  0.77881  1.0000
  O  Te45      1.0  0.44334  0.82425  0.86815  1.0000
  O  Te46      1.0  0.35885  0.85076  0.82110  1.0000
  H   H46       1.0  0.37007  0.71345  0.73777  1.0000
  Mg  Mg23      1.0  0.39934  0.87841  0.87067  1.0000
  C   C93       1.0  0.90842  0.22620  0.27108  1.0000
  C   C94       1.0  0.87383  0.26122  0.27230  1.0000
  C  Sn47      1.0  0.87720  0.29845  0.30436  1.0000
  C  Sn48      1.0  0.91596  0.30059  0.33574  1.0000
  C   C95       1.0  0.95040  0.26540  0.33422  1.0000
  C   C96       1.0  0.94667  0.22829  0.30200  1.0000
  H   H47       1.0  0.90555  0.19750  0.24614  1.0000
  O  Te47      1.0  0.84232  0.33313  0.30512  1.0000
  O  Te48      1.0  0.92021  0.33742  0.36813  1.0000
  H   H48       1.0  0.97347  0.20120  0.30105  1.0000
  Mg  Mg24      1.0  0.86369  0.37627  0.35565  1.0000
  C   C97       1.0  0.31982  0.54016  0.52521  1.0000
  C   C98       1.0  0.30617  0.58006  0.49960  1.0000
  C  Sn49      1.0  0.33024  0.59275  0.45871  1.0000
  C  Sn50      1.0  0.36867  0.56491  0.44326  1.0000
  C   C99       1.0  0.38203  0.52504  0.46911  1.0000
  C   C100      1.0  0.35770  0.51267  0.50998  1.0000
  H   H49       1.0  0.30099  0.53057  0.55681  1.0000
  O  Te49      1.0  0.31615  0.63274  0.43356  1.0000
  O  Te50      1.0  0.39333  0.57679  0.40251  1.0000
  H   H50       1.0  0.36826  0.48176  0.52978  1.0000
  Mg  Mg25      1.0  0.36081  0.63450  0.38025  1.0000
  C   C101      1.0  0.83744  0.01968  0.01982  1.0000
  C   C102      1.0  0.87209  0.01775  0.98376  1.0000
  C  Sn51      1.0  0.87171  0.05291  0.94922  1.0000
  C  Sn52      1.0  0.83732  0.08915  0.95090  1.0000
  C   C103      1.0  0.80418  0.08931  0.98713  1.0000
  C   C104      1.0  0.80351  0.05542  0.02151  1.0000
  H   H51       1.0  0.84133  0.99234  0.04644  1.0000
  O  Te51      1.0  0.90522  0.05192  0.91344  1.0000
  O  Te52      1.0  0.83614  0.12473  0.91683  1.0000
  H   H52       1.0  0.77775  0.05580  0.04944  1.0000
  Mg  Mg26      1.0  0.88921  0.10815  0.87507  1.0000
  C   C105      1.0  0.18567  0.46415  0.02271  1.0000
  C   C106      1.0  0.19897  0.42094  0.99938  1.0000
  C  Sn53      1.0  0.17306  0.40607  0.96034  1.0000
  C  Sn54      1.0  0.13451  0.43359  0.94444  1.0000
  C   C107      1.0  0.12287  0.47531  0.96800  1.0000
  C   C108      1.0  0.14767  0.49132  0.00704  1.0000
  H   H53       1.0  0.20592  0.47542  0.05289  1.0000
  O  Te53      1.0  0.18545  0.36427  0.93746  1.0000
  O  Te54      1.0  0.10803  0.41956  0.90551  1.0000
  H   H54       1.0  0.13844  0.52366  0.02507  1.0000
  Mg  Mg27      1.0  0.13865  0.35989  0.88604  1.0000
  C   C109      1.0  0.63971  0.93157  0.43781  1.0000
  C   C110      1.0  0.62066  0.96521  0.46821  1.0000
  C  Sn55      1.0  0.64234  0.97473  0.51123  1.0000
  C  Sn56      1.0  0.68387  0.95008  0.52396  1.0000
  C   C111      1.0  0.70267  0.91652  0.49329  1.0000
  C   C112      1.0  0.68068  0.90725  0.45033  1.0000
  H   H55       1.0  0.62271  0.92442  0.40455  1.0000
  O  Te55      1.0  0.61949  0.00843  0.54120  1.0000
  O  Te56      1.0  0.70627  0.95892  0.56674  1.0000
  H   H56       1.0  0.69545  0.88123  0.42678  1.0000
  Mg  Mg28      1.0  0.66286  0.00806  0.59569  1.0000
  C   C113      1.0  0.81703  0.95938  0.47747  1.0000
  C   C114      1.0  0.80379  0.91955  0.50349  1.0000
  C  Sn57      1.0  0.82956  0.90627  0.54316  1.0000
  C  Sn58      1.0  0.86929  0.93346  0.55696  1.0000
  C   C115      1.0  0.88223  0.97327  0.53071  1.0000
  C   C116      1.0  0.85621  0.98623  0.49106  1.0000
  H   H57       1.0  0.79689  0.96943  0.44681  1.0000
  O  Te57      1.0  0.81586  0.86636  0.56875  1.0000
  O  Te58      1.0  0.89566  0.92099  0.59647  1.0000
  H   H58       1.0  0.86311  0.01709  0.47094  1.0000
  Mg  Mg29      1.0  0.86303  0.86364  0.61993  1.0000
  C   C117      1.0  0.32053  0.46132  0.97716  1.0000
  C   C118      1.0  0.30511  0.42359  0.00371  1.0000
  C  Sn59      1.0  0.32830  0.41254  0.04558  1.0000
  C  Sn60      1.0  0.36624  0.44134  0.06107  1.0000
  C   C119      1.0  0.38001  0.48049  0.03427  1.0000
  C   C120      1.0  0.35794  0.48975  0.99242  1.0000
  H   H59       1.0  0.30238  0.46963  0.94480  1.0000
  O  Te59      1.0  0.31382  0.37324  0.07166  1.0000
  O  Te60      1.0  0.39002  0.43111  0.10278  1.0000
  H   H60       1.0  0.36881  0.52011  0.97189  1.0000
  Mg  Mg30      1.0  0.35726  0.37377  0.12610  1.0000
  C   C121      1.0  0.68406  0.03271  0.97732  1.0000
  C   C122      1.0  0.69521  0.07552  0.99927  1.0000
  C  Sn61      1.0  0.66512  0.09463  0.03491  1.0000
  C  Sn62      1.0  0.62451  0.06885  0.04876  1.0000
  C   C123      1.0  0.61367  0.02604  0.02661  1.0000
  C   C124      1.0  0.64402  0.00725  0.99097  1.0000
  H   H61       1.0  0.70650  0.01929  0.94977  1.0000
  O  Te61      1.0  0.67676  0.13746  0.05646  1.0000
  O  Te62      1.0  0.59519  0.08566  0.08430  1.0000
  H   H62       1.0  0.63874  0.97410  0.97401  1.0000
  Mg  Mg31      1.0  0.62584  0.14576  0.10311  1.0000
  C   C125      1.0  0.15906  0.58589  0.55787  1.0000
  C   C126      1.0  0.19369  0.58521  0.52309  1.0000
  C  Sn63      1.0  0.19052  0.55317  0.48590  1.0000
  C  Sn64      1.0  0.15192  0.52127  0.48356  1.0000
  C   C127      1.0  0.11744  0.52226  0.51851  1.0000
  C   C128      1.0  0.12097  0.55446  0.55559  1.0000
  H   H63       1.0  0.16177  0.61082  0.58655  1.0000
  O  Te63      1.0  0.22543  0.55295  0.45146  1.0000
  O  Te64      1.0  0.14787  0.48889  0.44677  1.0000
  H   H64       1.0  0.09414  0.55500  0.58249  1.0000
  Mg  Mg32      1.0  0.20436  0.50222  0.40827  1.0000
  C   C129      1.0  0.53621  0.52333  0.31517  1.0000
  C   C130      1.0  0.57800  0.49977  0.30449  1.0000
  C  Sn65      1.0  0.59272  0.46148  0.33185  1.0000
  C  Sn66      1.0  0.56502  0.44659  0.37059  1.0000
  C   C131      1.0  0.52326  0.47037  0.38096  1.0000
  C   C132      1.0  0.50886  0.50865  0.35336  1.0000
  H   H65       1.0  0.52506  0.55293  0.29380  1.0000
  O  Te65      1.0  0.63457  0.43834  0.32070  1.0000
  O  Te66      1.0  0.57891  0.40842  0.39850  1.0000
  H   H66       1.0  0.47649  0.52687  0.36161  1.0000
  Mg  Mg33      1.0  0.63870  0.38823  0.36923  1.0000
  C   C133      1.0  0.08900  0.94553  0.84447  1.0000
  C   C134      1.0  0.08584  0.97955  0.80895  1.0000
  C  Sn67      1.0  0.04796  0.01455  0.81087  1.0000
  C  Sn68      1.0  0.01604  0.01544  0.84911  1.0000
  C   C135      1.0  0.02285  0.98127  0.88450  1.0000
  C   C136      1.0  0.05755  0.94639  0.88222  1.0000
  H   H67       1.0  0.11586  0.91856  0.84273  1.0000
  O  Te67      1.0  0.04528  0.04826  0.77507  1.0000
  O  Te68      1.0  0.98119  0.05004  0.85192  1.0000
  H   H68       1.0  0.06000  0.92008  0.90974  1.0000
  Mg  Mg34      1.0  0.99171  0.08831  0.79457  1.0000
  C   C137      1.0  0.48005  0.02063  0.15965  1.0000
  C   C138      1.0  0.48119  0.98526  0.12546  1.0000
  C  Sn69      1.0  0.44452  0.95220  0.12585  1.0000
  C  Sn70      1.0  0.40944  0.95470  0.16115  1.0000
  C   C139      1.0  0.41194  0.99024  0.19518  1.0000
  C   C140      1.0  0.44546  0.02313  0.19447  1.0000
  H   H69       1.0  0.50855  0.04610  0.15909  1.0000
  O  Te69      1.0  0.44286  0.91708  0.09144  1.0000
  O  Te70      1.0  0.37240  0.92212  0.16235  1.0000
  H   H70       1.0  0.44714  0.05053  0.22093  1.0000
  Mg  Mg35      1.0  0.38544  0.88078  0.10786  1.0000
  C   C141      1.0  0.96285  0.52682  0.67873  1.0000
  C   C142      1.0  0.92441  0.49995  0.69397  1.0000
  C  Sn71      1.0  0.91289  0.45753  0.67150  1.0000
  C  Sn72      1.0  0.94044  0.44180  0.63309  1.0000
  C   C143      1.0  0.97884  0.46893  0.61814  1.0000
  C   C144      1.0  0.99005  0.51133  0.64086  1.0000
  H   H71       1.0  0.97154  0.55962  0.69633  1.0000
  O  Te71      1.0  0.87436  0.43112  0.68716  1.0000
  O  Te72      1.0  0.92971  0.39953  0.61002  1.0000
  H   H72       1.0  0.01983  0.53211  0.62908  1.0000
  Mg  Mg36      1.0  0.87379  0.37595  0.64433  1.0000
  C   C145      1.0  0.98268  0.48003  0.83705  1.0000
  C   C146      1.0  0.98123  0.51457  0.87207  1.0000
  C  Sn73      1.0  0.94497  0.54783  0.87272  1.0000
  C  Sn74      1.0  0.90954  0.54638  0.83760  1.0000
  C   C147      1.0  0.91129  0.51165  0.80272  1.0000
  C   C148      1.0  0.94774  0.47856  0.80240  1.0000
  H   H73       1.0  0.01087  0.45440  0.83681  1.0000
  O  Te73      1.0  0.94406  0.58212  0.90796  1.0000
  O  Te74      1.0  0.87288  0.57917  0.83742  1.0000
  H   H74       1.0  0.94884  0.45180  0.77530  1.0000
  Mg  Mg37      1.0  0.88694  0.61912  0.89278  1.0000
  C   C149      1.0  0.41371  0.05808  0.34235  1.0000
  C   C150      1.0  0.41596  0.02398  0.30694  1.0000
  C  Sn75      1.0  0.45277  0.98793  0.30917  1.0000
  C  Sn76      1.0  0.48451  0.98608  0.34761  1.0000
  C   C151      1.0  0.47862  0.02034  0.38287  1.0000
  C   C152      1.0  0.44500  0.05627  0.38028  1.0000
  H   H75       1.0  0.38769  0.08587  0.34036  1.0000
  O  Te75      1.0  0.45454  0.95416  0.27348  1.0000
  O  Te76      1.0  0.51830  0.95043  0.35072  1.0000
  H   H76       1.0  0.44325  0.08265  0.40772  1.0000
  Mg  Mg38      1.0  0.50682  0.91249  0.29342  1.0000
  C   C153      1.0  0.08583  0.05896  0.65775  1.0000
  C   C154      1.0  0.08376  0.02510  0.69352  1.0000
  C  Sn77      1.0  0.05479  0.98781  0.69096  1.0000
  C  Sn78      1.0  0.02404  0.98443  0.65182  1.0000
  C   C155      1.0  0.02307  0.01846  0.61620  1.0000
  C   C156      1.0  0.05552  0.05564  0.61912  1.0000
  H   H77       1.0  0.11095  0.08771  0.66000  1.0000
  O  Te77      1.0  0.05318  0.95431  0.72701  1.0000
  O  Te78      1.0  0.99142  0.94752  0.64836  1.0000
  H   H78       1.0  0.05714  0.08182  0.59141  1.0000
  Mg  Mg39      1.0  0.00266  0.91054  0.70639  1.0000
  C   C157      1.0  0.53608  0.47975  0.18572  1.0000
  C   C158      1.0  0.57844  0.50250  0.19660  1.0000
  C  Sn79      1.0  0.59400  0.54075  0.16957  1.0000
  C  Sn80      1.0  0.56656  0.55646  0.13095  1.0000
  C   C159      1.0  0.52421  0.53348  0.12037  1.0000
  C   C160      1.0  0.50898  0.49522  0.14765  1.0000
  H   H79       1.0  0.52427  0.45016  0.20683  1.0000
  O  Te79      1.0  0.63641  0.56307  0.18092  1.0000
  O  Te80      1.0  0.58127  0.59462  0.10336  1.0000
  H   H80       1.0  0.47617  0.47763  0.13923  1.0000
  Mg  Mg40      1.0  0.64160  0.61352  0.13281  1.0000
  C   C161      1.0  0.44315  0.36840  0.57468  1.0000
  C   C162      1.0  0.46956  0.38256  0.53573  1.0000
  C  Sn81      1.0  0.50670  0.35461  0.51979  1.0000
  C  Sn82      1.0  0.51751  0.31170  0.54334  1.0000
  C   C163      1.0  0.49086  0.29783  0.58225  1.0000
  C   C164      1.0  0.45377  0.32607  0.59791  1.0000
  H   H81       1.0  0.41444  0.39023  0.58678  1.0000
  O  Te81      1.0  0.53275  0.36929  0.48084  1.0000
  O  Te82      1.0  0.55444  0.28309  0.52814  1.0000
  H   H82       1.0  0.43331  0.31508  0.62805  1.0000
  Mg  Mg41      1.0  0.57971  0.31821  0.47345  1.0000
  C   C165      1.0  0.94041  0.86209  0.07224  1.0000
  C   C166      1.0  0.96776  0.87751  0.03442  1.0000
  C  Sn83      1.0  0.00679  0.85133  0.02006  1.0000
  C  Sn84      1.0  0.01855  0.80893  0.04407  1.0000
  C   C167      1.0  0.99094  0.79379  0.08183  1.0000
  C   C168      1.0  0.95197  0.82027  0.09592  1.0000
  H   H83       1.0  0.91024  0.88255  0.08312  1.0000
  O  Te83      1.0  0.03511  0.86578  0.98223  1.0000
  O  Te84      1.0  0.05735  0.78208  0.03044  1.0000
  H   H84       1.0  0.93078  0.80830  0.12518  1.0000
  Mg  Mg42      1.0  0.08463  0.81693  0.97683  1.0000
  C   C169      1.0  0.93834  0.13284  0.42629  1.0000
  C   C170      1.0  0.96734  0.11664  0.46253  1.0000
  C  Sn85      1.0  0.00733  0.14239  0.47551  1.0000
  C  Sn86      1.0  0.01840  0.18515  0.45171  1.0000
  C   C171      1.0  0.98915  0.20107  0.41552  1.0000
  C   C172      1.0  0.94922  0.17501  0.40281  1.0000
  H   H85       1.0  0.90744  0.11269  0.41646  1.0000
  O  Te85      1.0  0.03593  0.12569  0.51178  1.0000
  O  Te86      1.0  0.05814  0.21159  0.46398  1.0000
  H   H86       1.0  0.92676  0.18758  0.37477  1.0000
  Mg  Mg43      1.0  0.08624  0.17423  0.51571  1.0000
  C   C173      1.0  0.44453  0.65309  0.90934  1.0000
  C   C174      1.0  0.47613  0.69102  0.91164  1.0000
  C  Sn87      1.0  0.51002  0.69287  0.94718  1.0000
  C  Sn88      1.0  0.51222  0.65601  0.98099  1.0000
  C   C175      1.0  0.48046  0.61820  0.97837  1.0000
  C   C176      1.0  0.44669  0.61671  0.94266  1.0000
  H   H87       1.0  0.41841  0.65192  0.88170  1.0000
  O  Te87      1.0  0.54131  0.73103  0.94897  1.0000
  O  Te88      1.0  0.54438  0.65844  0.01687  1.0000
  H   H88       1.0  0.42224  0.58732  0.94088  1.0000
  Mg  Mg44      1.0  0.57932  0.71790  0.00453  1.0000
  C   C177      1.0  0.55623  0.86525  0.92472  1.0000
  C   C178      1.0  0.52760  0.88068  0.96146  1.0000
  C  Sn89      1.0  0.48844  0.85401  0.97508  1.0000
  C  Sn90      1.0  0.47783  0.81111  0.95142  1.0000
  C   C179      1.0  0.50670  0.79597  0.91473  1.0000
  C   C180      1.0  0.54580  0.82293  0.90138  1.0000
  H   H89       1.0  0.58650  0.88610  0.91440  1.0000
  O  Te89      1.0  0.45883  0.87142  0.01184  1.0000
  O  Te90      1.0  0.43890  0.78376  0.96433  1.0000
  H   H90       1.0  0.56798  0.81096  0.87295  1.0000
  Mg  Mg45      1.0  0.40967  0.82179  0.01656  1.0000
  C   C181      1.0  0.97632  0.33885  0.47624  1.0000
  C   C182      1.0  0.01456  0.36996  0.47893  1.0000
  C  Sn91      1.0  0.05082  0.36750  0.44595  1.0000
  C  Sn92      1.0  0.04865  0.33322  0.40965  1.0000
  C   C183      1.0  0.01023  0.30228  0.40725  1.0000
  C   C184      1.0  0.97415  0.30504  0.44043  1.0000
  H   H91       1.0  0.94840  0.34100  0.50190  1.0000
  O  Te91      1.0  0.08877  0.39884  0.44916  1.0000
  O  Te92      1.0  0.08439  0.32999  0.37622  1.0000
  H   H92       1.0  0.94453  0.28097  0.43832  1.0000
  Mg  Mg46      1.0  0.12885  0.38053  0.39537  1.0000
  C   C185      1.0  0.97415  0.67705  0.04133  1.0000
  C   C186      1.0  0.00174  0.69214  0.07913  1.0000
  C  Sn93      1.0  0.04418  0.66950  0.08936  1.0000
  C  Sn94      1.0  0.05917  0.63106  0.06115  1.0000
  C   C187      1.0  0.03132  0.61626  0.02339  1.0000
  C   C188      1.0  0.98892  0.63916  0.01347  1.0000
  H   H93       1.0  0.94135  0.69478  0.03364  1.0000
  O  Te93      1.0  0.07131  0.68501  0.12727  1.0000
  O  Te94      1.0  0.10143  0.60781  0.07057  1.0000
  H   H94       1.0  0.96894  0.62602  0.98418  1.0000
  Mg  Mg47      1.0  0.12616  0.64196  0.12607  1.0000
  C   C189      1.0  0.56221  0.13863  0.57040  1.0000
  C   C190      1.0  0.53223  0.11993  0.53615  1.0000
  C  Sn95      1.0  0.49034  0.14301  0.52475  1.0000
  C  Sn96      1.0  0.47833  0.18560  0.54813  1.0000
  C   C191      1.0  0.50857  0.20403  0.58232  1.0000
  C   C192      1.0  0.55040  0.18064  0.59347  1.0000
  H   H95       1.0  0.59458  0.12054  0.57901  1.0000
  O  Te95      1.0  0.46078  0.12384  0.49045  1.0000
  O  Te96      1.0  0.43668  0.20940  0.53741  1.0000
  H   H96       1.0  0.57362  0.19513  0.61997  1.0000
  Mg  Mg48      1.0  0.40790  0.16927  0.48812  1.0000
