data_image0
_chemical_formula_structural       BOBOBOBOBOBOBOBOBOBOBOBOBOBOBOBOBOBOBOBOBOBOBOBOBOBOBOBOBOBOBOBOBOBOBOBOBOBOBOBOBOBOBOBOBOBOBOBOSi12SnCSn2CSnTe4Mg2SnCSn2CSnTe4Mg2SnCSn2CSnTe4Mg2SnCSn2CSnTe4Mg2SnCSn2CSnTe4Mg2SnCSn2CSnTe4Mg2SnCSn2CSnTe4Mg2SnCSn2CSnTe4Mg2SnCSn2CSnTe4Mg2SnCSn2CSnTe4Mg2SnCSn2CSnTe4Mg2SnCSn2CSnTe4Mg2SnCSn2CSnTe4Mg2SnCSn2CSnTe4Mg2SnCSn2CSnTe4Mg2SnCSn2CSnTe4Mg2SnCSn2CSnTe4Mg2SnCSn2CSnTe4Mg2SnCSn2CSnTe4Mg2SnCSn2CSnTe4Mg2SnCSn2CSnTe4Mg2SnCSn2CSnTe4Mg2SnCSn2CSnTe4Mg2SnCSn2CSnTe4Mg2SnCSn2CSnTe4Mg2SnCSn2CSnTe4Mg2SnCSn2CSnTe4Mg2SnCSn2CSnTe4Mg2SnCSn2CSnTe4Mg2SnCSn2CSnTe4Mg2SnCSn2CSnTe4Mg2SnCSn2CSnTe4Mg2SnCSn2CSnTe4Mg2SnCSn2CSnTe4Mg2SnCSn2CSnTe4Mg2SnCSn2CSnTe4Mg2SnCSn2CSnTe4Mg2SnCSn2CSnTe4Mg2SnCSn2CSnTe4Mg2SnCSn2CSnTe4Mg2SnCSn2CSnTe4Mg2SnCSn2CSnTe4Mg2SnCSn2CSnTe4Mg2SnCSn2CSnTe4Mg2SnCSn2CSnTe4Mg2SnCSn2CSnTe4Mg2SnCSn2CSnTe4Mg2SnCSn2CSnTe4Mg2
_chemical_formula_sum              "B48 O48 Si12 Sn192 C96 Te192 Mg96"
_cell_length_a       28.421
_cell_length_b       28.2516
_cell_length_c       28.4831
_cell_angle_alpha    89.9161
_cell_angle_beta     90.0782
_cell_angle_gamma    90.1925

_symmetry_space_group_name_H-M    'P1'
_space_group_IT_number       1

loop_
  _space_group_symop_operation_xyz
  'x, y, z'

loop_
  _atom_site_type_symbol
  _atom_site_label
  _atom_site_symmetry_multiplicity
  _atom_site_fract_x
  _atom_site_fract_y
  _atom_site_fract_z
  _atom_site_occupancy
  B   B1        1.0  0.24009  0.17118  0.21785  1.0000
  O   O1        1.0  0.20393  0.17960  0.24971  1.0000
  B   B2        1.0  0.74396  0.67358  0.72162  1.0000
  O   O2        1.0  0.70663  0.68056  0.75245  1.0000
  B   B3        1.0  0.25737  0.83109  0.71618  1.0000
  O   O3        1.0  0.29538  0.82355  0.74615  1.0000
  B   B4        1.0  0.75769  0.32624  0.21592  1.0000
  O   O4        1.0  0.79598  0.31912  0.24555  1.0000
  B   B5        1.0  0.76051  0.67353  0.28312  1.0000
  O   O5        1.0  0.79987  0.67957  0.25468  1.0000
  B   B6        1.0  0.26226  0.17290  0.78524  1.0000
  O   O6        1.0  0.29979  0.18070  0.75474  1.0000
  B   B7        1.0  0.73982  0.33104  0.78379  1.0000
  O   O7        1.0  0.70272  0.32366  0.75257  1.0000
  B   B8        1.0  0.24300  0.82733  0.28205  1.0000
  O   O8        1.0  0.20688  0.81884  0.24997  1.0000
  B   B9        1.0  0.21602  0.23929  0.17266  1.0000
  O   O9        1.0  0.24503  0.20012  0.17860  1.0000
  B   B10       1.0  0.71845  0.74112  0.67627  1.0000
  O   O10       1.0  0.74991  0.70425  0.68376  1.0000
  B   B11       1.0  0.71683  0.26067  0.82673  1.0000
  O   O11       1.0  0.74566  0.30025  0.82152  1.0000
  B   B12       1.0  0.21660  0.76044  0.32826  1.0000
  O   O12       1.0  0.24792  0.79768  0.32081  1.0000
  B   B13       1.0  0.27959  0.76195  0.67152  1.0000
  O   O13       1.0  0.24976  0.80019  0.67878  1.0000
  B   B14       1.0  0.77963  0.25690  0.17169  1.0000
  O   O14       1.0  0.74990  0.29528  0.17872  1.0000
  B   B15       1.0  0.78318  0.74306  0.32724  1.0000
  O   O15       1.0  0.75232  0.70553  0.31919  1.0000
  B   B16       1.0  0.28782  0.24010  0.83145  1.0000
  O   O16       1.0  0.25704  0.20244  0.82387  1.0000
  B   B17       1.0  0.17279  0.21691  0.24246  1.0000
  O   O17       1.0  0.18038  0.24767  0.20494  1.0000
  B   B18       1.0  0.67452  0.71687  0.74484  1.0000
  O   O18       1.0  0.68106  0.74752  0.70704  1.0000
  B   B19       1.0  0.83002  0.71799  0.26112  1.0000
  O   O19       1.0  0.82144  0.74986  0.29743  1.0000
  B   B20       1.0  0.33152  0.21758  0.76245  1.0000
  O   O20       1.0  0.32541  0.24738  0.80087  1.0000
  B   B21       1.0  0.67306  0.28473  0.75787  1.0000
  O   O21       1.0  0.68086  0.25278  0.79446  1.0000
  B   B22       1.0  0.17435  0.78275  0.25791  1.0000
  O   O22       1.0  0.17881  0.75439  0.29770  1.0000
  B   B23       1.0  0.32529  0.78520  0.73949  1.0000
  O   O23       1.0  0.31684  0.75445  0.70232  1.0000
  B   B24       1.0  0.82586  0.28075  0.23915  1.0000
  O   O24       1.0  0.81702  0.24952  0.20242  1.0000
  B   B25       1.0  0.42298  0.49282  0.46705  1.0000
  O   O25       1.0  0.43072  0.45511  0.49764  1.0000
  B   B26       1.0  0.92165  0.98915  0.96772  1.0000
  O   O26       1.0  0.92868  0.95050  0.99740  1.0000
  B   B27       1.0  0.08050  0.50891  0.96602  1.0000
  O   O27       1.0  0.07369  0.54761  0.99539  1.0000
  B   B28       1.0  0.57761  0.00875  0.46867  1.0000
  O   O28       1.0  0.56910  0.04548  0.50002  1.0000
  B   B29       1.0  0.92377  0.00496  0.53117  1.0000
  O   O29       1.0  0.93098  0.04237  0.50004  1.0000
  B   B30       1.0  0.42265  0.51090  0.03581  1.0000
  O   O30       1.0  0.43080  0.54774  0.00446  1.0000
  B   B31       1.0  0.57348  0.99245  0.02766  1.0000
  O   O31       1.0  0.56512  0.95466  0.99749  1.0000
  B   B32       1.0  0.07770  0.49011  0.53086  1.0000
  O   O32       1.0  0.06922  0.45254  0.50026  1.0000
  B   B33       1.0  0.49057  0.46896  0.42160  1.0000
  O   O33       1.0  0.45288  0.49955  0.42887  1.0000
  B   B34       1.0  0.99052  0.96691  0.92325  1.0000
  O   O34       1.0  0.95277  0.99728  0.93088  1.0000
  B   B35       1.0  0.50619  0.96854  0.07407  1.0000
  O   O35       1.0  0.54280  0.00006  0.06486  1.0000
  B   B36       1.0  0.00976  0.46696  0.57642  1.0000
  O   O36       1.0  0.04745  0.49749  0.56854  1.0000
  B   B37       1.0  0.00948  0.52913  0.92412  1.0000
  O   O37       1.0  0.04891  0.50045  0.92956  1.0000
  B   B38       1.0  0.51079  0.03361  0.42221  1.0000
  O   O38       1.0  0.54769  0.00238  0.43047  1.0000
  B   B39       1.0  0.99120  0.03056  0.57635  1.0000
  O   O39       1.0  0.95470  0.99844  0.56860  1.0000
  B   B40       1.0  0.49069  0.53569  0.08051  1.0000
  O   O40       1.0  0.45265  0.50512  0.07398  1.0000
  B   B41       1.0  0.46792  0.42413  0.49051  1.0000
  O   O41       1.0  0.49763  0.43117  0.45229  1.0000
  B   B42       1.0  0.96680  0.92038  0.99057  1.0000
  O   O42       1.0  0.99758  0.92879  0.95345  1.0000
  B   B43       1.0  0.96756  0.07439  0.50720  1.0000
  O   O43       1.0  0.99746  0.06846  0.54554  1.0000
  B   B44       1.0  0.46760  0.57952  0.01149  1.0000
  O   O44       1.0  0.49750  0.57353  0.04982  1.0000
  B   B45       1.0  0.52855  0.92288  0.00602  1.0000
  O   O45       1.0  0.49975  0.92941  0.04499  1.0000
  B   B46       1.0  0.03197  0.42134  0.50825  1.0000
  O   O46       1.0  0.00234  0.42879  0.54638  1.0000
  B   B47       1.0  0.03328  0.57504  0.99156  1.0000
  O   O47       1.0  0.00029  0.56440  0.95694  1.0000
  B   B48       1.0  0.53288  0.07749  0.49177  1.0000
  O   O48       1.0  0.50421  0.07155  0.45254  1.0000
  Si  Si1       1.0  0.37714  0.00107  0.24960  1.0000
  Si  Si2       1.0  0.12315  0.00326  0.75098  1.0000
  Si  Si3       1.0  0.62621  0.50050  0.25070  1.0000
  Si  Si4       1.0  0.87854  0.50061  0.74950  1.0000
  Si  Si5       1.0  0.25180  0.37476  0.00212  1.0000
  Si  Si6       1.0  0.74933  0.12422  0.99785  1.0000
  Si  Si7       1.0  0.25025  0.62581  0.50020  1.0000
  Si  Si8       1.0  0.74854  0.87299  0.50215  1.0000
  Si  Si9       1.0  0.99826  0.24843  0.37365  1.0000
  Si  Si10      1.0  0.00147  0.74797  0.12523  1.0000
  Si  Si11      1.0  0.50057  0.25124  0.62477  1.0000
  Si  Si12      1.0  0.49792  0.74901  0.87241  1.0000
  C  Sn1       1.0  0.30746  0.10245  0.18385  1.0000
  C   C1        1.0  0.27256  0.11899  0.21414  1.0000
  C  Sn2       1.0  0.27178  0.10466  0.26109  1.0000
  C  Sn3       1.0  0.30663  0.07316  0.27813  1.0000
  C   C2        1.0  0.34150  0.05664  0.24785  1.0000
  C  Sn4       1.0  0.34230  0.07095  0.20089  1.0000
  O  Te1       1.0  0.30756  0.11725  0.13704  1.0000
  O  Te2       1.0  0.23653  0.12166  0.29070  1.0000
  O  Te3       1.0  0.30650  0.05837  0.32498  1.0000
  O  Te4       1.0  0.37753  0.05397  0.17129  1.0000
  Mg  Mg1       1.0  0.25129  0.09128  0.35162  1.0000
  Mg  Mg2       1.0  0.36282  0.08434  0.11037  1.0000
  C  Sn5       1.0  0.78499  0.55971  0.76403  1.0000
  C   C3        1.0  0.82420  0.54788  0.73697  1.0000
  C  Sn6       1.0  0.84451  0.58123  0.70687  1.0000
  C  Sn7       1.0  0.82524  0.62738  0.70376  1.0000
  C   C4        1.0  0.78606  0.63919  0.73081  1.0000
  C  Sn8       1.0  0.76573  0.60586  0.76093  1.0000
  O  Te5       1.0  0.76527  0.52581  0.79390  1.0000
  O  Te6       1.0  0.88368  0.56857  0.68015  1.0000
  O  Te7       1.0  0.84500  0.66128  0.67386  1.0000
  O  Te8       1.0  0.72658  0.61850  0.78763  1.0000
  Mg  Mg3       1.0  0.89809  0.62712  0.64461  1.0000
  Mg  Mg4       1.0  0.71217  0.55999  0.82320  1.0000
  C  Sn9       1.0  0.21767  0.90502  0.77510  1.0000
  C   C5        1.0  0.21675  0.87195  0.73867  1.0000
  C  Sn10      1.0  0.19057  0.88067  0.69804  1.0000
  C  Sn11      1.0  0.16479  0.92336  0.69373  1.0000
  C   C6        1.0  0.16572  0.95640  0.73014  1.0000
  C  Sn12      1.0  0.19188  0.94770  0.77078  1.0000
  O  Te9       1.0  0.24408  0.89555  0.81539  1.0000
  O  Te10      1.0  0.19019  0.84707  0.66210  1.0000
  O  Te11      1.0  0.13836  0.93280  0.65339  1.0000
  O  Te12      1.0  0.19228  0.98128  0.80671  1.0000
  Mg  Mg5       1.0  0.14893  0.87613  0.61406  1.0000
  Mg  Mg6       1.0  0.23354  0.95227  0.85475  1.0000
  C  Sn13      1.0  0.72152  0.40259  0.27404  1.0000
  C   C7        1.0  0.71782  0.36780  0.23939  1.0000
  C  Sn14      1.0  0.68900  0.37485  0.20026  1.0000
  C  Sn15      1.0  0.66335  0.41759  0.19564  1.0000
  C   C8        1.0  0.66706  0.45236  0.23027  1.0000
  C  Sn16      1.0  0.69587  0.44533  0.26942  1.0000
  O  Te13      1.0  0.75055  0.39478  0.31287  1.0000
  O  Te14      1.0  0.68586  0.33955  0.16609  1.0000
  O  Te15      1.0  0.63431  0.42538  0.15677  1.0000
  O  Te16      1.0  0.69902  0.48061  0.30357  1.0000
  Mg  Mg7       1.0  0.64167  0.36673  0.11960  1.0000
  Mg  Mg8       1.0  0.74322  0.45347  0.35006  1.0000
  C  Sn17      1.0  0.65409  0.60200  0.29366  1.0000
  C   C9        1.0  0.65741  0.56636  0.25986  1.0000
  C  Sn18      1.0  0.69898  0.56023  0.23452  1.0000
  C  Sn19      1.0  0.73807  0.59034  0.24315  1.0000
  C   C10       1.0  0.73475  0.62594  0.27694  1.0000
  C  Sn20      1.0  0.69318  0.63210  0.30230  1.0000
  O  Te17      1.0  0.61219  0.60747  0.31859  1.0000
  O  Te18      1.0  0.70145  0.52437  0.20089  1.0000
  O  Te19      1.0  0.78000  0.58483  0.21819  1.0000
  O  Te20      1.0  0.69071  0.66793  0.33591  1.0000
  Mg  Mg9       1.0  0.76616  0.53091  0.17602  1.0000
  Mg  Mg10      1.0  0.62603  0.66141  0.36082  1.0000
  C  Sn21      1.0  0.21515  0.10411  0.72462  1.0000
  C   C11       1.0  0.21777  0.13483  0.76295  1.0000
  C  Sn22      1.0  0.19465  0.12383  0.80484  1.0000
  C  Sn23      1.0  0.16839  0.08121  0.80850  1.0000
  C   C12       1.0  0.16578  0.05051  0.77019  1.0000
  C  Sn24      1.0  0.18888  0.06149  0.72829  1.0000
  O  Te21      1.0  0.23854  0.11582  0.68309  1.0000
  O  Te22      1.0  0.19778  0.15511  0.84267  1.0000
  O  Te23      1.0  0.14499  0.06952  0.85008  1.0000
  O  Te24      1.0  0.18577  0.03023  0.69047  1.0000
  Mg  Mg11      1.0  0.15978  0.12350  0.89185  1.0000
  Mg  Mg12      1.0  0.22377  0.06180  0.64129  1.0000
  C  Sn25      1.0  0.78610  0.43973  0.73285  1.0000
  C   C13       1.0  0.82357  0.45430  0.76124  1.0000
  C  Sn26      1.0  0.84046  0.42481  0.79683  1.0000
  C  Sn27      1.0  0.81948  0.37979  0.80418  1.0000
  C   C14       1.0  0.78204  0.36523  0.77580  1.0000
  C  Sn28      1.0  0.76512  0.39470  0.74021  1.0000
  O  Te25      1.0  0.76979  0.46979  0.69748  1.0000
  O  Te26      1.0  0.87795  0.44016  0.82476  1.0000
  O  Te27      1.0  0.83582  0.34972  0.83959  1.0000
  O  Te28      1.0  0.72766  0.37937  0.71228  1.0000
  Mg  Mg13      1.0  0.88771  0.38649  0.86843  1.0000
  Mg  Mg14      1.0  0.71789  0.43300  0.66858  1.0000
  C  Sn29      1.0  0.34915  0.89937  0.29414  1.0000
  C   C15       1.0  0.34636  0.93464  0.25981  1.0000
  C  Sn30      1.0  0.30511  0.94065  0.23380  1.0000
  C  Sn31      1.0  0.26580  0.91079  0.24229  1.0000
  C   C16       1.0  0.26859  0.87555  0.27661  1.0000
  C  Sn32      1.0  0.30984  0.86952  0.30264  1.0000
  O  Te29      1.0  0.39074  0.89401  0.31973  1.0000
  O  Te30      1.0  0.30317  0.97614  0.19965  1.0000
  O  Te31      1.0  0.22418  0.91618  0.21667  1.0000
  O  Te32      1.0  0.31179  0.83405  0.33678  1.0000
  Mg  Mg15      1.0  0.23871  0.96957  0.17395  1.0000
  Mg  Mg16      1.0  0.37621  0.84060  0.36251  1.0000
  C  Sn33      1.0  0.27324  0.27636  0.09655  1.0000
  C   C17       1.0  0.23891  0.27953  0.13148  1.0000
  C  Sn34      1.0  0.20021  0.30932  0.12561  1.0000
  C  Sn35      1.0  0.19570  0.33648  0.08394  1.0000
  C   C18       1.0  0.23001  0.33330  0.04904  1.0000
  C  Sn36      1.0  0.26873  0.30353  0.05488  1.0000
  O  Te33      1.0  0.31163  0.24634  0.10316  1.0000
  O  Te34      1.0  0.16636  0.31190  0.16103  1.0000
  O  Te35      1.0  0.15727  0.36651  0.07735  1.0000
  O  Te36      1.0  0.30256  0.30093  0.01948  1.0000
  Mg  Mg17      1.0  0.12042  0.35788  0.13567  1.0000
  Mg  Mg18      1.0  0.34850  0.25495  0.04479  1.0000
  C  Sn37      1.0  0.68322  0.80851  0.60758  1.0000
  C   C19       1.0  0.71262  0.77235  0.62357  1.0000
  C  Sn38      1.0  0.75858  0.76854  0.60671  1.0000
  C  Sn39      1.0  0.77552  0.80159  0.57317  1.0000
  C   C20       1.0  0.74614  0.83773  0.55720  1.0000
  C  Sn40      1.0  0.70017  0.84156  0.57404  1.0000
  O  Te37      1.0  0.63740  0.81165  0.62492  1.0000
  O  Te38      1.0  0.78730  0.73207  0.62321  1.0000
  O  Te39      1.0  0.82138  0.79843  0.55583  1.0000
  O  Te40      1.0  0.67146  0.87801  0.55756  1.0000
  Mg  Mg19      1.0  0.84706  0.74258  0.58904  1.0000
  Mg  Mg20      1.0  0.61171  0.86754  0.59172  1.0000
  C  Sn41      1.0  0.68675  0.18387  0.88824  1.0000
  C   C21       1.0  0.71159  0.22510  0.87691  1.0000
  C  Sn42      1.0  0.75479  0.23490  0.89830  1.0000
  C  Sn43      1.0  0.77358  0.20280  0.93169  1.0000
  C   C22       1.0  0.74875  0.16160  0.94301  1.0000
  C  Sn44      1.0  0.70554  0.15178  0.92164  1.0000
  O  Te41      1.0  0.64363  0.17480  0.86642  1.0000
  O  Te42      1.0  0.77896  0.27635  0.88640  1.0000
  O  Te43      1.0  0.81673  0.21191  0.95351  1.0000
  O  Te44      1.0  0.68138  0.11035  0.93351  1.0000
  Mg  Mg21      1.0  0.83641  0.27306  0.92564  1.0000
  Mg  Mg22      1.0  0.62394  0.11360  0.89428  1.0000
  C  Sn45      1.0  0.18404  0.68859  0.39451  1.0000
  C   C23       1.0  0.21165  0.72698  0.38016  1.0000
  C  Sn46      1.0  0.25726  0.73277  0.39761  1.0000
  C  Sn47      1.0  0.27567  0.69949  0.43006  1.0000
  C   C24       1.0  0.24806  0.66112  0.44438  1.0000
  C  Sn48      1.0  0.20244  0.65530  0.42695  1.0000
  O  Te45      1.0  0.13853  0.68350  0.37660  1.0000
  O  Te46      1.0  0.28419  0.77144  0.38276  1.0000
  O  Te47      1.0  0.32121  0.70461  0.44796  1.0000
  O  Te48      1.0  0.17552  0.61666  0.44178  1.0000
  Mg  Mg23      1.0  0.34421  0.76308  0.41711  1.0000
  Mg  Mg24      1.0  0.11551  0.62498  0.40744  1.0000
  C  Sn49      1.0  0.23155  0.71813  0.56112  1.0000
  C   C25       1.0  0.26092  0.68141  0.54656  1.0000
  C  Sn50      1.0  0.29569  0.66389  0.57656  1.0000
  C  Sn51      1.0  0.30120  0.68346  0.62208  1.0000
  C   C26       1.0  0.27183  0.72015  0.63662  1.0000
  C  Sn52      1.0  0.23706  0.73770  0.60664  1.0000
  O  Te49      1.0  0.19703  0.73509  0.53055  1.0000
  O  Te50      1.0  0.32464  0.62717  0.56122  1.0000
  O  Te51      1.0  0.33575  0.66646  0.65265  1.0000
  O  Te52      1.0  0.20811  0.77439  0.62196  1.0000
  Mg  Mg25      1.0  0.36655  0.61606  0.61568  1.0000
  Mg  Mg26      1.0  0.16618  0.78551  0.56754  1.0000
  C  Sn53      1.0  0.81142  0.18423  0.10748  1.0000
  C   C27       1.0  0.78466  0.22344  0.12061  1.0000
  C  Sn54      1.0  0.74057  0.23129  0.10036  1.0000
  C  Sn55      1.0  0.72285  0.19927  0.06629  1.0000
  C   C28       1.0  0.74960  0.16009  0.05319  1.0000
  C  Sn56      1.0  0.79370  0.15221  0.07341  1.0000
  O  Te53      1.0  0.85540  0.17708  0.12818  1.0000
  O  Te54      1.0  0.71447  0.27074  0.11404  1.0000
  O  Te55      1.0  0.67883  0.20645  0.04559  1.0000
  O  Te56      1.0  0.81979  0.11278  0.05975  1.0000
  Mg  Mg27      1.0  0.65649  0.26527  0.07580  1.0000
  Mg  Mg28      1.0  0.87776  0.11820  0.09799  1.0000
  C  Sn57      1.0  0.81652  0.80804  0.39937  1.0000
  C   C29       1.0  0.78641  0.77382  0.38041  1.0000
  C  Sn58      1.0  0.73912  0.77212  0.39364  1.0000
  C  Sn59      1.0  0.72155  0.80533  0.42648  1.0000
  C   C30       1.0  0.75165  0.83953  0.44541  1.0000
  C  Sn60      1.0  0.79895  0.84125  0.43221  1.0000
  O  Te57      1.0  0.86367  0.80908  0.38564  1.0000
  O  Te58      1.0  0.70970  0.73758  0.37421  1.0000
  O  Te59      1.0  0.67437  0.80426  0.44020  1.0000
  O  Te60      1.0  0.82836  0.87577  0.45160  1.0000
  Mg  Mg29      1.0  0.64816  0.75056  0.40394  1.0000
  Mg  Mg30      1.0  0.88990  0.86284  0.42189  1.0000
  C  Sn61      1.0  0.30311  0.34364  0.90616  1.0000
  C   C31       1.0  0.26548  0.34364  0.93768  1.0000
  C  Sn62      1.0  0.23505  0.30480  0.94030  1.0000
  C  Sn63      1.0  0.24240  0.26510  0.91081  1.0000
  C   C32       1.0  0.28002  0.26511  0.87931  1.0000
  C  Sn64      1.0  0.31046  0.30394  0.87667  1.0000
  O  Te61      1.0  0.33309  0.38285  0.90414  1.0000
  O  Te62      1.0  0.19766  0.30563  0.97209  1.0000
  O  Te63      1.0  0.21238  0.22587  0.91285  1.0000
  O  Te64      1.0  0.34784  0.30312  0.84491  1.0000
  Mg  Mg31      1.0  0.16644  0.24374  0.96184  1.0000
  Mg  Mg32      1.0  0.37909  0.36497  0.85515  1.0000
  C  Sn65      1.0  0.09793  0.20145  0.34524  1.0000
  C   C33       1.0  0.06466  0.23774  0.34404  1.0000
  C  Sn66      1.0  0.06079  0.26692  0.30459  1.0000
  C  Sn67      1.0  0.09077  0.25964  0.26551  1.0000
  C   C34       1.0  0.12401  0.22336  0.26672  1.0000
  C  Sn68      1.0  0.12792  0.19418  0.30616  1.0000
  O  Te65      1.0  0.10119  0.17271  0.38504  1.0000
  O  Te66      1.0  0.02727  0.30298  0.30422  1.0000
  O  Te67      1.0  0.08749  0.28842  0.22570  1.0000
  O  Te68      1.0  0.16140  0.15813  0.30654  1.0000
  Mg  Mg33      1.0  0.03631  0.33281  0.24192  1.0000
  Mg  Mg34      1.0  0.15238  0.12826  0.36881  1.0000
  C  Sn69      1.0  0.60593  0.68293  0.81370  1.0000
  C   C35       1.0  0.62146  0.71063  0.77606  1.0000
  C  Sn70      1.0  0.60369  0.75617  0.76928  1.0000
  C  Sn71      1.0  0.56971  0.77443  0.80080  1.0000
  C   C36       1.0  0.55421  0.74674  0.83842  1.0000
  C  Sn72      1.0  0.57195  0.70118  0.84522  1.0000
  O  Te69      1.0  0.62418  0.63749  0.81980  1.0000
  O  Te70      1.0  0.61974  0.78319  0.73139  1.0000
  O  Te71      1.0  0.55147  0.81990  0.79467  1.0000
  O  Te72      1.0  0.55592  0.67418  0.88309  1.0000
  Mg  Mg35      1.0  0.58435  0.84306  0.73785  1.0000
  Mg  Mg36      1.0  0.59131  0.61431  0.87668  1.0000
  C  Sn73      1.0  0.94248  0.76376  0.21918  1.0000
  C   C37       1.0  0.95567  0.73546  0.18124  1.0000
  C  Sn74      1.0  0.92419  0.70241  0.16251  1.0000
  C  Sn75      1.0  0.87856  0.69757  0.18208  1.0000
  C   C38       1.0  0.86539  0.72586  0.21999  1.0000
  C  Sn76      1.0  0.89685  0.75892  0.23875  1.0000
  O  Te73      1.0  0.97452  0.79657  0.23734  1.0000
  O  Te74      1.0  0.93818  0.67451  0.12459  1.0000
  O  Te75      1.0  0.84652  0.66473  0.16388  1.0000
  O  Te76      1.0  0.88287  0.78682  0.27664  1.0000
  Mg  Mg37      1.0  0.88199  0.63485  0.11210  1.0000
  Mg  Mg38      1.0  0.93903  0.82650  0.28914  1.0000
  C  Sn77      1.0  0.40443  0.27681  0.72055  1.0000
  C   C39       1.0  0.37153  0.23993  0.72062  1.0000
  C  Sn78      1.0  0.37988  0.19871  0.69497  1.0000
  C  Sn79      1.0  0.42200  0.19423  0.66872  1.0000
  C   C40       1.0  0.45487  0.23109  0.66867  1.0000
  C  Sn80      1.0  0.44655  0.27233  0.69430  1.0000
  O  Te77      1.0  0.39536  0.31770  0.74645  1.0000
  O  Te78      1.0  0.34646  0.16233  0.69556  1.0000
  O  Te79      1.0  0.43105  0.15330  0.64281  1.0000
  O  Te80      1.0  0.47995  0.30869  0.69372  1.0000
  Mg  Mg39      1.0  0.37483  0.11354  0.65470  1.0000
  Mg  Mg40      1.0  0.45163  0.35748  0.73459  1.0000
  C  Sn81      1.0  0.56198  0.23745  0.71684  1.0000
  C   C41       1.0  0.54823  0.26451  0.67810  1.0000
  C  Sn82      1.0  0.57941  0.29696  0.65790  1.0000
  C  Sn83      1.0  0.62530  0.30246  0.67678  1.0000
  C   C42       1.0  0.63903  0.27541  0.71549  1.0000
  C  Sn84      1.0  0.60787  0.24295  0.73573  1.0000
  O  Te81      1.0  0.53024  0.20521  0.73648  1.0000
  O  Te82      1.0  0.56485  0.32363  0.61920  1.0000
  O  Te83      1.0  0.65704  0.33473  0.65711  1.0000
  O  Te84      1.0  0.62241  0.21629  0.77440  1.0000
  Mg  Mg41      1.0  0.62082  0.36291  0.60473  1.0000
  Mg  Mg42      1.0  0.56648  0.17698  0.78888  1.0000
  C  Sn85      1.0  0.10581  0.78732  0.14913  1.0000
  C   C43       1.0  0.06796  0.75621  0.15519  1.0000
  C  Sn86      1.0  0.05959  0.73529  0.19886  1.0000
  C  Sn87      1.0  0.08966  0.74569  0.23729  1.0000
  C   C44       1.0  0.12748  0.77678  0.23123  1.0000
  C  Sn88      1.0  0.13588  0.79772  0.18756  1.0000
  O  Te85      1.0  0.11352  0.80783  0.10516  1.0000
  O  Te86      1.0  0.02153  0.70429  0.20406  1.0000
  O  Te87      1.0  0.08192  0.72515  0.28129  1.0000
  O  Te88      1.0  0.17391  0.82870  0.18236  1.0000
  Mg  Mg43      1.0  0.02551  0.68523  0.27086  1.0000
  Mg  Mg44      1.0  0.16995  0.84780  0.11558  1.0000
  C  Sn89      1.0  0.39575  0.81728  0.80680  1.0000
  C   C45       1.0  0.37864  0.78837  0.77080  1.0000
  C  Sn90      1.0  0.39312  0.74131  0.76737  1.0000
  C  Sn91      1.0  0.42536  0.72273  0.80063  1.0000
  C   C46       1.0  0.44244  0.75163  0.83661  1.0000
  C  Sn92      1.0  0.42798  0.79870  0.84006  1.0000
  O  Te89      1.0  0.38078  0.86423  0.80956  1.0000
  O  Te90      1.0  0.37554  0.71310  0.73107  1.0000
  O  Te91      1.0  0.44031  0.67574  0.79785  1.0000
  O  Te92      1.0  0.44554  0.82690  0.87634  1.0000
  Mg  Mg45      1.0  0.40643  0.65136  0.74210  1.0000
  Mg  Mg46      1.0  0.41466  0.88864  0.86535  1.0000
  C  Sn93      1.0  0.90061  0.29691  0.34214  1.0000
  C   C47       1.0  0.93321  0.25999  0.34200  1.0000
  C  Sn94      1.0  0.93669  0.22995  0.30325  1.0000
  C  Sn95      1.0  0.90699  0.23697  0.26382  1.0000
  C   C48       1.0  0.87441  0.27388  0.26398  1.0000
  C  Sn96      1.0  0.87090  0.30393  0.30271  1.0000
  O  Te93      1.0  0.89774  0.32651  0.38125  1.0000
  O  Te94      1.0  0.96955  0.19328  0.30393  1.0000
  O  Te95      1.0  0.90988  0.20733  0.22470  1.0000
  O  Te96      1.0  0.83808  0.34059  0.30205  1.0000
  Mg  Mg47      1.0  0.96018  0.16235  0.24227  1.0000
  Mg  Mg48      1.0  0.84743  0.37155  0.36367  1.0000
  C  Sn97      1.0  0.33449  0.51688  0.51155  1.0000
  C   C49       1.0  0.36789  0.51845  0.47561  1.0000
  C  Sn98      1.0  0.37204  0.55856  0.44716  1.0000
  C  Sn99      1.0  0.34220  0.59794  0.45480  1.0000
  C   C50       1.0  0.30883  0.59636  0.49072  1.0000
  C  Sn100     1.0  0.30465  0.55626  0.51919  1.0000
  O  Te97      1.0  0.33096  0.47643  0.53957  1.0000
  O  Te98      1.0  0.40568  0.55929  0.41144  1.0000
  O  Te99      1.0  0.34576  0.63841  0.42674  1.0000
  O  Te100     1.0  0.27104  0.55552  0.55489  1.0000
  Mg  Mg49      1.0  0.39702  0.62247  0.38260  1.0000
  Mg  Mg50      1.0  0.27969  0.49238  0.58377  1.0000
  C  Sn101     1.0  0.83459  0.07907  0.93873  1.0000
  C   C51       1.0  0.80070  0.07773  0.97421  1.0000
  C  Sn102     1.0  0.80671  0.05211  0.01461  1.0000
  C  Sn103     1.0  0.84885  0.02583  0.01965  1.0000
  C   C52       1.0  0.88408  0.02571  0.98419  1.0000
  C  Sn104     1.0  0.87673  0.05278  0.94377  1.0000
  O  Te101     1.0  0.82648  0.10640  0.89865  1.0000
  O  Te102     1.0  0.77231  0.05132  0.04960  1.0000
  O  Te103     1.0  0.86028  0.99849  0.05978  1.0000
  O  Te104     1.0  0.91110  0.05359  0.90880  1.0000
  Mg  Mg51      1.0  0.79959  0.00881  0.09770  1.0000
  Mg  Mg52      1.0  0.88387  0.09611  0.86069  1.0000
  C  Sn105     1.0  0.17087  0.48680  0.00803  1.0000
  C   C53       1.0  0.13743  0.48209  0.97346  1.0000
  C  Sn106     1.0  0.13152  0.44033  0.94790  1.0000
  C  Sn107     1.0  0.16099  0.40096  0.95710  1.0000
  C   C54       1.0  0.19576  0.40420  0.99165  1.0000
  C  Sn108     1.0  0.20034  0.44743  0.01723  1.0000
  O  Te105     1.0  0.17616  0.52890  0.03316  1.0000
  O  Te106     1.0  0.09649  0.43795  0.91351  1.0000
  O  Te107     1.0  0.15568  0.35884  0.93194  1.0000
  O  Te108     1.0  0.23533  0.44982  0.05161  1.0000
  Mg  Mg53      1.0  0.10299  0.37289  0.88864  1.0000
  Mg  Mg54      1.0  0.22885  0.51484  0.07651  1.0000
  C  Sn109     1.0  0.66506  0.98279  0.51521  1.0000
  C   C55       1.0  0.63347  0.98370  0.47758  1.0000
  C  Sn110     1.0  0.63059  0.94549  0.44663  1.0000
  C  Sn111     1.0  0.65988  0.90551  0.45345  1.0000
  C   C56       1.0  0.69144  0.90460  0.49106  1.0000
  C  Sn112     1.0  0.69435  0.94281  0.52203  1.0000
  O  Te109     1.0  0.66400  0.02138  0.54571  1.0000
  O  Te110     1.0  0.59875  0.94722  0.40926  1.0000
  O  Te111     1.0  0.65758  0.86690  0.42290  1.0000
  O  Te112     1.0  0.72617  0.94108  0.55938  1.0000
  Mg  Mg55      1.0  0.60861  0.88592  0.37721  1.0000
  Mg  Mg56      1.0  0.71298  0.00235  0.59146  1.0000
  C  Sn113     1.0  0.82565  0.94728  0.47172  1.0000
  C   C57       1.0  0.81048  0.91061  0.50107  1.0000
  C  Sn114     1.0  0.82874  0.90610  0.54641  1.0000
  C  Sn115     1.0  0.86286  0.93893  0.56277  1.0000
  C   C58       1.0  0.87801  0.97557  0.53343  1.0000
  C  Sn116     1.0  0.85977  0.98011  0.48808  1.0000
  O  Te113     1.0  0.80691  0.95111  0.42653  1.0000
  O  Te114     1.0  0.81304  0.86914  0.57510  1.0000
  O  Te115     1.0  0.88160  0.93506  0.60800  1.0000
  O  Te116     1.0  0.87210  0.01704  0.45940  1.0000
  Mg  Mg57      1.0  0.84906  0.87875  0.63388  1.0000
  Mg  Mg58      1.0  0.83610  0.00747  0.40063  1.0000
  C  Sn117     1.0  0.32984  0.44925  0.97251  1.0000
  C   C59       1.0  0.31218  0.41476  0.00212  1.0000
  C  Sn118     1.0  0.32726  0.41246  0.04876  1.0000
  C  Sn119     1.0  0.35927  0.44684  0.06619  1.0000
  C   C60       1.0  0.37555  0.48277  0.03660  1.0000
  C  Sn120     1.0  0.36186  0.48362  0.98994  1.0000
  O  Te117     1.0  0.31430  0.45087  0.92601  1.0000
  O  Te118     1.0  0.31049  0.37617  0.07768  1.0000
  O  Te119     1.0  0.37482  0.44519  0.11274  1.0000
  O  Te120     1.0  0.37861  0.51989  0.96103  1.0000
  Mg  Mg59      1.0  0.34194  0.38899  0.13843  1.0000
  Mg  Mg60      1.0  0.34715  0.50712  0.90029  1.0000
  C  Sn121     1.0  0.66736  0.01118  0.99204  1.0000
  C   C61       1.0  0.62828  0.01875  0.02284  1.0000
  C  Sn122     1.0  0.62128  0.06219  0.04507  1.0000
  C  Sn123     1.0  0.65263  0.10036  0.03631  1.0000
  C   C62       1.0  0.69032  0.09425  0.00553  1.0000
  C  Sn124     1.0  0.69871  0.04934  0.98328  1.0000
  O  Te121     1.0  0.67702  0.96744  0.97020  1.0000
  O  Te122     1.0  0.58333  0.06744  0.07573  1.0000
  O  Te123     1.0  0.64629  0.14412  0.05819  1.0000
  O  Te124     1.0  0.73664  0.04409  0.95264  1.0000
  Mg  Mg61      1.0  0.58945  0.13386  0.09701  1.0000
  Mg  Mg62      1.0  0.73388  0.97770  0.93132  1.0000
  C  Sn125     1.0  0.16950  0.57473  0.56242  1.0000
  C   C63       1.0  0.20089  0.57649  0.52473  1.0000
  C  Sn126     1.0  0.19015  0.55362  0.48259  1.0000
  C  Sn127     1.0  0.14711  0.52847  0.47802  1.0000
  C   C64       1.0  0.11574  0.52673  0.51569  1.0000
  C  Sn128     1.0  0.12646  0.54959  0.55784  1.0000
  O  Te125     1.0  0.18097  0.59787  0.60421  1.0000
  O  Te126     1.0  0.22210  0.55587  0.44541  1.0000
  O  Te127     1.0  0.13567  0.50533  0.43618  1.0000
  O  Te128     1.0  0.09454  0.54735  0.59500  1.0000
  Mg  Mg63      1.0  0.19059  0.51864  0.39555  1.0000
  Mg  Mg64      1.0  0.12599  0.58458  0.64487  1.0000
  C  Sn129     1.0  0.54745  0.53020  0.32414  1.0000
  C   C65       1.0  0.58640  0.50301  0.31149  1.0000
  C  Sn130     1.0  0.59315  0.45821  0.33113  1.0000
  C  Sn131     1.0  0.56027  0.44019  0.36409  1.0000
  C   C66       1.0  0.52134  0.46737  0.37672  1.0000
  C  Sn132     1.0  0.51457  0.51218  0.35710  1.0000
  O  Te129     1.0  0.54140  0.57490  0.30406  1.0000
  O  Te130     1.0  0.63237  0.43169  0.31794  1.0000
  O  Te131     1.0  0.56635  0.39546  0.38417  1.0000
  O  Te132     1.0  0.47538  0.53869  0.37026  1.0000
  Mg  Mg65      1.0  0.62527  0.37276  0.35500  1.0000
  Mg  Mg66      1.0  0.48243  0.59761  0.33321  1.0000
  C  Sn133     1.0  0.07827  0.95132  0.87251  1.0000
  C   C67       1.0  0.03902  0.97759  0.88613  1.0000
  C  Sn134     1.0  0.01520  0.00989  0.85514  1.0000
  C  Sn135     1.0  0.03432  0.01606  0.80956  1.0000
  C   C68       1.0  0.07687  0.98979  0.79595  1.0000
  C  Sn136     1.0  0.09739  0.95748  0.82693  1.0000
  O  Te133     1.0  0.09818  0.91922  0.90407  1.0000
  O  Te134     1.0  0.97599  0.03576  0.86956  1.0000
  O  Te135     1.0  0.01437  0.04819  0.77799  1.0000
  O  Te136     1.0  0.13656  0.93161  0.81252  1.0000
  Mg  Mg67      1.0  0.96131  0.07517  0.81394  1.0000
  Mg  Mg68      1.0  0.15125  0.89218  0.86810  1.0000
  C  Sn137     1.0  0.45450  0.03013  0.17381  1.0000
  C   C69       1.0  0.41517  0.00382  0.18770  1.0000
  C  Sn138     1.0  0.40937  0.95960  0.16774  1.0000
  C  Sn139     1.0  0.44021  0.94126  0.13320  1.0000
  C   C70       1.0  0.47951  0.96755  0.11933  1.0000
  C  Sn140     1.0  0.48533  0.01178  0.13926  1.0000
  O  Te137     1.0  0.46294  0.07426  0.19423  1.0000
  O  Te138     1.0  0.36982  0.93397  0.18219  1.0000
  O  Te139     1.0  0.43173  0.89709  0.11277  1.0000
  O  Te140     1.0  0.52486  0.03741  0.12484  1.0000
  Mg  Mg69      1.0  0.37330  0.87555  0.14406  1.0000
  Mg  Mg70      1.0  0.52143  0.09581  0.16296  1.0000
  C  Sn141     1.0  0.92664  0.43757  0.66888  1.0000
  C   C71       1.0  0.92554  0.47622  0.69943  1.0000
  C  Sn142     1.0  0.94813  0.51854  0.68749  1.0000
  C  Sn143     1.0  0.97228  0.52232  0.64410  1.0000
  C   C72       1.0  0.97336  0.48370  0.61358  1.0000
  C  Sn144     1.0  0.95080  0.44136  0.62549  1.0000
  O  Te141     1.0  0.90382  0.39561  0.68154  1.0000
  O  Te142     1.0  0.94656  0.55668  0.71860  1.0000
  O  Te143     1.0  0.99511  0.56433  0.63146  1.0000
  O  Te144     1.0  0.95235  0.40323  0.59440  1.0000
  Mg  Mg71      1.0  0.98300  0.60640  0.68558  1.0000
  Mg  Mg72      1.0  0.91590  0.35350  0.62737  1.0000
  C  Sn145     1.0  0.99001  0.49287  0.83095  1.0000
  C   C73       1.0  0.98498  0.52466  0.86813  1.0000
  C  Sn146     1.0  0.94252  0.54843  0.87493  1.0000
  C  Sn147     1.0  0.90427  0.54022  0.84393  1.0000
  C   C74       1.0  0.90930  0.50844  0.80678  1.0000
  C  Sn148     1.0  0.95176  0.48466  0.79995  1.0000
  O  Te145     1.0  0.03278  0.46950  0.82482  1.0000
  O  Te146     1.0  0.93834  0.58006  0.91234  1.0000
  O  Te147     1.0  0.86147  0.56362  0.85008  1.0000
  O  Te148     1.0  0.95594  0.45304  0.76257  1.0000
  Mg  Mg73      1.0  0.87299  0.60333  0.90616  1.0000
  Mg  Mg74      1.0  0.02126  0.42974  0.76873  1.0000
  C  Sn149     1.0  0.42415  0.05198  0.37047  1.0000
  C   C75       1.0  0.46263  0.02462  0.38436  1.0000
  C  Sn150     1.0  0.48568  0.99182  0.35352  1.0000
  C  Sn151     1.0  0.46655  0.98625  0.30783  1.0000
  C   C76       1.0  0.42476  0.01360  0.29396  1.0000
  C  Sn152     1.0  0.40502  0.04641  0.32478  1.0000
  O  Te149     1.0  0.40502  0.08456  0.40187  1.0000
  O  Te150     1.0  0.52412  0.96486  0.36821  1.0000
  O  Te151     1.0  0.48572  0.95364  0.27643  1.0000
  O  Te152     1.0  0.36661  0.07336  0.31011  1.0000
  Mg  Mg75      1.0  0.53791  0.92516  0.31272  1.0000
  Mg  Mg76      1.0  0.35281  0.11309  0.36556  1.0000
  C  Sn153     1.0  0.04934  0.97084  0.67392  1.0000
  C   C77       1.0  0.08133  0.00133  0.68995  1.0000
  C  Sn154     1.0  0.08458  0.04750  0.67262  1.0000
  C  Sn155     1.0  0.05182  0.06355  0.63857  1.0000
  C   C78       1.0  0.01651  0.03306  0.62257  1.0000
  C  Sn156     1.0  0.01658  0.98688  0.63988  1.0000
  O  Te153     1.0  0.04674  0.92482  0.69174  1.0000
  O  Te154     1.0  0.12022  0.07733  0.68916  1.0000
  O  Te155     1.0  0.05444  0.10960  0.62076  1.0000
  O  Te156     1.0  0.98096  0.95706  0.62336  1.0000
  Mg  Mg77      1.0  0.10921  0.13692  0.65424  1.0000
  Mg  Mg78      1.0  0.99192  0.89748  0.65827  1.0000
  C  Sn157     1.0  0.51377  0.49477  0.17082  1.0000
  C   C79       1.0  0.51754  0.52852  0.13509  1.0000
  C  Sn158     1.0  0.55976  0.55297  0.12805  1.0000
  C  Sn159     1.0  0.59904  0.54346  0.15731  1.0000
  C   C80       1.0  0.59526  0.50972  0.19300  1.0000
  C  Sn160     1.0  0.55305  0.48526  0.20008  1.0000
  O  Te157     1.0  0.47123  0.47075  0.17722  1.0000
  O  Te158     1.0  0.56267  0.58656  0.09212  1.0000
  O  Te159     1.0  0.64160  0.56751  0.15088  1.0000
  O  Te160     1.0  0.55013  0.45167  0.23598  1.0000
  Mg  Mg79      1.0  0.62820  0.61002  0.09724  1.0000
  Mg  Mg80      1.0  0.48464  0.42818  0.23087  1.0000
  C  Sn161     1.0  0.44115  0.33858  0.58251  1.0000
  C   C81       1.0  0.47529  0.30322  0.57964  1.0000
  C  Sn162     1.0  0.51440  0.30904  0.55052  1.0000
  C  Sn163     1.0  0.51951  0.35110  0.52373  1.0000
  C   C82       1.0  0.48539  0.38644  0.52662  1.0000
  C  Sn164     1.0  0.44627  0.38064  0.55572  1.0000
  O  Te161     1.0  0.40235  0.33201  0.61186  1.0000
  O  Te162     1.0  0.54806  0.27319  0.54822  1.0000
  O  Te163     1.0  0.55836  0.35765  0.49437  1.0000
  O  Te164     1.0  0.41263  0.41647  0.55804  1.0000
  Mg  Mg81      1.0  0.59473  0.29867  0.50318  1.0000
  Mg  Mg82      1.0  0.36595  0.39104  0.60309  1.0000
  C  Sn165     1.0  0.00770  0.82882  0.01263  1.0000
  C   C83       1.0  0.97399  0.86454  0.01602  1.0000
  C  Sn166     1.0  0.94872  0.87080  0.05756  1.0000
  C  Sn167     1.0  0.95735  0.84076  0.09655  1.0000
  C   C84       1.0  0.99106  0.80507  0.09315  1.0000
  C  Sn168     1.0  0.01633  0.79877  0.05161  1.0000
  O  Te165     1.0  0.03391  0.82172  0.97075  1.0000
  O  Te166     1.0  0.91518  0.90675  0.06011  1.0000
  O  Te167     1.0  0.93247  0.84641  0.13845  1.0000
  O  Te168     1.0  0.04986  0.76286  0.04906  1.0000
  Mg  Mg83      1.0  0.89039  0.90040  0.12475  1.0000
  Mg  Mg84      1.0  0.07605  0.76772  0.98445  1.0000
  C  Sn169     1.0  0.93723  0.16283  0.41901  1.0000
  C   C85       1.0  0.97331  0.19656  0.41950  1.0000
  C  Sn170     1.0  0.01442  0.18847  0.44517  1.0000
  C  Sn171     1.0  0.01960  0.14576  0.47088  1.0000
  C   C86       1.0  0.98354  0.11206  0.47038  1.0000
  C  Sn172     1.0  0.94241  0.12012  0.44472  1.0000
  O  Te169     1.0  0.89644  0.17166  0.39310  1.0000
  O  Te170     1.0  0.05000  0.22272  0.44513  1.0000
  O  Te171     1.0  0.06044  0.13696  0.49680  1.0000
  O  Te172     1.0  0.90685  0.08589  0.44474  1.0000
  Mg  Mg85      1.0  0.09898  0.19438  0.48578  1.0000
  Mg  Mg86      1.0  0.85787  0.11419  0.40408  1.0000
  C  Sn173     1.0  0.43800  0.66366  0.91929  1.0000
  C   C87       1.0  0.47301  0.69850  0.91965  1.0000
  C  Sn174     1.0  0.51337  0.69279  0.94710  1.0000
  C  Sn175     1.0  0.51887  0.65137  0.97473  1.0000
  C   C88       1.0  0.48387  0.61655  0.97435  1.0000
  C  Sn176     1.0  0.44349  0.62224  0.94692  1.0000
  O  Te173     1.0  0.39794  0.67011  0.89158  1.0000
  O  Te174     1.0  0.54789  0.72812  0.94690  1.0000
  O  Te175     1.0  0.55760  0.64640  0.00245  1.0000
  O  Te176     1.0  0.40899  0.58693  0.94711  1.0000
  Mg  Mg87      1.0  0.59616  0.70304  0.99042  1.0000
  Mg  Mg88      1.0  0.36072  0.61195  0.90358  1.0000
  C  Sn177     1.0  0.55772  0.83544  0.91726  1.0000
  C   C89       1.0  0.52239  0.80094  0.91832  1.0000
  C  Sn178     1.0  0.48162  0.80804  0.94470  1.0000
  C  Sn179     1.0  0.47604  0.85053  0.97053  1.0000
  C   C90       1.0  0.51136  0.88501  0.96946  1.0000
  C  Sn180     1.0  0.55214  0.87793  0.94310  1.0000
  O  Te177     1.0  0.59818  0.82759  0.89066  1.0000
  O  Te178     1.0  0.44679  0.77303  0.94523  1.0000
  O  Te179     1.0  0.43554  0.85836  0.99715  1.0000
  O  Te180     1.0  0.58695  0.91292  0.94255  1.0000
  Mg  Mg89      1.0  0.39802  0.80016  0.98673  1.0000
  Mg  Mg90      1.0  0.63572  0.88584  0.90105  1.0000
  C  Sn181     1.0  0.96826  0.32602  0.44957  1.0000
  C   C91       1.0  0.99672  0.31089  0.41258  1.0000
  C  Sn182     1.0  0.04294  0.32735  0.40853  1.0000
  C  Sn183     1.0  0.06111  0.35957  0.44218  1.0000
  C   C92       1.0  0.03266  0.37467  0.47915  1.0000
  C  Sn184     1.0  0.98643  0.35824  0.48322  1.0000
  O  Te181     1.0  0.92215  0.30911  0.45293  1.0000
  O  Te182     1.0  0.07072  0.31173  0.37124  1.0000
  O  Te183     1.0  0.10726  0.37647  0.43879  1.0000
  O  Te184     1.0  0.95866  0.37383  0.52049  1.0000
  Mg  Mg91      1.0  0.13132  0.34484  0.38175  1.0000
  Mg  Mg92      1.0  0.89806  0.34073  0.51002  1.0000
  C  Sn185     1.0  0.05410  0.62782  0.07674  1.0000
  C   C93       1.0  0.02504  0.61239  0.04018  1.0000
  C  Sn186     1.0  0.98964  0.64173  0.02265  1.0000
  C  Sn187     1.0  0.98318  0.68746  0.04205  1.0000
  C   C94       1.0  0.01224  0.70286  0.07857  1.0000
  C  Sn188     1.0  0.04764  0.67354  0.09613  1.0000
  O  Te185     1.0  0.08927  0.59789  0.09371  1.0000
  O  Te186     1.0  0.96238  0.62405  0.98610  1.0000
  O  Te187     1.0  0.94798  0.71738  0.02504  1.0000
  O  Te188     1.0  0.07626  0.68973  0.13265  1.0000
  Mg  Mg93      1.0  0.91933  0.67787  0.97490  1.0000
  Mg  Mg94      1.0  0.11934  0.63596  0.14386  1.0000
  C  Sn189     1.0  0.46927  0.17157  0.55163  1.0000
  C   C95       1.0  0.49861  0.18806  0.58750  1.0000
  C  Sn190     1.0  0.54510  0.17248  0.59075  1.0000
  C  Sn191     1.0  0.56264  0.13975  0.55742  1.0000
  C   C96       1.0  0.53332  0.12328  0.52157  1.0000
  C  Sn192     1.0  0.48682  0.13884  0.51830  1.0000
  O  Te189     1.0  0.42292  0.18762  0.54906  1.0000
  O  Te190     1.0  0.57375  0.18946  0.62694  1.0000
  O  Te191     1.0  0.60903  0.12370  0.56002  1.0000
  O  Te192     1.0  0.45818  0.12188  0.48213  1.0000
  Mg  Mg95      1.0  0.63437  0.15712  0.61566  1.0000
  Mg  Mg96      1.0  0.39756  0.15422  0.49336  1.0000
