data_image0
_chemical_formula_structural       OBOBOBOBOBOBOBOBOBOBOBOBOBOBOBOBOBOBOBOBOBOBOBOBOBOBOBOBOBOBOBOBOBOBOBOBOBOBOBOBOBOBOBOBOBOBOBOBC14Sn2C2HTe2HMgC2Sn2C2HTe2HMgC2Sn2C2HTe2HMgC2Sn2C2HTe2HMgC2Sn2C2HTe2HMgC2Sn2C2HTe2HMgC2Sn2C2HTe2HMgC2Sn2C2HTe2HMgC2Sn2C2HTe2HMgC2Sn2C2HTe2HMgC2Sn2C2HTe2HMgC2Sn2C2HTe2HMgC2Sn2C2HTe2HMgC2Sn2C2HTe2HMgC2Sn2C2HTe2HMgC2Sn2C2HTe2HMgC2Sn2C2HTe2HMgC2Sn2C2HTe2HMgC2Sn2C2HTe2HMgC2Sn2C2HTe2HMgC2Sn2C2HTe2HMgC2Sn2C2HTe2HMgC2Sn2C2HTe2HMgC2Sn2C2HTe2HMgC2Sn2C2HTe2HMgC2Sn2C2HTe2HMgC2Sn2C2HTe2HMgC2Sn2C2HTe2HMgC2Sn2C2HTe2HMgC2Sn2C2HTe2HMgC2Sn2C2HTe2HMgC2Sn2C2HTe2HMgC2Sn2C2HTe2HMgC2Sn2C2HTe2HMgC2Sn2C2HTe2HMgC2Sn2C2HTe2HMgC2Sn2C2HTe2HMgC2Sn2C2HTe2HMgC2Sn2C2HTe2HMgC2Sn2C2HTe2HMgC2Sn2C2HTe2HMgC2Sn2C2HTe2HMgC2Sn2C2HTe2HMgC2Sn2C2HTe2HMgC2Sn2C2HTe2HMgC2Sn2C2HTe2HMgC2Sn2C2HTe2HMgC2Sn2C2HTe2HMg
_chemical_formula_sum              "O48 B48 C204 Sn96 H96 Te96 Mg48"
_cell_length_a       27.1793
_cell_length_b       27.1479
_cell_length_c       27.1311
_cell_angle_alpha    89.9687
_cell_angle_beta     90
_cell_angle_gamma    90.1412

_symmetry_space_group_name_H-M    'P1'
_space_group_IT_number       1

loop_
  _space_group_symop_operation_xyz
  'x, y, z'

loop_
  _atom_site_type_symbol
  _atom_site_label
  _atom_site_symmetry_multiplicity
  _atom_site_fract_x
  _atom_site_fract_y
  _atom_site_fract_z
  _atom_site_occupancy
  O   O1        1.0  0.82780  0.74488  0.30238  1.0000
  B   B1        1.0  0.83342  0.71515  0.26091  1.0000
  O   O2        1.0  0.32483  0.24493  0.80324  1.0000
  B   B2        1.0  0.33318  0.21308  0.76399  1.0000
  O   O3        1.0  0.67104  0.25739  0.80238  1.0000
  B   B3        1.0  0.66450  0.28884  0.76226  1.0000
  O   O4        1.0  0.17384  0.75752  0.30241  1.0000
  B   B4        1.0  0.16698  0.78869  0.26219  1.0000
  O   O5        1.0  0.17437  0.24474  0.19913  1.0000
  B   B5        1.0  0.16632  0.21246  0.23820  1.0000
  O   O6        1.0  0.67365  0.74275  0.69708  1.0000
  B   B6        1.0  0.66760  0.71439  0.73937  1.0000
  O   O7        1.0  0.32136  0.75037  0.70022  1.0000
  B   B7        1.0  0.32834  0.78173  0.74024  1.0000
  O   O8        1.0  0.82901  0.25693  0.19564  1.0000
  B   B8        1.0  0.83632  0.28820  0.23565  1.0000
  O   O9        1.0  0.29574  0.82054  0.74754  1.0000
  B   B9        1.0  0.25842  0.83029  0.71372  1.0000
  O   O10       1.0  0.80446  0.32757  0.24280  1.0000
  B   B10       1.0  0.76556  0.33578  0.21056  1.0000
  O   O11       1.0  0.80007  0.67709  0.25247  1.0000
  B   B11       1.0  0.76171  0.66798  0.28528  1.0000
  O   O12       1.0  0.30224  0.17270  0.75725  1.0000
  B   B12       1.0  0.26324  0.16415  0.78936  1.0000
  O   O13       1.0  0.19753  0.17244  0.24496  1.0000
  B   B13       1.0  0.23637  0.16429  0.21259  1.0000
  O   O14       1.0  0.70156  0.67740  0.74986  1.0000
  B   B14       1.0  0.74005  0.66783  0.71741  1.0000
  O   O15       1.0  0.69755  0.32747  0.75501  1.0000
  B   B15       1.0  0.73701  0.33443  0.78711  1.0000
  O   O16       1.0  0.19982  0.82744  0.25465  1.0000
  B   B16       1.0  0.23984  0.83437  0.28594  1.0000
  O   O17       1.0  0.74287  0.30278  0.82715  1.0000
  B   B17       1.0  0.71046  0.26361  0.83454  1.0000
  O   O18       1.0  0.24711  0.80213  0.32513  1.0000
  B   B18       1.0  0.21449  0.76326  0.33318  1.0000
  O   O19       1.0  0.25279  0.79966  0.67289  1.0000
  B   B19       1.0  0.28373  0.75919  0.66654  1.0000
  O   O20       1.0  0.75925  0.30480  0.17014  1.0000
  B   B20       1.0  0.78954  0.26396  0.16381  1.0000
  O   O21       1.0  0.24297  0.19560  0.17250  1.0000
  B   B21       1.0  0.21277  0.23646  0.16616  1.0000
  O   O22       1.0  0.74679  0.69783  0.67625  1.0000
  B   B22       1.0  0.71387  0.73570  0.66598  1.0000
  O   O23       1.0  0.75481  0.69969  0.32499  1.0000
  B   B23       1.0  0.78776  0.73804  0.33372  1.0000
  O   O24       1.0  0.25664  0.19497  0.82985  1.0000
  B   B24       1.0  0.28654  0.23617  0.83627  1.0000
  O   O25       1.0  0.99312  0.07726  0.55071  1.0000
  B   B25       1.0  0.96012  0.08525  0.51231  1.0000
  O   O26       1.0  0.49320  0.57777  0.05475  1.0000
  B   B26       1.0  0.46238  0.58456  0.01437  1.0000
  O   O27       1.0  0.50667  0.92013  0.05289  1.0000
  B   B27       1.0  0.53606  0.91483  0.01126  1.0000
  O   O28       1.0  0.00939  0.41963  0.55716  1.0000
  B   B28       1.0  0.03957  0.41245  0.51635  1.0000
  O   O29       1.0  0.48849  0.41754  0.44047  1.0000
  B   B29       1.0  0.45852  0.41141  0.48169  1.0000
  O   O30       1.0  0.99520  0.92480  0.94756  1.0000
  B   B30       1.0  0.96189  0.91541  0.98545  1.0000
  O   O31       1.0  0.00715  0.57753  0.94766  1.0000
  B   B31       1.0  0.03838  0.58452  0.98776  1.0000
  O   O32       1.0  0.50470  0.07508  0.44944  1.0000
  B   B32       1.0  0.53640  0.08329  0.48889  1.0000
  O   O33       1.0  0.07751  0.55238  0.99514  1.0000
  B   B33       1.0  0.08424  0.51225  0.96399  1.0000
  O   O34       1.0  0.57647  0.05212  0.49541  1.0000
  B   B34       1.0  0.58658  0.01485  0.46162  1.0000
  O   O35       1.0  0.91930  0.05461  0.50734  1.0000
  B   B35       1.0  0.91371  0.01367  0.53789  1.0000
  O   O36       1.0  0.42317  0.55236  0.00719  1.0000
  B   B36       1.0  0.41424  0.51396  0.03998  1.0000
  O   O37       1.0  0.42062  0.44475  0.49014  1.0000
  B   B37       1.0  0.41380  0.48498  0.45916  1.0000
  O   O38       1.0  0.92087  0.94552  0.99073  1.0000
  B   B38       1.0  0.91469  0.98687  0.96094  1.0000
  O   O39       1.0  0.57421  0.94807  0.00287  1.0000
  B   B39       1.0  0.58326  0.98620  0.03609  1.0000
  O   O40       1.0  0.07837  0.44489  0.50754  1.0000
  B   B40       1.0  0.08603  0.48513  0.53831  1.0000
  O   O41       1.0  0.55268  0.99204  0.07688  1.0000
  B   B41       1.0  0.51335  0.95996  0.08448  1.0000
  O   O42       1.0  0.05459  0.49274  0.57812  1.0000
  B   B42       1.0  0.01563  0.46065  0.58730  1.0000
  O   O43       1.0  0.05224  0.50500  0.92470  1.0000
  B   B43       1.0  0.01387  0.53773  0.91609  1.0000
  O   O44       1.0  0.55685  0.00983  0.42010  1.0000
  B   B44       1.0  0.51456  0.03828  0.41507  1.0000
  O   O45       1.0  0.44579  0.49232  0.41977  1.0000
  B   B45       1.0  0.48363  0.45900  0.41061  1.0000
  O   O46       1.0  0.94769  0.99514  0.92251  1.0000
  B   B46       1.0  0.98771  0.96401  0.91536  1.0000
  O   O47       1.0  0.94772  0.00521  0.57526  1.0000
  B   B47       1.0  0.98702  0.03750  0.58258  1.0000
  O   O48       1.0  0.44553  0.50742  0.08009  1.0000
  B   B48       1.0  0.48599  0.53832  0.08674  1.0000
  C   C1        1.0  0.00081  0.75085  0.12445  1.0000
  C   C2        1.0  0.49790  0.25061  0.62504  1.0000
  C   C3        1.0  0.00035  0.25025  0.37469  1.0000
  C   C4        1.0  0.49829  0.74917  0.87409  1.0000
  C   C5        1.0  0.12464  0.99999  0.74847  1.0000
  C   C6        1.0  0.62641  0.49938  0.24979  1.0000
  C   C7        1.0  0.37636  0.00112  0.24942  1.0000
  C   C8        1.0  0.87578  0.50009  0.75096  1.0000
  C   C9        1.0  0.74907  0.12460  0.99998  1.0000
  C   C10       1.0  0.25008  0.62401  0.49804  1.0000
  C   C11       1.0  0.24946  0.37509  0.00093  1.0000
  C   C12       1.0  0.74943  0.87427  0.49981  1.0000
  C   C13       1.0  0.93905  0.77786  0.20768  1.0000
  C   C14       1.0  0.95632  0.74770  0.16975  1.0000
  C  Sn1       1.0  0.93107  0.70456  0.15734  1.0000
  C  Sn2       1.0  0.88772  0.69149  0.18344  1.0000
  C   C15       1.0  0.87072  0.72194  0.22130  1.0000
  C   C16       1.0  0.89629  0.76501  0.23343  1.0000
  H   H1        1.0  0.95881  0.81120  0.21705  1.0000
  O  Te1       1.0  0.94885  0.67484  0.11935  1.0000
  O  Te2       1.0  0.86176  0.64860  0.17178  1.0000
  H   H2        1.0  0.88288  0.78837  0.26278  1.0000
  Mg  Mg1       1.0  0.90061  0.62007  0.11711  1.0000
  C   C17       1.0  0.43272  0.28053  0.70488  1.0000
  C   C18       1.0  0.45362  0.24839  0.67058  1.0000
  C  Sn3       1.0  0.43326  0.20170  0.66302  1.0000
  C  Sn4       1.0  0.39120  0.18701  0.69035  1.0000
  C   C19       1.0  0.37055  0.21945  0.72455  1.0000
  C   C20       1.0  0.39122  0.26609  0.73183  1.0000
  H   H3        1.0  0.44870  0.31662  0.71049  1.0000
  O  Te3       1.0  0.45461  0.17004  0.62863  1.0000
  O  Te4       1.0  0.37010  0.14056  0.68352  1.0000
  H   H4        1.0  0.37502  0.29098  0.75836  1.0000
  Mg  Mg2       1.0  0.41250  0.11050  0.63244  1.0000
  C   C21       1.0  0.60246  0.31775  0.67725  1.0000
  C   C22       1.0  0.61751  0.29032  0.71813  1.0000
  C  Sn5       1.0  0.59442  0.24567  0.72939  1.0000
  C  Sn6       1.0  0.55557  0.22825  0.69907  1.0000
  C   C23       1.0  0.54081  0.25595  0.65823  1.0000
  C   C24       1.0  0.56415  0.30059  0.64732  1.0000
  H   H5        1.0  0.62053  0.35228  0.66878  1.0000
  O  Te5       1.0  0.60990  0.21874  0.77039  1.0000
  O  Te6       1.0  0.53187  0.18374  0.70947  1.0000
  H   H6        1.0  0.55251  0.32180  0.61564  1.0000
  Mg  Mg3       1.0  0.56616  0.16028  0.76940  1.0000
  C   C25       1.0  0.08329  0.81364  0.16021  1.0000
  C   C26       1.0  0.05312  0.77217  0.15536  1.0000
  C  Sn7       1.0  0.05705  0.73314  0.18871  1.0000
  C  Sn8       1.0  0.09186  0.73579  0.22759  1.0000
  C   C27       1.0  0.12185  0.77745  0.23215  1.0000
  C   C28       1.0  0.11762  0.81629  0.19857  1.0000
  H   H7        1.0  0.08000  0.84370  0.13425  1.0000
  O  Te7       1.0  0.02664  0.69197  0.18331  1.0000
  O  Te8       1.0  0.09655  0.69732  0.26144  1.0000
  H   H8        1.0  0.14097  0.84841  0.20235  1.0000
  Mg  Mg4       1.0  0.04685  0.64897  0.23869  1.0000
  C   C29       1.0  0.06582  0.27908  0.29485  1.0000
  C   C30       1.0  0.04484  0.24737  0.32963  1.0000
  C  Sn9       1.0  0.06564  0.20121  0.33857  1.0000
  C  Sn10      1.0  0.10823  0.18662  0.31216  1.0000
  C   C31       1.0  0.12896  0.21862  0.27746  1.0000
  C   C32       1.0  0.10785  0.26473  0.26879  1.0000
  H   H9        1.0  0.04951  0.31476  0.28816  1.0000
  O  Te9       1.0  0.04419  0.16998  0.37343  1.0000
  O  Te10      1.0  0.12977  0.14070  0.32038  1.0000
  H   H10       1.0  0.12412  0.28928  0.24189  1.0000
  Mg  Mg5       1.0  0.08704  0.11110  0.37160  1.0000
  C   C33       1.0  0.60991  0.69024  0.82795  1.0000
  C   C34       1.0  0.62119  0.71407  0.78369  1.0000
  C  Sn11      1.0  0.59272  0.75371  0.76756  1.0000
  C  Sn12      1.0  0.55223  0.76971  0.79636  1.0000
  C   C35       1.0  0.54127  0.74564  0.84061  1.0000
  C   C36       1.0  0.57000  0.70601  0.85639  1.0000
  H   H11       1.0  0.63216  0.65959  0.84018  1.0000
  O  Te11      1.0  0.60449  0.77709  0.72323  1.0000
  O  Te12      1.0  0.52317  0.80924  0.78112  1.0000
  H   H12       1.0  0.56127  0.68759  0.89068  1.0000
  Mg  Mg6       1.0  0.55390  0.82923  0.71801  1.0000
  C   C37       1.0  0.43471  0.72009  0.79278  1.0000
  C   C38       1.0  0.45344  0.75139  0.82914  1.0000
  C  Sn13      1.0  0.42898  0.79505  0.84089  1.0000
  C  Sn14      1.0  0.38497  0.80749  0.81572  1.0000
  C   C39       1.0  0.36652  0.77591  0.77943  1.0000
  C   C40       1.0  0.39129  0.73233  0.76795  1.0000
  H   H13       1.0  0.45386  0.68636  0.78391  1.0000
  O  Te13      1.0  0.44821  0.82591  0.87730  1.0000
  O  Te14      1.0  0.35978  0.85088  0.82675  1.0000
  H   H14       1.0  0.37676  0.70808  0.73982  1.0000
  Mg  Mg7       1.0  0.40058  0.88098  0.87921  1.0000
  C   C41       1.0  0.92073  0.23027  0.27086  1.0000
  C   C42       1.0  0.88455  0.26674  0.27174  1.0000
  C  Sn15      1.0  0.88614  0.30396  0.30725  1.0000
  C  Sn16      1.0  0.92473  0.30460  0.34246  1.0000
  C   C43       1.0  0.96077  0.26797  0.34125  1.0000
  C   C44       1.0  0.95882  0.23088  0.30557  1.0000
  H   H15       1.0  0.91924  0.20159  0.24323  1.0000
  O  Te15      1.0  0.84968  0.34010  0.30761  1.0000
  O  Te16      1.0  0.92721  0.34138  0.37834  1.0000
  H   H16       1.0  0.98686  0.20267  0.30487  1.0000
  Mg  Mg8       1.0  0.86896  0.38256  0.36377  1.0000
  C   C45       1.0  0.22419  0.91568  0.77156  1.0000
  C   C46       1.0  0.22383  0.88044  0.73403  1.0000
  C  Sn17      1.0  0.19107  0.88477  0.69460  1.0000
  C  Sn18      1.0  0.15811  0.92518  0.69279  1.0000
  C   C47       1.0  0.15878  0.96026  0.73049  1.0000
  C   C48       1.0  0.19170  0.95556  0.76980  1.0000
  H   H17       1.0  0.24968  0.91206  0.80196  1.0000
  O  Te17      1.0  0.19118  0.84923  0.65742  1.0000
  O  Te18      1.0  0.12499  0.93042  0.65379  1.0000
  H   H18       1.0  0.19199  0.98287  0.79883  1.0000
  Mg  Mg9       1.0  0.13916  0.87243  0.61193  1.0000
  C   C49       1.0  0.72521  0.41454  0.27358  1.0000
  C   C50       1.0  0.72844  0.38294  0.23307  1.0000
  C  Sn19      1.0  0.69803  0.38991  0.19215  1.0000
  C  Sn20      1.0  0.66380  0.42929  0.19187  1.0000
  C   C51       1.0  0.66088  0.46072  0.23257  1.0000
  C   C52       1.0  0.69147  0.45340  0.27333  1.0000
  H   H19       1.0  0.74889  0.40890  0.30511  1.0000
  O  Te19      1.0  0.70173  0.35799  0.15199  1.0000
  O  Te20      1.0  0.63298  0.43710  0.15145  1.0000
  H   H20       1.0  0.68898  0.47789  0.30468  1.0000
  Mg  Mg10      1.0  0.65179  0.38371  0.10552  1.0000
  C   C53       1.0  0.72624  0.58354  0.22670  1.0000
  C   C54       1.0  0.72730  0.61765  0.26525  1.0000
  C  Sn21      1.0  0.69515  0.61268  0.30513  1.0000
  C  Sn22      1.0  0.66136  0.57277  0.30635  1.0000
  C   C55       1.0  0.66061  0.53883  0.26762  1.0000
  C   C56       1.0  0.69293  0.54416  0.22788  1.0000
  H   H21       1.0  0.75126  0.58765  0.19596  1.0000
  O  Te21      1.0  0.69669  0.64709  0.34333  1.0000
  O  Te22      1.0  0.62883  0.56692  0.34577  1.0000
  H   H22       1.0  0.69212  0.51773  0.19805  1.0000
  Mg  Mg11      1.0  0.64498  0.62339  0.38906  1.0000
  C   C57       1.0  0.17869  0.10230  0.81723  1.0000
  C   C58       1.0  0.21947  0.11733  0.78964  1.0000
  C  Sn23      1.0  0.22946  0.09544  0.74414  1.0000
  C  Sn24      1.0  0.19796  0.05783  0.72603  1.0000
  C   C59       1.0  0.15724  0.04308  0.75390  1.0000
  C   C60       1.0  0.14760  0.06522  0.79939  1.0000
  H   H23       1.0  0.17121  0.11945  0.85241  1.0000
  O  Te23      1.0  0.27037  0.11088  0.71705  1.0000
  O  Te24      1.0  0.20708  0.03534  0.68067  1.0000
  H   H24       1.0  0.11600  0.05360  0.82073  1.0000
  Mg  Mg12      1.0  0.26741  0.06906  0.65732  1.0000
  C   C61       1.0  0.32202  0.10505  0.18384  1.0000
  C   C62       1.0  0.28043  0.11807  0.21113  1.0000
  C  Sn25      1.0  0.26989  0.09413  0.25550  1.0000
  C  Sn26      1.0  0.30165  0.05649  0.27279  1.0000
  C   C63       1.0  0.34319  0.04376  0.24524  1.0000
  C   C64       1.0  0.35338  0.06795  0.20088  1.0000
  H   H25       1.0  0.32993  0.12378  0.14953  1.0000
  O  Te25      1.0  0.22818  0.10757  0.28230  1.0000
  O  Te26      1.0  0.29200  0.03198  0.31703  1.0000
  H   H26       1.0  0.38560  0.05789  0.17977  1.0000
  Mg  Mg13      1.0  0.23062  0.06342  0.34039  1.0000
  C   C65       1.0  0.77676  0.58412  0.77664  1.0000
  C   C66       1.0  0.77555  0.61868  0.73846  1.0000
  C  Sn27      1.0  0.80703  0.61391  0.69804  1.0000
  C  Sn28      1.0  0.84028  0.57376  0.69590  1.0000
  C   C67       1.0  0.84117  0.53936  0.73426  1.0000
  C   C68       1.0  0.80953  0.54450  0.77454  1.0000
  H   H27       1.0  0.75225  0.58807  0.80779  1.0000
  O  Te27      1.0  0.80536  0.64878  0.66023  1.0000
  O  Te28      1.0  0.87213  0.56810  0.65592  1.0000
  H   H28       1.0  0.81044  0.51772  0.80408  1.0000
  Mg  Mg14      1.0  0.85607  0.62519  0.61348  1.0000
  C   C69       1.0  0.82133  0.39611  0.81735  1.0000
  C   C70       1.0  0.78145  0.38094  0.78856  1.0000
  C  Sn29      1.0  0.77217  0.40348  0.74321  1.0000
  C  Sn30      1.0  0.80346  0.44191  0.72647  1.0000
  C   C71       1.0  0.84328  0.45680  0.75554  1.0000
  C   C72       1.0  0.85222  0.43400  0.80086  1.0000
  H   H29       1.0  0.82827  0.37846  0.85241  1.0000
  O  Te29      1.0  0.73216  0.38789  0.71491  1.0000
  O  Te30      1.0  0.79504  0.46507  0.68129  1.0000
  H   H30       1.0  0.88312  0.44574  0.82314  1.0000
  Mg  Mg15      1.0  0.73582  0.43082  0.65597  1.0000
  C   C73       1.0  0.29448  0.93804  0.22167  1.0000
  C   C74       1.0  0.33102  0.95693  0.25263  1.0000
  C  Sn31      1.0  0.34206  0.93337  0.29706  1.0000
  C  Sn32      1.0  0.31599  0.89010  0.31063  1.0000
  C   C75       1.0  0.27953  0.87148  0.27938  1.0000
  C   C76       1.0  0.26876  0.89535  0.23502  1.0000
  H   H31       1.0  0.28617  0.95649  0.18733  1.0000
  O  Te31      1.0  0.37866  0.95275  0.32757  1.0000
  O  Te32      1.0  0.32630  0.86582  0.35482  1.0000
  H   H32       1.0  0.24049  0.88069  0.21104  1.0000
  Mg  Mg16      1.0  0.37937  0.90648  0.38403  1.0000
  C   C77       1.0  0.77473  0.20925  0.93843  1.0000
  C   C78       1.0  0.74514  0.17102  0.95625  1.0000
  C  Sn33      1.0  0.70142  0.15866  0.93210  1.0000
  C  Sn34      1.0  0.68716  0.18512  0.88934  1.0000
  C   C79       1.0  0.71703  0.22328  0.87179  1.0000
  C   C80       1.0  0.76070  0.23536  0.89624  1.0000
  H   H33       1.0  0.80853  0.21857  0.95733  1.0000
  O  Te33      1.0  0.67228  0.12037  0.95041  1.0000
  O  Te34      1.0  0.64366  0.17352  0.86448  1.0000
  H   H34       1.0  0.78362  0.26494  0.88242  1.0000
  Mg  Mg17      1.0  0.61631  0.11835  0.90370  1.0000
  C   C81       1.0  0.27446  0.72461  0.41526  1.0000
  C   C82       1.0  0.23641  0.72581  0.38064  1.0000
  C  Sn35      1.0  0.19645  0.69363  0.38493  1.0000
  C  Sn36      1.0  0.19464  0.65966  0.42465  1.0000
  C   C83       1.0  0.23287  0.65878  0.45912  1.0000
  C   C84       1.0  0.27269  0.69113  0.45447  1.0000
  H   H35       1.0  0.30526  0.74966  0.41169  1.0000
  O  Te35      1.0  0.15875  0.69531  0.35000  1.0000
  O  Te36      1.0  0.15512  0.62710  0.42983  1.0000
  H   H36       1.0  0.30213  0.69022  0.48130  1.0000
  Mg  Mg18      1.0  0.11267  0.64348  0.37285  1.0000
  C   C85       1.0  0.31473  0.67603  0.60390  1.0000
  C   C86       1.0  0.28674  0.71651  0.61871  1.0000
  C  Sn37      1.0  0.24247  0.72739  0.59495  1.0000
  C  Sn38      1.0  0.22601  0.69709  0.55564  1.0000
  C   C87       1.0  0.25426  0.65665  0.54112  1.0000
  C   C88       1.0  0.29851  0.64612  0.56514  1.0000
  H   H37       1.0  0.34895  0.66786  0.62250  1.0000
  O  Te37      1.0  0.21497  0.76799  0.61021  1.0000
  O  Te38      1.0  0.18190  0.70711  0.53126  1.0000
  H   H38       1.0  0.32016  0.61475  0.55368  1.0000
  Mg  Mg19      1.0  0.15738  0.76658  0.56550  1.0000
  C   C89       1.0  0.81522  0.17619  0.10521  1.0000
  C   C90       1.0  0.78876  0.21804  0.11903  1.0000
  C  Sn39      1.0  0.74467  0.22970  0.09531  1.0000
  C  Sn40      1.0  0.72683  0.19883  0.05707  1.0000
  C   C91       1.0  0.75356  0.15703  0.04354  1.0000
  C   C92       1.0  0.79764  0.14571  0.06751  1.0000
  H   H39       1.0  0.84932  0.16741  0.12377  1.0000
  O  Te39      1.0  0.71870  0.27166  0.10956  1.0000
  O  Te40      1.0  0.68286  0.20961  0.03276  1.0000
  H   H40       1.0  0.81811  0.11329  0.05682  1.0000
  Mg  Mg20      1.0  0.66069  0.27089  0.06538  1.0000
  C   C93       1.0  0.27880  0.29458  0.06518  1.0000
  C   C94       1.0  0.24692  0.32960  0.04517  1.0000
  C  Sn41      1.0  0.20103  0.33802  0.06676  1.0000
  C  Sn42      1.0  0.18692  0.31083  0.10916  1.0000
  C   C95       1.0  0.21909  0.27591  0.12891  1.0000
  C   C96       1.0  0.26492  0.26776  0.10701  1.0000
  H   H41       1.0  0.31427  0.28830  0.04825  1.0000
  O  Te41      1.0  0.16962  0.37313  0.04628  1.0000
  O  Te42      1.0  0.14128  0.31852  0.13148  1.0000
  H   H42       1.0  0.28961  0.24067  0.12253  1.0000
  Mg  Mg21      1.0  0.11126  0.37036  0.08993  1.0000
  C   C97       1.0  0.68477  0.83244  0.57780  1.0000
  C   C98       1.0  0.72706  0.84026  0.54954  1.0000
  C  Sn43      1.0  0.76819  0.81011  0.55576  1.0000
  C  Sn44      1.0  0.76683  0.77144  0.59094  1.0000
  C   C99       1.0  0.72433  0.76390  0.61900  1.0000
  C   C100      1.0  0.68339  0.79430  0.61249  1.0000
  H   H43       1.0  0.65308  0.85594  0.57275  1.0000
  O  Te43      1.0  0.81015  0.81845  0.52723  1.0000
  O  Te44      1.0  0.80741  0.74075  0.59789  1.0000
  H   H44       1.0  0.65064  0.78821  0.63436  1.0000
  Mg  Mg22      1.0  0.85611  0.76679  0.55020  1.0000
  C   C101      1.0  0.81573  0.83409  0.42298  1.0000
  C   C102      1.0  0.77240  0.84224  0.44945  1.0000
  C  Sn45      1.0  0.73096  0.81288  0.44104  1.0000
  C  Sn46      1.0  0.73305  0.77466  0.40545  1.0000
  C   C103      1.0  0.77658  0.76678  0.37918  1.0000
  C   C104      1.0  0.81783  0.79639  0.38789  1.0000
  H   H45       1.0  0.84765  0.85698  0.42973  1.0000
  O  Te45      1.0  0.68796  0.82153  0.46780  1.0000
  O  Te46      1.0  0.69218  0.74475  0.39632  1.0000
  H   H46       1.0  0.85138  0.79005  0.36741  1.0000
  Mg  Mg23      1.0  0.64197  0.77097  0.44215  1.0000
  C   C105      1.0  0.31558  0.32076  0.89740  1.0000
  C   C106      1.0  0.28728  0.28032  0.88268  1.0000
  C  Sn47      1.0  0.24222  0.27049  0.90548  1.0000
  C  Sn48      1.0  0.22527  0.30180  0.94371  1.0000
  C   C107      1.0  0.25385  0.34218  0.95815  1.0000
  C   C108      1.0  0.29889  0.35167  0.93509  1.0000
  H   H47       1.0  0.35042  0.32812  0.87955  1.0000
  O  Te47      1.0  0.21441  0.22992  0.89033  1.0000
  O  Te48      1.0  0.18037  0.29283  0.96711  1.0000
  H   H48       1.0  0.32078  0.38300  0.94648  1.0000
  Mg  Mg24      1.0  0.15570  0.23297  0.93346  1.0000
  C   C109      1.0  0.93109  0.14812  0.42843  1.0000
  C   C110      1.0  0.96176  0.12839  0.46472  1.0000
  C  Sn49      1.0  0.00720  0.15028  0.47490  1.0000
  C  Sn50      1.0  0.02211  0.19272  0.44821  1.0000
  C   C111      1.0  0.99115  0.21220  0.41200  1.0000
  C   C112      1.0  0.94576  0.18999  0.40210  1.0000
  H   H49       1.0  0.89595  0.13095  0.42078  1.0000
  O  Te49      1.0  0.03741  0.13008  0.51127  1.0000
  O  Te50      1.0  0.06734  0.21536  0.45765  1.0000
  H   H50       1.0  0.92200  0.20529  0.37402  1.0000
  Mg  Mg25      1.0  0.09563  0.17411  0.51072  1.0000
  C   C113      1.0  0.43411  0.64358  0.92787  1.0000
  C   C114      1.0  0.46406  0.62714  0.96635  1.0000
  C  Sn51      1.0  0.50698  0.65281  0.97853  1.0000
  C  Sn52      1.0  0.52006  0.69573  0.95164  1.0000
  C   C115      1.0  0.48983  0.71189  0.91323  1.0000
  C   C116      1.0  0.44697  0.68592  0.90134  1.0000
  H   H51       1.0  0.40094  0.62351  0.91868  1.0000
  O  Te51      1.0  0.53650  0.63642  0.01707  1.0000
  O  Te52      1.0  0.56274  0.72210  0.96306  1.0000
  H   H52       1.0  0.42378  0.69868  0.87156  1.0000
  Mg  Mg26      1.0  0.59103  0.68493  0.01870  1.0000
  C   C117      1.0  0.47665  0.83115  0.97590  1.0000
  C   C118      1.0  0.51651  0.86367  0.97830  1.0000
  C  Sn53      1.0  0.55322  0.86238  0.94228  1.0000
  C  Sn54      1.0  0.54985  0.82787  0.90317  1.0000
  C   C119      1.0  0.50981  0.79551  0.90108  1.0000
  C   C120      1.0  0.47329  0.79710  0.93732  1.0000
  H   H53       1.0  0.44838  0.83294  0.00393  1.0000
  O  Te53      1.0  0.59280  0.89513  0.94525  1.0000
  O  Te54      1.0  0.58602  0.82580  0.86667  1.0000
  H   H54       1.0  0.44241  0.77194  0.93544  1.0000
  Mg  Mg27      1.0  0.63285  0.87805  0.88674  1.0000
  C   C121      1.0  0.06274  0.33228  0.41195  1.0000
  C   C122      1.0  0.02448  0.29782  0.41049  1.0000
  C  Sn55      1.0  0.98556  0.30086  0.44398  1.0000
  C  Sn56      1.0  0.98503  0.33915  0.47955  1.0000
  C   C123      1.0  0.02345  0.37346  0.48069  1.0000
  C   C124      1.0  0.06222  0.37007  0.44701  1.0000
  H   H55       1.0  0.09272  0.32968  0.38588  1.0000
  O  Te55      1.0  0.94765  0.26611  0.44201  1.0000
  O  Te56      1.0  0.94657  0.34305  0.51345  1.0000
  H   H56       1.0  0.09182  0.39678  0.44813  1.0000
  Mg  Mg28      1.0  0.90332  0.28689  0.49605  1.0000
  C   C125      1.0  0.42882  0.34995  0.56623  1.0000
  C   C126      1.0  0.46003  0.36900  0.52995  1.0000
  C  Sn57      1.0  0.50566  0.34717  0.52101  1.0000
  C  Sn58      1.0  0.52021  0.30549  0.54896  1.0000
  C   C127      1.0  0.48871  0.28669  0.58515  1.0000
  C   C128      1.0  0.44314  0.30883  0.59380  1.0000
  H   H57       1.0  0.39355  0.36707  0.57290  1.0000
  O  Te57      1.0  0.53640  0.36668  0.48464  1.0000
  O  Te58      1.0  0.56561  0.28294  0.54078  1.0000
  H   H58       1.0  0.41897  0.29405  0.62187  1.0000
  Mg  Mg29      1.0  0.59467  0.32308  0.48718  1.0000
  C   C129      1.0  0.93927  0.83447  0.09010  1.0000
  C   C130      1.0  0.97672  0.79929  0.08979  1.0000
  C  Sn59      1.0  0.01463  0.80220  0.05512  1.0000
  C  Sn60      1.0  0.01497  0.84111  0.02018  1.0000
  C   C131      1.0  0.97735  0.87614  0.02082  1.0000
  C   C132      1.0  0.93959  0.87287  0.05566  1.0000
  H   H59       1.0  0.91007  0.83196  0.11707  1.0000
  O  Te59      1.0  0.05175  0.76674  0.05531  1.0000
  O  Te60      1.0  0.05242  0.84436  0.98513  1.0000
  H   H60       1.0  0.91061  0.90013  0.05591  1.0000
  Mg  Mg30      1.0  0.09484  0.78765  0.00023  1.0000
  C   C133      1.0  0.06750  0.64669  0.07193  1.0000
  C   C134      1.0  0.03699  0.62790  0.03494  1.0000
  C  Sn61      1.0  0.99279  0.65140  0.02342  1.0000
  C  Sn62      1.0  0.97896  0.69451  0.04947  1.0000
  C   C135      1.0  0.00975  0.71303  0.08639  1.0000
  C   C136      1.0  0.05390  0.68921  0.09763  1.0000
  H   H61       1.0  0.10167  0.62828  0.08061  1.0000
  O  Te61      1.0  0.96273  0.63159  0.98637  1.0000
  O  Te62      1.0  0.93499  0.71874  0.03869  1.0000
  H   H62       1.0  0.07752  0.70378  0.12624  1.0000
  Mg  Mg31      1.0  0.90641  0.67773  0.98512  1.0000
  C   C137      1.0  0.56072  0.16806  0.59023  1.0000
  C   C138      1.0  0.52197  0.20180  0.59080  1.0000
  C  Sn63      1.0  0.48253  0.19646  0.55821  1.0000
  C  Sn64      1.0  0.48195  0.15656  0.52446  1.0000
  C   C139      1.0  0.52087  0.12298  0.52420  1.0000
  C   C140      1.0  0.56017  0.12868  0.55697  1.0000
  H   H63       1.0  0.59111  0.17245  0.61560  1.0000
  O  Te63      1.0  0.44413  0.23051  0.55926  1.0000
  O  Te64      1.0  0.44298  0.15034  0.49149  1.0000
  H   H64       1.0  0.59015  0.10253  0.55653  1.0000
  Mg  Mg32      1.0  0.39919  0.20639  0.50706  1.0000
  C   C141      1.0  0.16433  0.47308  0.02526  1.0000
  C   C142      1.0  0.13519  0.47854  0.98326  1.0000
  C  Sn65      1.0  0.14051  0.44677  0.94314  1.0000
  C  Sn66      1.0  0.17569  0.40829  0.94521  1.0000
  C   C143      1.0  0.20465  0.40257  0.98741  1.0000
  C   C144      1.0  0.19902  0.43513  0.02734  1.0000
  H   H65       1.0  0.15997  0.49783  0.05618  1.0000
  O  Te65      1.0  0.11111  0.45330  0.90145  1.0000
  O  Te66      1.0  0.18176  0.37600  0.90564  1.0000
  H   H66       1.0  0.22157  0.43045  0.05987  1.0000
  Mg  Mg33      1.0  0.13307  0.39988  0.85695  1.0000
  C   C145      1.0  0.68526  0.95467  0.52894  1.0000
  C   C146      1.0  0.70208  0.91640  0.49897  1.0000
  C  Sn67      1.0  0.68306  0.91023  0.45153  1.0000
  C  Sn68      1.0  0.64653  0.94305  0.43386  1.0000
  C   C147      1.0  0.62997  0.98124  0.46411  1.0000
  C   C148      1.0  0.64925  0.98707  0.51153  1.0000
  H   H67       1.0  0.70019  0.95920  0.56562  1.0000
  O  Te67      1.0  0.70026  0.87178  0.42208  1.0000
  O  Te68      1.0  0.62690  0.93773  0.38658  1.0000
  H   H68       1.0  0.63378  0.01673  0.53472  1.0000
  Mg  Mg34      1.0  0.66217  0.87966  0.36034  1.0000
  C   C149      1.0  0.84921  0.93184  0.56962  1.0000
  C   C150      1.0  0.86982  0.96667  0.53773  1.0000
  C  Sn69      1.0  0.84893  0.97506  0.49144  1.0000
  C  Sn70      1.0  0.80661  0.94802  0.47691  1.0000
  C   C151      1.0  0.78625  0.91328  0.50909  1.0000
  C   C152      1.0  0.80746  0.90517  0.55532  1.0000
  H   H69       1.0  0.86560  0.92559  0.60540  1.0000
  O  Te69      1.0  0.86754  0.00998  0.46003  1.0000
  O  Te70      1.0  0.78498  0.95567  0.43085  1.0000
  H   H70       1.0  0.79147  0.87823  0.58002  1.0000
  Mg  Mg35      1.0  0.82472  0.00723  0.40102  1.0000
  C   C153      1.0  0.34946  0.43212  0.07049  1.0000
  C   C154      1.0  0.36953  0.46791  0.03932  1.0000
  C  Sn71      1.0  0.34825  0.47664  0.99338  1.0000
  C  Sn72      1.0  0.30610  0.44955  0.97847  1.0000
  C   C155      1.0  0.28629  0.41440  0.00994  1.0000
  C   C156      1.0  0.30788  0.40540  0.05583  1.0000
  H   H71       1.0  0.36615  0.42517  0.10601  1.0000
  O  Te71      1.0  0.36878  0.51251  0.96268  1.0000
  O  Te72      1.0  0.28410  0.45809  0.93276  1.0000
  H   H72       1.0  0.29232  0.37771  0.07997  1.0000
  Mg  Mg36      1.0  0.32560  0.51076  0.90390  1.0000
  C   C157      1.0  0.35150  0.56846  0.42969  1.0000
  C   C158      1.0  0.37084  0.53237  0.46085  1.0000
  C  Sn73      1.0  0.34861  0.52251  0.50624  1.0000
  C  Sn74      1.0  0.30623  0.54934  0.52059  1.0000
  C   C159      1.0  0.28714  0.58535  0.48914  1.0000
  C   C160      1.0  0.30969  0.59492  0.44381  1.0000
  H   H73       1.0  0.36892  0.57586  0.39461  1.0000
  O  Te73      1.0  0.36842  0.48634  0.53694  1.0000
  O  Te74      1.0  0.28327  0.54022  0.56574  1.0000
  H   H74       1.0  0.29469  0.62285  0.41967  1.0000
  Mg  Mg37      1.0  0.32404  0.48732  0.59484  1.0000
  C   C161      1.0  0.80909  0.03910  0.02440  1.0000
  C   C162      1.0  0.79608  0.08118  0.99866  1.0000
  C  Sn75      1.0  0.82132  0.09445  0.95578  1.0000
  C  Sn76      1.0  0.86029  0.06441  0.93843  1.0000
  C   C163      1.0  0.87301  0.02182  0.96443  1.0000
  C   C164      1.0  0.84751  0.00944  0.00730  1.0000
  H   H75       1.0  0.78936  0.02908  0.05755  1.0000
  O  Te75      1.0  0.80785  0.13716  0.93053  1.0000
  O  Te76      1.0  0.88612  0.07680  0.89567  1.0000
  H   H76       1.0  0.86004  0.97642  0.02720  1.0000
  Mg  Mg38      1.0  0.85409  0.13858  0.87410  1.0000
  C   C165      1.0  0.66507  0.08953  0.06100  1.0000
  C   C166      1.0  0.70013  0.09006  0.02333  1.0000
  C  Sn77      1.0  0.69690  0.05592  0.98446  1.0000
  C  Sn78      1.0  0.65780  0.02122  0.98337  1.0000
  C   C167      1.0  0.62289  0.02156  0.02122  1.0000
  C   C168      1.0  0.62648  0.05532  0.05995  1.0000
  H   H77       1.0  0.66783  0.11567  0.09096  1.0000
  O  Te77      1.0  0.73225  0.05695  0.94712  1.0000
  O  Te78      1.0  0.65614  0.98725  0.94495  1.0000
  H   H78       1.0  0.59931  0.05492  0.08910  1.0000
  Mg  Mg39      1.0  0.71088  0.00319  0.90261  1.0000
  C   C169      1.0  0.18791  0.54067  0.47137  1.0000
  C   C170      1.0  0.20262  0.58168  0.49883  1.0000
  C  Sn79      1.0  0.18045  0.59183  0.54415  1.0000
  C  Sn80      1.0  0.14286  0.56027  0.56222  1.0000
  C   C171      1.0  0.12843  0.51932  0.53448  1.0000
  C   C172      1.0  0.15085  0.50952  0.48918  1.0000
  H   H79       1.0  0.20527  0.53306  0.43633  1.0000
  O  Te79      1.0  0.19558  0.63296  0.57110  1.0000
  O  Te80      1.0  0.12010  0.56955  0.60740  1.0000
  H   H80       1.0  0.13947  0.47775  0.46794  1.0000
  Mg  Mg40      1.0  0.15345  0.63017  0.63061  1.0000
  C   C173      1.0  0.41127  0.93702  0.16835  1.0000
  C   C174      1.0  0.41040  0.97668  0.20115  1.0000
  C  Sn81      1.0  0.44052  0.01611  0.19511  1.0000
  C  Sn82      1.0  0.47454  0.01574  0.15545  1.0000
  C   C175      1.0  0.47755  0.97591  0.12281  1.0000
  C   C176      1.0  0.44480  0.93663  0.12921  1.0000
  H   H81       1.0  0.38591  0.90664  0.17328  1.0000
  O  Te81      1.0  0.43917  0.05543  0.22823  1.0000
  O  Te82      1.0  0.50750  0.05468  0.14854  1.0000
  H   H82       1.0  0.44546  0.90595  0.10378  1.0000
  Mg  Mg41      1.0  0.49147  0.09993  0.20342  1.0000
  C   C177      1.0  0.91318  0.43643  0.67021  1.0000
  C   C178      1.0  0.91087  0.47614  0.70288  1.0000
  C  Sn83      1.0  0.94266  0.51627  0.69728  1.0000
  C  Sn84      1.0  0.97736  0.51656  0.65821  1.0000
  C   C179      1.0  0.97935  0.47668  0.62570  1.0000
  C   C180      1.0  0.94738  0.43670  0.63165  1.0000
  H   H83       1.0  0.88842  0.40551  0.67479  1.0000
  O  Te83      1.0  0.93988  0.55563  0.73026  1.0000
  O  Te84      1.0  0.00956  0.55621  0.65175  1.0000
  H   H84       1.0  0.94915  0.40598  0.60633  1.0000
  Mg  Mg42      1.0  0.99159  0.60122  0.70622  1.0000
  C   C181      1.0  0.97501  0.47648  0.83548  1.0000
  C   C182      1.0  0.98167  0.51883  0.86399  1.0000
  C  Sn85      1.0  0.95027  0.55909  0.85825  1.0000
  C  Sn86      1.0  0.91149  0.55679  0.82330  1.0000
  C   C183      1.0  0.90511  0.51424  0.79499  1.0000
  C   C184      1.0  0.93676  0.47417  0.80102  1.0000
  H   H85       1.0  0.99948  0.44546  0.84017  1.0000
  O  Te85      1.0  0.95746  0.60113  0.88701  1.0000
  O  Te86      1.0  0.87956  0.59649  0.81682  1.0000
  H   H86       1.0  0.93157  0.44137  0.77897  1.0000
  Mg  Mg43      1.0  0.90432  0.64569  0.86469  1.0000
  C   C185      1.0  0.46228  0.97610  0.30846  1.0000
  C   C186      1.0  0.41730  0.00206  0.29585  1.0000
  C  Sn87      1.0  0.40446  0.04469  0.32160  1.0000
  C  Sn88      1.0  0.43483  0.06156  0.36067  1.0000
  C   C187      1.0  0.47731  0.03535  0.37297  1.0000
  C   C188      1.0  0.49226  0.99272  0.34698  1.0000
  H   H87       1.0  0.47197  0.94314  0.28833  1.0000
  O  Te87      1.0  0.36185  0.07018  0.30853  1.0000
  O  Te88      1.0  0.42287  0.10407  0.38700  1.0000
  H   H88       1.0  0.52520  0.97265  0.35673  1.0000
  Mg  Mg44      1.0  0.36106  0.12610  0.35538  1.0000
  C   C189      1.0  0.52753  0.52323  0.33461  1.0000
  C   C190      1.0  0.51861  0.47980  0.36084  1.0000
  C  Sn89      1.0  0.54849  0.43861  0.35366  1.0000
  C  Sn90      1.0  0.58801  0.44107  0.31957  1.0000
  C   C191      1.0  0.59665  0.48471  0.29354  1.0000
  C   C192      1.0  0.56651  0.52569  0.30100  1.0000
  H   H89       1.0  0.50424  0.55495  0.34041  1.0000
  O  Te89      1.0  0.53905  0.39551  0.38015  1.0000
  O  Te90      1.0  0.61845  0.40047  0.31169  1.0000
  H   H90       1.0  0.57345  0.55932  0.28071  1.0000
  Mg  Mg45      1.0  0.59079  0.34998  0.35658  1.0000
  C   C193      1.0  0.04182  0.02736  0.81051  1.0000
  C   C194      1.0  0.08459  0.99920  0.79560  1.0000
  C  Sn91      1.0  0.09493  0.95450  0.81890  1.0000
  C  Sn92      1.0  0.06428  0.93778  0.85783  1.0000
  C   C195      1.0  0.02402  0.96621  0.87244  1.0000
  C   C196      1.0  0.01155  0.01089  0.84889  1.0000
  H   H91       1.0  0.03406  0.06192  0.79227  1.0000
  O  Te91      1.0  0.13536  0.92683  0.80356  1.0000
  O  Te92      1.0  0.07376  0.89323  0.88174  1.0000
  H   H92       1.0  0.98032  0.03267  0.86042  1.0000
  Mg  Mg46      1.0  0.13319  0.86863  0.84757  1.0000
  C   C197      1.0  0.04248  0.97289  0.68552  1.0000
  C   C198      1.0  0.08019  0.00117  0.70095  1.0000
  C  Sn93      1.0  0.09009  0.04657  0.67874  1.0000
  C  Sn94      1.0  0.05912  0.06388  0.64040  1.0000
  C   C199      1.0  0.01901  0.03533  0.62526  1.0000
  C   C200      1.0  0.01191  0.98995  0.64772  1.0000
  H   H93       1.0  0.03507  0.93779  0.70292  1.0000
  O  Te93      1.0  0.13039  0.07435  0.69459  1.0000
  O  Te94      1.0  0.06816  0.10913  0.61758  1.0000
  H   H94       1.0  0.98079  0.96808  0.63579  1.0000
  Mg  Mg47      1.0  0.12757  0.13361  0.65208  1.0000
  C   C201      1.0  0.56958  0.56827  0.14916  1.0000
  C   C202      1.0  0.53421  0.53668  0.12910  1.0000
  C  Sn95      1.0  0.52563  0.49050  0.15022  1.0000
  C  Sn96      1.0  0.55303  0.47579  0.19221  1.0000
  C   C203      1.0  0.58831  0.50768  0.21203  1.0000
  C   C204      1.0  0.59661  0.55380  0.19059  1.0000
  H   H95       1.0  0.57599  0.60397  0.13260  1.0000
  O  Te95      1.0  0.49016  0.45939  0.12969  1.0000
  O  Te96      1.0  0.54519  0.42985  0.21406  1.0000
  H   H96       1.0  0.62398  0.57826  0.20616  1.0000
  Mg  Mg48      1.0  0.49285  0.40043  0.17263  1.0000
