data_image0
_chemical_formula_structural       CNHCNHCNHCNHCNHCNHCNHCNHCNHCNHCNHCNHCNHCNHCNHCNHC4SnCSn2CSnTe4Mg2SnCSn2CSnTe4Mg2SnCSn2CSnTe4Mg2SnCSn2CSnTe4Mg2SnCSn2CSnTe4Mg2SnCSn2CSnTe4Mg2SnCSn2CSnTe4Mg2SnCSn2CSnTe4Mg2SnCSn2CSnTe4Mg2SnCSn2CSnTe4Mg2SnCSn2CSnTe4Mg2SnCSn2CSnTe4Mg2SnCSn2CSnTe4Mg2SnCSn2CSnTe4Mg2SnCSn2CSnTe4Mg2SnCSn2CSnTe4Mg2SnCSn2CSnTe4Mg2SnCSn2CSnTe4Mg2SnCSn2CSnTe4Mg2SnCSn2CSnTe4Mg2SnCSn2CSnTe4Mg2SnCSn2CSnTe4Mg2SnCSn2CSnTe4Mg2SnCSn2CSnTe4Mg2
_chemical_formula_sum              "C68 N16 H16 Sn96 Te96 Mg48"
_cell_length_a       27.1335
_cell_length_b       27.1329
_cell_length_c       10.3842
_cell_angle_alpha    90.1055
_cell_angle_beta     90.0827
_cell_angle_gamma    90.1368

_symmetry_space_group_name_H-M    'P1'
_space_group_IT_number       1

loop_
  _space_group_symop_operation_xyz
  'x, y, z'

loop_
  _atom_site_type_symbol
  _atom_site_label
  _atom_site_symmetry_multiplicity
  _atom_site_fract_x
  _atom_site_fract_y
  _atom_site_fract_z
  _atom_site_occupancy
  C   C1        1.0  0.50025  0.41022  0.84634  1.0000
  N   N1        1.0  0.52828  0.40576  0.74630  1.0000
  H   H1        1.0  0.47154  0.38303  0.87057  1.0000
  C   C2        1.0  0.99595  0.91256  0.34817  1.0000
  N   N2        1.0  0.01937  0.90950  0.24024  1.0000
  H   H2        1.0  0.97403  0.88168  0.38661  1.0000
  C   C3        1.0  0.99900  0.58496  0.33605  1.0000
  N   N3        1.0  0.97208  0.58859  0.23370  1.0000
  H   H3        1.0  0.02364  0.61488  0.36805  1.0000
  C   C4        1.0  0.50591  0.08572  0.84323  1.0000
  N   N4        1.0  0.48260  0.08860  0.73491  1.0000
  H   H4        1.0  0.52803  0.11643  0.88213  1.0000
  C   C5        1.0  0.33282  0.74388  0.09110  1.0000
  N   N5        1.0  0.33750  0.77163  0.99072  1.0000
  H   H5        1.0  0.36114  0.71705  0.11982  1.0000
  C   C6        1.0  0.83648  0.24450  0.58379  1.0000
  N   N6        1.0  0.84372  0.27400  0.48795  1.0000
  H   H6        1.0  0.86314  0.21581  0.61120  1.0000
  C   C7        1.0  0.16615  0.25051  0.58778  1.0000
  N   N7        1.0  0.16299  0.22617  0.48099  1.0000
  H   H7        1.0  0.13627  0.27454  0.62185  1.0000
  C   C8        1.0  0.66198  0.75653  0.08934  1.0000
  N   N8        1.0  0.65754  0.73042  0.98575  1.0000
  H   H8        1.0  0.63242  0.78085  0.12419  1.0000
  C   C9        1.0  0.51073  0.57963  0.17539  1.0000
  N   N9        1.0  0.48103  0.58603  0.27126  1.0000
  H   H9        1.0  0.53899  0.60691  0.14879  1.0000
  C   C10       1.0  0.99974  0.08862  0.65545  1.0000
  N   N10       1.0  0.97573  0.09239  0.76242  1.0000
  H   H10       1.0  0.02344  0.11851  0.61919  1.0000
  C   C11       1.0  0.00018  0.41398  0.65778  1.0000
  N   N11       1.0  0.02682  0.41181  0.76095  1.0000
  H   H11       1.0  0.97499  0.38404  0.62904  1.0000
  C   C12       1.0  0.49696  0.91221  0.15782  1.0000
  N   N12       1.0  0.52039  0.90967  0.26608  1.0000
  H   H12       1.0  0.47354  0.88190  0.12208  1.0000
  C   C13       1.0  0.66396  0.25552  0.90156  1.0000
  N   N13       1.0  0.65818  0.22714  0.00047  1.0000
  H   H13       1.0  0.63713  0.28406  0.87421  1.0000
  C   C14       1.0  0.16044  0.75223  0.40962  1.0000
  N   N14       1.0  0.15509  0.72540  0.51141  1.0000
  H   H14       1.0  0.13234  0.77891  0.37834  1.0000
  C   C15       1.0  0.83606  0.75196  0.40298  1.0000
  N   N15       1.0  0.84088  0.77880  0.50530  1.0000
  H   H15       1.0  0.86427  0.72519  0.37294  1.0000
  C   C16       1.0  0.33715  0.24393  0.91233  1.0000
  N   N16       1.0  0.34080  0.27022  0.01592  1.0000
  H   H16       1.0  0.36673  0.21902  0.88045  1.0000
  C   C17       1.0  0.00273  0.25273  0.12307  1.0000
  C   C18       1.0  0.49633  0.74948  0.62660  1.0000
  C   C19       1.0  0.50248  0.24937  0.37480  1.0000
  C   C20       1.0  0.99673  0.74961  0.87688  1.0000
  C  Sn1       1.0  0.53630  0.52953  0.94860  1.0000
  C   C21       1.0  0.50583  0.53988  0.05416  1.0000
  C  Sn2       1.0  0.47604  0.50352  0.10909  1.0000
  C  Sn3       1.0  0.47618  0.45508  0.05748  1.0000
  C   C22       1.0  0.50664  0.44475  0.95199  1.0000
  C  Sn4       1.0  0.53643  0.48109  0.89699  1.0000
  O  Te1       1.0  0.56578  0.56645  0.89524  1.0000
  O  Te2       1.0  0.44644  0.51546  0.21455  1.0000
  O  Te3       1.0  0.44667  0.41815  0.11094  1.0000
  O  Te4       1.0  0.56603  0.46917  0.79160  1.0000
  Mg  Mg1       1.0  0.41272  0.45247  0.25375  1.0000
  Mg  Mg2       1.0  0.59978  0.53212  0.75237  1.0000
  C  Sn5       1.0  0.55866  0.35659  0.53081  1.0000
  C   C23       1.0  0.52338  0.37362  0.61804  1.0000
  C  Sn6       1.0  0.48041  0.34651  0.64025  1.0000
  C  Sn7       1.0  0.47254  0.30141  0.57396  1.0000
  C   C24       1.0  0.50780  0.28440  0.48682  1.0000
  C  Sn8       1.0  0.55079  0.31150  0.46452  1.0000
  O  Te5       1.0  0.60135  0.38430  0.51011  1.0000
  O  Te6       1.0  0.44567  0.36429  0.72788  1.0000
  O  Te7       1.0  0.42981  0.27371  0.59474  1.0000
  O  Te8       1.0  0.58551  0.29373  0.37698  1.0000
  Mg  Mg3       1.0  0.39339  0.31329  0.72338  1.0000
  Mg  Mg4       1.0  0.63782  0.34469  0.38145  1.0000
  C  Sn9       1.0  0.95558  0.97265  0.54228  1.0000
  C   C25       1.0  0.98143  0.96346  0.42847  1.0000
  C  Sn10      1.0  0.02014  0.99432  0.39130  1.0000
  C  Sn11      1.0  0.03092  0.03519  0.46954  1.0000
  C   C26       1.0  0.00508  0.04436  0.58328  1.0000
  C  Sn12      1.0  0.96635  0.01352  0.62052  1.0000
  O  Te9       1.0  0.91701  0.94132  0.57757  1.0000
  O  Te10      1.0  0.04544  0.98440  0.27708  1.0000
  O  Te11      1.0  0.06952  0.06653  0.43415  1.0000
  O  Te12      1.0  0.94107  0.02342  0.73467  1.0000
  Mg  Mg5       1.0  0.09289  0.03774  0.27003  1.0000
  Mg  Mg6       1.0  0.89363  0.97010  0.74185  1.0000
  C  Sn13      1.0  0.96487  0.82831  0.14613  1.0000
  C   C27       1.0  0.00729  0.85453  0.18053  1.0000
  C  Sn14      1.0  0.04943  0.85228  0.10365  1.0000
  C  Sn15      1.0  0.04971  0.82393  0.98996  1.0000
  C   C28       1.0  0.00730  0.79774  0.95560  1.0000
  C  Sn16      1.0  0.96459  0.79926  0.03244  1.0000
  O  Te13      1.0  0.92316  0.83111  0.22442  1.0000
  O  Te14      1.0  0.09141  0.87880  0.14006  1.0000
  O  Te15      1.0  0.09147  0.82115  0.91167  1.0000
  O  Te16      1.0  0.92318  0.77347  0.99608  1.0000
  Mg  Mg7       1.0  0.13910  0.86322  0.00180  1.0000
  Mg  Mg8       1.0  0.87492  0.78833  0.13422  1.0000
  C  Sn17      1.0  0.04331  0.52641  0.52595  1.0000
  C   C29       1.0  0.01437  0.53463  0.41667  1.0000
  C  Sn18      1.0  0.97368  0.50458  0.39062  1.0000
  C  Sn19      1.0  0.96163  0.46552  0.47561  1.0000
  C   C30       1.0  0.99055  0.45732  0.58483  1.0000
  C  Sn20      1.0  0.03126  0.48735  0.61095  1.0000
  O  Te17      1.0  0.08382  0.55691  0.55010  1.0000
  O  Te18      1.0  0.94531  0.51350  0.28074  1.0000
  O  Te19      1.0  0.92108  0.43501  0.45137  1.0000
  O  Te20      1.0  0.05961  0.47845  0.72076  1.0000
  Mg  Mg9       1.0  0.89372  0.46189  0.28934  1.0000
  Mg  Mg10      1.0  0.11119  0.53005  0.71229  1.0000
  C  Sn21      1.0  0.02692  0.66883  0.13985  1.0000
  C   C31       1.0  0.98445  0.64209  0.17043  1.0000
  C  Sn22      1.0  0.94306  0.64410  0.09049  1.0000
  C  Sn23      1.0  0.94470  0.67412  0.97758  1.0000
  C   C32       1.0  0.98715  0.70083  0.94704  1.0000
  C  Sn24      1.0  0.02801  0.69815  0.02694  1.0000
  O  Te21      1.0  0.06788  0.66628  0.22115  1.0000
  O  Te22      1.0  0.90102  0.61706  0.12310  1.0000
  O  Te23      1.0  0.90369  0.67665  0.89627  1.0000
  O  Te24      1.0  0.07058  0.72587  0.99437  1.0000
  Mg  Mg11      1.0  0.85510  0.63317  0.98172  1.0000
  Mg  Mg12      1.0  0.11653  0.70976  0.13564  1.0000
  C  Sn25      1.0  0.46282  0.99357  0.90662  1.0000
  C   C33       1.0  0.48538  0.03765  0.93211  1.0000
  C  Sn26      1.0  0.52078  0.03907  0.02841  1.0000
  C  Sn27      1.0  0.53444  0.99624  0.10068  1.0000
  C   C34       1.0  0.50950  0.95219  0.07516  1.0000
  C  Sn28      1.0  0.47409  0.95074  0.97889  1.0000
  O  Te25      1.0  0.42702  0.99230  0.80990  1.0000
  O  Te26      1.0  0.54521  0.08356  0.05216  1.0000
  O  Te27      1.0  0.57027  0.99755  0.19746  1.0000
  O  Te28      1.0  0.44967  0.90629  0.95511  1.0000
  Mg  Mg13      1.0  0.59107  0.06675  0.19382  1.0000
  Mg  Mg14      1.0  0.40383  0.92305  0.81344  1.0000
  C  Sn29      1.0  0.53387  0.17297  0.64752  1.0000
  C   C35       1.0  0.49288  0.14351  0.67473  1.0000
  C  Sn30      1.0  0.45270  0.14229  0.59054  1.0000
  C  Sn31      1.0  0.45350  0.17111  0.47674  1.0000
  C   C36       1.0  0.49447  0.20054  0.44957  1.0000
  C  Sn32      1.0  0.53467  0.20178  0.53372  1.0000
  O  Te29      1.0  0.57363  0.17361  0.73305  1.0000
  O  Te30      1.0  0.41213  0.11257  0.61982  1.0000
  O  Te31      1.0  0.41369  0.17045  0.39120  1.0000
  O  Te32      1.0  0.57522  0.23148  0.50447  1.0000
  Mg  Mg15      1.0  0.36690  0.12411  0.47322  1.0000
  Mg  Mg16      1.0  0.62048  0.21995  0.65096  1.0000
  C  Sn33      1.0  0.24493  0.79086  0.17142  1.0000
  C   C37       1.0  0.28679  0.76158  0.18738  1.0000
  C  Sn34      1.0  0.28585  0.72120  0.27060  1.0000
  C  Sn35      1.0  0.24214  0.70982  0.33924  1.0000
  C   C38       1.0  0.20030  0.73908  0.32325  1.0000
  C  Sn36      1.0  0.20122  0.77948  0.24007  1.0000
  O  Te33      1.0  0.24671  0.83105  0.08771  1.0000
  O  Te34      1.0  0.32817  0.69249  0.28500  1.0000
  O  Te35      1.0  0.24039  0.66960  0.42300  1.0000
  O  Te36      1.0  0.15893  0.80818  0.22563  1.0000
  Mg  Mg17      1.0  0.30748  0.64155  0.41018  1.0000
  Mg  Mg18      1.0  0.17956  0.85910  0.10043  1.0000
  C  Sn37      1.0  0.43048  0.80863  0.78257  1.0000
  C   C39       1.0  0.45706  0.76651  0.74874  1.0000
  C  Sn38      1.0  0.44045  0.71986  0.78559  1.0000
  C  Sn39      1.0  0.39633  0.71521  0.85771  1.0000
  C   C40       1.0  0.36977  0.75731  0.89148  1.0000
  C  Sn40      1.0  0.38636  0.80398  0.85468  1.0000
  O  Te37      1.0  0.44777  0.85490  0.74468  1.0000
  O  Te38      1.0  0.46766  0.67828  0.75067  1.0000
  O  Te39      1.0  0.37905  0.66889  0.89558  1.0000
  O  Te40      1.0  0.35917  0.84553  0.88955  1.0000
  Mg  Mg19      1.0  0.42901  0.62326  0.82480  1.0000
  Mg  Mg20      1.0  0.39777  0.90057  0.81541  1.0000
  C  Sn41      1.0  0.77210  0.20312  0.76651  1.0000
  C   C41       1.0  0.78429  0.23293  0.66162  1.0000
  C  Sn42      1.0  0.75927  0.27711  0.64038  1.0000
  C  Sn43      1.0  0.72128  0.29182  0.72581  1.0000
  C   C42       1.0  0.70912  0.26202  0.83063  1.0000
  C  Sn44      1.0  0.73412  0.21783  0.85193  1.0000
  O  Te41      1.0  0.79761  0.15910  0.78589  1.0000
  O  Te42      1.0  0.77210  0.30629  0.53484  1.0000
  O  Te43      1.0  0.69578  0.33588  0.70634  1.0000
  O  Te44      1.0  0.72131  0.18866  0.95741  1.0000
  Mg  Mg21      1.0  0.72668  0.36303  0.54909  1.0000
  Mg  Mg22      1.0  0.76673  0.13193  0.94329  1.0000
  C  Sn45      1.0  0.92413  0.21974  0.38973  1.0000
  C   C43       1.0  0.89707  0.26152  0.42383  1.0000
  C  Sn46      1.0  0.89866  0.30375  0.34722  1.0000
  C  Sn47      1.0  0.92790  0.30424  0.23411  1.0000
  C   C44       1.0  0.95494  0.26247  0.20005  1.0000
  C  Sn48      1.0  0.95337  0.22022  0.27663  1.0000
  O  Te45      1.0  0.92199  0.17792  0.46775  1.0000
  O  Te46      1.0  0.87130  0.34508  0.38330  1.0000
  O  Te47      1.0  0.93003  0.34610  0.15609  1.0000
  O  Te48      1.0  0.98071  0.17891  0.24058  1.0000
  Mg  Mg23      1.0  0.88621  0.39321  0.24560  1.0000
  Mg  Mg24      1.0  0.96581  0.13076  0.37816  1.0000
  C  Sn49      1.0  0.25492  0.20444  0.66723  1.0000
  C   C45       1.0  0.21220  0.23242  0.68356  1.0000
  C  Sn50      1.0  0.21148  0.27167  0.77077  1.0000
  C  Sn51      1.0  0.25437  0.28321  0.84313  1.0000
  C   C46       1.0  0.29706  0.25525  0.82677  1.0000
  C  Sn52      1.0  0.29781  0.21599  0.73959  1.0000
  O  Te49      1.0  0.25480  0.16537  0.57949  1.0000
  O  Te50      1.0  0.16833  0.29910  0.78546  1.0000
  O  Te51      1.0  0.25446  0.32232  0.93092  1.0000
  O  Te52      1.0  0.34093  0.18857  0.72487  1.0000
  Mg  Mg25      1.0  0.18677  0.34883  0.91684  1.0000
  Mg  Mg26      1.0  0.32255  0.13886  0.59347  1.0000
  C  Sn53      1.0  0.07997  0.29071  0.28426  1.0000
  C   C47       1.0  0.05808  0.25443  0.20734  1.0000
  C  Sn54      1.0  0.06618  0.20457  0.23285  1.0000
  C  Sn55      1.0  0.09676  0.19068  0.33748  1.0000
  C   C48       1.0  0.11862  0.22695  0.41435  1.0000
  C  Sn56      1.0  0.11055  0.27682  0.38889  1.0000
  O  Te53      1.0  0.07136  0.34034  0.25699  1.0000
  O  Te54      1.0  0.04391  0.16896  0.15457  1.0000
  O  Te55      1.0  0.10536  0.14101  0.36470  1.0000
  O  Te56      1.0  0.13280  0.31242  0.46712  1.0000
  Mg  Mg27      1.0  0.06680  0.10615  0.23049  1.0000
  Mg  Mg28      1.0  0.10991  0.37523  0.39134  1.0000
  C  Sn57      1.0  0.72314  0.79849  0.27898  1.0000
  C   C49       1.0  0.71324  0.77054  0.16871  1.0000
  C  Sn58      1.0  0.74217  0.72959  0.13871  1.0000
  C  Sn59      1.0  0.78179  0.71626  0.22068  1.0000
  C   C50       1.0  0.79167  0.74419  0.33088  1.0000
  C  Sn60      1.0  0.76277  0.78516  0.36095  1.0000
  O  Te57      1.0  0.69375  0.83928  0.30710  1.0000
  O  Te58      1.0  0.73157  0.70223  0.02792  1.0000
  O  Te59      1.0  0.81120  0.67543  0.19247  1.0000
  O  Te60      1.0  0.77335  0.81250  0.47168  1.0000
  Mg  Mg29      1.0  0.78215  0.64977  0.03068  1.0000
  Mg  Mg30      1.0  0.72278  0.86495  0.46905  1.0000
  C  Sn61      1.0  0.57019  0.79072  0.79292  1.0000
  C   C51       1.0  0.55041  0.75353  0.71504  1.0000
  C  Sn62      1.0  0.56105  0.70411  0.73990  1.0000
  C  Sn63      1.0  0.59207  0.69158  0.84485  1.0000
  C   C52       1.0  0.61181  0.72875  0.92267  1.0000
  C  Sn64      1.0  0.60120  0.77819  0.89787  1.0000
  O  Te61      1.0  0.55906  0.83989  0.76629  1.0000
  O  Te62      1.0  0.54087  0.66758  0.66067  1.0000
  O  Te63      1.0  0.60319  0.64237  0.87143  1.0000
  O  Te64      1.0  0.62136  0.81471  0.97705  1.0000
  Mg  Mg31      1.0  0.56683  0.60588  0.73599  1.0000
  Mg  Mg32      1.0  0.59540  0.87642  0.90186  1.0000
  C  Sn65      1.0  0.43800  0.65804  0.41792  1.0000
  C   C53       1.0  0.47584  0.63866  0.34214  1.0000
  C  Sn66      1.0  0.52497  0.65049  0.36844  1.0000
  C  Sn67      1.0  0.53653  0.68234  0.47270  1.0000
  C   C54       1.0  0.49871  0.70170  0.54842  1.0000
  C  Sn68      1.0  0.44956  0.68989  0.52218  1.0000
  O  Te65      1.0  0.38915  0.64571  0.38988  1.0000
  O  Te66      1.0  0.56215  0.63067  0.29131  1.0000
  O  Te67      1.0  0.58543  0.69466  0.50069  1.0000
  O  Te68      1.0  0.41239  0.70968  0.59926  1.0000
  Mg  Mg33      1.0  0.62309  0.65837  0.36794  1.0000
  Mg  Mg34      1.0  0.35145  0.68199  0.52275  1.0000
  C  Sn69      1.0  0.93763  0.16603  0.91401  1.0000
  C   C55       1.0  0.97355  0.14496  0.83500  1.0000
  C  Sn70      1.0  0.02351  0.15378  0.85848  1.0000
  C  Sn71      1.0  0.03787  0.18426  0.96317  1.0000
  C   C56       1.0  0.00141  0.20460  0.04213  1.0000
  C  Sn72      1.0  0.95144  0.19581  0.01870  1.0000
  O  Te69      1.0  0.88791  0.15671  0.88875  1.0000
  O  Te70      1.0  0.05875  0.13232  0.77814  1.0000
  O  Te71      1.0  0.08764  0.19357  0.98838  1.0000
  O  Te72      1.0  0.91622  0.21723  0.09899  1.0000
  Mg  Mg35      1.0  0.12187  0.15599  0.85178  1.0000
  Mg  Mg36      1.0  0.85308  0.19358  0.02548  1.0000
  C  Sn73      1.0  0.96645  0.35154  0.91202  1.0000
  C   C57       1.0  0.00901  0.37755  0.87819  1.0000
  C  Sn74      1.0  0.05544  0.35984  0.91298  1.0000
  C  Sn75      1.0  0.05944  0.31518  0.98297  1.0000
  C   C58       1.0  0.01634  0.28849  0.01673  1.0000
  C  Sn76      1.0  0.97044  0.30688  0.98201  1.0000
  O  Te73      1.0  0.92040  0.36993  0.87623  1.0000
  O  Te74      1.0  0.09746  0.38650  0.87811  1.0000
  O  Te75      1.0  0.10498  0.29610  0.01875  1.0000
  O  Te76      1.0  0.92789  0.27954  0.01682  1.0000
  Mg  Mg37      1.0  0.15194  0.34636  0.94893  1.0000
  Mg  Mg38      1.0  0.87395  0.32033  0.94599  1.0000
  C  Sn77      1.0  0.55987  0.83790  0.42151  1.0000
  C   C59       1.0  0.52375  0.85756  0.34057  1.0000
  C  Sn78      1.0  0.47394  0.84763  0.36264  1.0000
  C  Sn79      1.0  0.45993  0.81745  0.46785  1.0000
  C   C60       1.0  0.49604  0.79782  0.54872  1.0000
  C  Sn80      1.0  0.54586  0.80772  0.52672  1.0000
  O  Te77      1.0  0.60945  0.84831  0.39764  1.0000
  O  Te78      1.0  0.43850  0.86768  0.28038  1.0000
  O  Te79      1.0  0.41031  0.80704  0.49166  1.0000
  O  Te80      1.0  0.58129  0.78769  0.60892  1.0000
  Mg  Mg39      1.0  0.37569  0.84289  0.35264  1.0000
  Mg  Mg40      1.0  0.64410  0.81247  0.53679  1.0000
  C  Sn81      1.0  0.55452  0.28105  0.14984  1.0000
  C   C61       1.0  0.53841  0.24538  0.23719  1.0000
  C  Sn82      1.0  0.56656  0.20322  0.25970  1.0000
  C  Sn83      1.0  0.61177  0.19658  0.19359  1.0000
  C   C62       1.0  0.62786  0.23224  0.10632  1.0000
  C  Sn84      1.0  0.59974  0.27442  0.08373  1.0000
  O  Te81      1.0  0.52579  0.32292  0.12884  1.0000
  O  Te82      1.0  0.54968  0.16806  0.34744  1.0000
  O  Te83      1.0  0.64050  0.15467  0.21466  1.0000
  O  Te84      1.0  0.61715  0.31027  0.99607  1.0000
  Mg  Mg41      1.0  0.60191  0.11725  0.34336  1.0000
  Mg  Mg42      1.0  0.56441  0.36040  0.00013  1.0000
  C  Sn85      1.0  0.09798  0.78578  0.67052  1.0000
  C   C63       1.0  0.12039  0.74253  0.62702  1.0000
  C  Sn86      1.0  0.09891  0.69669  0.65188  1.0000
  C  Sn87      1.0  0.05408  0.69402  0.72159  1.0000
  C   C64       1.0  0.03168  0.73725  0.76503  1.0000
  C  Sn88      1.0  0.05314  0.78311  0.74024  1.0000
  O  Te85      1.0  0.12011  0.83120  0.64456  1.0000
  O  Te86      1.0  0.12202  0.65397  0.60745  1.0000
  O  Te87      1.0  0.03196  0.64855  0.74753  1.0000
  O  Te88      1.0  0.03006  0.82582  0.78460  1.0000
  Mg  Mg43      1.0  0.07752  0.60076  0.66688  1.0000
  Mg  Mg44      1.0  0.07451  0.87904  0.72517  1.0000
  C  Sn89      1.0  0.91607  0.81528  0.65673  1.0000
  C   C65       1.0  0.89322  0.77931  0.58069  1.0000
  C  Sn90      1.0  0.89803  0.72943  0.61115  1.0000
  C  Sn91      1.0  0.92624  0.71519  0.71994  1.0000
  C   C66       1.0  0.94906  0.75114  0.79593  1.0000
  C  Sn92      1.0  0.94428  0.80104  0.76552  1.0000
  O  Te89      1.0  0.91077  0.86493  0.62448  1.0000
  O  Te90      1.0  0.87486  0.69414  0.53366  1.0000
  O  Te91      1.0  0.93153  0.66549  0.75215  1.0000
  O  Te92      1.0  0.96742  0.83631  0.84295  1.0000
  Mg  Mg45      1.0  0.89295  0.63116  0.61706  1.0000
  Mg  Mg46      1.0  0.94934  0.89931  0.75969  1.0000
  C  Sn93      1.0  0.41563  0.30137  0.27498  1.0000
  C   C67       1.0  0.44419  0.26003  0.30385  1.0000
  C  Sn94      1.0  0.44437  0.21932  0.22132  1.0000
  C  Sn95      1.0  0.41542  0.21994  0.10750  1.0000
  C   C68       1.0  0.38689  0.26126  0.07867  1.0000
  C  Sn96      1.0  0.38668  0.30199  0.16117  1.0000
  O  Te93      1.0  0.41602  0.34165  0.35887  1.0000
  O  Te94      1.0  0.47320  0.17841  0.25225  1.0000
  O  Te95      1.0  0.41505  0.17961  0.02360  1.0000
  O  Te96      1.0  0.35787  0.34288  0.13027  1.0000
  Mg  Mg47      1.0  0.46043  0.13250  0.10752  1.0000
  Mg  Mg48      1.0  0.37064  0.38882  0.27489  1.0000
