data_image0
_chemical_formula_structural       CNHCNHCNHCNHCNHCNHCNHCNHCNHCNHCNHCNHCNHCNHCNHCNHC6Sn2C2HTe2HMgC2Sn2C2HTe2HMgC2Sn2C2HTe2HMgC2Sn2C2HTe2HMgC2Sn2C2HTe2HMgC2Sn2C2HTe2HMgC2Sn2C2HTe2HMgC2Sn2C2HTe2HMgC2Sn2C2HTe2HMgC2Sn2C2HTe2HMgC2Sn2C2HTe2HMgC2Sn2C2HTe2HMgC2Sn2C2HTe2HMgC2Sn2C2HTe2HMgC2Sn2C2HTe2HMgC2Sn2C2HTe2HMgC2Sn2C2HTe2HMgC2Sn2C2HTe2HMgC2Sn2C2HTe2HMgC2Sn2C2HTe2HMgC2Sn2C2HTe2HMgC2Sn2C2HTe2HMgC2Sn2C2HTe2HMgC2Sn2C2HTe2HMg
_chemical_formula_sum              "C116 N16 H64 Sn48 Te48 Mg24"
_cell_length_a       27.1335
_cell_length_b       27.1329
_cell_length_c       10.3842
_cell_angle_alpha    90.1055
_cell_angle_beta     90.0827
_cell_angle_gamma    90.1368

_symmetry_space_group_name_H-M    'P1'
_space_group_IT_number       1

loop_
  _space_group_symop_operation_xyz
  'x, y, z'

loop_
  _atom_site_type_symbol
  _atom_site_label
  _atom_site_symmetry_multiplicity
  _atom_site_fract_x
  _atom_site_fract_y
  _atom_site_fract_z
  _atom_site_occupancy
  C   C1        1.0  0.50025  0.41022  0.84634  1.0000
  N   N1        1.0  0.52828  0.40576  0.74630  1.0000
  H   H1        1.0  0.47154  0.38303  0.87057  1.0000
  C   C2        1.0  0.99595  0.91256  0.34817  1.0000
  N   N2        1.0  0.01937  0.90950  0.24024  1.0000
  H   H2        1.0  0.97403  0.88168  0.38661  1.0000
  C   C3        1.0  0.99900  0.58496  0.33605  1.0000
  N   N3        1.0  0.97208  0.58859  0.23370  1.0000
  H   H3        1.0  0.02364  0.61488  0.36805  1.0000
  C   C4        1.0  0.50591  0.08572  0.84323  1.0000
  N   N4        1.0  0.48260  0.08860  0.73491  1.0000
  H   H4        1.0  0.52803  0.11643  0.88213  1.0000
  C   C5        1.0  0.33282  0.74388  0.09110  1.0000
  N   N5        1.0  0.33750  0.77163  0.99072  1.0000
  H   H5        1.0  0.36114  0.71705  0.11982  1.0000
  C   C6        1.0  0.83648  0.24450  0.58379  1.0000
  N   N6        1.0  0.84372  0.27400  0.48795  1.0000
  H   H6        1.0  0.86314  0.21581  0.61120  1.0000
  C   C7        1.0  0.16615  0.25051  0.58778  1.0000
  N   N7        1.0  0.16299  0.22617  0.48099  1.0000
  H   H7        1.0  0.13627  0.27454  0.62185  1.0000
  C   C8        1.0  0.66198  0.75653  0.08934  1.0000
  N   N8        1.0  0.65754  0.73042  0.98575  1.0000
  H   H8        1.0  0.63242  0.78085  0.12419  1.0000
  C   C9        1.0  0.51073  0.57963  0.17539  1.0000
  N   N9        1.0  0.48103  0.58603  0.27126  1.0000
  H   H9        1.0  0.53899  0.60691  0.14879  1.0000
  C   C10       1.0  0.99974  0.08862  0.65545  1.0000
  N   N10       1.0  0.97573  0.09239  0.76242  1.0000
  H   H10       1.0  0.02344  0.11851  0.61919  1.0000
  C   C11       1.0  0.00018  0.41398  0.65778  1.0000
  N   N11       1.0  0.02682  0.41181  0.76095  1.0000
  H   H11       1.0  0.97499  0.38404  0.62904  1.0000
  C   C12       1.0  0.49696  0.91221  0.15782  1.0000
  N   N12       1.0  0.52039  0.90967  0.26608  1.0000
  H   H12       1.0  0.47354  0.88190  0.12208  1.0000
  C   C13       1.0  0.66396  0.25552  0.90156  1.0000
  N   N13       1.0  0.65818  0.22714  0.00047  1.0000
  H   H13       1.0  0.63713  0.28406  0.87421  1.0000
  C   C14       1.0  0.16044  0.75223  0.40962  1.0000
  N   N14       1.0  0.15509  0.72540  0.51141  1.0000
  H   H14       1.0  0.13234  0.77891  0.37834  1.0000
  C   C15       1.0  0.83606  0.75196  0.40298  1.0000
  N   N15       1.0  0.84088  0.77880  0.50530  1.0000
  H   H15       1.0  0.86427  0.72519  0.37294  1.0000
  C   C16       1.0  0.33715  0.24393  0.91233  1.0000
  N   N16       1.0  0.34080  0.27022  0.01592  1.0000
  H   H16       1.0  0.36673  0.21902  0.88045  1.0000
  C   C17       1.0  0.00273  0.25273  0.12307  1.0000
  C   C18       1.0  0.49633  0.74948  0.62660  1.0000
  C   C19       1.0  0.50248  0.24937  0.37480  1.0000
  C   C20       1.0  0.99673  0.74961  0.87688  1.0000
  C   C21       1.0  0.46508  0.48802  0.10320  1.0000
  C   C22       1.0  0.50051  0.52546  0.10665  1.0000
  C  Sn1       1.0  0.53806  0.52684  0.01481  1.0000
  C  Sn2       1.0  0.54063  0.49071  0.91782  1.0000
  C   C23       1.0  0.50499  0.45342  0.91514  1.0000
  C   C24       1.0  0.46703  0.45168  0.00754  1.0000
  H   H17       1.0  0.43611  0.48723  0.17464  1.0000
  O  Te1       1.0  0.57318  0.56450  0.01968  1.0000
  O  Te2       1.0  0.57776  0.49121  0.82482  1.0000
  H   H18       1.0  0.43958  0.42270  0.00479  1.0000
  Mg  Mg1       1.0  0.61718  0.55009  0.87173  1.0000
  C   C25       1.0  0.46658  0.33494  0.62076  1.0000
  C   C26       1.0  0.50876  0.36077  0.65899  1.0000
  C  Sn3       1.0  0.55346  0.35332  0.59532  1.0000
  C  Sn4       1.0  0.55585  0.31937  0.49145  1.0000
  C   C27       1.0  0.51344  0.29373  0.45388  1.0000
  C   C28       1.0  0.46890  0.30146  0.51829  1.0000
  H   H19       1.0  0.43211  0.34093  0.67054  1.0000
  O  Te3       1.0  0.59526  0.37942  0.63479  1.0000
  O  Te4       1.0  0.60005  0.31123  0.42610  1.0000
  H   H20       1.0  0.43624  0.28147  0.48861  1.0000
  Mg  Mg2       1.0  0.64697  0.35561  0.51563  1.0000
  C   C29       1.0  0.02517  0.01272  0.38842  1.0000
  C   C30       1.0  0.00578  0.96715  0.41515  1.0000
  C  Sn5       1.0  0.97685  0.96115  0.52522  1.0000
  C  Sn6       1.0  0.96725  0.00159  0.60990  1.0000
  C   C31       1.0  0.98916  0.04703  0.58225  1.0000
  C   C32       1.0  0.01806  0.05263  0.47186  1.0000
  H   H21       1.0  0.04750  0.01706  0.30297  1.0000
  O  Te5       1.0  0.95538  0.91537  0.55051  1.0000
  O  Te6       1.0  0.94088  0.99661  0.72056  1.0000
  H   H22       1.0  0.03488  0.08792  0.45114  1.0000
  Mg  Mg3       1.0  0.91934  0.92688  0.71351  1.0000
  C   C33       1.0  0.06053  0.84172  0.07046  1.0000
  C   C34       1.0  0.02373  0.86668  0.13814  1.0000
  C  Sn7       1.0  0.97463  0.85146  0.12864  1.0000
  C  Sn8       1.0  0.96226  0.81047  0.04986  1.0000
  C   C35       1.0  0.99990  0.78643  0.98261  1.0000
  C   C36       1.0  0.04891  0.80198  0.99277  1.0000
  H   H23       1.0  0.09845  0.85374  0.07837  1.0000
  O  Te7       1.0  0.93833  0.87683  0.19688  1.0000
  O  Te8       1.0  0.91348  0.79446  0.03867  1.0000
  H   H24       1.0  0.07739  0.78263  0.94042  1.0000
  Mg  Mg4       1.0  0.87712  0.84101  0.15046  1.0000
  C   C37       1.0  0.03652  0.51020  0.59534  1.0000
  C   C38       1.0  0.00722  0.46786  0.58795  1.0000
  C  Sn9       1.0  0.97414  0.46159  0.48597  1.0000
  C  Sn10      1.0  0.97042  0.49844  0.38972  1.0000
  C   C39       1.0  0.99992  0.54065  0.39793  1.0000
  C   C40       1.0  0.03289  0.54656  0.50041  1.0000
  H   H25       1.0  0.06205  0.51476  0.67459  1.0000
  O  Te9       1.0  0.94512  0.41907  0.48009  1.0000
  O  Te10      1.0  0.93767  0.49311  0.28672  1.0000
  H   H26       1.0  0.05559  0.57933  0.50606  1.0000
  Mg  Mg5       1.0  0.90597  0.42866  0.32099  1.0000
  C   C41       1.0  0.93204  0.65470  0.05759  1.0000
  C   C42       1.0  0.96838  0.63009  0.12785  1.0000
  C  Sn11      1.0  0.01741  0.64576  0.12217  1.0000
  C  Sn12      1.0  0.03020  0.68684  0.04466  1.0000
  C   C43       1.0  0.99412  0.71195  0.97481  1.0000
  C   C44       1.0  0.94517  0.69595  0.98116  1.0000
  H   H27       1.0  0.89416  0.64235  0.06255  1.0000
  O  Te11      1.0  0.05325  0.62073  0.19294  1.0000
  O  Te12      1.0  0.07892  0.70329  0.03728  1.0000
  H   H28       1.0  0.91705  0.71503  0.92682  1.0000
  Mg  Mg6       1.0  0.11458  0.65709  0.15142  1.0000
  C   C45       1.0  0.47425  0.98570  0.88255  1.0000
  C   C46       1.0  0.49218  0.03177  0.91159  1.0000
  C  Sn13      1.0  0.51741  0.03826  0.02668  1.0000
  C  Sn14      1.0  0.52529  0.99852  0.11411  1.0000
  C   C47       1.0  0.50485  0.95256  0.08412  1.0000
  C   C48       1.0  0.47966  0.94647  0.96870  1.0000
  H   H29       1.0  0.45435  0.98043  0.79322  1.0000
  O  Te13      1.0  0.53747  0.08454  0.05422  1.0000
  O  Te14      1.0  0.54851  0.00469  0.22980  1.0000
  H   H30       1.0  0.46395  0.91078  0.94620  1.0000
  Mg  Mg7       1.0  0.56916  0.07469  0.22416  1.0000
  C   C49       1.0  0.54165  0.16330  0.61846  1.0000
  C   C50       1.0  0.49997  0.13680  0.65677  1.0000
  C  Sn15      1.0  0.45474  0.14442  0.59561  1.0000
  C  Sn16      1.0  0.45128  0.17922  0.49422  1.0000
  C   C51       1.0  0.49320  0.20553  0.45654  1.0000
  C   C52       1.0  0.53828  0.19763  0.51842  1.0000
  H   H31       1.0  0.57654  0.15718  0.66628  1.0000
  O  Te15      1.0  0.41345  0.11764  0.63513  1.0000
  O  Te16      1.0  0.40653  0.18755  0.43141  1.0000
  H   H32       1.0  0.57055  0.21813  0.48868  1.0000
  Mg  Mg8       1.0  0.36066  0.14202  0.51993  1.0000
  C   C53       1.0  0.25597  0.71150  0.35268  1.0000
  C   C54       1.0  0.21493  0.74229  0.34272  1.0000
  C  Sn17      1.0  0.21039  0.77461  0.23880  1.0000
  C  Sn18      1.0  0.24768  0.77603  0.14321  1.0000
  C   C55       1.0  0.28857  0.74505  0.15401  1.0000
  C   C56       1.0  0.29275  0.71286  0.25842  1.0000
  H   H33       1.0  0.25920  0.68658  0.43342  1.0000
  O  Te17      1.0  0.16916  0.80513  0.23035  1.0000
  O  Te18      1.0  0.24406  0.80796  0.03832  1.0000
  H   H34       1.0  0.32452  0.68901  0.26606  1.0000
  Mg  Mg9       1.0  0.18090  0.84237  0.06936  1.0000
  C   C57       1.0  0.43095  0.70945  0.82238  1.0000
  C   C58       1.0  0.44809  0.74406  0.73346  1.0000
  C  Sn19      1.0  0.42954  0.79205  0.73408  1.0000
  C  Sn20      1.0  0.39316  0.80553  0.82554  1.0000
  C   C59       1.0  0.37628  0.77064  0.91414  1.0000
  C   C60       1.0  0.39509  0.72272  0.91265  1.0000
  H   H35       1.0  0.44552  0.67238  0.82128  1.0000
  O  Te19      1.0  0.44705  0.82616  0.64454  1.0000
  O  Te20      1.0  0.37400  0.85324  0.82832  1.0000
  H   H36       1.0  0.38184  0.69594  0.98156  1.0000
  Mg  Mg10      1.0  0.40957  0.88662  0.68666  1.0000
  C   C61       1.0  0.72080  0.29002  0.68828  1.0000
  C   C62       1.0  0.70670  0.25920  0.78946  1.0000
  C  Sn21      1.0  0.73826  0.22202  0.83216  1.0000
  C  Sn22      1.0  0.78479  0.21569  0.77228  1.0000
  C   C63       1.0  0.79858  0.24675  0.67118  1.0000
  C   C64       1.0  0.76670  0.28382  0.62920  1.0000
  H   H37       1.0  0.69615  0.31872  0.65583  1.0000
  O  Te21      1.0  0.72358  0.19154  0.93334  1.0000
  O  Te22      1.0  0.81706  0.17884  0.81307  1.0000
  H   H38       1.0  0.77765  0.30770  0.55091  1.0000
  Mg  Mg11      1.0  0.78040  0.14657  0.95458  1.0000
  C   C65       1.0  0.92856  0.31255  0.26148  1.0000
  C   C66       1.0  0.95706  0.27163  0.22833  1.0000
  C  Sn23      1.0  0.94692  0.22556  0.28216  1.0000
  C  Sn24      1.0  0.90748  0.22048  0.37076  1.0000
  C   C67       1.0  0.87917  0.26164  0.40323  1.0000
  C   C68       1.0  0.88965  0.30757  0.34883  1.0000
  H   H39       1.0  0.93665  0.34809  0.21934  1.0000
  O  Te23      1.0  0.97577  0.18506  0.24802  1.0000
  O  Te24      1.0  0.89653  0.17486  0.42596  1.0000
  H   H40       1.0  0.86755  0.33925  0.37445  1.0000
  Mg  Mg12      1.0  0.94642  0.13058  0.34910  1.0000
  C   C69       1.0  0.21699  0.27930  0.81595  1.0000
  C   C70       1.0  0.20971  0.25733  0.69557  1.0000
  C  Sn25      1.0  0.24562  0.22633  0.64358  1.0000
  C  Sn26      1.0  0.28959  0.21722  0.71365  1.0000
  C   C71       1.0  0.29650  0.23935  0.83404  1.0000
  C   C72       1.0  0.26033  0.27032  0.88515  1.0000
  H   H41       1.0  0.18899  0.30324  0.85554  1.0000
  O  Te25      1.0  0.23777  0.20470  0.52316  1.0000
  O  Te26      1.0  0.32608  0.18639  0.66396  1.0000
  H   H42       1.0  0.26596  0.28730  0.97839  1.0000
  Mg  Mg13      1.0  0.29835  0.16546  0.49601  1.0000
  C   C73       1.0  0.09755  0.18749  0.30165  1.0000
  C   C74       1.0  0.12136  0.22348  0.37559  1.0000
  C  Sn27      1.0  0.10469  0.27216  0.37419  1.0000
  C  Sn28      1.0  0.06340  0.28493  0.29729  1.0000
  C   C75       1.0  0.03981  0.24865  0.22374  1.0000
  C   C76       1.0  0.05681  0.20006  0.22581  1.0000
  H   H43       1.0  0.11068  0.14989  0.30330  1.0000
  O  Te27      1.0  0.12891  0.30765  0.44860  1.0000
  O  Te28      1.0  0.04596  0.33329  0.29415  1.0000
  H   H44       1.0  0.03835  0.17219  0.16862  1.0000
  Mg  Mg14      1.0  0.09133  0.36857  0.41221  1.0000
  C   C77       1.0  0.71605  0.78887  0.30930  1.0000
  C   C78       1.0  0.70726  0.76521  0.19181  1.0000
  C  Sn29      1.0  0.74226  0.73304  0.14047  1.0000
  C  Sn30      1.0  0.78686  0.72446  0.20825  1.0000
  C   C79       1.0  0.79528  0.74828  0.32577  1.0000
  C   C80       1.0  0.76001  0.78041  0.37624  1.0000
  H   H45       1.0  0.68874  0.81371  0.34840  1.0000
  O  Te29      1.0  0.73290  0.70973  0.02294  1.0000
  O  Te30      1.0  0.82246  0.69248  0.15916  1.0000
  H   H46       1.0  0.76681  0.79869  0.46726  1.0000
  Mg  Mg15      1.0  0.79329  0.67011  0.99550  1.0000
  C   C81       1.0  0.55982  0.78987  0.82693  1.0000
  C   C82       1.0  0.54277  0.75478  0.73875  1.0000
  C  Sn31      1.0  0.56248  0.70726  0.73819  1.0000
  C  Sn32      1.0  0.59996  0.69475  0.82770  1.0000
  C   C83       1.0  0.61675  0.73011  0.91558  1.0000
  C   C84       1.0  0.59677  0.77756  0.91528  1.0000
  H   H47       1.0  0.54435  0.82658  0.82675  1.0000
  O  Te31      1.0  0.54503  0.67264  0.64940  1.0000
  O  Te32      1.0  0.62030  0.64752  0.82927  1.0000
  H   H48       1.0  0.60996  0.80472  0.98362  1.0000
  Mg  Mg16      1.0  0.58433  0.61316  0.68931  1.0000
  C   C85       1.0  0.53966  0.68302  0.43813  1.0000
  C   C86       1.0  0.50179  0.70487  0.50900  1.0000
  C  Sn33      1.0  0.45435  0.68475  0.50669  1.0000
  C  Sn34      1.0  0.44477  0.64194  0.43200  1.0000
  C   C87       1.0  0.48292  0.62033  0.36151  1.0000
  C   C88       1.0  0.53025  0.64078  0.36447  1.0000
  H   H49       1.0  0.57629  0.69882  0.44047  1.0000
  O  Te33      1.0  0.41693  0.70706  0.57802  1.0000
  O  Te34      1.0  0.39770  0.62104  0.42800  1.0000
  H   H50       1.0  0.55958  0.62383  0.30966  1.0000
  Mg  Mg17      1.0  0.35887  0.66487  0.54160  1.0000
  C   C89       1.0  0.03699  0.16700  0.87303  1.0000
  C   C90       1.0  0.99610  0.13689  0.84938  1.0000
  C  Sn35      1.0  0.95166  0.14550  0.91326  1.0000
  C  Sn36      1.0  0.94764  0.18432  0.00239  1.0000
  C   C91       1.0  0.98874  0.21426  0.02532  1.0000
  C   C92       1.0  0.03359  0.20601  0.96089  1.0000
  H   H51       1.0  0.07126  0.16009  0.82314  1.0000
  O  Te35      1.0  0.91117  0.11504  0.88853  1.0000
  O  Te36      1.0  0.90366  0.19377  0.06753  1.0000
  H   H52       1.0  0.06523  0.22936  0.97917  1.0000
  Mg  Mg18      1.0  0.85871  0.14200  0.00123  1.0000
  C   C93       1.0  0.06444  0.32874  0.99298  1.0000
  C   C94       1.0  0.02134  0.30349  0.03366  1.0000
  C  Sn37      1.0  0.97664  0.31366  0.97442  1.0000
  C  Sn38      1.0  0.97405  0.34835  0.87257  1.0000
  C   C95       1.0  0.01682  0.37269  0.83253  1.0000
  C   C96       1.0  0.06191  0.36295  0.89250  1.0000
  H   H53       1.0  0.09878  0.32048  0.03933  1.0000
  O  Te37      1.0  0.93394  0.28812  0.01629  1.0000
  O  Te38      1.0  0.92930  0.35850  0.81165  1.0000
  H   H54       1.0  0.09485  0.38193  0.86093  1.0000
  Mg  Mg19      1.0  0.88207  0.31525  0.90306  1.0000
  C   C97       1.0  0.55887  0.84849  0.45508  1.0000
  C   C98       1.0  0.52489  0.86535  0.36409  1.0000
  C  Sn39      1.0  0.47708  0.84615  0.36118  1.0000
  C  Sn40      1.0  0.46313  0.80941  0.45119  1.0000
  C   C99       1.0  0.49738  0.79282  0.54190  1.0000
  C   C100      1.0  0.54513  0.81227  0.54392  1.0000
  H   H55       1.0  0.59581  0.86356  0.45670  1.0000
  O  Te39      1.0  0.44360  0.86338  0.26960  1.0000
  O  Te40      1.0  0.41558  0.78960  0.45046  1.0000
  H   H56       1.0  0.57142  0.79924  0.61444  1.0000
  Mg  Mg20      1.0  0.38313  0.82501  0.30707  1.0000
  C   C101      1.0  0.59990  0.18831  0.19419  1.0000
  C   C102      1.0  0.61470  0.22243  0.10123  1.0000
  C  Sn41      1.0  0.59458  0.26978  0.09999  1.0000
  C  Sn42      1.0  0.55899  0.28311  0.19369  1.0000
  C   C103      1.0  0.54445  0.24872  0.28635  1.0000
  C   C104      1.0  0.56481  0.20144  0.28668  1.0000
  H   H57       1.0  0.61567  0.15174  0.19451  1.0000
  O  Te41      1.0  0.60977  0.30341  0.00640  1.0000
  O  Te42      1.0  0.53830  0.33019  0.19469  1.0000
  H   H58       1.0  0.55337  0.17504  0.35872  1.0000
  Mg  Mg21      1.0  0.57087  0.36307  0.04744  1.0000
  C   C105      1.0  0.06825  0.79050  0.69589  1.0000
  C   C106      1.0  0.04217  0.75393  0.76171  1.0000
  C  Sn43      1.0  0.05511  0.70441  0.74759  1.0000
  C  Sn44      1.0  0.09493  0.69137  0.66603  1.0000
  C   C107      1.0  0.12082  0.72824  0.60068  1.0000
  C   C108      1.0  0.10754  0.77768  0.61547  1.0000
  H   H59       1.0  0.05800  0.82876  0.70738  1.0000
  O  Te43      1.0  0.02865  0.66834  0.81402  1.0000
  O  Te44      1.0  0.10866  0.64216  0.65022  1.0000
  H   H60       1.0  0.12776  0.80598  0.56456  1.0000
  Mg  Mg22      1.0  0.06135  0.60635  0.76111  1.0000
  C   C109      1.0  0.92687  0.81282  0.73585  1.0000
  C   C110      1.0  0.94854  0.76935  0.78016  1.0000
  C  Sn45      1.0  0.93648  0.72416  0.72346  1.0000
  C  Sn46      1.0  0.90208  0.72258  0.62048  1.0000
  C   C111      1.0  0.88063  0.76628  0.57680  1.0000
  C   C112      1.0  0.89295  0.81129  0.63425  1.0000
  H   H61       1.0  0.93642  0.84766  0.78025  1.0000
  O  Te45      1.0  0.95846  0.68108  0.76894  1.0000
  O  Te46      1.0  0.88937  0.67792  0.56204  1.0000
  H   H62       1.0  0.87619  0.84495  0.59987  1.0000
  Mg  Mg23      1.0  0.92922  0.62919  0.65808  1.0000
  C   C113      1.0  0.40293  0.31051  0.20154  1.0000
  C   C114      1.0  0.38539  0.27555  0.11360  1.0000
  C  Sn47      1.0  0.40393  0.22756  0.11464  1.0000
  C  Sn48      1.0  0.44070  0.21442  0.20554  1.0000
  C   C115      1.0  0.45797  0.24965  0.29316  1.0000
  C   C116      1.0  0.43917  0.29758  0.29125  1.0000
  H   H63       1.0  0.38837  0.34758  0.20011  1.0000
  O  Te47      1.0  0.38602  0.19310  0.02609  1.0000
  O  Te48      1.0  0.45986  0.16672  0.20873  1.0000
  H   H64       1.0  0.45273  0.32462  0.35940  1.0000
  Mg  Mg24      1.0  0.42366  0.13279  0.06844  1.0000
