data_image0
_chemical_formula_structural       C4NH3CNHC4NC6H7C4NC6H7C4NH3CNHCNC6H5C4NH3C4NC6H7CNHC4NC6H7C4NH3CNC6H5C4NH3C4NC6H7CNHC6Sn2C2HTe2HMgC2Sn2C2HTe2HMgC2Sn2C2HTe2HMgC2Sn2C2HTe2HMgC2Sn2C2HTe2HMgC2Sn2C2HTe2HMgC2Sn2C2HTe2HMgC2Sn2C2HTe2HMgC2Sn2C2HTe2HMgC2Sn2C2HTe2HMgC2Sn2C2HTe2HMgC2Sn2C2HTe2HMg
_chemical_formula_sum              "C140 N16 H88 Sn24 Te24 Mg12"
_cell_length_a       27.1335
_cell_length_b       27.1329
_cell_length_c       10.3842
_cell_angle_alpha    90.1055
_cell_angle_beta     90.0827
_cell_angle_gamma    90.1368

_symmetry_space_group_name_H-M    'P1'
_space_group_IT_number       1

loop_
  _space_group_symop_operation_xyz
  'x, y, z'

loop_
  _atom_site_type_symbol
  _atom_site_label
  _atom_site_symmetry_multiplicity
  _atom_site_fract_x
  _atom_site_fract_y
  _atom_site_fract_z
  _atom_site_occupancy
  C   C1        1.0  0.47028  0.45825  0.03365  1.0000
  C   C2        1.0  0.50445  0.45248  0.93247  1.0000
  C   C3        1.0  0.50025  0.41022  0.84634  1.0000
  C   C4        1.0  0.54115  0.48866  0.91457  1.0000
  N   N1        1.0  0.52828  0.40576  0.74630  1.0000
  H   H1        1.0  0.44202  0.43022  0.04774  1.0000
  H   H2        1.0  0.47154  0.38303  0.87057  1.0000
  H   H3        1.0  0.56738  0.48334  0.83675  1.0000
  C   C5        1.0  0.99595  0.91256  0.34817  1.0000
  N   N2        1.0  0.01937  0.90950  0.24024  1.0000
  H   H4        1.0  0.97403  0.88168  0.38661  1.0000
  C   C6        1.0  0.02970  0.53937  0.52543  1.0000
  C   C7        1.0  0.99873  0.54096  0.41620  1.0000
  C   C8        1.0  0.99900  0.58496  0.33605  1.0000
  C   C9        1.0  0.96914  0.49976  0.38626  1.0000
  N   N3        1.0  0.97208  0.58859  0.23370  1.0000
  C   C10       1.0  0.97874  0.62865  0.15083  1.0000
  C   C11       1.0  0.93815  0.64550  0.07914  1.0000
  C   C12       1.0  0.94349  0.68365  0.99034  1.0000
  C   C13       1.0  0.98962  0.70519  0.96699  1.0000
  C   C14       1.0  0.03014  0.68823  0.03881  1.0000
  C   C15       1.0  0.02515  0.65060  0.12849  1.0000
  H   H5        1.0  0.05277  0.57117  0.54748  1.0000
  H   H6        1.0  0.02364  0.61488  0.36805  1.0000
  H   H7        1.0  0.94581  0.50135  0.30108  1.0000
  H   H8        1.0  0.90246  0.62815  0.09437  1.0000
  H   H9        1.0  0.91151  0.69631  0.93680  1.0000
  H   H10       1.0  0.06627  0.70457  0.02285  1.0000
  H   H11       1.0  0.05738  0.63700  0.17969  1.0000
  C   C16       1.0  0.52770  0.04015  0.04223  1.0000
  C   C17       1.0  0.50346  0.04125  0.92199  1.0000
  C   C18       1.0  0.50591  0.08572  0.84323  1.0000
  C   C19       1.0  0.47764  0.99904  0.87993  1.0000
  N   N4        1.0  0.48260  0.08860  0.73491  1.0000
  C   C20       1.0  0.48855  0.12918  0.65358  1.0000
  C   C21       1.0  0.44799  0.14330  0.57789  1.0000
  C   C22       1.0  0.45203  0.18144  0.48878  1.0000
  C   C23       1.0  0.49701  0.20568  0.46856  1.0000
  C   C24       1.0  0.53739  0.19211  0.54592  1.0000
  C   C25       1.0  0.53352  0.15461  0.63668  1.0000
  H   H12       1.0  0.54783  0.07263  0.07488  1.0000
  H   H13       1.0  0.52803  0.11643  0.88213  1.0000
  H   H14       1.0  0.45948  0.00039  0.78653  1.0000
  H   H15       1.0  0.41337  0.12364  0.59033  1.0000
  H   H16       1.0  0.41989  0.19199  0.43284  1.0000
  H   H17       1.0  0.57238  0.21131  0.53437  1.0000
  H   H18       1.0  0.56567  0.14397  0.69271  1.0000
  C   C26       1.0  0.28570  0.71645  0.28300  1.0000
  C   C27       1.0  0.28905  0.74629  0.17212  1.0000
  C   C28       1.0  0.33282  0.74388  0.09110  1.0000
  C   C29       1.0  0.24920  0.77709  0.13981  1.0000
  N   N5        1.0  0.33750  0.77163  0.99072  1.0000
  H   H19       1.0  0.31641  0.69242  0.30749  1.0000
  H   H20       1.0  0.36114  0.71705  0.11982  1.0000
  H   H21       1.0  0.25226  0.79947  0.05337  1.0000
  C   C30       1.0  0.83648  0.24450  0.58379  1.0000
  N   N6        1.0  0.84372  0.27400  0.48795  1.0000
  H   H22       1.0  0.86314  0.21581  0.61120  1.0000
  C   C31       1.0  0.16615  0.25051  0.58778  1.0000
  N   N7        1.0  0.16299  0.22617  0.48099  1.0000
  C   C32       1.0  0.12298  0.23368  0.39842  1.0000
  C   C33       1.0  0.10661  0.19354  0.32389  1.0000
  C   C34       1.0  0.06846  0.19907  0.23509  1.0000
  C   C35       1.0  0.04647  0.24510  0.21518  1.0000
  C   C36       1.0  0.06225  0.28501  0.29156  1.0000
  C   C37       1.0  0.10003  0.27982  0.38094  1.0000
  H   H23       1.0  0.13627  0.27454  0.62185  1.0000
  H   H24       1.0  0.12441  0.15805  0.33702  1.0000
  H   H25       1.0  0.05620  0.16739  0.17931  1.0000
  H   H26       1.0  0.04469  0.32072  0.27949  1.0000
  H   H27       1.0  0.11297  0.31174  0.43495  1.0000
  C   C38       1.0  0.70990  0.78509  0.27851  1.0000
  C   C39       1.0  0.70666  0.75521  0.16746  1.0000
  C   C40       1.0  0.66198  0.75653  0.08934  1.0000
  C   C41       1.0  0.74697  0.72511  0.13417  1.0000
  N   N8        1.0  0.65754  0.73042  0.98575  1.0000
  H   H28       1.0  0.67866  0.80824  0.30430  1.0000
  H   H29       1.0  0.63242  0.78085  0.12419  1.0000
  H   H30       1.0  0.74397  0.70230  0.04826  1.0000
  C   C42       1.0  0.54303  0.52965  0.99453  1.0000
  C   C43       1.0  0.50834  0.53575  0.09452  1.0000
  C   C44       1.0  0.51073  0.57963  0.17539  1.0000
  C   C45       1.0  0.47216  0.49916  0.11389  1.0000
  N   N9        1.0  0.48103  0.58603  0.27126  1.0000
  C   C46       1.0  0.48625  0.62687  0.35291  1.0000
  C   C47       1.0  0.44490  0.64081  0.42569  1.0000
  C   C48       1.0  0.44754  0.67975  0.51343  1.0000
  C   C49       1.0  0.49172  0.70537  0.53380  1.0000
  C   C50       1.0  0.53291  0.69183  0.45952  1.0000
  C   C51       1.0  0.53063  0.65319  0.37187  1.0000
  H   H31       1.0  0.57159  0.55745  0.98088  1.0000
  H   H32       1.0  0.53899  0.60691  0.14879  1.0000
  H   H33       1.0  0.44611  0.50418  0.19234  1.0000
  H   H34       1.0  0.41083  0.62019  0.41277  1.0000
  H   H35       1.0  0.41497  0.68993  0.56797  1.0000
  H   H36       1.0  0.56740  0.71185  0.47173  1.0000
  H   H37       1.0  0.56374  0.64258  0.31993  1.0000
  C   C52       1.0  0.99974  0.08862  0.65545  1.0000
  N   N10       1.0  0.97573  0.09239  0.76242  1.0000
  H   H38       1.0  0.02344  0.11851  0.61919  1.0000
  C   C53       1.0  0.97017  0.45842  0.46479  1.0000
  C   C54       1.0  0.00097  0.45702  0.57432  1.0000
  C   C55       1.0  0.00018  0.41398  0.65778  1.0000
  C   C56       1.0  0.03082  0.49804  0.60373  1.0000
  N   N11       1.0  0.02682  0.41181  0.76095  1.0000
  C   C57       1.0  0.02028  0.37271  0.84687  1.0000
  C   C58       1.0  0.06068  0.35742  0.92148  1.0000
  C   C59       1.0  0.05550  0.31975  0.01173  1.0000
  C   C60       1.0  0.00973  0.29710  0.03278  1.0000
  C   C61       1.0  0.96937  0.31264  0.95828  1.0000
  C   C62       1.0  0.97425  0.34984  0.86753  1.0000
  H   H39       1.0  0.94709  0.42654  0.44301  1.0000
  H   H40       1.0  0.97499  0.38404  0.62904  1.0000
  H   H41       1.0  0.05418  0.49615  0.68878  1.0000
  H   H42       1.0  0.09609  0.37540  0.90672  1.0000
  H   H43       1.0  0.08740  0.30836  0.06757  1.0000
  H   H44       1.0  0.93366  0.29516  0.97221  1.0000
  H   H45       1.0  0.94222  0.36216  0.81356  1.0000
  C   C63       1.0  0.47593  0.95715  0.95648  1.0000
  C   C64       1.0  0.50007  0.95611  0.07693  1.0000
  C   C65       1.0  0.49696  0.91221  0.15782  1.0000
  C   C66       1.0  0.52604  0.99827  0.11868  1.0000
  N   N12       1.0  0.52039  0.90967  0.26608  1.0000
  H   H46       1.0  0.45599  0.92456  0.92352  1.0000
  H   H47       1.0  0.47354  0.88190  0.12208  1.0000
  H   H48       1.0  0.54431  0.99686  0.21190  1.0000
  C   C67       1.0  0.66396  0.25552  0.90156  1.0000
  N   N13       1.0  0.65818  0.22714  0.00047  1.0000
  C   C68       1.0  0.61905  0.23390  0.08656  1.0000
  C   C69       1.0  0.60630  0.19382  0.16571  1.0000
  C   C70       1.0  0.56975  0.19822  0.25946  1.0000
  C   C71       1.0  0.54524  0.24299  0.27891  1.0000
  C   C72       1.0  0.55743  0.28284  0.19821  1.0000
  C   C73       1.0  0.59358  0.27874  0.10429  1.0000
  H   H49       1.0  0.63713  0.28406  0.87421  1.0000
  H   H50       1.0  0.62601  0.15929  0.15266  1.0000
  H   H51       1.0  0.56073  0.16660  0.31916  1.0000
  H   H52       1.0  0.53799  0.31760  0.20978  1.0000
  H   H53       1.0  0.60281  0.31073  0.04599  1.0000
  C   C74       1.0  0.20753  0.77830  0.21710  1.0000
  C   C75       1.0  0.20430  0.74883  0.32874  1.0000
  C   C76       1.0  0.16044  0.75223  0.40962  1.0000
  C   C77       1.0  0.24404  0.71773  0.36048  1.0000
  N   N14       1.0  0.15509  0.72540  0.51141  1.0000
  H   H54       1.0  0.17669  0.80207  0.19196  1.0000
  H   H55       1.0  0.13234  0.77891  0.37834  1.0000
  H   H56       1.0  0.24125  0.69513  0.44664  1.0000
  C   C78       1.0  0.78902  0.72477  0.21055  1.0000
  C   C79       1.0  0.79223  0.75463  0.32179  1.0000
  C   C80       1.0  0.83606  0.75196  0.40298  1.0000
  C   C81       1.0  0.75201  0.78496  0.35457  1.0000
  N   N15       1.0  0.84088  0.77880  0.50530  1.0000
  C   C82       1.0  0.88007  0.77059  0.59030  1.0000
  C   C83       1.0  0.89796  0.81069  0.66268  1.0000
  C   C84       1.0  0.93454  0.80416  0.75544  1.0000
  C   C85       1.0  0.95371  0.75732  0.78193  1.0000
  C   C86       1.0  0.93638  0.71741  0.70782  1.0000
  C   C87       1.0  0.90016  0.72357  0.61440  1.0000
  H   H57       1.0  0.82000  0.70110  0.18558  1.0000
  H   H58       1.0  0.86427  0.72519  0.37294  1.0000
  H   H59       1.0  0.75471  0.80752  0.44101  1.0000
  H   H60       1.0  0.88235  0.84691  0.64476  1.0000
  H   H61       1.0  0.94816  0.83589  0.80879  1.0000
  H   H62       1.0  0.95155  0.68086  0.72391  1.0000
  H   H63       1.0  0.88631  0.69163  0.56202  1.0000
  C   C88       1.0  0.33715  0.24393  0.91233  1.0000
  N   N16       1.0  0.34080  0.27022  0.01592  1.0000
  H   H64       1.0  0.36673  0.21902  0.88045  1.0000
  C   C89       1.0  0.00273  0.25273  0.12307  1.0000
  C   C90       1.0  0.49633  0.74948  0.62660  1.0000
  C   C91       1.0  0.50248  0.24937  0.37480  1.0000
  C   C92       1.0  0.99673  0.74961  0.87688  1.0000
  C   C93       1.0  0.59298  0.68855  0.80937  1.0000
  C   C94       1.0  0.61508  0.72569  0.88303  1.0000
  C  Sn1       1.0  0.59595  0.77346  0.88189  1.0000
  C  Sn2       1.0  0.55392  0.78411  0.80553  1.0000
  C   C95       1.0  0.53206  0.74669  0.73225  1.0000
  C   C96       1.0  0.55151  0.69903  0.73407  1.0000
  H   H65       1.0  0.60801  0.65167  0.81082  1.0000
  O  Te1       1.0  0.61849  0.81013  0.95602  1.0000
  O  Te2       1.0  0.53403  0.83153  0.80266  1.0000
  H   H66       1.0  0.53438  0.67027  0.67710  1.0000
  Mg  Mg1       1.0  0.57779  0.86905  0.92016  1.0000
  C   C97       1.0  0.78015  0.21119  0.79840  1.0000
  C   C98       1.0  0.79081  0.23704  0.68551  1.0000
  C  Sn3       1.0  0.75885  0.27364  0.64147  1.0000
  C  Sn4       1.0  0.71545  0.28449  0.71198  1.0000
  C   C99       1.0  0.70513  0.25844  0.82484  1.0000
  C   C100      1.0  0.73735  0.22188  0.86802  1.0000
  H   H67       1.0  0.80509  0.18292  0.83185  1.0000
  O  Te3       1.0  0.77006  0.29910  0.52847  1.0000
  O  Te4       1.0  0.68288  0.32090  0.67016  1.0000
  H   H68       1.0  0.72910  0.20189  0.95547  1.0000
  Mg  Mg2       1.0  0.71421  0.34547  0.51053  1.0000
  C   C101      1.0  0.45730  0.81633  0.43292  1.0000
  C   C102      1.0  0.49342  0.79421  0.50935  1.0000
  C  Sn5       1.0  0.54149  0.81278  0.51053  1.0000
  C  Sn6       1.0  0.55351  0.85428  0.43369  1.0000
  C   C103      1.0  0.51710  0.87617  0.35762  1.0000
  C   C104      1.0  0.46912  0.85727  0.35714  1.0000
  H   H69       1.0  0.42017  0.80173  0.43259  1.0000
  O  Te5       1.0  0.57713  0.79023  0.58741  1.0000
  O  Te6       1.0  0.60126  0.87361  0.43308  1.0000
  H   H70       1.0  0.44115  0.87443  0.29802  1.0000
  Mg  Mg3       1.0  0.63702  0.83006  0.55396  1.0000
  C   C105      1.0  0.93824  0.15562  0.94796  1.0000
  C   C106      1.0  0.97213  0.13735  0.85872  1.0000
  C  Sn7       1.0  0.02042  0.15533  0.85686  1.0000
  C  Sn8       1.0  0.03494  0.19227  0.94614  1.0000
  C   C107      1.0  0.00022  0.20958  0.03509  1.0000
  C   C108      1.0  0.95199  0.19134  0.03608  1.0000
  H   H71       1.0  0.90093  0.14150  0.94878  1.0000
  O  Te7       1.0  0.05380  0.13668  0.76704  1.0000
  O  Te8       1.0  0.08297  0.21088  0.94643  1.0000
  H   H72       1.0  0.92576  0.20547  0.10524  1.0000
  Mg  Mg4       1.0  0.11507  0.17376  0.80537  1.0000
  C   C109      1.0  0.40293  0.31051  0.20154  1.0000
  C   C110      1.0  0.38539  0.27555  0.11360  1.0000
  C  Sn9       1.0  0.40393  0.22756  0.11464  1.0000
  C  Sn10      1.0  0.44070  0.21442  0.20554  1.0000
  C   C111      1.0  0.45797  0.24965  0.29316  1.0000
  C   C112      1.0  0.43917  0.29758  0.29125  1.0000
  H   H73       1.0  0.38837  0.34758  0.20011  1.0000
  O  Te9       1.0  0.38602  0.19310  0.02609  1.0000
  O  Te10      1.0  0.45986  0.16672  0.20873  1.0000
  H   H74       1.0  0.45273  0.32462  0.35940  1.0000
  Mg  Mg5       1.0  0.42366  0.13279  0.06844  1.0000
  C   C113      1.0  0.02517  0.01272  0.38842  1.0000
  C   C114      1.0  0.00578  0.96715  0.41515  1.0000
  C  Sn11      1.0  0.97685  0.96115  0.52522  1.0000
  C  Sn12      1.0  0.96725  0.00159  0.60990  1.0000
  C   C115      1.0  0.98916  0.04703  0.58225  1.0000
  C   C116      1.0  0.01806  0.05263  0.47186  1.0000
  H   H75       1.0  0.04750  0.01706  0.30297  1.0000
  O  Te11      1.0  0.95538  0.91537  0.55051  1.0000
  O  Te12      1.0  0.94088  0.99661  0.72056  1.0000
  H   H76       1.0  0.03488  0.08792  0.45114  1.0000
  Mg  Mg6       1.0  0.91934  0.92688  0.71351  1.0000
  C   C117      1.0  0.43095  0.70945  0.82238  1.0000
  C   C118      1.0  0.44809  0.74406  0.73346  1.0000
  C  Sn13      1.0  0.42954  0.79205  0.73408  1.0000
  C  Sn14      1.0  0.39316  0.80553  0.82554  1.0000
  C   C119      1.0  0.37628  0.77064  0.91414  1.0000
  C   C120      1.0  0.39509  0.72272  0.91265  1.0000
  H   H77       1.0  0.44552  0.67238  0.82128  1.0000
  O  Te13      1.0  0.44705  0.82616  0.64454  1.0000
  O  Te14      1.0  0.37400  0.85324  0.82832  1.0000
  H   H78       1.0  0.38184  0.69594  0.98156  1.0000
  Mg  Mg7       1.0  0.40957  0.88662  0.68666  1.0000
  C   C121      1.0  0.21699  0.27930  0.81595  1.0000
  C   C122      1.0  0.20971  0.25733  0.69557  1.0000
  C  Sn15      1.0  0.24562  0.22633  0.64358  1.0000
  C  Sn16      1.0  0.28959  0.21722  0.71365  1.0000
  C   C123      1.0  0.29650  0.23935  0.83404  1.0000
  C   C124      1.0  0.26033  0.27032  0.88515  1.0000
  H   H79       1.0  0.18899  0.30324  0.85554  1.0000
  O  Te15      1.0  0.23777  0.20470  0.52316  1.0000
  O  Te16      1.0  0.32608  0.18639  0.66396  1.0000
  H   H80       1.0  0.26596  0.28730  0.97839  1.0000
  Mg  Mg8       1.0  0.29835  0.16546  0.49601  1.0000
  C   C125      1.0  0.95664  0.81664  0.07020  1.0000
  C   C126      1.0  0.99266  0.79779  0.98726  1.0000
  C  Sn17      1.0  0.04160  0.81366  0.99494  1.0000
  C  Sn18      1.0  0.05462  0.84907  0.08749  1.0000
  C   C127      1.0  0.01886  0.86838  0.17008  1.0000
  C   C128      1.0  0.96999  0.85225  0.16154  1.0000
  H   H81       1.0  0.91883  0.80414  0.06365  1.0000
  O  Te17      1.0  0.07658  0.79374  0.91131  1.0000
  O  Te18      1.0  0.10327  0.86557  0.09727  1.0000
  H   H82       1.0  0.94254  0.86737  0.22582  1.0000
  Mg  Mg9       1.0  0.13815  0.82807  0.96193  1.0000
  C   C129      1.0  0.06668  0.68835  0.73098  1.0000
  C   C130      1.0  0.04544  0.73123  0.78059  1.0000
  C  Sn19      1.0  0.05855  0.77727  0.73114  1.0000
  C  Sn20      1.0  0.09358  0.78033  0.63013  1.0000
  C   C131      1.0  0.11459  0.73721  0.58109  1.0000
  C   C132      1.0  0.10121  0.69132  0.63132  1.0000
  H   H83       1.0  0.05631  0.65284  0.76979  1.0000
  O  Te19      1.0  0.03700  0.81975  0.78185  1.0000
  O  Te20      1.0  0.10734  0.82587  0.57889  1.0000
  H   H84       1.0  0.11764  0.65813  0.59283  1.0000
  Mg  Mg10      1.0  0.06771  0.87328  0.68008  1.0000
  C   C133      1.0  0.56640  0.34526  0.55546  1.0000
  C   C134      1.0  0.53051  0.36639  0.63444  1.0000
  C  Sn21      1.0  0.48235  0.34806  0.63374  1.0000
  C  Sn22      1.0  0.47000  0.30779  0.55240  1.0000
  C   C135      1.0  0.50618  0.28688  0.47381  1.0000
  C   C136      1.0  0.55425  0.30553  0.47523  1.0000
  H   H85       1.0  0.60360  0.35967  0.55660  1.0000
  O  Te21      1.0  0.44695  0.36962  0.71322  1.0000
  O  Te22      1.0  0.42216  0.28873  0.54984  1.0000
  H   H86       1.0  0.58204  0.28914  0.41414  1.0000
  Mg  Mg11      1.0  0.38681  0.33061  0.67561  1.0000
  C   C137      1.0  0.92856  0.31255  0.26148  1.0000
  C   C138      1.0  0.95706  0.27163  0.22833  1.0000
  C  Sn23      1.0  0.94692  0.22556  0.28216  1.0000
  C  Sn24      1.0  0.90748  0.22048  0.37076  1.0000
  C   C139      1.0  0.87917  0.26164  0.40323  1.0000
  C   C140      1.0  0.88965  0.30757  0.34883  1.0000
  H   H87       1.0  0.93665  0.34809  0.21934  1.0000
  O  Te23      1.0  0.97577  0.18506  0.24802  1.0000
  O  Te24      1.0  0.89653  0.17486  0.42596  1.0000
  H   H88       1.0  0.86755  0.33925  0.37445  1.0000
  Mg  Mg12      1.0  0.94642  0.13058  0.34910  1.0000
