data_image0
_chemical_formula_structural       CNC6H5C4NH3C4NH3CNC6H5C4NC6H7CNC6H5CNHC4NH3CNC6H5C4NH3C4NC6H7CNHCNHC4NC6H7C4NH3CNC6H5C4SnCSn2CSnTe4Mg2SnCSn2CSnTe4Mg2SnCSn2CSnTe4Mg2SnCSn2CSnTe4Mg2SnCSn2CSnTe4Mg2SnCSn2CSnTe4Mg2SnCSn2CSnTe4Mg2SnCSn2CSnTe4Mg2SnCSn2CSnTe4Mg2SnCSn2CSnTe4Mg2SnCSn2CSnTe4Mg2SnCSn2CSnTe4Mg2
_chemical_formula_sum              "C116 N16 H64 Sn48 Te48 Mg24"
_cell_length_a       27.1335
_cell_length_b       27.1329
_cell_length_c       10.3842
_cell_angle_alpha    90.1055
_cell_angle_beta     90.0827
_cell_angle_gamma    90.1368

_symmetry_space_group_name_H-M    'P1'
_space_group_IT_number       1

loop_
  _space_group_symop_operation_xyz
  'x, y, z'

loop_
  _atom_site_type_symbol
  _atom_site_label
  _atom_site_symmetry_multiplicity
  _atom_site_fract_x
  _atom_site_fract_y
  _atom_site_fract_z
  _atom_site_occupancy
  C   C1        1.0  0.50025  0.41022  0.84634  1.0000
  N   N1        1.0  0.52828  0.40576  0.74630  1.0000
  C   C2        1.0  0.52059  0.36738  0.65818  1.0000
  C   C3        1.0  0.56032  0.35368  0.57918  1.0000
  C   C4        1.0  0.55507  0.31696  0.48574  1.0000
  C   C5        1.0  0.50969  0.29329  0.46684  1.0000
  C   C6        1.0  0.47000  0.30693  0.54629  1.0000
  C   C7        1.0  0.47492  0.34341  0.63920  1.0000
  H   H1        1.0  0.47154  0.38303  0.87057  1.0000
  H   H2        1.0  0.59532  0.37262  0.59249  1.0000
  H   H3        1.0  0.58655  0.30703  0.42645  1.0000
  H   H4        1.0  0.43467  0.28840  0.53434  1.0000
  H   H5        1.0  0.44307  0.35401  0.69618  1.0000
  C   C8        1.0  0.96958  0.96014  0.54036  1.0000
  C   C9        1.0  0.99714  0.95762  0.42546  1.0000
  C   C10       1.0  0.99595  0.91256  0.34817  1.0000
  C   C11       1.0  0.02403  0.99941  0.38564  1.0000
  N   N2        1.0  0.01937  0.90950  0.24024  1.0000
  H   H6        1.0  0.94806  0.92815  0.56984  1.0000
  H   H7        1.0  0.97403  0.88168  0.38661  1.0000
  H   H8        1.0  0.04416  0.99741  0.29529  1.0000
  C   C12       1.0  0.02970  0.53937  0.52543  1.0000
  C   C13       1.0  0.99873  0.54096  0.41620  1.0000
  C   C14       1.0  0.99900  0.58496  0.33605  1.0000
  C   C15       1.0  0.96914  0.49976  0.38626  1.0000
  N   N3        1.0  0.97208  0.58859  0.23370  1.0000
  H   H9        1.0  0.05277  0.57117  0.54748  1.0000
  H   H10       1.0  0.02364  0.61488  0.36805  1.0000
  H   H11       1.0  0.94581  0.50135  0.30108  1.0000
  C   C16       1.0  0.50591  0.08572  0.84323  1.0000
  N   N4        1.0  0.48260  0.08860  0.73491  1.0000
  C   C17       1.0  0.48855  0.12918  0.65358  1.0000
  C   C18       1.0  0.44799  0.14330  0.57789  1.0000
  C   C19       1.0  0.45203  0.18144  0.48878  1.0000
  C   C20       1.0  0.49701  0.20568  0.46856  1.0000
  C   C21       1.0  0.53739  0.19211  0.54592  1.0000
  C   C22       1.0  0.53352  0.15461  0.63668  1.0000
  H   H12       1.0  0.52803  0.11643  0.88213  1.0000
  H   H13       1.0  0.41337  0.12364  0.59033  1.0000
  H   H14       1.0  0.41989  0.19199  0.43284  1.0000
  H   H15       1.0  0.57238  0.21131  0.53437  1.0000
  H   H16       1.0  0.56567  0.14397  0.69271  1.0000
  C   C23       1.0  0.28570  0.71645  0.28300  1.0000
  C   C24       1.0  0.28905  0.74629  0.17212  1.0000
  C   C25       1.0  0.33282  0.74388  0.09110  1.0000
  C   C26       1.0  0.24920  0.77709  0.13981  1.0000
  N   N5        1.0  0.33750  0.77163  0.99072  1.0000
  C   C27       1.0  0.37687  0.76490  0.90572  1.0000
  C   C28       1.0  0.39136  0.80523  0.82984  1.0000
  C   C29       1.0  0.42864  0.80055  0.73838  1.0000
  C   C30       1.0  0.45200  0.75525  0.71759  1.0000
  C   C31       1.0  0.43791  0.71505  0.79492  1.0000
  C   C32       1.0  0.40093  0.71943  0.88651  1.0000
  H   H17       1.0  0.31641  0.69242  0.30749  1.0000
  H   H18       1.0  0.36114  0.71705  0.11982  1.0000
  H   H19       1.0  0.25226  0.79947  0.05337  1.0000
  H   H20       1.0  0.37286  0.84029  0.84453  1.0000
  H   H21       1.0  0.43944  0.83247  0.68188  1.0000
  H   H22       1.0  0.45644  0.67982  0.78312  1.0000
  H   H23       1.0  0.38998  0.68738  0.94240  1.0000
  C   C33       1.0  0.83648  0.24450  0.58379  1.0000
  N   N6        1.0  0.84372  0.27400  0.48795  1.0000
  C   C34       1.0  0.88375  0.26736  0.40493  1.0000
  C   C35       1.0  0.90090  0.30888  0.33748  1.0000
  C   C36       1.0  0.93839  0.30482  0.24632  1.0000
  C   C37       1.0  0.95951  0.25903  0.21763  1.0000
  C   C38       1.0  0.94335  0.21781  0.28805  1.0000
  C   C39       1.0  0.90588  0.22139  0.37862  1.0000
  H   H24       1.0  0.86314  0.21581  0.61120  1.0000
  H   H25       1.0  0.88391  0.34430  0.35794  1.0000
  H   H26       1.0  0.95076  0.33753  0.19535  1.0000
  H   H27       1.0  0.96013  0.18213  0.26953  1.0000
  H   H28       1.0  0.89282  0.18831  0.42698  1.0000
  C   C40       1.0  0.16615  0.25051  0.58778  1.0000
  N   N7        1.0  0.16299  0.22617  0.48099  1.0000
  H   H29       1.0  0.13627  0.27454  0.62185  1.0000
  C   C41       1.0  0.70990  0.78509  0.27851  1.0000
  C   C42       1.0  0.70666  0.75521  0.16746  1.0000
  C   C43       1.0  0.66198  0.75653  0.08934  1.0000
  C   C44       1.0  0.74697  0.72511  0.13417  1.0000
  N   N8        1.0  0.65754  0.73042  0.98575  1.0000
  H   H30       1.0  0.67866  0.80824  0.30430  1.0000
  H   H31       1.0  0.63242  0.78085  0.12419  1.0000
  H   H32       1.0  0.74397  0.70230  0.04826  1.0000
  C   C45       1.0  0.51073  0.57963  0.17539  1.0000
  N   N9        1.0  0.48103  0.58603  0.27126  1.0000
  C   C46       1.0  0.48625  0.62687  0.35291  1.0000
  C   C47       1.0  0.44490  0.64081  0.42569  1.0000
  C   C48       1.0  0.44754  0.67975  0.51343  1.0000
  C   C49       1.0  0.49172  0.70537  0.53380  1.0000
  C   C50       1.0  0.53291  0.69183  0.45952  1.0000
  C   C51       1.0  0.53063  0.65319  0.37187  1.0000
  H   H33       1.0  0.53899  0.60691  0.14879  1.0000
  H   H34       1.0  0.41083  0.62019  0.41277  1.0000
  H   H35       1.0  0.41497  0.68993  0.56797  1.0000
  H   H36       1.0  0.56740  0.71185  0.47173  1.0000
  H   H37       1.0  0.56374  0.64258  0.31993  1.0000
  C   C52       1.0  0.02420  0.04194  0.46034  1.0000
  C   C53       1.0  0.99726  0.04412  0.57644  1.0000
  C   C54       1.0  0.99974  0.08862  0.65545  1.0000
  C   C55       1.0  0.96939  0.00276  0.61468  1.0000
  N   N10       1.0  0.97573  0.09239  0.76242  1.0000
  H   H38       1.0  0.04516  0.07418  0.42974  1.0000
  H   H39       1.0  0.02344  0.11851  0.61919  1.0000
  H   H40       1.0  0.94810  0.00519  0.70317  1.0000
  C   C56       1.0  0.97017  0.45842  0.46479  1.0000
  C   C57       1.0  0.00097  0.45702  0.57432  1.0000
  C   C58       1.0  0.00018  0.41398  0.65778  1.0000
  C   C59       1.0  0.03082  0.49804  0.60373  1.0000
  N   N11       1.0  0.02682  0.41181  0.76095  1.0000
  C   C60       1.0  0.02028  0.37271  0.84687  1.0000
  C   C61       1.0  0.06068  0.35742  0.92148  1.0000
  C   C62       1.0  0.05550  0.31975  0.01173  1.0000
  C   C63       1.0  0.00973  0.29710  0.03278  1.0000
  C   C64       1.0  0.96937  0.31264  0.95828  1.0000
  C   C65       1.0  0.97425  0.34984  0.86753  1.0000
  H   H41       1.0  0.94709  0.42654  0.44301  1.0000
  H   H42       1.0  0.97499  0.38404  0.62904  1.0000
  H   H43       1.0  0.05418  0.49615  0.68878  1.0000
  H   H44       1.0  0.09609  0.37540  0.90672  1.0000
  H   H45       1.0  0.08740  0.30836  0.06757  1.0000
  H   H46       1.0  0.93366  0.29516  0.97221  1.0000
  H   H47       1.0  0.94222  0.36216  0.81356  1.0000
  C   C66       1.0  0.49696  0.91221  0.15782  1.0000
  N   N12       1.0  0.52039  0.90967  0.26608  1.0000
  H   H48       1.0  0.47354  0.88190  0.12208  1.0000
  C   C67       1.0  0.66396  0.25552  0.90156  1.0000
  N   N13       1.0  0.65818  0.22714  0.00047  1.0000
  H   H49       1.0  0.63713  0.28406  0.87421  1.0000
  C   C68       1.0  0.20753  0.77830  0.21710  1.0000
  C   C69       1.0  0.20430  0.74883  0.32874  1.0000
  C   C70       1.0  0.16044  0.75223  0.40962  1.0000
  C   C71       1.0  0.24404  0.71773  0.36048  1.0000
  N   N14       1.0  0.15509  0.72540  0.51141  1.0000
  C   C72       1.0  0.11538  0.73276  0.59510  1.0000
  C   C73       1.0  0.09621  0.69153  0.66010  1.0000
  C   C74       1.0  0.05903  0.69673  0.75146  1.0000
  C   C75       1.0  0.04056  0.74334  0.78419  1.0000
  C   C76       1.0  0.05887  0.78439  0.71695  1.0000
  C   C77       1.0  0.09564  0.77953  0.62451  1.0000
  H   H50       1.0  0.17669  0.80207  0.19196  1.0000
  H   H51       1.0  0.13234  0.77891  0.37834  1.0000
  H   H52       1.0  0.24125  0.69513  0.44664  1.0000
  H   H53       1.0  0.11101  0.65537  0.63702  1.0000
  H   H54       1.0  0.04448  0.66421  0.79925  1.0000
  H   H55       1.0  0.04408  0.82077  0.73790  1.0000
  H   H56       1.0  0.11008  0.81214  0.57676  1.0000
  C   C78       1.0  0.78902  0.72477  0.21055  1.0000
  C   C79       1.0  0.79223  0.75463  0.32179  1.0000
  C   C80       1.0  0.83606  0.75196  0.40298  1.0000
  C   C81       1.0  0.75201  0.78496  0.35457  1.0000
  N   N15       1.0  0.84088  0.77880  0.50530  1.0000
  H   H57       1.0  0.82000  0.70110  0.18558  1.0000
  H   H58       1.0  0.86427  0.72519  0.37294  1.0000
  H   H59       1.0  0.75471  0.80752  0.44101  1.0000
  C   C82       1.0  0.33715  0.24393  0.91233  1.0000
  N   N16       1.0  0.34080  0.27022  0.01592  1.0000
  C   C83       1.0  0.38084  0.26415  0.09964  1.0000
  C   C84       1.0  0.39585  0.30480  0.17433  1.0000
  C   C85       1.0  0.43396  0.30062  0.26415  1.0000
  C   C86       1.0  0.45770  0.25545  0.28462  1.0000
  C   C87       1.0  0.44272  0.21490  0.20939  1.0000
  C   C88       1.0  0.40494  0.21874  0.11948  1.0000
  H   H60       1.0  0.36673  0.21902  0.88045  1.0000
  H   H61       1.0  0.37709  0.33978  0.16034  1.0000
  H   H62       1.0  0.44486  0.33283  0.31983  1.0000
  H   H63       1.0  0.46086  0.17955  0.22269  1.0000
  H   H64       1.0  0.39314  0.18631  0.06586  1.0000
  C   C89       1.0  0.00273  0.25273  0.12307  1.0000
  C   C90       1.0  0.49633  0.74948  0.62660  1.0000
  C   C91       1.0  0.50248  0.24937  0.37480  1.0000
  C   C92       1.0  0.99673  0.74961  0.87688  1.0000
  C  Sn1       1.0  0.57242  0.78088  0.90070  1.0000
  C   C93       1.0  0.60216  0.74019  0.92755  1.0000
  C  Sn2       1.0  0.60303  0.69984  0.84386  1.0000
  C  Sn3       1.0  0.57357  0.70017  0.73092  1.0000
  C   C94       1.0  0.54385  0.74085  0.70411  1.0000
  C  Sn4       1.0  0.54296  0.78122  0.78776  1.0000
  O  Te1       1.0  0.57213  0.82082  0.98572  1.0000
  O  Te2       1.0  0.63305  0.65957  0.87277  1.0000
  O  Te3       1.0  0.57388  0.66019  0.64589  1.0000
  O  Te4       1.0  0.51297  0.82147  0.75888  1.0000
  Mg  Mg1       1.0  0.62083  0.61394  0.72712  1.0000
  Mg  Mg2       1.0  0.52517  0.86713  0.90443  1.0000
  C  Sn5       1.0  0.55362  0.49122  0.95085  1.0000
  C   C95       1.0  0.51920  0.45284  0.95356  1.0000
  C  Sn6       1.0  0.47479  0.45722  0.02256  1.0000
  C  Sn7       1.0  0.46512  0.50160  0.09022  1.0000
  C   C96       1.0  0.49952  0.53995  0.08747  1.0000
  C  Sn8       1.0  0.54339  0.53490  0.01851  1.0000
  O  Te5       1.0  0.59721  0.48533  0.88123  1.0000
  O  Te6       1.0  0.44095  0.41833  0.02387  1.0000
  O  Te7       1.0  0.42148  0.50746  0.15987  1.0000
  O  Te8       1.0  0.57722  0.57376  0.01716  1.0000
  Mg  Mg3       1.0  0.38684  0.44401  0.13248  1.0000
  Mg  Mg4       1.0  0.63187  0.54883  0.90853  1.0000
  C  Sn9       1.0  0.51370  0.01395  0.12632  1.0000
  C   C97       1.0  0.49331  0.96897  0.09781  1.0000
  C  Sn10      1.0  0.47933  0.95873  0.97184  1.0000
  C  Sn11      1.0  0.48776  0.99344  0.87227  1.0000
  C   C98       1.0  0.50814  0.03838  0.90080  1.0000
  C  Sn12      1.0  0.52213  0.04866  0.02675  1.0000
  O  Te9       1.0  0.52793  0.02411  0.25292  1.0000
  O  Te10      1.0  0.45662  0.91353  0.94570  1.0000
  O  Te11      1.0  0.47351  0.98324  0.74559  1.0000
  O  Te12      1.0  0.54484  0.09382  0.05290  1.0000
  Mg  Mg5       1.0  0.44392  0.91667  0.75810  1.0000
  Mg  Mg6       1.0  0.55757  0.09071  0.24045  1.0000
  C  Sn13      1.0  0.58882  0.18697  0.16177  1.0000
  C   C99       1.0  0.60654  0.22333  0.07855  1.0000
  C  Sn14      1.0  0.59602  0.27296  0.10127  1.0000
  C  Sn15      1.0  0.56722  0.28654  0.20947  1.0000
  C   C100      1.0  0.54952  0.25020  0.29263  1.0000
  C  Sn16      1.0  0.56002  0.20056  0.26998  1.0000
  O  Te13      1.0  0.59979  0.13758  0.13720  1.0000
  O  Te14      1.0  0.61413  0.30864  0.01668  1.0000
  O  Te15      1.0  0.55625  0.33598  0.23399  1.0000
  O  Te16      1.0  0.54193  0.16489  0.35450  1.0000
  Mg  Mg7       1.0  0.58929  0.37104  0.09103  1.0000
  Mg  Mg8       1.0  0.56677  0.10248  0.28029  1.0000
  C  Sn17      1.0  0.23629  0.26617  0.87242  1.0000
  C   C101      1.0  0.28021  0.24051  0.85210  1.0000
  C  Sn18      1.0  0.29113  0.22114  0.73076  1.0000
  C  Sn19      1.0  0.25748  0.22756  0.62755  1.0000
  C   C102      1.0  0.21360  0.25321  0.64788  1.0000
  C  Sn20      1.0  0.20264  0.27259  0.76921  1.0000
  O  Te17      1.0  0.22613  0.28523  0.99452  1.0000
  O  Te18      1.0  0.33526  0.19561  0.71279  1.0000
  O  Te19      1.0  0.26768  0.20847  0.50538  1.0000
  O  Te20      1.0  0.15854  0.29811  0.78719  1.0000
  Mg  Mg9       1.0  0.33257  0.17653  0.52880  1.0000
  Mg  Mg10      1.0  0.16121  0.31723  0.97111  1.0000
  C  Sn21      1.0  0.02692  0.66883  0.13985  1.0000
  C   C103      1.0  0.98445  0.64209  0.17043  1.0000
  C  Sn22      1.0  0.94306  0.64410  0.09049  1.0000
  C  Sn23      1.0  0.94470  0.67412  0.97758  1.0000
  C   C104      1.0  0.98715  0.70083  0.94704  1.0000
  C  Sn24      1.0  0.02801  0.69815  0.02694  1.0000
  O  Te21      1.0  0.06788  0.66628  0.22115  1.0000
  O  Te22      1.0  0.90102  0.61706  0.12310  1.0000
  O  Te23      1.0  0.90369  0.67665  0.89627  1.0000
  O  Te24      1.0  0.07058  0.72587  0.99437  1.0000
  Mg  Mg11      1.0  0.85510  0.63317  0.98172  1.0000
  Mg  Mg12      1.0  0.11653  0.70976  0.13564  1.0000
  C  Sn25      1.0  0.91626  0.80655  0.76515  1.0000
  C   C105      1.0  0.94101  0.76329  0.79846  1.0000
  C  Sn26      1.0  0.93840  0.72184  0.71874  1.0000
  C  Sn27      1.0  0.91049  0.72367  0.60326  1.0000
  C   C106      1.0  0.88576  0.76691  0.56999  1.0000
  C  Sn28      1.0  0.88835  0.80838  0.64967  1.0000
  O  Te25      1.0  0.91939  0.84754  0.84629  1.0000
  O  Te26      1.0  0.96344  0.67900  0.75409  1.0000
  O  Te27      1.0  0.90737  0.68263  0.52211  1.0000
  O  Te28      1.0  0.86333  0.85120  0.61436  1.0000
  Mg  Mg13      1.0  0.94797  0.63280  0.61180  1.0000
  Mg  Mg14      1.0  0.87880  0.89743  0.75653  1.0000
  C  Sn29      1.0  0.08180  0.28094  0.39263  1.0000
  C   C107      1.0  0.10958  0.23884  0.41907  1.0000
  C  Sn30      1.0  0.10828  0.19847  0.33545  1.0000
  C  Sn31      1.0  0.07861  0.20022  0.22300  1.0000
  C   C108      1.0  0.05085  0.24230  0.19659  1.0000
  C  Sn32      1.0  0.05212  0.28269  0.28018  1.0000
  O  Te29      1.0  0.08367  0.32087  0.47758  1.0000
  O  Te30      1.0  0.13637  0.15679  0.36394  1.0000
  O  Te31      1.0  0.07676  0.16025  0.13804  1.0000
  O  Te32      1.0  0.02407  0.32435  0.25172  1.0000
  Mg  Mg15      1.0  0.12159  0.11178  0.21859  1.0000
  Mg  Mg16      1.0  0.03884  0.36940  0.39697  1.0000
  C  Sn33      1.0  0.93763  0.16603  0.91401  1.0000
  C   C109      1.0  0.97355  0.14496  0.83500  1.0000
  C  Sn34      1.0  0.02351  0.15378  0.85848  1.0000
  C  Sn35      1.0  0.03787  0.18426  0.96317  1.0000
  C   C110      1.0  0.00141  0.20460  0.04213  1.0000
  C  Sn36      1.0  0.95144  0.19581  0.01870  1.0000
  O  Te33      1.0  0.88791  0.15671  0.88875  1.0000
  O  Te34      1.0  0.05875  0.13232  0.77814  1.0000
  O  Te35      1.0  0.08764  0.19357  0.98838  1.0000
  O  Te36      1.0  0.91622  0.21723  0.09899  1.0000
  Mg  Mg17      1.0  0.12187  0.15599  0.85178  1.0000
  Mg  Mg18      1.0  0.85308  0.19358  0.02548  1.0000
  C  Sn37      1.0  0.55987  0.83790  0.42151  1.0000
  C   C111      1.0  0.52375  0.85756  0.34057  1.0000
  C  Sn38      1.0  0.47394  0.84763  0.36264  1.0000
  C  Sn39      1.0  0.45993  0.81745  0.46785  1.0000
  C   C112      1.0  0.49604  0.79782  0.54872  1.0000
  C  Sn40      1.0  0.54586  0.80772  0.52672  1.0000
  O  Te37      1.0  0.60945  0.84831  0.39764  1.0000
  O  Te38      1.0  0.43850  0.86768  0.28038  1.0000
  O  Te39      1.0  0.41031  0.80704  0.49166  1.0000
  O  Te40      1.0  0.58129  0.78769  0.60892  1.0000
  Mg  Mg19      1.0  0.37569  0.84289  0.35264  1.0000
  Mg  Mg20      1.0  0.64410  0.81247  0.53679  1.0000
  C  Sn41      1.0  0.05642  0.81131  0.04743  1.0000
  C   C113      1.0  0.01364  0.78655  0.00889  1.0000
  C  Sn42      1.0  0.96729  0.80605  0.03712  1.0000
  C  Sn43      1.0  0.96361  0.85125  0.10522  1.0000
  C   C114      1.0  0.00638  0.87598  0.14370  1.0000
  C  Sn44      1.0  0.05275  0.85651  0.11553  1.0000
  O  Te41      1.0  0.10238  0.79115  0.01816  1.0000
  O  Te42      1.0  0.92559  0.78132  0.99763  1.0000
  O  Te43      1.0  0.91761  0.87140  0.13448  1.0000
  O  Te44      1.0  0.09498  0.88192  0.15496  1.0000
  Mg  Mg21      1.0  0.87079  0.82302  0.06017  1.0000
  Mg  Mg22      1.0  0.14924  0.83957  0.09242  1.0000
  C  Sn45      1.0  0.76182  0.22389  0.85768  1.0000
  C   C115      1.0  0.72109  0.25485  0.84346  1.0000
  C  Sn46      1.0  0.71343  0.28026  0.72831  1.0000
  C  Sn47      1.0  0.74717  0.27458  0.62517  1.0000
  C   C116      1.0  0.78786  0.24364  0.63940  1.0000
  C  Sn48      1.0  0.79556  0.21822  0.75454  1.0000
  O  Te45      1.0  0.76875  0.19885  0.97365  1.0000
  O  Te46      1.0  0.67245  0.31101  0.71639  1.0000
  O  Te47      1.0  0.74020  0.29966  0.50914  1.0000
  O  Te48      1.0  0.83650  0.18748  0.76647  1.0000
  Mg  Mg23      1.0  0.67888  0.33728  0.53945  1.0000
  Mg  Mg24      1.0  0.83009  0.16118  0.94334  1.0000
