data_image0
_chemical_formula_structural       C4OHC5OH2NC4OHC5OH2NC4OHC5OH2NC4OHC5OH2NBNBNCBNHCBNHC5OH2C4OHNC5OH2C4OHNC5OH2C4OHNC5OH2C4OHNCBNCBNBNHBNHC2Sn2C2HTe2HMgC2Sn2C2HTe2HMg
_chemical_formula_sum              "C84 O16 H32 N16 B8 Sn4 Te4 Mg2"
_cell_length_a       23.1508
_cell_length_b       23.1245
_cell_length_c       7.94295
_cell_angle_alpha    89.0947
_cell_angle_beta     121.398
_cell_angle_gamma    90.3194

_symmetry_space_group_name_H-M    'P1'
_space_group_IT_number       1

loop_
  _space_group_symop_operation_xyz
  'x, y, z'

loop_
  _atom_site_type_symbol
  _atom_site_label
  _atom_site_symmetry_multiplicity
  _atom_site_fract_x
  _atom_site_fract_y
  _atom_site_fract_z
  _atom_site_occupancy
  C   C1        1.0  0.52819  0.22122  0.23676  1.0000
  C   C2        1.0  0.43388  0.26928  0.23807  1.0000
  C   C3        1.0  0.46577  0.32110  0.23976  1.0000
  C   C4        1.0  0.44890  0.38182  0.24482  1.0000
  O   O1        1.0  0.44873  0.16290  0.23614  1.0000
  H   H1        1.0  0.38745  0.26793  0.24074  1.0000
  C   C5        1.0  0.96122  0.44797  0.22014  1.0000
  C   C6        1.0  0.77863  0.53271  0.24420  1.0000
  C   C7        1.0  0.72684  0.43942  0.24156  1.0000
  C   C8        1.0  0.67599  0.47251  0.24015  1.0000
  C   C9        1.0  0.61626  0.45371  0.24049  1.0000
  O   O2        1.0  0.83348  0.45150  0.24151  1.0000
  H   H2        1.0  0.93421  0.40787  0.20520  1.0000
  H   H3        1.0  0.72568  0.39245  0.24083  1.0000
  N   N1        1.0  0.39368  0.39662  0.24797  1.0000
  C   C10       1.0  0.46835  0.78323  0.25973  1.0000
  C   C11       1.0  0.56185  0.73310  0.26008  1.0000
  C   C12       1.0  0.52918  0.68206  0.26057  1.0000
  C   C13       1.0  0.54590  0.62132  0.25735  1.0000
  O   O3        1.0  0.54889  0.83978  0.25856  1.0000
  H   H4        1.0  0.60822  0.73308  0.25681  1.0000
  C   C14       1.0  0.02966  0.55138  0.25655  1.0000
  C   C15       1.0  0.21456  0.46863  0.24338  1.0000
  C   C16       1.0  0.26746  0.56278  0.26148  1.0000
  C   C17       1.0  0.31911  0.53071  0.26369  1.0000
  C   C18       1.0  0.37929  0.55001  0.26647  1.0000
  O   O4        1.0  0.15915  0.54871  0.24985  1.0000
  H   H5        1.0  0.05663  0.59151  0.27134  1.0000
  H   H6        1.0  0.26853  0.60967  0.26799  1.0000
  N   N2        1.0  0.60099  0.60685  0.25242  1.0000
  C   C19       1.0  0.46736  0.21988  0.23657  1.0000
  C   C20       1.0  0.56020  0.27227  0.23839  1.0000
  C   C21       1.0  0.52691  0.32228  0.24071  1.0000
  C   C22       1.0  0.54371  0.38339  0.24334  1.0000
  O   O5        1.0  0.54847  0.16512  0.23480  1.0000
  H   H7        1.0  0.60670  0.27370  0.23608  1.0000
  C   C23       1.0  0.02147  0.44717  0.22127  1.0000
  C   C24       1.0  0.21594  0.52970  0.25200  1.0000
  C   C25       1.0  0.26503  0.43634  0.24567  1.0000
  C   C26       1.0  0.31799  0.46920  0.25665  1.0000
  C   C27       1.0  0.37777  0.45083  0.25699  1.0000
  O   O6        1.0  0.15663  0.44877  0.23440  1.0000
  H   H8        1.0  0.04161  0.40651  0.20571  1.0000
  H   H9        1.0  0.26441  0.38943  0.24012  1.0000
  N   N3        1.0  0.59925  0.39926  0.24274  1.0000
  C   C28       1.0  0.52924  0.78325  0.26010  1.0000
  C   C29       1.0  0.43567  0.73276  0.26063  1.0000
  C   C30       1.0  0.46821  0.68177  0.26072  1.0000
  C   C31       1.0  0.45143  0.62054  0.26154  1.0000
  O   O7        1.0  0.44905  0.83995  0.25935  1.0000
  H   H10       1.0  0.38908  0.73251  0.26250  1.0000
  C   C32       1.0  0.96934  0.55215  0.25501  1.0000
  C   C33       1.0  0.77759  0.47154  0.24272  1.0000
  C   C34       1.0  0.72905  0.56601  0.24391  1.0000
  C   C35       1.0  0.67679  0.53408  0.24152  1.0000
  C   C36       1.0  0.61746  0.55285  0.24410  1.0000
  O   O8        1.0  0.83530  0.55160  0.24390  1.0000
  H   H11       1.0  0.94900  0.59284  0.26935  1.0000
  H   H12       1.0  0.72986  0.61300  0.24352  1.0000
  N   N4        1.0  0.39626  0.60457  0.26432  1.0000
  B   B1        1.0  0.49948  0.12951  0.23737  1.0000
  N   N5        1.0  0.49637  0.41815  0.24615  1.0000
  B   B2        1.0  0.49911  0.87432  0.25775  1.0000
  N   N6        1.0  0.49870  0.58537  0.25893  1.0000
  C   C37       1.0  0.93427  0.50046  0.23770  1.0000
  B   B3        1.0  0.86854  0.50127  0.24107  1.0000
  N   N7        1.0  0.58309  0.50323  0.24005  1.0000
  H   H13       1.0  0.45635  0.50081  0.26374  1.0000
  C   C38       1.0  0.05667  0.49886  0.23948  1.0000
  B   B4        1.0  0.12310  0.49851  0.24000  1.0000
  N   N8        1.0  0.41253  0.50061  0.26540  1.0000
  H   H14       1.0  0.53964  0.50361  0.24368  1.0000
  C   C39       1.0  0.45010  0.02828  0.75143  1.0000
  C   C40       1.0  0.52785  0.21868  0.73580  1.0000
  C   C41       1.0  0.43606  0.26817  0.74602  1.0000
  C   C42       1.0  0.46783  0.31954  0.74257  1.0000
  C   C43       1.0  0.45175  0.38060  0.74672  1.0000
  O   O9        1.0  0.44991  0.16120  0.74724  1.0000
  H   H15       1.0  0.40907  0.05039  0.75345  1.0000
  H   H16       1.0  0.39060  0.26782  0.75388  1.0000
  C   C44       1.0  0.78274  0.52918  0.74693  1.0000
  C   C45       1.0  0.73071  0.43543  0.73942  1.0000
  C   C46       1.0  0.67946  0.46808  0.73750  1.0000
  C   C47       1.0  0.61913  0.44966  0.73530  1.0000
  O   O10       1.0  0.83787  0.44861  0.74225  1.0000
  H   H17       1.0  0.72937  0.38850  0.73587  1.0000
  N   N9        1.0  0.39690  0.39635  0.75086  1.0000
  C   C48       1.0  0.55646  0.97101  0.75321  1.0000
  C   C49       1.0  0.47775  0.78094  0.76823  1.0000
  C   C50       1.0  0.56796  0.73065  0.75246  1.0000
  C   C51       1.0  0.53589  0.67975  0.75812  1.0000
  C   C52       1.0  0.55144  0.61876  0.75358  1.0000
  O   O11       1.0  0.55527  0.83767  0.75187  1.0000
  H   H18       1.0  0.59740  0.94878  0.75114  1.0000
  H   H19       1.0  0.61289  0.73050  0.74189  1.0000
  C   C53       1.0  0.21801  0.47262  0.74309  1.0000
  C   C54       1.0  0.27325  0.56538  0.76282  1.0000
  C   C55       1.0  0.32405  0.53195  0.76452  1.0000
  C   C56       1.0  0.38494  0.54998  0.76930  1.0000
  O   O12       1.0  0.16404  0.55389  0.75017  1.0000
  H   H20       1.0  0.27605  0.61225  0.77133  1.0000
  N   N10       1.0  0.60586  0.60322  0.74728  1.0000
  C   C57       1.0  0.55410  0.03123  0.74816  1.0000
  C   C58       1.0  0.46835  0.21812  0.74280  1.0000
  C   C59       1.0  0.55973  0.26921  0.73221  1.0000
  C   C60       1.0  0.52791  0.31978  0.73761  1.0000
  C   C61       1.0  0.54557  0.38060  0.73881  1.0000
  O   O13       1.0  0.54731  0.16239  0.73332  1.0000
  H   H21       1.0  0.59331  0.05585  0.74271  1.0000
  H   H22       1.0  0.60510  0.26984  0.72388  1.0000
  C   C62       1.0  0.22061  0.53371  0.75220  1.0000
  C   C63       1.0  0.26776  0.43899  0.74574  1.0000
  C   C64       1.0  0.32169  0.47045  0.75704  1.0000
  C   C65       1.0  0.38153  0.45083  0.75896  1.0000
  O   O14       1.0  0.15986  0.45395  0.73463  1.0000
  H   H23       1.0  0.26592  0.39203  0.74158  1.0000
  N   N11       1.0  0.60117  0.39547  0.73667  1.0000
  C   C66       1.0  0.45246  0.96807  0.75642  1.0000
  C   C67       1.0  0.53653  0.78098  0.75743  1.0000
  C   C68       1.0  0.44550  0.73082  0.77295  1.0000
  C   C69       1.0  0.47638  0.67987  0.76600  1.0000
  C   C70       1.0  0.45856  0.61907  0.76574  1.0000
  O   O15       1.0  0.45932  0.83737  0.77311  1.0000
  H   H24       1.0  0.41313  0.94351  0.76140  1.0000
  H   H25       1.0  0.40051  0.73095  0.78312  1.0000
  C   C71       1.0  0.78169  0.46802  0.74332  1.0000
  C   C72       1.0  0.73279  0.56198  0.74546  1.0000
  C   C73       1.0  0.68056  0.52958  0.74024  1.0000
  C   C74       1.0  0.62115  0.54877  0.74011  1.0000
  O   O16       1.0  0.83955  0.54868  0.74921  1.0000
  H   H26       1.0  0.73295  0.60894  0.74587  1.0000
  N   N12       1.0  0.40332  0.60418  0.76970  1.0000
  C   C75       1.0  0.50091  0.06090  0.74719  1.0000
  B   B5        1.0  0.49920  0.12732  0.74241  1.0000
  N   N13       1.0  0.49923  0.41613  0.74436  1.0000
  C   C76       1.0  0.50563  0.93839  0.75729  1.0000
  B   B6        1.0  0.50706  0.87201  0.76090  1.0000
  N   N14       1.0  0.50437  0.58332  0.75827  1.0000
  B   B7        1.0  0.87300  0.49877  0.74506  1.0000
  N   N15       1.0  0.58615  0.49947  0.73430  1.0000
  H   H27       1.0  0.46150  0.49954  0.76863  1.0000
  B   B8        1.0  0.12720  0.50417  0.74097  1.0000
  N   N16       1.0  0.41732  0.50003  0.76834  1.0000
  H   H28       1.0  0.54230  0.49972  0.73588  1.0000
  C   C77       1.0  0.56109  0.01736  0.24873  1.0000
  C   C78       1.0  0.51283  0.05626  0.23528  1.0000
  C  Sn1       1.0  0.45686  0.03615  0.24107  1.0000
  C  Sn2       1.0  0.45478  0.97595  0.26076  1.0000
  C   C79       1.0  0.50337  0.93738  0.27424  1.0000
  C   C80       1.0  0.55917  0.95797  0.26823  1.0000
  H   H29       1.0  0.60429  0.03329  0.24419  1.0000
  O  Te1       1.0  0.40911  0.07561  0.22737  1.0000
  O  Te2       1.0  0.39935  0.95467  0.26701  1.0000
  H   H30       1.0  0.59655  0.92784  0.27878  1.0000
  Mg  Mg1       1.0  0.34226  0.02557  0.24287  1.0000
  C   C81       1.0  0.01707  0.56284  0.75379  1.0000
  C   C82       1.0  0.05633  0.51698  0.75487  1.0000
  C  Sn3       1.0  0.03370  0.46007  0.73950  1.0000
  C  Sn4       1.0  0.97057  0.44900  0.72270  1.0000
  C   C83       1.0  0.93165  0.49518  0.72162  1.0000
  C   C84       1.0  0.95478  0.55196  0.73715  1.0000
  H   H31       1.0  0.03494  0.60677  0.76569  1.0000
  O  Te3       1.0  0.07357  0.41476  0.74089  1.0000
  O  Te4       1.0  0.94673  0.39254  0.70706  1.0000
  H   H32       1.0  0.92435  0.58745  0.73618  1.0000
  Mg  Mg2       1.0  0.01935  0.34529  0.71585  1.0000
