data_image0
_chemical_formula_structural       H53O4N4C10H5O4N4C10H5O4N4C10H5O4N4C10H5O4N4C10H5O4N4C10H5C8H5C8H5C8H5C8H5C8H5C8SnCSn2CSnTe4Mg2SnCSn2CSnTe4Mg2SnCSn2CSnTe4Mg2SnCSn2CSnTe4Mg2SnCSn2CSnTe4Mg2SnCSn2CSnTe4Mg2SnCSn2CSnTe4Mg2SnCSn2CSnTe4Mg2SnCSn2CSnTe4Mg2SnCSn2CSnTe4Mg2SnCSn2CSnTe4Mg2SnCSn2CSnTe4Mg2
_chemical_formula_sum              "H108 O24 N24 C132 Sn48 Te48 Mg24"
_cell_length_a       44.9299
_cell_length_b       45.0626
_cell_length_c       6.81573
_cell_angle_alpha    108.025
_cell_angle_beta     102.453
_cell_angle_gamma    119.485

_symmetry_space_group_name_H-M    'P1'
_space_group_IT_number       1

loop_
  _space_group_symop_operation_xyz
  'x, y, z'

loop_
  _atom_site_type_symbol
  _atom_site_label
  _atom_site_symmetry_multiplicity
  _atom_site_fract_x
  _atom_site_fract_y
  _atom_site_fract_z
  _atom_site_occupancy
  H   H1        1.0  0.24685  0.32434  0.36776  1.0000
  H   H2        1.0  0.20506  0.23612  0.05201  1.0000
  H   H3        1.0  0.66029  0.75622  0.36824  1.0000
  H   H4        1.0  0.60053  0.71269  0.39793  1.0000
  H   H5        1.0  0.69904  0.93782  0.43711  1.0000
  H   H6        1.0  0.73070  0.95358  0.09059  1.0000
  H   H7        1.0  0.26507  0.91856  0.41548  1.0000
  H   H8        1.0  0.31125  0.90164  0.43613  1.0000
  H   H9        1.0  0.08350  0.77173  0.35871  1.0000
  H   H10       1.0  0.01624  0.76438  0.04626  1.0000
  H   H11       1.0  0.10928  0.36811  0.43588  1.0000
  H   H12       1.0  0.12530  0.42933  0.43225  1.0000
  H   H13       1.0  0.77553  0.69852  0.90965  1.0000
  H   H14       1.0  0.76841  0.73521  0.60327  1.0000
  H   H15       1.0  0.35877  0.26781  0.87805  1.0000
  H   H16       1.0  0.42050  0.31119  0.85070  1.0000
  H   H17       1.0  0.33279  0.09773  0.96255  1.0000
  H   H18       1.0  0.24799  0.02614  0.67032  1.0000
  H   H19       1.0  0.75552  0.10863  0.92566  1.0000
  H   H20       1.0  0.71019  0.12513  0.92059  1.0000
  H   H21       1.0  0.93182  0.24703  0.90511  1.0000
  H   H22       1.0  0.95253  0.20316  0.58321  1.0000
  H   H23       1.0  0.91769  0.66293  0.90747  1.0000
  H   H24       1.0  0.90271  0.60150  0.91551  1.0000
  H   H25       1.0  0.75100  0.67299  0.60339  1.0000
  H   H26       1.0  0.79315  0.76137  0.90985  1.0000
  H   H27       1.0  0.33581  0.23905  0.57225  1.0000
  H   H28       1.0  0.39402  0.28324  0.54490  1.0000
  H   H29       1.0  0.31013  0.06954  0.65615  1.0000
  H   H30       1.0  0.27119  0.05439  0.97606  1.0000
  H   H31       1.0  0.73196  0.07959  0.62080  1.0000
  H   H32       1.0  0.68837  0.10126  0.61474  1.0000
  H   H33       1.0  0.90935  0.22308  0.59823  1.0000
  H   H34       1.0  0.97544  0.22631  0.88858  1.0000
  H   H35       1.0  0.89476  0.63682  0.60167  1.0000
  H   H36       1.0  0.87884  0.57517  0.60911  1.0000
  H   H37       1.0  0.22253  0.29982  0.06163  1.0000
  H   H38       1.0  0.22711  0.26100  0.35901  1.0000
  H   H39       1.0  0.63453  0.73007  0.06229  1.0000
  H   H40       1.0  0.57416  0.68701  0.09225  1.0000
  H   H41       1.0  0.67153  0.91212  0.13258  1.0000
  H   H42       1.0  0.75793  0.98062  0.39592  1.0000
  H   H43       1.0  0.24483  0.89338  0.10971  1.0000
  H   H44       1.0  0.29076  0.87650  0.13006  1.0000
  H   H45       1.0  0.06329  0.74906  0.05263  1.0000
  H   H46       1.0  0.03691  0.78839  0.35285  1.0000
  H   H47       1.0  0.08466  0.34137  0.13015  1.0000
  H   H48       1.0  0.10345  0.40483  0.12601  1.0000
  H   H49       1.0  0.64658  0.37718  0.78204  1.0000
  H   H50       1.0  0.30615  0.20310  0.72990  1.0000
  H   H51       1.0  0.36294  0.13516  0.81399  1.0000
  H   H52       1.0  0.02268  0.95740  0.71336  1.0000
  H   H53       1.0  0.47189  0.27955  0.69851  1.0000
  O   O1        1.0  0.37833  0.23702  0.74405  1.0000
  O   O2        1.0  0.29106  0.10109  0.79293  1.0000
  O   O3        1.0  0.75040  0.58651  0.73323  1.0000
  O   O4        1.0  0.91805  0.74881  0.78489  1.0000
  N   N1        1.0  0.76821  0.53607  0.74257  1.0000
  N   N2        1.0  0.79207  0.57043  0.75057  1.0000
  N   N3        1.0  0.87382  0.76129  0.72978  1.0000
  N   N4        1.0  0.89660  0.79383  0.71727  1.0000
  C   C1        1.0  0.78169  0.51712  0.76947  1.0000
  C   C2        1.0  0.78118  0.59422  0.74335  1.0000
  C   C3        1.0  0.81068  0.63138  0.75321  1.0000
  C   C4        1.0  0.84680  0.64405  0.75865  1.0000
  C   C5        1.0  0.86943  0.67935  0.76256  1.0000
  C   C6        1.0  0.85776  0.70291  0.75846  1.0000
  C   C7        1.0  0.79920  0.65515  0.75042  1.0000
  C   C8        1.0  0.82169  0.69018  0.75153  1.0000
  C   C9        1.0  0.88619  0.73957  0.76096  1.0000
  C   C10       1.0  0.88321  0.81285  0.68989  1.0000
  H   H54       1.0  0.62728  0.27208  0.74758  1.0000
  H   H55       1.0  0.79422  0.10211  0.76147  1.0000
  H   H56       1.0  0.86963  0.22566  0.74702  1.0000
  H   H57       1.0  0.04350  0.06613  0.83433  1.0000
  H   H58       1.0  0.70752  0.18394  0.62690  1.0000
  O   O5        1.0  0.76143  0.13959  0.74528  1.0000
  O   O6        1.0  0.90141  0.18672  0.74309  1.0000
  O   O7        1.0  0.41917  0.17285  0.82507  1.0000
  O   O8        1.0  0.25209  0.16784  0.74993  1.0000
  N   N5        1.0  0.46649  0.23657  0.78222  1.0000
  N   N6        1.0  0.43141  0.22476  0.76789  1.0000
  N   N7        1.0  0.23743  0.11147  0.75445  1.0000
  N   N8        1.0  0.20373  0.10109  0.75892  1.0000
  C   C11       1.0  0.48437  0.26542  0.74330  1.0000
  C   C12       1.0  0.40912  0.19265  0.79244  1.0000
  C   C13       1.0  0.37102  0.18271  0.77685  1.0000
  C   C14       1.0  0.35594  0.20327  0.75373  1.0000
  C   C15       1.0  0.32003  0.18929  0.74626  1.0000
  C   C16       1.0  0.29821  0.15537  0.76049  1.0000
  C   C17       1.0  0.34911  0.14881  0.79119  1.0000
  C   C18       1.0  0.31315  0.13468  0.78191  1.0000
  C   C19       1.0  0.26082  0.14605  0.75523  1.0000
  C   C20       1.0  0.18393  0.06913  0.76798  1.0000
  H   H59       1.0  0.72539  0.35235  0.69778  1.0000
  H   H60       1.0  0.89727  0.69045  0.76606  1.0000
  H   H61       1.0  0.77112  0.64400  0.74259  1.0000
  H   H62       1.0  0.93477  0.97149  0.70446  1.0000
  H   H63       1.0  0.81127  0.52838  0.80378  1.0000
  O   O9        1.0  0.85863  0.62082  0.75879  1.0000
  O   O10       1.0  0.80996  0.71307  0.74340  1.0000
  O   O11       1.0  0.83565  0.24805  0.78885  1.0000
  O   O12       1.0  0.83115  0.08147  0.73956  1.0000
  N   N9        1.0  0.76554  0.22903  0.74633  1.0000
  N   N10       1.0  0.77442  0.20379  0.72886  1.0000
  N   N11       1.0  0.89045  0.12585  0.77732  1.0000
  N   N12       1.0  0.90245  0.10373  0.78592  1.0000
  C   C21       1.0  0.73009  0.21502  0.69144  1.0000
  C   C22       1.0  0.81073  0.21565  0.75717  1.0000
  C   C23       1.0  0.81852  0.18628  0.74505  1.0000
  C   C24       1.0  0.79622  0.15090  0.74803  1.0000
  C   C25       1.0  0.80983  0.12919  0.75543  1.0000
  C   C26       1.0  0.84496  0.14080  0.75383  1.0000
  C   C27       1.0  0.85367  0.19782  0.74416  1.0000
  C   C28       1.0  0.86706  0.17581  0.74694  1.0000
  C   C29       1.0  0.85435  0.11311  0.75619  1.0000
  C   C30       1.0  0.93454  0.11493  0.77574  1.0000
  H   H64       1.0  0.35786  0.62787  0.27443  1.0000
  H   H65       1.0  0.68514  0.79074  0.19837  1.0000
  H   H66       1.0  0.64695  0.87771  0.30183  1.0000
  H   H67       1.0  0.97429  0.04101  0.23179  1.0000
  H   H68       1.0  0.51901  0.71294  0.16333  1.0000
  O   O13       1.0  0.61878  0.76271  0.23464  1.0000
  O   O14       1.0  0.71197  0.90374  0.24905  1.0000
  O   O15       1.0  0.24646  0.41081  0.22387  1.0000
  O   O16       1.0  0.08550  0.25710  0.27863  1.0000
  N   N13       1.0  0.23250  0.46526  0.26965  1.0000
  N   N14       1.0  0.21074  0.43278  0.28467  1.0000
  N   N15       1.0  0.12287  0.23653  0.23963  1.0000
  N   N16       1.0  0.10115  0.20462  0.26013  1.0000
  C   C31       1.0  0.22535  0.49048  0.31881  1.0000
  C   C32       1.0  0.21834  0.40578  0.25014  1.0000
  C   C33       1.0  0.18952  0.36942  0.25000  1.0000
  C   C34       1.0  0.15444  0.35801  0.25835  1.0000
  C   C35       1.0  0.13204  0.32325  0.26067  1.0000
  C   C36       1.0  0.14211  0.29806  0.24891  1.0000
  C   C37       1.0  0.19988  0.34453  0.24188  1.0000
  C   C38       1.0  0.17698  0.30923  0.23804  1.0000
  C   C39       1.0  0.11388  0.26230  0.25638  1.0000
  C   C40       1.0  0.11198  0.18249  0.24947  1.0000
  H   H69       1.0  0.37006  0.72482  0.21425  1.0000
  H   H70       1.0  0.20458  0.89663  0.25525  1.0000
  H   H71       1.0  0.12333  0.76909  0.21343  1.0000
  H   H72       1.0  0.95520  0.93648  0.20009  1.0000
  H   H73       1.0  0.28366  0.81008  0.29022  1.0000
  O   O17       1.0  0.23602  0.85810  0.26183  1.0000
  O   O18       1.0  0.09305  0.80919  0.22154  1.0000
  O   O19       1.0  0.59489  0.84424  0.37607  1.0000
  O   O20       1.0  0.73782  0.82323  0.15268  1.0000
  N   N17       1.0  0.53891  0.77125  0.29702  1.0000
  N   N18       1.0  0.57116  0.78049  0.27416  1.0000
  N   N19       1.0  0.76066  0.88606  0.22996  1.0000
  N   N20       1.0  0.79277  0.89501  0.20540  1.0000
  C   C41       1.0  0.51411  0.73473  0.23388  1.0000
  C   C42       1.0  0.59802  0.81770  0.31364  1.0000
  C   C43       1.0  0.63159  0.82330  0.27184  1.0000
  C   C44       1.0  0.64199  0.79780  0.23964  1.0000
  C   C45       1.0  0.67542  0.80878  0.21789  1.0000
  C   C46       1.0  0.69937  0.84396  0.22162  1.0000
  C   C47       1.0  0.65547  0.85859  0.27428  1.0000
  C   C48       1.0  0.68870  0.86922  0.24848  1.0000
  C   C49       1.0  0.73404  0.84957  0.19671  1.0000
  C   C50       1.0  0.81527  0.93020  0.23929  1.0000
  H   H74       1.0  0.27150  0.64446  0.26580  1.0000
  H   H75       1.0  0.10558  0.31386  0.27453  1.0000
  H   H76       1.0  0.22760  0.35514  0.24395  1.0000
  H   H77       1.0  0.06356  0.02806  0.30282  1.0000
  H   H78       1.0  0.20341  0.48688  0.37780  1.0000
  O   O21       1.0  0.14364  0.38219  0.26706  1.0000
  O   O22       1.0  0.18746  0.28480  0.22746  1.0000
  O   O23       1.0  0.15848  0.74675  0.18252  1.0000
  O   O24       1.0  0.16655  0.91575  0.24352  1.0000
  N   N21       1.0  0.22835  0.76597  0.21864  1.0000
  N   N22       1.0  0.21862  0.79033  0.22793  1.0000
  N   N23       1.0  0.11135  0.87782  0.26882  1.0000
  N   N24       1.0  0.10053  0.90103  0.26518  1.0000
  C   C51       1.0  0.26319  0.77998  0.25329  1.0000
  C   C52       1.0  0.18292  0.77888  0.20997  1.0000
  C   C53       1.0  0.17572  0.80867  0.22514  1.0000
  C   C54       1.0  0.20003  0.84558  0.24290  1.0000
  C   C55       1.0  0.18742  0.86831  0.24476  1.0000
  C   C56       1.0  0.15178  0.85667  0.23744  1.0000
  C   C57       1.0  0.14025  0.79719  0.22054  1.0000
  C   C58       1.0  0.12795  0.82031  0.22632  1.0000
  C   C59       1.0  0.14417  0.88605  0.24793  1.0000
  C   C60       1.0  0.06872  0.89042  0.27890  1.0000
  H   H79       1.0  0.14767  0.24387  0.22672  1.0000
  H   H80       1.0  0.18753  0.42642  0.31608  1.0000
  H   H81       1.0  0.25504  0.27328  0.20727  1.0000
  H   H82       1.0  0.61045  0.68379  0.22277  1.0000
  H   H83       1.0  0.13704  0.18848  0.22022  1.0000
  C   C61       1.0  0.03435  0.01611  0.27153  1.0000
  C   C62       1.0  0.02216  0.03935  0.27163  1.0000
  C   C63       1.0  0.34672  0.64408  0.25765  1.0000
  C   C64       1.0  0.36832  0.67823  0.24464  1.0000
  C   C65       1.0  0.22748  0.26455  0.20706  1.0000
  C   C66       1.0  0.22305  0.29611  0.21440  1.0000
  C   C67       1.0  0.60254  0.70361  0.23496  1.0000
  C   C68       1.0  0.63184  0.73874  0.22351  1.0000
  H   H84       1.0  0.75388  0.90524  0.25626  1.0000
  H   H85       1.0  0.57657  0.76033  0.23064  1.0000
  H   H86       1.0  0.72130  0.98325  0.26332  1.0000
  H   H87       1.0  0.31595  0.92800  0.28237  1.0000
  H   H88       1.0  0.80878  0.95121  0.28887  1.0000
  C   C69       1.0  0.98473  0.02414  0.24197  1.0000
  C   C70       1.0  0.96010  0.98713  0.21634  1.0000
  C   C71       1.0  0.35384  0.69944  0.23438  1.0000
  C   C72       1.0  0.31912  0.68816  0.24321  1.0000
  C   C73       1.0  0.72932  0.96358  0.25488  1.0000
  C   C74       1.0  0.70035  0.92905  0.27141  1.0000
  C   C75       1.0  0.29664  0.90054  0.27983  1.0000
  C   C76       1.0  0.25994  0.89488  0.26652  1.0000
  H   H89       1.0  0.09426  0.85229  0.26975  1.0000
  H   H90       1.0  0.23708  0.81773  0.25017  1.0000
  H   H91       1.0  0.01324  0.73729  0.19326  1.0000
  H   H92       1.0  0.07499  0.39291  0.27365  1.0000
  H   H93       1.0  0.05179  0.86466  0.29749  1.0000
  C   C77       1.0  0.97361  0.96489  0.21557  1.0000
  C   C78       1.0  0.01048  0.97864  0.24199  1.0000
  C   C79       1.0  0.29829  0.65380  0.25648  1.0000
  C   C80       1.0  0.31145  0.63137  0.26186  1.0000
  C   C81       1.0  0.03173  0.76540  0.19960  1.0000
  C   C82       1.0  0.06856  0.77173  0.20809  1.0000
  C   C83       1.0  0.10263  0.40113  0.27701  1.0000
  C   C84       1.0  0.10791  0.37039  0.27842  1.0000
  H   H94       1.0  0.84731  0.75218  0.71917  1.0000
  H   H95       1.0  0.81867  0.57990  0.76144  1.0000
  H   H96       1.0  0.74296  0.72534  0.77115  1.0000
  H   H97       1.0  0.38278  0.31173  0.70911  1.0000
  H   H98       1.0  0.85501  0.80344  0.68102  1.0000
  C   C85       1.0  0.96327  0.98290  0.71985  1.0000
  C   C86       1.0  0.97572  0.95955  0.70728  1.0000
  C   C87       1.0  0.65477  0.35778  0.75873  1.0000
  C   C88       1.0  0.63198  0.32245  0.75813  1.0000
  C   C89       1.0  0.76957  0.73278  0.75969  1.0000
  C   C90       1.0  0.77435  0.70157  0.75480  1.0000
  C   C91       1.0  0.39196  0.29312  0.70679  1.0000
  C   C92       1.0  0.36343  0.25865  0.72563  1.0000
  H   H99       1.0  0.24760  0.09557  0.76111  1.0000
  H   H100      1.0  0.42040  0.23911  0.73847  1.0000
  H   H101      1.0  0.28442  0.02603  0.83432  1.0000
  H   H102      1.0  0.68421  0.07350  0.75998  1.0000
  H   H103      1.0  0.19366  0.05102  0.76875  1.0000
  C   C93       1.0  0.01286  0.97526  0.73149  1.0000
  C   C94       1.0  0.03761  0.01320  0.77124  1.0000
  C   C95       1.0  0.64454  0.29924  0.74560  1.0000
  C   C96       1.0  0.67869  0.31043  0.72966  1.0000
  C   C97       1.0  0.27551  0.04446  0.82317  1.0000
  C   C98       1.0  0.30532  0.07877  0.80839  1.0000
  C   C99       1.0  0.70334  0.10125  0.76503  1.0000
  C   C100      1.0  0.73891  0.10521  0.76522  1.0000
  H   H104      1.0  0.90668  0.15166  0.77656  1.0000
  H   H105      1.0  0.75557  0.17637  0.70515  1.0000
  H   H106      1.0  0.98051  0.25480  0.74890  1.0000
  H   H107      1.0  0.92889  0.61270  0.75350  1.0000
  H   H108      1.0  0.95103  0.14044  0.75343  1.0000
  C   C101      1.0  0.02429  0.03572  0.78707  1.0000
  C   C102      1.0  0.98727  0.02107  0.75989  1.0000
  C   C103      1.0  0.70004  0.34506  0.72193  1.0000
  C   C104      1.0  0.68869  0.36934  0.73791  1.0000
  C   C105      1.0  0.96049  0.22720  0.74255  1.0000
  C   C106      1.0  0.92525  0.22352  0.74807  1.0000
  C   C107      1.0  0.90167  0.60402  0.75951  1.0000
  C   C108      1.0  0.89518  0.63394  0.75656  1.0000
  C  Sn1       1.0  0.09910  0.06049  0.69503  1.0000
  C   C109      1.0  0.56943  0.02848  0.72043  1.0000
  C  Sn2       1.0  0.58399  0.01128  0.80254  1.0000
  C  Sn3       1.0  0.62266  0.02640  0.86063  1.0000
  C   C110      1.0  0.64596  0.05839  0.83526  1.0000
  C  Sn4       1.0  0.13778  0.07560  0.75312  1.0000
  O  Te1       1.0  0.08395  0.07723  0.61264  1.0000
  O  Te2       1.0  0.56012  0.97930  0.82640  1.0000
  O  Te3       1.0  0.63780  0.00963  0.94307  1.0000
  O  Te4       1.0  0.16163  0.10757  0.72930  1.0000
  Mg  Mg1       1.0  0.59398  0.96657  0.94571  1.0000
  Mg  Mg2       1.0  0.12780  0.12033  0.61012  1.0000
  C  Sn5       1.0  0.73618  0.29938  0.75107  1.0000
  C   C111      1.0  0.69874  0.28755  0.67833  1.0000
  C  Sn6       1.0  0.66916  0.25055  0.63112  1.0000
  C  Sn7       1.0  0.67717  0.22486  0.65729  1.0000
  C   C112      1.0  0.71459  0.23671  0.73002  1.0000
  C  Sn8       1.0  0.74419  0.27369  0.77724  1.0000
  O  Te5       1.0  0.76530  0.33650  0.79731  1.0000
  O  Te6       1.0  0.63196  0.23937  0.55855  1.0000
  O  Te7       1.0  0.64801  0.18773  0.61097  1.0000
  O  Te8       1.0  0.78137  0.28488  0.84981  1.0000
  Mg  Mg3       1.0  0.60199  0.18588  0.51680  1.0000
  Mg  Mg4       1.0  0.81136  0.33837  0.89171  1.0000
  C  Sn9       1.0  0.43244  0.06207  0.90300  1.0000
  C   C113      1.0  0.95284  0.09357  0.86010  1.0000
  C  Sn10      1.0  0.97728  0.10047  0.75538  1.0000
  C  Sn11      1.0  0.98788  0.07534  0.69208  1.0000
  C   C114      1.0  0.46748  0.04387  0.73495  1.0000
  C  Sn12      1.0  0.44304  0.03695  0.83970  1.0000
  O  Te9       1.0  0.33438  0.97278  0.00787  1.0000
  O  Te10      1.0  0.99098  0.13215  0.71431  1.0000
  O  Te11      1.0  0.01231  0.08172  0.58715  1.0000
  O  Te12      1.0  0.42935  0.00528  0.88073  1.0000
  Mg  Mg5       1.0  0.02345  0.12870  0.56702  1.0000
  Mg  Mg6       1.0  0.32319  0.92574  0.02790  1.0000
  C  Sn13      1.0  0.76861  0.44751  0.74299  1.0000
  C   C115      1.0  0.75760  0.46951  0.69429  1.0000
  C  Sn14      1.0  0.72296  0.46175  0.68397  1.0000
  C  Sn15      1.0  0.69883  0.43138  0.72329  1.0000
  C   C116      1.0  0.70985  0.40941  0.77199  1.0000
  C  Sn16      1.0  0.74448  0.41715  0.78231  1.0000
  O  Te13      1.0  0.80337  0.45579  0.75246  1.0000
  O  Te14      1.0  0.71256  0.48412  0.63491  1.0000
  O  Te15      1.0  0.66405  0.42312  0.71378  1.0000
  O  Te16      1.0  0.75489  0.39479  0.83138  1.0000
  Mg  Mg7       1.0  0.66244  0.46170  0.64093  1.0000
  Mg  Mg8       1.0  0.80501  0.41720  0.82552  1.0000
  C  Sn17      1.0  0.90864  0.90070  0.68887  1.0000
  C   C117      1.0  0.94648  0.92107  0.72203  1.0000
  C  Sn18      1.0  0.96440  0.90300  0.71142  1.0000
  C  Sn19      1.0  0.94409  0.86374  0.66660  1.0000
  C   C118      1.0  0.90628  0.84339  0.63343  1.0000
  C  Sn20      1.0  0.88833  0.86144  0.64404  1.0000
  O  Te17      1.0  0.89129  0.91934  0.70022  1.0000
  O  Te18      1.0  0.00225  0.92397  0.74523  1.0000
  O  Te19      1.0  0.96148  0.84511  0.65527  1.0000
  O  Te20      1.0  0.85050  0.84050  0.61023  1.0000
  Mg  Mg9       1.0  0.01348  0.88585  0.71300  1.0000
  Mg  Mg10      1.0  0.83924  0.87857  0.64230  1.0000
  C  Sn21      1.0  0.54019  0.30128  0.60042  1.0000
  C   C119      1.0  0.52146  0.27780  0.69050  1.0000
  C  Sn22      1.0  0.54129  0.27197  0.84365  1.0000
  C  Sn23      1.0  0.58067  0.29001  0.90824  1.0000
  C   C120      1.0  0.59938  0.31348  0.81821  1.0000
  C  Sn24      1.0  0.57957  0.31932  0.66500  1.0000
  O  Te21      1.0  0.51980  0.30670  0.44758  1.0000
  O  Te22      1.0  0.52195  0.24836  0.93137  1.0000
  O  Te23      1.0  0.52739  0.20161  0.06119  1.0000
  O  Te24      1.0  0.59889  0.34292  0.57734  1.0000
  Mg  Mg11      1.0  0.48846  0.16690  0.13419  1.0000
  Mg  Mg12      1.0  0.55875  0.34146  0.37461  1.0000
  C  Sn25      1.0  0.87914  0.98582  0.21062  1.0000
  C   C121      1.0  0.85034  0.94798  0.15692  1.0000
  C  Sn26      1.0  0.85795  0.92102  0.14218  1.0000
  C  Sn27      1.0  0.89512  0.93211  0.18210  1.0000
  C   C122      1.0  0.92390  0.96993  0.23580  1.0000
  C  Sn28      1.0  0.91631  0.99691  0.25053  1.0000
  O  Te25      1.0  0.87089  0.01229  0.22444  1.0000
  O  Te26      1.0  0.82869  0.88336  0.08816  1.0000
  O  Te27      1.0  0.90336  0.90560  0.16822  1.0000
  O  Te28      1.0  0.45190  0.03455  0.30455  1.0000
  Mg  Mg13      1.0  0.85401  0.85775  0.08944  1.0000
  Mg  Mg14      1.0  0.42662  0.06019  0.30344  1.0000
  C  Sn29      1.0  0.33022  0.76121  0.39741  1.0000
  C   C123      1.0  0.30943  0.72097  0.31527  1.0000
  C  Sn30      1.0  0.27023  0.69605  0.17145  1.0000
  C  Sn31      1.0  0.25142  0.71167  0.10829  1.0000
  C   C124      1.0  0.27221  0.75189  0.19038  1.0000
  C  Sn32      1.0  0.31141  0.77683  0.33425  1.0000
  O  Te29      1.0  0.36939  0.78557  0.54098  1.0000
  O  Te30      1.0  0.25005  0.65592  0.09156  1.0000
  O  Te31      1.0  0.28588  0.77021  0.96461  1.0000
  O  Te32      1.0  0.33159  0.81693  0.41410  1.0000
  Mg  Mg15      1.0  0.27079  0.71760  0.89997  1.0000
  Mg  Mg16      1.0  0.38451  0.83823  0.60559  1.0000
  C  Sn33      1.0  0.01226  0.92265  0.34811  1.0000
  C   C125      1.0  0.02702  0.95533  0.31630  1.0000
  C  Sn34      1.0  0.05468  0.96549  0.23525  1.0000
  C  Sn35      1.0  0.06784  0.94251  0.18479  1.0000
  C   C126      1.0  0.05308  0.90985  0.21656  1.0000
  C  Sn36      1.0  0.02543  0.89967  0.29765  1.0000
  O  Te33      1.0  0.98463  0.91304  0.42930  1.0000
  O  Te34      1.0  0.06901  0.99830  0.20490  1.0000
  O  Te35      1.0  0.09550  0.95215  0.10355  1.0000
  O  Te36      1.0  0.01109  0.86688  0.32796  1.0000
  Mg  Mg17      1.0  0.10629  0.99951  0.09022  1.0000
  Mg  Mg18      1.0  0.97381  0.86563  0.44252  1.0000
  C  Sn37      1.0  0.28664  0.54243  0.25260  1.0000
  C   C127      1.0  0.26024  0.53215  0.34307  1.0000
  C  Sn38      1.0  0.24477  0.55244  0.38540  1.0000
  C  Sn39      1.0  0.25590  0.58364  0.33614  1.0000
  C   C128      1.0  0.28228  0.59390  0.24569  1.0000
  C  Sn40      1.0  0.29777  0.57362  0.20334  1.0000
  O  Te37      1.0  0.30173  0.52174  0.21164  1.0000
  O  Te38      1.0  0.21843  0.54165  0.47599  1.0000
  O  Te39      1.0  0.24078  0.60433  0.37720  1.0000
  O  Te40      1.0  0.32408  0.58440  0.11277  1.0000
  Mg  Mg19      1.0  0.20586  0.57866  0.50184  1.0000
  Mg  Mg20      1.0  0.33665  0.54740  0.08674  1.0000
  C  Sn41      1.0  0.09435  0.10281  0.33784  1.0000
  C   C129      1.0  0.06054  0.08711  0.36159  1.0000
  C  Sn42      1.0  0.03912  0.10092  0.32711  1.0000
  C  Sn43      1.0  0.05173  0.13104  0.26750  1.0000
  C   C130      1.0  0.08552  0.14672  0.24373  1.0000
  C  Sn44      1.0  0.10696  0.13293  0.27823  1.0000
  O  Te41      1.0  0.11530  0.08856  0.37311  1.0000
  O  Te42      1.0  0.00542  0.08477  0.35191  1.0000
  O  Te43      1.0  0.03074  0.14529  0.23224  1.0000
  O  Te44      1.0  0.14064  0.14906  0.25341  1.0000
  Mg  Mg21      1.0  0.98677  0.11394  0.28596  1.0000
  Mg  Mg22      1.0  0.15930  0.11990  0.31921  1.0000
  C  Sn45      1.0  0.43926  0.73794  0.29167  1.0000
  C   C131      1.0  0.40815  0.69933  0.20753  1.0000
  C  Sn46      1.0  0.41272  0.66976  0.15675  1.0000
  C  Sn47      1.0  0.44915  0.67899  0.19091  1.0000
  C   C132      1.0  0.48023  0.71758  0.27504  1.0000
  C  Sn48      1.0  0.47569  0.74717  0.32583  1.0000
  O  Te45      1.0  0.43404  0.76703  0.34129  1.0000
  O  Te46      1.0  0.38120  0.63137  0.07273  1.0000
  O  Te47      1.0  0.45435  0.64986  0.14120  1.0000
  O  Te48      1.0  0.50719  0.78554  0.40983  1.0000
  Mg  Mg23      1.0  0.40272  0.60196  0.03052  1.0000
  Mg  Mg24      1.0  0.48570  0.81497  0.45221  1.0000
