data_image0
_chemical_formula_structural       H29C9O2N2H5C9O2N2H5C9O2N2H5C9O2N2H5C9O2N2H5C9O2N2H29C9O2N2H5C9O2N2H5C9O2N2H5C9O2N2H5C9O2N2H5C9O2N2SnCSn2CSnTe4Mg2SnCSn2CSnTe4Mg2SnCSn2CSnTe4Mg2SnCSn2CSnTe4Mg2SnCSn2CSnTe4Mg2SnCSn2CSnTe4Mg2SnCSn2CSnTe4Mg2SnCSn2CSnTe4Mg2SnCSn2CSnTe4Mg2SnCSn2CSnTe4Mg2SnCSn2CSnTe4Mg2SnCSn2CSnTe4Mg2
_chemical_formula_sum              "H108 C132 O24 N24 Sn48 Te48 Mg24"
_cell_length_a       45.3765
_cell_length_b       45.1759
_cell_length_c       8.14823
_cell_angle_alpha    63.0735
_cell_angle_beta     122.195
_cell_angle_gamma    120.228

_symmetry_space_group_name_H-M    'P1'
_space_group_IT_number       1

loop_
  _space_group_symop_operation_xyz
  'x, y, z'

loop_
  _atom_site_type_symbol
  _atom_site_label
  _atom_site_symmetry_multiplicity
  _atom_site_fract_x
  _atom_site_fract_y
  _atom_site_fract_z
  _atom_site_occupancy
  H   H1        1.0  0.56832  0.62066  0.16407  1.0000
  H   H2        1.0  0.58730  0.57331  0.20110  1.0000
  H   H3        1.0  0.38020  0.90970  0.17885  1.0000
  H   H4        1.0  0.42331  0.97336  0.15922  1.0000
  H   H5        1.0  0.09788  0.43670  0.17161  1.0000
  H   H6        1.0  0.03437  0.42303  0.14307  1.0000
  H   H7        1.0  0.45451  0.35192  0.12196  1.0000
  H   H8        1.0  0.43752  0.40005  0.08252  1.0000
  H   H9        1.0  0.64222  0.07181  0.10858  1.0000
  H   H10       1.0  0.59745  0.00873  0.12566  1.0000
  H   H11       1.0  0.93545  0.55011  0.09694  1.0000
  H   H12       1.0  0.00002  0.56871  0.11487  1.0000
  H   H13       1.0  0.44525  0.36564  0.86238  1.0000
  H   H14       1.0  0.42499  0.41341  0.82036  1.0000
  H   H15       1.0  0.61976  0.08224  0.84205  1.0000
  H   H16       1.0  0.57701  0.01846  0.85921  1.0000
  H   H17       1.0  0.91859  0.56362  0.83088  1.0000
  H   H18       1.0  0.98157  0.57978  0.84836  1.0000
  H   H19       1.0  0.54864  0.62855  0.89916  1.0000
  H   H20       1.0  0.57043  0.58346  0.93448  1.0000
  H   H21       1.0  0.35834  0.91948  0.91269  1.0000
  H   H22       1.0  0.40250  0.98298  0.89254  1.0000
  H   H23       1.0  0.08231  0.45189  0.90569  1.0000
  H   H24       1.0  0.01784  0.43554  0.87730  1.0000
  H   H25       1.0  0.39048  0.84624  0.08678  1.0000
  H   H26       1.0  0.43318  0.90265  0.08306  1.0000
  H   H27       1.0  0.40515  0.69955  0.02143  1.0000
  H   H28       1.0  0.57003  0.53007  0.05711  1.0000
  H   H29       1.0  0.59757  0.63921  0.03399  1.0000
  C   C1        1.0  0.47083  0.46852  0.01359  1.0000
  C   C2        1.0  0.48251  0.50261  0.03061  1.0000
  C   C3        1.0  0.45427  0.50965  0.03817  1.0000
  C   C4        1.0  0.51857  0.52576  0.03985  1.0000
  C   C5        1.0  0.45216  0.58776  0.02518  1.0000
  C   C6        1.0  0.37667  0.68340  0.00618  1.0000
  C   C7        1.0  0.35542  0.69719  0.01012  1.0000
  C   C8        1.0  0.56699  0.58339  0.05841  1.0000
  C   C9        1.0  0.57049  0.61999  0.03795  1.0000
  O   O1        1.0  0.42488  0.48602  0.04732  1.0000
  O   O2        1.0  0.53002  0.55988  0.04922  1.0000
  N   N1        1.0  0.46392  0.54412  0.03538  1.0000
  N   N2        1.0  0.44117  0.55423  0.04190  1.0000
  H   H30       1.0  0.14801  0.52493  0.98952  1.0000
  H   H31       1.0  0.09622  0.51679  0.99785  1.0000
  H   H32       1.0  0.30381  0.68378  0.02141  1.0000
  H   H33       1.0  0.46265  0.01886  0.02556  1.0000
  H   H34       1.0  0.35515  0.93940  0.04465  1.0000
  C   C10       1.0  0.52176  0.98417  0.00061  1.0000
  C   C11       1.0  0.48775  0.96006  0.01412  1.0000
  C   C12       1.0  0.47846  0.92367  0.00658  1.0000
  C   C13       1.0  0.46574  0.97274  0.02109  1.0000
  C   C14       1.0  0.40705  0.84084  0.04973  1.0000
  C   C15       1.0  0.31968  0.67469  0.00363  1.0000
  C   C16       1.0  0.30404  0.64023  0.98191  1.0000
  C   C17       1.0  0.40855  0.96192  0.03071  1.0000
  C   C18       1.0  0.37354  0.93069  0.04217  1.0000
  O   O3        1.0  0.49788  0.91782  0.97018  1.0000
  O   O4        1.0  0.43210  0.94885  0.03298  1.0000
  N   N3        1.0  0.44659  0.89756  0.03498  1.0000
  N   N4        1.0  0.43656  0.86491  0.01938  1.0000
  H   H35       1.0  0.47803  0.60655  0.00381  1.0000
  H   H36       1.0  0.48879  0.56201  0.02514  1.0000
  H   H37       1.0  0.31372  0.60181  0.94729  1.0000
  H   H38       1.0  0.98630  0.43934  0.00209  1.0000
  H   H39       1.0  0.06384  0.40638  0.02043  1.0000
  C   C19       1.0  0.02081  0.53696  0.99034  1.0000
  C   C20       1.0  0.04468  0.52538  0.99413  1.0000
  C   C21       1.0  0.08040  0.55426  0.98138  1.0000
  C   C22       1.0  0.03248  0.48930  0.00264  1.0000
  C   C23       1.0  0.15757  0.55315  0.98059  1.0000
  C   C24       1.0  0.32574  0.62788  0.97201  1.0000
  C   C25       1.0  0.36262  0.64855  0.99126  1.0000
  C   C26       1.0  0.04262  0.44016  0.01585  1.0000
  C   C27       1.0  0.07360  0.43353  0.02991  1.0000
  O   O5        1.0  0.08690  0.58519  0.96424  1.0000
  O   O6        1.0  0.05627  0.47688  0.01583  1.0000
  N   N5        1.0  0.10466  0.54300  0.99034  1.0000
  N   N6        1.0  0.13769  0.56627  0.97889  1.0000
  H   H40       1.0  0.61486  0.13865  0.95790  1.0000
  H   H41       1.0  0.56936  0.08572  0.96081  1.0000
  H   H42       1.0  0.61472  0.29137  0.01976  1.0000
  H   H43       1.0  0.44265  0.45205  0.00241  1.0000
  H   H44       1.0  0.40830  0.34755  0.94008  1.0000
  C   C28       1.0  0.54149  0.51381  0.03998  1.0000
  C   C29       1.0  0.52988  0.47979  0.02322  1.0000
  C   C30       1.0  0.55940  0.47240  0.02936  1.0000
  C   C31       1.0  0.49340  0.45692  0.00840  1.0000
  C   C32       1.0  0.56020  0.40001  0.97181  1.0000
  C   C33       1.0  0.64122  0.30856  0.00825  1.0000
  C   C34       1.0  0.66201  0.29446  0.00284  1.0000
  C   C35       1.0  0.44329  0.40108  0.96444  1.0000
  C   C36       1.0  0.43762  0.36446  0.97295  1.0000
  O   O7        1.0  0.59121  0.49392  0.06134  1.0000
  O   O8        1.0  0.48145  0.42290  0.99372  1.0000
  N   N7        1.0  0.54808  0.44031  0.99399  1.0000
  N   N8        1.0  0.57278  0.43089  0.00052  1.0000
  H   H45       1.0  0.86826  0.47141  0.03368  1.0000
  H   H46       1.0  0.92135  0.48466  0.00763  1.0000
  H   H47       1.0  0.71436  0.30666  0.00203  1.0000
  H   H48       1.0  0.53734  0.97361  0.98990  1.0000
  H   H49       1.0  0.64488  0.05280  0.97021  1.0000
  C   C37       1.0  0.47828  0.00829  0.01498  1.0000
  C   C38       1.0  0.51255  0.03240  0.00334  1.0000
  C   C39       1.0  0.52288  0.06895  0.01504  1.0000
  C   C40       1.0  0.53438  0.01960  0.99548  1.0000
  C   C41       1.0  0.60035  0.14744  0.99048  1.0000
  C   C42       1.0  0.69728  0.31715  0.00010  1.0000
  C   C43       1.0  0.71113  0.35319  0.99446  1.0000
  C   C44       1.0  0.59173  0.02985  0.98770  1.0000
  C   C45       1.0  0.62670  0.06110  0.97708  1.0000
  O   O9        1.0  0.50352  0.07596  0.04552  1.0000
  O   O10       1.0  0.56812  0.04314  0.98290  1.0000
  N   N9        1.0  0.55629  0.09314  0.99897  1.0000
  N   N10       1.0  0.56962  0.12638  0.01656  1.0000
  H   H50       1.0  0.53115  0.38252  0.94464  1.0000
  H   H51       1.0  0.52140  0.42329  0.97508  1.0000
  H   H52       1.0  0.69774  0.39431  0.97686  1.0000
  H   H53       1.0  0.03161  0.56480  0.98634  1.0000
  H   H54       1.0  0.95182  0.59556  0.97261  1.0000
  C   C46       1.0  0.99731  0.46703  0.00091  1.0000
  C   C47       1.0  0.97339  0.47852  0.99672  1.0000
  C   C48       1.0  0.93719  0.44956  0.00136  1.0000
  C   C49       1.0  0.98582  0.51446  0.99209  1.0000
  C   C50       1.0  0.85842  0.44509  0.01279  1.0000
  C   C51       1.0  0.68844  0.36629  0.99082  1.0000
  C   C52       1.0  0.65360  0.34439  0.00046  1.0000
  C   C53       1.0  0.97474  0.56290  0.98026  1.0000
  C   C54       1.0  0.94327  0.56825  0.96958  1.0000
  O   O11       1.0  0.93076  0.41908  0.00958  1.0000
  O   O12       1.0  0.96211  0.52604  0.98500  1.0000
  N   N11       1.0  0.91239  0.45951  0.99637  1.0000
  N   N12       1.0  0.87861  0.43526  0.99402  1.0000
  H   H55       1.0  0.55643  0.63889  0.62266  1.0000
  H   H56       1.0  0.57814  0.59350  0.65914  1.0000
  H   H57       1.0  0.38115  0.91700  0.67995  1.0000
  H   H58       1.0  0.42225  0.98091  0.65202  1.0000
  H   H59       1.0  0.08043  0.43563  0.66156  1.0000
  H   H60       1.0  0.01723  0.42007  0.64251  1.0000
  H   H61       1.0  0.44631  0.36814  0.59276  1.0000
  H   H62       1.0  0.42594  0.41309  0.56772  1.0000
  H   H63       1.0  0.64342  0.07670  0.63387  1.0000
  H   H64       1.0  0.59628  0.01530  0.62153  1.0000
  H   H65       1.0  0.91851  0.54813  0.59418  1.0000
  H   H66       1.0  0.98253  0.56571  0.61241  1.0000
  H   H67       1.0  0.43777  0.38501  0.33398  1.0000
  H   H68       1.0  0.41861  0.43143  0.30866  1.0000
  H   H69       1.0  0.62375  0.09107  0.36805  1.0000
  H   H70       1.0  0.57828  0.02812  0.35522  1.0000
  H   H71       1.0  0.90140  0.56198  0.32762  1.0000
  H   H72       1.0  0.96455  0.57720  0.34583  1.0000
  H   H73       1.0  0.53343  0.64377  0.35887  1.0000
  H   H74       1.0  0.55526  0.59873  0.39576  1.0000
  H   H75       1.0  0.35923  0.92512  0.41375  1.0000
  H   H76       1.0  0.40208  0.98952  0.38569  1.0000
  H   H77       1.0  0.06361  0.44940  0.39536  1.0000
  H   H78       1.0  0.99936  0.43185  0.37594  1.0000
  H   H79       1.0  0.38932  0.85939  0.59149  1.0000
  H   H80       1.0  0.43311  0.91288  0.57280  1.0000
  H   H81       1.0  0.38995  0.70632  0.54785  1.0000
  H   H82       1.0  0.56057  0.54634  0.55058  1.0000
  H   H83       1.0  0.58279  0.65687  0.47661  1.0000
  C   C55       1.0  0.46225  0.48360  0.52021  1.0000
  C   C56       1.0  0.47328  0.51787  0.53127  1.0000
  C   C57       1.0  0.44424  0.52462  0.53346  1.0000
  C   C58       1.0  0.50925  0.54127  0.53940  1.0000
  C   C59       1.0  0.43930  0.60181  0.51414  1.0000
  C   C60       1.0  0.36065  0.69125  0.51463  1.0000
  C   C61       1.0  0.33839  0.70602  0.50097  1.0000
  C   C62       1.0  0.55479  0.60056  0.52455  1.0000
  C   C63       1.0  0.55685  0.63713  0.49392  1.0000
  O   O13       1.0  0.41442  0.50110  0.53432  1.0000
  O   O14       1.0  0.52031  0.57566  0.54539  1.0000
  N   N13       1.0  0.45368  0.55887  0.53465  1.0000
  N   N14       1.0  0.42999  0.56832  0.53755  1.0000
  H   H84       1.0  0.13270  0.52809  0.47136  1.0000
  H   H85       1.0  0.07957  0.51508  0.49614  1.0000
  H   H86       1.0  0.28398  0.69569  0.46711  1.0000
  H   H87       1.0  0.46300  0.02553  0.52923  1.0000
  H   H88       1.0  0.35426  0.94515  0.53771  1.0000
  C   C64       1.0  0.52172  0.99171  0.49518  1.0000
  C   C65       1.0  0.48781  0.96728  0.51039  1.0000
  C   C66       1.0  0.47791  0.93067  0.50174  1.0000
  C   C67       1.0  0.46608  0.97977  0.52120  1.0000
  C   C68       1.0  0.40245  0.85116  0.54650  1.0000
  C   C69       1.0  0.30135  0.68465  0.47605  1.0000
  C   C70       1.0  0.28642  0.64942  0.46426  1.0000
  C   C71       1.0  0.40821  0.96893  0.52634  1.0000
  C   C72       1.0  0.37363  0.93711  0.53954  1.0000
  O   O15       1.0  0.49692  0.92398  0.46676  1.0000
  O   O16       1.0  0.43263  0.95591  0.53654  1.0000
  N   N15       1.0  0.44553  0.90589  0.52820  1.0000
  N   N16       1.0  0.43206  0.87270  0.50953  1.0000
  H   H89       1.0  0.46441  0.62165  0.48726  1.0000
  H   H90       1.0  0.47822  0.57714  0.52190  1.0000
  H   H91       1.0  0.29804  0.61020  0.44823  1.0000
  H   H92       1.0  0.96756  0.43584  0.50136  1.0000
  H   H93       1.0  0.04679  0.40403  0.51837  1.0000
  C   C73       1.0  0.00269  0.53349  0.49167  1.0000
  C   C74       1.0  0.02639  0.52193  0.49403  1.0000
  C   C75       1.0  0.06185  0.55112  0.47884  1.0000
  C   C76       1.0  0.01394  0.48584  0.50077  1.0000
  C   C77       1.0  0.14119  0.55542  0.47407  1.0000
  C   C78       1.0  0.30929  0.63660  0.46725  1.0000
  C   C79       1.0  0.34652  0.65694  0.49372  1.0000
  C   C80       1.0  0.02450  0.43712  0.51203  1.0000
  C   C81       1.0  0.05571  0.43134  0.52254  1.0000
  O   O17       1.0  0.06717  0.58214  0.45416  1.0000
  O   O18       1.0  0.03763  0.47392  0.50999  1.0000
  N   N17       1.0  0.08731  0.54095  0.49195  1.0000
  N   N18       1.0  0.12013  0.56576  0.48216  1.0000
  H   H94       1.0  0.60694  0.15404  0.41071  1.0000
  H   H95       1.0  0.56562  0.09727  0.42722  1.0000
  H   H96       1.0  0.59556  0.30023  0.49468  1.0000
  H   H97       1.0  0.43427  0.46671  0.51165  1.0000
  H   H98       1.0  0.40021  0.36430  0.41070  1.0000
  C   C82       1.0  0.53238  0.52966  0.53937  1.0000
  C   C83       1.0  0.52103  0.49542  0.52513  1.0000
  C   C84       1.0  0.54968  0.48871  0.51860  1.0000
  C   C85       1.0  0.48506  0.47201  0.51696  1.0000
  C   C86       1.0  0.54763  0.41382  0.46987  1.0000
  C   C87       1.0  0.62311  0.31719  0.49618  1.0000
  C   C88       1.0  0.64498  0.30288  0.50181  1.0000
  C   C89       1.0  0.43438  0.41687  0.45365  1.0000
  C   C90       1.0  0.42946  0.38159  0.44763  1.0000
  O   O19       1.0  0.58007  0.51186  0.52474  1.0000
  O   O20       1.0  0.47359  0.43785  0.50748  1.0000
  N   N19       1.0  0.53880  0.45532  0.50112  1.0000
  N   N20       1.0  0.56203  0.44496  0.50046  1.0000
  H   H99       1.0  0.85356  0.47426  0.52937  1.0000
  H   H100      1.0  0.90440  0.48328  0.50659  1.0000
  H   H101      1.0  0.69876  0.31421  0.52433  1.0000
  H   H102      1.0  0.53705  0.98149  0.48005  1.0000
  H   H103      1.0  0.64667  0.06003  0.48653  1.0000
  C   C91       1.0  0.47852  0.01517  0.51632  1.0000
  C   C92       1.0  0.51256  0.03943  0.50340  1.0000
  C   C93       1.0  0.52192  0.07553  0.51613  1.0000
  C   C94       1.0  0.53457  0.02707  0.49380  1.0000
  C   C95       1.0  0.59239  0.15890  0.46391  1.0000
  C   C96       1.0  0.68088  0.32523  0.50972  1.0000
  C   C97       1.0  0.69442  0.36132  0.49883  1.0000
  C   C98       1.0  0.59224  0.03778  0.48942  1.0000
  C   C99       1.0  0.62858  0.06822  0.49508  1.0000
  O   O21       1.0  0.50285  0.08079  0.55829  1.0000
  O   O22       1.0  0.56850  0.05087  0.48527  1.0000
  N   N21       1.0  0.55342  0.10185  0.48504  1.0000
  N   N22       1.0  0.56433  0.13427  0.50747  1.0000
  H   H104      1.0  0.51828  0.39760  0.44232  1.0000
  H   H105      1.0  0.51212  0.43872  0.48577  1.0000
  H   H106      1.0  0.68062  0.40273  0.47263  1.0000
  H   H107      1.0  0.01354  0.56128  0.48831  1.0000
  H   H108      1.0  0.93523  0.59354  0.47189  1.0000
  C   C100      1.0  0.97876  0.46356  0.50066  1.0000
  C   C101      1.0  0.95489  0.47532  0.49569  1.0000
  C   C102      1.0  0.91820  0.44689  0.49738  1.0000
  C   C103      1.0  0.96755  0.51128  0.49089  1.0000
  C   C104      1.0  0.84173  0.44751  0.50883  1.0000
  C   C105      1.0  0.67136  0.37463  0.48907  1.0000
  C   C106      1.0  0.63594  0.35300  0.49195  1.0000
  C   C107      1.0  0.95726  0.56041  0.47658  1.0000
  C   C108      1.0  0.92617  0.56630  0.46627  1.0000
  O   O23       1.0  0.91036  0.41660  0.49705  1.0000
  O   O24       1.0  0.94400  0.52356  0.48081  1.0000
  N   N23       1.0  0.89464  0.45784  0.49734  1.0000
  N   N24       1.0  0.86029  0.43526  0.49276  1.0000
  C  Sn1       1.0  0.79657  0.42655  0.08355  1.0000
  C   C109      1.0  0.82096  0.41983  0.06127  1.0000
  C  Sn2       1.0  0.88150  0.34698  0.98423  1.0000
  C  Sn3       1.0  0.84355  0.32500  0.92819  1.0000
  C   C110      1.0  0.81917  0.33173  0.95045  1.0000
  C  Sn4       1.0  0.75861  0.40457  0.02750  1.0000
  O  Te1       1.0  0.80995  0.45494  0.16087  1.0000
  O  Te2       1.0  0.90642  0.34078  0.96341  1.0000
  O  Te3       1.0  0.83018  0.29660  0.85082  1.0000
  O  Te4       1.0  0.73371  0.41078  0.04831  1.0000
  Mg  Mg1       1.0  0.87489  0.29888  0.85079  1.0000
  Mg  Mg2       1.0  0.76521  0.45269  0.16080  1.0000
  C  Sn5       1.0  0.58240  0.34436  0.89286  1.0000
  C   C111      1.0  0.62021  0.36001  0.93028  1.0000
  C  Sn6       1.0  0.56917  0.43361  0.01453  1.0000
  C  Sn7       1.0  0.55334  0.44725  0.06251  1.0000
  C   C112      1.0  0.51555  0.43160  0.02513  1.0000
  C  Sn8       1.0  0.56657  0.35800  0.94084  1.0000
  O  Te5       1.0  0.56065  0.31539  0.80855  1.0000
  O  Te6       1.0  0.60690  0.44881  0.05049  1.0000
  O  Te7       1.0  0.57513  0.47625  0.14688  1.0000
  O  Te8       1.0  0.52886  0.34280  0.90491  1.0000
  Mg  Mg3       1.0  0.62509  0.48783  0.16769  1.0000
  Mg  Mg4       1.0  0.51066  0.30377  0.78783  1.0000
  C  Sn9       1.0  0.58828  0.25528  0.05820  1.0000
  C   C113      1.0  0.55330  0.23054  0.05261  1.0000
  C  Sn10      1.0  0.52510  0.24164  0.00148  1.0000
  C  Sn11      1.0  0.60531  0.23363  0.95483  1.0000
  C   C114      1.0  0.64027  0.25834  0.96039  1.0000
  C  Sn12      1.0  0.59517  0.29187  0.01155  1.0000
  O  Te9       1.0  0.61606  0.24359  0.10970  1.0000
  O  Te10      1.0  0.56368  0.17182  0.99698  1.0000
  O  Te11      1.0  0.57749  0.24531  0.90331  1.0000
  O  Te12      1.0  0.62989  0.31707  0.01602  1.0000
  Mg  Mg5       1.0  0.53477  0.20083  0.91796  1.0000
  Mg  Mg6       1.0  0.65881  0.28810  0.09492  1.0000
  C  Sn13      1.0  0.21027  0.61999  0.89162  1.0000
  C   C115      1.0  0.19321  0.58328  0.92090  1.0000
  C  Sn14      1.0  0.21413  0.56207  0.99736  1.0000
  C  Sn15      1.0  0.17958  0.62249  0.04570  1.0000
  C   C116      1.0  0.19661  0.65918  0.01645  1.0000
  C  Sn16      1.0  0.24904  0.63581  0.93996  1.0000
  O  Te13      1.0  0.18882  0.64068  0.81501  1.0000
  O  Te14      1.0  0.12314  0.57003  0.02526  1.0000
  O  Te15      1.0  0.20102  0.60177  0.12236  1.0000
  O  Te16      1.0  0.26669  0.67244  0.91209  1.0000
  Mg  Mg7       1.0  0.16426  0.55306  0.13378  1.0000
  Mg  Mg8       1.0  0.22560  0.68943  0.80369  1.0000
  C  Sn17      1.0  0.45797  0.53774  0.99797  1.0000
  C   C117      1.0  0.49140  0.55483  0.97225  1.0000
  C  Sn18      1.0  0.51224  0.59009  0.98101  1.0000
  C  Sn19      1.0  0.42612  0.65326  0.01633  1.0000
  C   C118      1.0  0.39272  0.63617  0.04206  1.0000
  C  Sn20      1.0  0.37185  0.60091  0.03329  1.0000
  O  Te17      1.0  0.43759  0.50248  0.98864  1.0000
  O  Te18      1.0  0.54556  0.60662  0.95477  1.0000
  O  Te19      1.0  0.44654  0.68855  0.02565  1.0000
  O  Te20      1.0  0.33855  0.58438  0.05954  1.0000
  Mg  Mg9       1.0  0.56348  0.65495  0.98063  1.0000
  Mg  Mg10      1.0  0.32062  0.53604  0.03382  1.0000
  C  Sn21      1.0  0.48592  0.74426  0.97165  1.0000
  C   C119      1.0  0.46800  0.76031  0.98474  1.0000
  C  Sn22      1.0  0.36427  0.78430  0.03907  1.0000
  C  Sn23      1.0  0.35151  0.74688  0.08131  1.0000
  C   C120      1.0  0.36942  0.73086  0.06824  1.0000
  C  Sn24      1.0  0.39984  0.75144  0.01389  1.0000
  O  Te21      1.0  0.51627  0.76538  0.91707  1.0000
  O  Te22      1.0  0.34680  0.80094  0.05109  1.0000
  O  Te23      1.0  0.32113  0.72576  0.13591  1.0000
  O  Te24      1.0  0.41730  0.73482  0.00190  1.0000
  Mg  Mg11      1.0  0.30658  0.76077  0.13175  1.0000
  Mg  Mg12      1.0  0.53086  0.73036  0.92136  1.0000
  C  Sn25      1.0  0.78093  0.43348  0.57628  1.0000
  C   C121      1.0  0.80381  0.42521  0.55062  1.0000
  C  Sn26      1.0  0.78922  0.39644  0.47354  1.0000
  C  Sn27      1.0  0.75097  0.37552  0.42089  1.0000
  C   C122      1.0  0.72812  0.38380  0.44652  1.0000
  C  Sn28      1.0  0.74269  0.41256  0.52363  1.0000
  O  Te25      1.0  0.79611  0.46236  0.65358  1.0000
  O  Te26      1.0  0.81264  0.38868  0.44931  1.0000
  O  Te27      1.0  0.73581  0.34663  0.34354  1.0000
  O  Te28      1.0  0.71929  0.42032  0.54783  1.0000
  Mg  Mg13      1.0  0.77893  0.34667  0.33816  1.0000
  Mg  Mg14      1.0  0.75296  0.46234  0.65887  1.0000
  C  Sn29      1.0  0.61241  0.42069  0.45854  1.0000
  C   C123      1.0  0.57454  0.40649  0.41834  1.0000
  C  Sn30      1.0  0.55490  0.37044  0.42749  1.0000
  C  Sn31      1.0  0.57352  0.34811  0.47800  1.0000
  C   C124      1.0  0.61137  0.36231  0.51820  1.0000
  C  Sn32      1.0  0.63103  0.39836  0.50905  1.0000
  O  Te29      1.0  0.63149  0.45680  0.44852  1.0000
  O  Te30      1.0  0.51705  0.35686  0.38662  1.0000
  O  Te31      1.0  0.55440  0.31197  0.48799  1.0000
  O  Te32      1.0  0.66886  0.41194  0.54992  1.0000
  Mg  Mg15      1.0  0.50312  0.30593  0.41974  1.0000
  Mg  Mg16      1.0  0.68282  0.46286  0.51695  1.0000
  C  Sn33      1.0  0.64479  0.25000  0.40054  1.0000
  C   C125      1.0  0.62879  0.26532  0.43294  1.0000
  C  Sn34      1.0  0.60152  0.24404  0.51128  1.0000
  C  Sn35      1.0  0.59001  0.20665  0.55833  1.0000
  C   C126      1.0  0.60602  0.19134  0.52595  1.0000
  C  Sn36      1.0  0.63329  0.21261  0.44758  1.0000
  O  Te33      1.0  0.67201  0.27179  0.32210  1.0000
  O  Te34      1.0  0.58591  0.25997  0.54231  1.0000
  O  Te35      1.0  0.56277  0.18485  0.63682  1.0000
  O  Te36      1.0  0.64890  0.19669  0.41659  1.0000
  Mg  Mg17      1.0  0.54982  0.21904  0.65237  1.0000
  Mg  Mg18      1.0  0.68501  0.23759  0.30664  1.0000
  C  Sn37      1.0  0.21135  0.56810  0.50933  1.0000
  C   C127      1.0  0.18609  0.57536  0.52095  1.0000
  C  Sn38      1.0  0.18977  0.61032  0.48044  1.0000
  C  Sn39      1.0  0.21931  0.63861  0.42709  1.0000
  C   C128      1.0  0.24455  0.63134  0.41545  1.0000
  C  Sn40      1.0  0.24089  0.59639  0.45597  1.0000
  O  Te37      1.0  0.20713  0.53296  0.55044  1.0000
  O  Te38      1.0  0.16418  0.61692  0.49310  1.0000
  O  Te39      1.0  0.22351  0.67377  0.38597  1.0000
  O  Te40      1.0  0.26646  0.58979  0.44330  1.0000
  Mg  Mg19      1.0  0.18160  0.66927  0.42313  1.0000
  Mg  Mg20      1.0  0.24905  0.53745  0.51313  1.0000
  C  Sn41      1.0  0.37050  0.60009  0.60800  1.0000
  C   C129      1.0  0.37541  0.63546  0.56735  1.0000
  C  Sn42      1.0  0.39975  0.66258  0.47690  1.0000
  C  Sn43      1.0  0.41958  0.65418  0.42589  1.0000
  C   C130      1.0  0.41466  0.61883  0.46650  1.0000
  C  Sn44      1.0  0.39033  0.59169  0.55699  1.0000
  O  Te41      1.0  0.34602  0.57340  0.69851  1.0000
  O  Te42      1.0  0.40421  0.69774  0.43781  1.0000
  O  Te43      1.0  0.44407  0.68090  0.33532  1.0000
  O  Te44      1.0  0.38587  0.55655  0.59605  1.0000
  Mg  Mg21      1.0  0.44071  0.72475  0.31222  1.0000
  Mg  Mg22      1.0  0.34936  0.52952  0.72153  1.0000
  C  Sn45      1.0  0.33215  0.76705  0.48771  1.0000
  C   C131      1.0  0.34683  0.74893  0.46589  1.0000
  C  Sn46      1.0  0.38404  0.76316  0.49304  1.0000
  C  Sn47      1.0  0.40707  0.79618  0.54318  1.0000
  C   C132      1.0  0.39239  0.81428  0.56501  1.0000
  C  Sn48      1.0  0.35517  0.80007  0.53784  1.0000
  O  Te45      1.0  0.29487  0.75233  0.45987  1.0000
  O  Te46      1.0  0.39809  0.74456  0.47036  1.0000
  O  Te47      1.0  0.44437  0.81090  0.57100  1.0000
  O  Te48      1.0  0.34113  0.81865  0.56054  1.0000
  Mg  Mg23      1.0  0.45065  0.77551  0.52373  1.0000
  Mg  Mg24      1.0  0.28858  0.78772  0.50730  1.0000
