data_image0
_chemical_formula_structural       H29C9O2N2H5C15O2N2H5C15O2N2H9C9O2N2H5C9O2N2H9C9O2N2H33C15O2N2H9C15O2N2H5C9O2N2H5C15O2N2H9C9O2N2H9C15O2N2SnCSn2CSnTe4Mg2SnCSn2CSnTe4Mg2SnCSn2CSnTe4Mg2SnCSn2CSnTe4Mg2SnCSn2CSnTe4Mg2SnCSn2CSnTe4Mg2
_chemical_formula_sum              "H132 C156 O24 N24 Sn24 Te24 Mg12"
_cell_length_a       45.3765
_cell_length_b       45.1759
_cell_length_c       8.14823
_cell_angle_alpha    63.0735
_cell_angle_beta     122.195
_cell_angle_gamma    120.228

_symmetry_space_group_name_H-M    'P1'
_space_group_IT_number       1

loop_
  _space_group_symop_operation_xyz
  'x, y, z'

loop_
  _atom_site_type_symbol
  _atom_site_label
  _atom_site_symmetry_multiplicity
  _atom_site_fract_x
  _atom_site_fract_y
  _atom_site_fract_z
  _atom_site_occupancy
  H   H1        1.0  0.56832  0.62066  0.16407  1.0000
  H   H2        1.0  0.58730  0.57331  0.20110  1.0000
  H   H3        1.0  0.38020  0.90970  0.17885  1.0000
  H   H4        1.0  0.42331  0.97336  0.15922  1.0000
  H   H5        1.0  0.09788  0.43670  0.17161  1.0000
  H   H6        1.0  0.03437  0.42303  0.14307  1.0000
  H   H7        1.0  0.45451  0.35192  0.12196  1.0000
  H   H8        1.0  0.43752  0.40005  0.08252  1.0000
  H   H9        1.0  0.64222  0.07181  0.10858  1.0000
  H   H10       1.0  0.59745  0.00873  0.12566  1.0000
  H   H11       1.0  0.93545  0.55011  0.09694  1.0000
  H   H12       1.0  0.00002  0.56871  0.11487  1.0000
  H   H13       1.0  0.44525  0.36564  0.86238  1.0000
  H   H14       1.0  0.42499  0.41341  0.82036  1.0000
  H   H15       1.0  0.61976  0.08224  0.84205  1.0000
  H   H16       1.0  0.57701  0.01846  0.85921  1.0000
  H   H17       1.0  0.91859  0.56362  0.83088  1.0000
  H   H18       1.0  0.98157  0.57978  0.84836  1.0000
  H   H19       1.0  0.54864  0.62855  0.89916  1.0000
  H   H20       1.0  0.57043  0.58346  0.93448  1.0000
  H   H21       1.0  0.35834  0.91948  0.91269  1.0000
  H   H22       1.0  0.40250  0.98298  0.89254  1.0000
  H   H23       1.0  0.08231  0.45189  0.90569  1.0000
  H   H24       1.0  0.01784  0.43554  0.87730  1.0000
  H   H25       1.0  0.39048  0.84624  0.08678  1.0000
  H   H26       1.0  0.43318  0.90265  0.08306  1.0000
  H   H27       1.0  0.40515  0.69955  0.02143  1.0000
  H   H28       1.0  0.57003  0.53007  0.05711  1.0000
  H   H29       1.0  0.59757  0.63921  0.03399  1.0000
  C   C1        1.0  0.47083  0.46852  0.01359  1.0000
  C   C2        1.0  0.48251  0.50261  0.03061  1.0000
  C   C3        1.0  0.45427  0.50965  0.03817  1.0000
  C   C4        1.0  0.51857  0.52576  0.03985  1.0000
  C   C5        1.0  0.45216  0.58776  0.02518  1.0000
  C   C6        1.0  0.37667  0.68340  0.00618  1.0000
  C   C7        1.0  0.35542  0.69719  0.01012  1.0000
  C   C8        1.0  0.56699  0.58339  0.05841  1.0000
  C   C9        1.0  0.57049  0.61999  0.03795  1.0000
  O   O1        1.0  0.42488  0.48602  0.04732  1.0000
  O   O2        1.0  0.53002  0.55988  0.04922  1.0000
  N   N1        1.0  0.46392  0.54412  0.03538  1.0000
  N   N2        1.0  0.44117  0.55423  0.04190  1.0000
  H   H30       1.0  0.14801  0.52493  0.98952  1.0000
  H   H31       1.0  0.09622  0.51679  0.99785  1.0000
  H   H32       1.0  0.30381  0.68378  0.02141  1.0000
  H   H33       1.0  0.46265  0.01886  0.02556  1.0000
  H   H34       1.0  0.35515  0.93940  0.04465  1.0000
  C   C10       1.0  0.52176  0.98417  0.00061  1.0000
  C   C11       1.0  0.48775  0.96006  0.01412  1.0000
  C   C12       1.0  0.47846  0.92367  0.00658  1.0000
  C   C13       1.0  0.46574  0.97274  0.02109  1.0000
  C   C14       1.0  0.40705  0.84084  0.04973  1.0000
  C   C15       1.0  0.31968  0.67469  0.00363  1.0000
  C   C16       1.0  0.30404  0.64023  0.98191  1.0000
  C   C17       1.0  0.58409  0.38676  0.97748  1.0000
  C   C18       1.0  0.62987  0.35871  0.99440  1.0000
  C   C19       1.0  0.62187  0.40660  0.01342  1.0000
  C   C20       1.0  0.56967  0.35291  0.94900  1.0000
  C   C21       1.0  0.64407  0.39262  0.02386  1.0000
  C   C22       1.0  0.59197  0.33933  0.95608  1.0000
  C   C23       1.0  0.40855  0.96192  0.03071  1.0000
  C   C24       1.0  0.37354  0.93069  0.04217  1.0000
  O   O3        1.0  0.49788  0.91782  0.97018  1.0000
  O   O4        1.0  0.43210  0.94885  0.03298  1.0000
  N   N3        1.0  0.44659  0.89756  0.03498  1.0000
  N   N4        1.0  0.43656  0.86491  0.01938  1.0000
  H   H35       1.0  0.47803  0.60655  0.00381  1.0000
  H   H36       1.0  0.48879  0.56201  0.02514  1.0000
  H   H37       1.0  0.31372  0.60181  0.94729  1.0000
  H   H38       1.0  0.98630  0.43934  0.00209  1.0000
  H   H39       1.0  0.06384  0.40638  0.02043  1.0000
  C   C25       1.0  0.02081  0.53696  0.99034  1.0000
  C   C26       1.0  0.04468  0.52538  0.99413  1.0000
  C   C27       1.0  0.08040  0.55426  0.98138  1.0000
  C   C28       1.0  0.03248  0.48930  0.00264  1.0000
  C   C29       1.0  0.15757  0.55315  0.98059  1.0000
  C   C30       1.0  0.32574  0.62788  0.97201  1.0000
  C   C31       1.0  0.36262  0.64855  0.99126  1.0000
  C   C32       1.0  0.61618  0.18414  0.99785  1.0000
  C   C33       1.0  0.64673  0.25682  0.00035  1.0000
  C   C34       1.0  0.59587  0.19956  0.99765  1.0000
  C   C35       1.0  0.65179  0.20569  0.99720  1.0000
  C   C36       1.0  0.61086  0.23483  0.99909  1.0000
  C   C37       1.0  0.66665  0.24115  0.99865  1.0000
  C   C38       1.0  0.04262  0.44016  0.01585  1.0000
  C   C39       1.0  0.07360  0.43353  0.02991  1.0000
  O   O5        1.0  0.08690  0.58519  0.96424  1.0000
  O   O6        1.0  0.05627  0.47688  0.01583  1.0000
  N   N5        1.0  0.10466  0.54300  0.99034  1.0000
  N   N6        1.0  0.13769  0.56627  0.97889  1.0000
  H   H40       1.0  0.56814  0.18327  0.99594  1.0000
  H   H41       1.0  0.59410  0.24549  0.99891  1.0000
  H   H42       1.0  0.66774  0.19452  0.99335  1.0000
  H   H43       1.0  0.69409  0.25690  0.99597  1.0000
  H   H44       1.0  0.61486  0.13865  0.95790  1.0000
  H   H45       1.0  0.56936  0.08572  0.96081  1.0000
  H   H46       1.0  0.61472  0.29137  0.01976  1.0000
  H   H47       1.0  0.44265  0.45205  0.00241  1.0000
  H   H48       1.0  0.40830  0.34755  0.94008  1.0000
  C   C40       1.0  0.54149  0.51381  0.03998  1.0000
  C   C41       1.0  0.52988  0.47979  0.02322  1.0000
  C   C42       1.0  0.55940  0.47240  0.02936  1.0000
  C   C43       1.0  0.49340  0.45692  0.00840  1.0000
  C   C44       1.0  0.56020  0.40001  0.97181  1.0000
  C   C45       1.0  0.64122  0.30856  0.00825  1.0000
  C   C46       1.0  0.66201  0.29446  0.00284  1.0000
  C   C47       1.0  0.44329  0.40108  0.96444  1.0000
  C   C48       1.0  0.43762  0.36446  0.97295  1.0000
  O   O7        1.0  0.59121  0.49392  0.06134  1.0000
  O   O8        1.0  0.48145  0.42290  0.99372  1.0000
  N   N7        1.0  0.54808  0.44031  0.99399  1.0000
  N   N8        1.0  0.57278  0.43089  0.00052  1.0000
  H   H49       1.0  0.86826  0.47141  0.03368  1.0000
  H   H50       1.0  0.92135  0.48466  0.00763  1.0000
  H   H51       1.0  0.71436  0.30666  0.00203  1.0000
  H   H52       1.0  0.53734  0.97361  0.98990  1.0000
  H   H53       1.0  0.64488  0.05280  0.97021  1.0000
  C   C49       1.0  0.47828  0.00829  0.01498  1.0000
  C   C50       1.0  0.51255  0.03240  0.00334  1.0000
  C   C51       1.0  0.52288  0.06895  0.01504  1.0000
  C   C52       1.0  0.53438  0.01960  0.99548  1.0000
  C   C53       1.0  0.60035  0.14744  0.99048  1.0000
  C   C54       1.0  0.69728  0.31715  0.00010  1.0000
  C   C55       1.0  0.71113  0.35319  0.99446  1.0000
  C   C56       1.0  0.59173  0.02985  0.98770  1.0000
  C   C57       1.0  0.62670  0.06110  0.97708  1.0000
  O   O9        1.0  0.50352  0.07596  0.04552  1.0000
  O   O10       1.0  0.56812  0.04314  0.98290  1.0000
  N   N9        1.0  0.55629  0.09314  0.99897  1.0000
  N   N10       1.0  0.56962  0.12638  0.01656  1.0000
  H   H54       1.0  0.63337  0.43281  0.03629  1.0000
  H   H55       1.0  0.67336  0.40828  0.05853  1.0000
  H   H56       1.0  0.54053  0.33704  0.92076  1.0000
  H   H57       1.0  0.57931  0.31341  0.92802  1.0000
  H   H58       1.0  0.53115  0.38252  0.94464  1.0000
  H   H59       1.0  0.52140  0.42329  0.97508  1.0000
  H   H60       1.0  0.69774  0.39431  0.97686  1.0000
  H   H61       1.0  0.03161  0.56480  0.98634  1.0000
  H   H62       1.0  0.95182  0.59556  0.97261  1.0000
  C   C58       1.0  0.99731  0.46703  0.00091  1.0000
  C   C59       1.0  0.97339  0.47852  0.99672  1.0000
  C   C60       1.0  0.93719  0.44956  0.00136  1.0000
  C   C61       1.0  0.98582  0.51446  0.99209  1.0000
  C   C62       1.0  0.85842  0.44509  0.01279  1.0000
  C   C63       1.0  0.68844  0.36629  0.99082  1.0000
  C   C64       1.0  0.65360  0.34439  0.00046  1.0000
  C   C65       1.0  0.97474  0.56290  0.98026  1.0000
  C   C66       1.0  0.94327  0.56825  0.96958  1.0000
  O   O11       1.0  0.93076  0.41908  0.00958  1.0000
  O   O12       1.0  0.96211  0.52604  0.98500  1.0000
  N   N11       1.0  0.91239  0.45951  0.99637  1.0000
  N   N12       1.0  0.87861  0.43526  0.99402  1.0000
  H   H63       1.0  0.55643  0.63889  0.62266  1.0000
  H   H64       1.0  0.57814  0.59350  0.65914  1.0000
  H   H65       1.0  0.38115  0.91700  0.67995  1.0000
  H   H66       1.0  0.42225  0.98091  0.65202  1.0000
  H   H67       1.0  0.08043  0.43563  0.66156  1.0000
  H   H68       1.0  0.01723  0.42007  0.64251  1.0000
  H   H69       1.0  0.44631  0.36814  0.59276  1.0000
  H   H70       1.0  0.42594  0.41309  0.56772  1.0000
  H   H71       1.0  0.64342  0.07670  0.63387  1.0000
  H   H72       1.0  0.59628  0.01530  0.62153  1.0000
  H   H73       1.0  0.91851  0.54813  0.59418  1.0000
  H   H74       1.0  0.98253  0.56571  0.61241  1.0000
  H   H75       1.0  0.43777  0.38501  0.33398  1.0000
  H   H76       1.0  0.41861  0.43143  0.30866  1.0000
  H   H77       1.0  0.62375  0.09107  0.36805  1.0000
  H   H78       1.0  0.57828  0.02812  0.35522  1.0000
  H   H79       1.0  0.90140  0.56198  0.32762  1.0000
  H   H80       1.0  0.96455  0.57720  0.34583  1.0000
  H   H81       1.0  0.53343  0.64377  0.35887  1.0000
  H   H82       1.0  0.55526  0.59873  0.39576  1.0000
  H   H83       1.0  0.35923  0.92512  0.41375  1.0000
  H   H84       1.0  0.40208  0.98952  0.38569  1.0000
  H   H85       1.0  0.06361  0.44940  0.39536  1.0000
  H   H86       1.0  0.99936  0.43185  0.37594  1.0000
  H   H87       1.0  0.43025  0.81818  0.48759  1.0000
  H   H88       1.0  0.40272  0.75675  0.46464  1.0000
  H   H89       1.0  0.33775  0.80219  0.57898  1.0000
  H   H90       1.0  0.31105  0.74007  0.56815  1.0000
  H   H91       1.0  0.38932  0.85939  0.59149  1.0000
  H   H92       1.0  0.43311  0.91288  0.57280  1.0000
  H   H93       1.0  0.38995  0.70632  0.54785  1.0000
  H   H94       1.0  0.56057  0.54634  0.55058  1.0000
  H   H95       1.0  0.58279  0.65687  0.47661  1.0000
  C   C67       1.0  0.46225  0.48360  0.52021  1.0000
  C   C68       1.0  0.47328  0.51787  0.53127  1.0000
  C   C69       1.0  0.44424  0.52462  0.53346  1.0000
  C   C70       1.0  0.50925  0.54127  0.53940  1.0000
  C   C71       1.0  0.43930  0.60181  0.51414  1.0000
  C   C72       1.0  0.36065  0.69125  0.51463  1.0000
  C   C73       1.0  0.33839  0.70602  0.50097  1.0000
  C   C74       1.0  0.80431  0.42622  0.50033  1.0000
  C   C75       1.0  0.73146  0.38426  0.49280  1.0000
  C   C76       1.0  0.78708  0.39158  0.47569  1.0000
  C   C77       1.0  0.78408  0.43983  0.51450  1.0000
  C   C78       1.0  0.75149  0.37144  0.47050  1.0000
  C   C79       1.0  0.74849  0.41929  0.51145  1.0000
  C   C80       1.0  0.55479  0.60056  0.52455  1.0000
  C   C81       1.0  0.55685  0.63713  0.49392  1.0000
  O   O13       1.0  0.41442  0.50110  0.53432  1.0000
  O   O14       1.0  0.52031  0.57566  0.54539  1.0000
  N   N13       1.0  0.45368  0.55887  0.53465  1.0000
  N   N14       1.0  0.42999  0.56832  0.53755  1.0000
  H   H96       1.0  0.17468  0.62480  0.48292  1.0000
  H   H97       1.0  0.23620  0.66428  0.48035  1.0000
  H   H98       1.0  0.18839  0.54099  0.44476  1.0000
  H   H99       1.0  0.24879  0.58033  0.43155  1.0000
  H   H100      1.0  0.13270  0.52809  0.47136  1.0000
  H   H101      1.0  0.07957  0.51508  0.49614  1.0000
  H   H102      1.0  0.28398  0.69569  0.46711  1.0000
  H   H103      1.0  0.46300  0.02553  0.52923  1.0000
  H   H104      1.0  0.35426  0.94515  0.53771  1.0000
  C   C82       1.0  0.52172  0.99171  0.49518  1.0000
  C   C83       1.0  0.48781  0.96728  0.51039  1.0000
  C   C84       1.0  0.47791  0.93067  0.50174  1.0000
  C   C85       1.0  0.46608  0.97977  0.52120  1.0000
  C   C86       1.0  0.40245  0.85116  0.54650  1.0000
  C   C87       1.0  0.30135  0.68465  0.47605  1.0000
  C   C88       1.0  0.28642  0.64942  0.46426  1.0000
  C   C89       1.0  0.56968  0.39893  0.47156  1.0000
  C   C90       1.0  0.61277  0.36836  0.48317  1.0000
  C   C91       1.0  0.60776  0.41719  0.51190  1.0000
  C   C92       1.0  0.55342  0.36552  0.43320  1.0000
  C   C93       1.0  0.62854  0.40199  0.51911  1.0000
  C   C94       1.0  0.57441  0.35068  0.43792  1.0000
  C   C95       1.0  0.40821  0.96893  0.52634  1.0000
  C   C96       1.0  0.37363  0.93711  0.53954  1.0000
  O   O15       1.0  0.49692  0.92398  0.46676  1.0000
  O   O16       1.0  0.43263  0.95591  0.53654  1.0000
  N   N15       1.0  0.44553  0.90589  0.52820  1.0000
  N   N16       1.0  0.43206  0.87270  0.50953  1.0000
  H   H105      1.0  0.46441  0.62165  0.48726  1.0000
  H   H106      1.0  0.47822  0.57714  0.52190  1.0000
  H   H107      1.0  0.29804  0.61020  0.44823  1.0000
  H   H108      1.0  0.96756  0.43584  0.50136  1.0000
  H   H109      1.0  0.04679  0.40403  0.51837  1.0000
  C   C97       1.0  0.00269  0.53349  0.49167  1.0000
  C   C98       1.0  0.02639  0.52193  0.49403  1.0000
  C   C99       1.0  0.06185  0.55112  0.47884  1.0000
  C   C100      1.0  0.01394  0.48584  0.50077  1.0000
  C   C101      1.0  0.14119  0.55542  0.47407  1.0000
  C   C102      1.0  0.30929  0.63660  0.46725  1.0000
  C   C103      1.0  0.34652  0.65694  0.49372  1.0000
  C   C104      1.0  0.02450  0.43712  0.51203  1.0000
  C   C105      1.0  0.05571  0.43134  0.52254  1.0000
  O   O17       1.0  0.06717  0.58214  0.45416  1.0000
  O   O18       1.0  0.03763  0.47392  0.50999  1.0000
  N   N17       1.0  0.08731  0.54095  0.49195  1.0000
  N   N18       1.0  0.12013  0.56576  0.48216  1.0000
  H   H110      1.0  0.60694  0.15404  0.41071  1.0000
  H   H111      1.0  0.56562  0.09727  0.42722  1.0000
  H   H112      1.0  0.59556  0.30023  0.49468  1.0000
  H   H113      1.0  0.43427  0.46671  0.51165  1.0000
  H   H114      1.0  0.40021  0.36430  0.41070  1.0000
  C   C106      1.0  0.53238  0.52966  0.53937  1.0000
  C   C107      1.0  0.52103  0.49542  0.52513  1.0000
  C   C108      1.0  0.54968  0.48871  0.51860  1.0000
  C   C109      1.0  0.48506  0.47201  0.51696  1.0000
  C   C110      1.0  0.54763  0.41382  0.46987  1.0000
  C   C111      1.0  0.62311  0.31719  0.49618  1.0000
  C   C112      1.0  0.64498  0.30288  0.50181  1.0000
  C   C113      1.0  0.17704  0.57985  0.46583  1.0000
  C   C114      1.0  0.24840  0.62603  0.45662  1.0000
  C   C115      1.0  0.19125  0.61529  0.47263  1.0000
  C   C116      1.0  0.19882  0.56819  0.45144  1.0000
  C   C117      1.0  0.22605  0.63747  0.46937  1.0000
  C   C118      1.0  0.23341  0.59077  0.44474  1.0000
  C   C119      1.0  0.43438  0.41687  0.45365  1.0000
  C   C120      1.0  0.42946  0.38159  0.44763  1.0000
  O   O19       1.0  0.58007  0.51186  0.52474  1.0000
  O   O20       1.0  0.47359  0.43785  0.50748  1.0000
  N   N19       1.0  0.53880  0.45532  0.50112  1.0000
  N   N20       1.0  0.56203  0.44496  0.50046  1.0000
  H   H115      1.0  0.80229  0.38113  0.46099  1.0000
  H   H116      1.0  0.73893  0.34517  0.44681  1.0000
  H   H117      1.0  0.79678  0.46660  0.53257  1.0000
  H   H118      1.0  0.73438  0.43035  0.53042  1.0000
  H   H119      1.0  0.85356  0.47426  0.52937  1.0000
  H   H120      1.0  0.90440  0.48328  0.50659  1.0000
  H   H121      1.0  0.69876  0.31421  0.52433  1.0000
  H   H122      1.0  0.53705  0.98149  0.48005  1.0000
  H   H123      1.0  0.64667  0.06003  0.48653  1.0000
  C   C121      1.0  0.47852  0.01517  0.51632  1.0000
  C   C122      1.0  0.51256  0.03943  0.50340  1.0000
  C   C123      1.0  0.52192  0.07553  0.51613  1.0000
  C   C124      1.0  0.53457  0.02707  0.49380  1.0000
  C   C125      1.0  0.59239  0.15890  0.46391  1.0000
  C   C126      1.0  0.68088  0.32523  0.50972  1.0000
  C   C127      1.0  0.69442  0.36132  0.49883  1.0000
  C   C128      1.0  0.59224  0.03778  0.48942  1.0000
  C   C129      1.0  0.62858  0.06822  0.49508  1.0000
  O   O21       1.0  0.50285  0.08079  0.55829  1.0000
  O   O22       1.0  0.56850  0.05087  0.48527  1.0000
  N   N21       1.0  0.55342  0.10185  0.48504  1.0000
  N   N22       1.0  0.56433  0.13427  0.50747  1.0000
  H   H124      1.0  0.62049  0.44322  0.53907  1.0000
  H   H125      1.0  0.65809  0.41643  0.55690  1.0000
  H   H126      1.0  0.52389  0.35109  0.39988  1.0000
  H   H127      1.0  0.56068  0.32516  0.40311  1.0000
  H   H128      1.0  0.51828  0.39760  0.44232  1.0000
  H   H129      1.0  0.51212  0.43872  0.48577  1.0000
  H   H130      1.0  0.68062  0.40273  0.47263  1.0000
  H   H131      1.0  0.01354  0.56128  0.48831  1.0000
  H   H132      1.0  0.93523  0.59354  0.47189  1.0000
  C   C130      1.0  0.97876  0.46356  0.50066  1.0000
  C   C131      1.0  0.95489  0.47532  0.49569  1.0000
  C   C132      1.0  0.91820  0.44689  0.49738  1.0000
  C   C133      1.0  0.96755  0.51128  0.49089  1.0000
  C   C134      1.0  0.84173  0.44751  0.50883  1.0000
  C   C135      1.0  0.67136  0.37463  0.48907  1.0000
  C   C136      1.0  0.63594  0.35300  0.49195  1.0000
  C   C137      1.0  0.38594  0.81477  0.53276  1.0000
  C   C138      1.0  0.35433  0.74302  0.51409  1.0000
  C   C139      1.0  0.40403  0.80086  0.50408  1.0000
  C   C140      1.0  0.35187  0.79227  0.55229  1.0000
  C   C141      1.0  0.38840  0.76605  0.49334  1.0000
  C   C142      1.0  0.33663  0.75711  0.54446  1.0000
  C   C143      1.0  0.95726  0.56041  0.47658  1.0000
  C   C144      1.0  0.92617  0.56630  0.46627  1.0000
  O   O23       1.0  0.91036  0.41660  0.49705  1.0000
  O   O24       1.0  0.94400  0.52356  0.48081  1.0000
  N   N23       1.0  0.89464  0.45784  0.49734  1.0000
  N   N24       1.0  0.86029  0.43526  0.49276  1.0000
  C  Sn1       1.0  0.70915  0.40887  0.03847  1.0000
  C   C145      1.0  0.68359  0.41665  0.04414  1.0000
  C  Sn2       1.0  0.68902  0.45164  0.01596  1.0000
  C  Sn3       1.0  0.79395  0.43483  0.98126  1.0000
  C   C146      1.0  0.81948  0.42704  0.97557  1.0000
  C  Sn4       1.0  0.74076  0.43666  0.00377  1.0000
  O  Te1       1.0  0.70316  0.37370  0.06702  1.0000
  O  Te2       1.0  0.66309  0.45877  0.02235  1.0000
  O  Te3       1.0  0.79992  0.47002  0.95270  1.0000
  O  Te4       1.0  0.83998  0.38493  0.99736  1.0000
  Mg  Mg1       1.0  0.75674  0.46633  0.97473  1.0000
  Mg  Mg2       1.0  0.74635  0.37738  0.04485  1.0000
  C  Sn5       1.0  0.42045  0.65395  0.91713  1.0000
  C   C147      1.0  0.38729  0.63683  0.94552  1.0000
  C  Sn6       1.0  0.30298  0.64527  0.03814  1.0000
  C  Sn7       1.0  0.32562  0.62581  0.10387  1.0000
  C   C148      1.0  0.35876  0.64292  0.07551  1.0000
  C  Sn8       1.0  0.44309  0.63448  0.98287  1.0000
  O  Te5       1.0  0.43089  0.69012  0.82420  1.0000
  O  Te6       1.0  0.26970  0.62874  0.06480  1.0000
  O  Te7       1.0  0.31515  0.58961  0.19686  1.0000
  O  Te8       1.0  0.47635  0.65101  0.95623  1.0000
  Mg  Mg3       1.0  0.26740  0.57898  0.19945  1.0000
  Mg  Mg4       1.0  0.47869  0.70078  0.82170  1.0000
  C  Sn9       1.0  0.64911  0.22485  0.51533  1.0000
  C   C149      1.0  0.61681  0.19705  0.53293  1.0000
  C  Sn10      1.0  0.58808  0.20388  0.51259  1.0000
  C  Sn11      1.0  0.59168  0.23924  0.47372  1.0000
  C   C150      1.0  0.62396  0.26701  0.45610  1.0000
  C  Sn12      1.0  0.65272  0.26020  0.47646  1.0000
  O  Te9       1.0  0.67748  0.21741  0.53621  1.0000
  O  Te10      1.0  0.55606  0.17566  0.53086  1.0000
  O  Te11      1.0  0.56327  0.24666  0.45285  1.0000
  O  Te12      1.0  0.68471  0.28841  0.45817  1.0000
  Mg  Mg5       1.0  0.52506  0.19926  0.49026  1.0000
  Mg  Mg6       1.0  0.71571  0.26483  0.49864  1.0000
  C  Sn13      1.0  0.37050  0.60009  0.60800  1.0000
  C   C151      1.0  0.37541  0.63546  0.56735  1.0000
  C  Sn14      1.0  0.39975  0.66258  0.47690  1.0000
  C  Sn15      1.0  0.41958  0.65418  0.42589  1.0000
  C   C152      1.0  0.41466  0.61883  0.46650  1.0000
  C  Sn16      1.0  0.39033  0.59169  0.55699  1.0000
  O  Te13      1.0  0.34602  0.57340  0.69851  1.0000
  O  Te14      1.0  0.40421  0.69774  0.43781  1.0000
  O  Te15      1.0  0.44407  0.68090  0.33532  1.0000
  O  Te16      1.0  0.38587  0.55655  0.59605  1.0000
  Mg  Mg7       1.0  0.44071  0.72475  0.31222  1.0000
  Mg  Mg8       1.0  0.34936  0.52952  0.72153  1.0000
  C  Sn17      1.0  0.41685  0.71161  0.97492  1.0000
  C   C153      1.0  0.43556  0.69504  0.97247  1.0000
  C  Sn18      1.0  0.40052  0.75508  0.02306  1.0000
  C  Sn19      1.0  0.42053  0.78774  0.07735  1.0000
  C   C154      1.0  0.40182  0.80428  0.07981  1.0000
  C  Sn20      1.0  0.36353  0.78887  0.02922  1.0000
  O  Te17      1.0  0.37857  0.69570  0.92382  1.0000
  O  Te18      1.0  0.41862  0.73802  0.01945  1.0000
  O  Te19      1.0  0.45883  0.80364  0.12847  1.0000
  O  Te20      1.0  0.34544  0.80591  0.03284  1.0000
  Mg  Mg9       1.0  0.47103  0.77018  0.10127  1.0000
  Mg  Mg10      1.0  0.36635  0.72917  0.95115  1.0000
  C  Sn21      1.0  0.24094  0.57655  0.93845  1.0000
  C   C155      1.0  0.25927  0.61278  0.92720  1.0000
  C  Sn22      1.0  0.24583  0.63110  0.95613  1.0000
  C  Sn23      1.0  0.21339  0.61283  0.99728  1.0000
  C   C156      1.0  0.12177  0.62123  0.00855  1.0000
  C  Sn24      1.0  0.20851  0.55828  0.97961  1.0000
  O  Te21      1.0  0.25488  0.55877  0.90904  1.0000
  O  Te22      1.0  0.26462  0.66731  0.94408  1.0000
  O  Te23      1.0  0.12614  0.67525  0.02669  1.0000
  O  Te24      1.0  0.18974  0.52209  0.99167  1.0000
  Mg  Mg11      1.0  0.23482  0.67990  0.99544  1.0000
  Mg  Mg12      1.0  0.21952  0.50947  0.94044  1.0000
