data_image0
_chemical_formula_structural       C3NH2C3NC3H4C3NC3H4C3NH2C3NC3H4C3NC3H4C3NC3H4C3NH2C3NH2C3NC3H4C3NH2C3NH2SnCSn2CSnTe4Mg2SnCSn2CSnTe4Mg2SnCSn2CSnTe4Mg2
_chemical_formula_sum              "C60 N12 H36 Sn12 Te12 Mg6"
_cell_length_a       22.4831
_cell_length_b       22.6166
_cell_length_c       8.28845
_cell_angle_alpha    61.8907
_cell_angle_beta     123.701
_cell_angle_gamma    121.025

_symmetry_space_group_name_H-M    'P1'
_space_group_IT_number       1

loop_
  _space_group_symop_operation_xyz
  'x, y, z'

loop_
  _atom_site_type_symbol
  _atom_site_label
  _atom_site_symmetry_multiplicity
  _atom_site_fract_x
  _atom_site_fract_y
  _atom_site_fract_z
  _atom_site_occupancy
  C   C1        1.0  0.73825  0.37901  0.26127  1.0000
  C   C2        1.0  0.69217  0.40321  0.26132  1.0000
  C   C3        1.0  0.81241  0.42898  0.25804  1.0000
  N   N1        1.0  0.85704  0.40999  0.25492  1.0000
  H   H1        1.0  0.71119  0.45842  0.26040  1.0000
  H   H2        1.0  0.82622  0.48337  0.25699  1.0000
  C   C4        1.0  0.61953  0.35697  0.25972  1.0000
  C   C5        1.0  0.59330  0.28617  0.25690  1.0000
  C   C6        1.0  0.57021  0.38153  0.25688  1.0000
  N   N2        1.0  0.59293  0.44522  0.26919  1.0000
  C   C7        1.0  0.54505  0.46854  0.26505  1.0000
  C   C8        1.0  0.57410  0.54077  0.26435  1.0000
  C   C9        1.0  0.53174  0.57057  0.25709  1.0000
  H   H3        1.0  0.53728  0.24970  0.25512  1.0000
  H   H4        1.0  0.51291  0.34213  0.24192  1.0000
  H   H5        1.0  0.63114  0.57275  0.26863  1.0000
  H   H6        1.0  0.55667  0.62651  0.25766  1.0000
  C   C10       1.0  0.63895  0.26095  0.25680  1.0000
  C   C11       1.0  0.71098  0.30748  0.25906  1.0000
  C   C12       1.0  0.61187  0.18809  0.24614  1.0000
  N   N3        1.0  0.54879  0.14037  0.25894  1.0000
  C   C13       1.0  0.52711  0.07090  0.25293  1.0000
  C   C14       1.0  0.44853  0.03232  0.17049  1.0000
  C   C15       1.0  0.42272  0.96365  0.15682  1.0000
  H   H7        1.0  0.74668  0.28997  0.25390  1.0000
  H   H8        1.0  0.64787  0.17688  0.22131  1.0000
  H   H9        1.0  0.40881  0.05826  0.11498  1.0000
  H   H10       1.0  0.36204  0.93534  0.08575  1.0000
  C   C16       1.0  0.26556  0.62102  0.24907  1.0000
  C   C17       1.0  0.31093  0.59678  0.24674  1.0000
  C   C18       1.0  0.19177  0.57109  0.25270  1.0000
  N   N4        1.0  0.14838  0.58987  0.26148  1.0000
  H   H11       1.0  0.29172  0.54143  0.24901  1.0000
  H   H12       1.0  0.17721  0.51733  0.24783  1.0000
  C   C19       1.0  0.38271  0.64301  0.24376  1.0000
  C   C20       1.0  0.40857  0.71421  0.24293  1.0000
  C   C21       1.0  0.43110  0.61799  0.24414  1.0000
  N   N5        1.0  0.41027  0.55266  0.24736  1.0000
  C   C22       1.0  0.45788  0.52892  0.25152  1.0000
  C   C23       1.0  0.42904  0.45635  0.25441  1.0000
  C   C24       1.0  0.47154  0.42641  0.26210  1.0000
  H   H13       1.0  0.46377  0.75128  0.23970  1.0000
  H   H14       1.0  0.48589  0.65917  0.24205  1.0000
  H   H15       1.0  0.37255  0.42409  0.25337  1.0000
  H   H16       1.0  0.44761  0.37000  0.26666  1.0000
  C   C25       1.0  0.36381  0.73934  0.24714  1.0000
  C   C26       1.0  0.29282  0.69252  0.25133  1.0000
  C   C27       1.0  0.39135  0.81273  0.25417  1.0000
  N   N6        1.0  0.45233  0.86014  0.22885  1.0000
  C   C28       1.0  0.47447  0.93007  0.23137  1.0000
  C   C29       1.0  0.55304  0.96862  0.31228  1.0000
  C   C30       1.0  0.57896  0.03751  0.32533  1.0000
  H   H17       1.0  0.25776  0.70983  0.25978  1.0000
  H   H18       1.0  0.35791  0.82440  0.28729  1.0000
  H   H19       1.0  0.59247  0.94227  0.36867  1.0000
  H   H20       1.0  0.63975  0.06562  0.39559  1.0000
  C   C31       1.0  0.73405  0.37926  0.75974  1.0000
  C   C32       1.0  0.68770  0.40201  0.76338  1.0000
  C   C33       1.0  0.80835  0.42965  0.75818  1.0000
  N   N7        1.0  0.85322  0.41008  0.75774  1.0000
  C   C34       1.0  0.92469  0.45756  0.75689  1.0000
  C   C35       1.0  0.96650  0.42863  0.75374  1.0000
  C   C36       1.0  0.03894  0.46812  0.75692  1.0000
  H   H21       1.0  0.70560  0.45668  0.76464  1.0000
  H   H22       1.0  0.82253  0.48425  0.75623  1.0000
  H   H23       1.0  0.93858  0.37378  0.74389  1.0000
  H   H24       1.0  0.06735  0.44334  0.74835  1.0000
  C   C37       1.0  0.61589  0.35450  0.76531  1.0000
  C   C38       1.0  0.59048  0.28404  0.76153  1.0000
  C   C39       1.0  0.56746  0.37854  0.76788  1.0000
  N   N8        1.0  0.58767  0.44429  0.76044  1.0000
  H   H25       1.0  0.53532  0.24651  0.76409  1.0000
  H   H26       1.0  0.51341  0.33742  0.77519  1.0000
  C   C40       1.0  0.63577  0.26060  0.75320  1.0000
  C   C41       1.0  0.70726  0.30833  0.75326  1.0000
  C   C42       1.0  0.60834  0.18812  0.73858  1.0000
  N   N9        1.0  0.54616  0.14037  0.75598  1.0000
  H   H27       1.0  0.74344  0.29246  0.74439  1.0000
  H   H28       1.0  0.64325  0.17727  0.70821  1.0000
  C   C43       1.0  0.26110  0.61918  0.74755  1.0000
  C   C44       1.0  0.30727  0.59526  0.74686  1.0000
  C   C45       1.0  0.18751  0.56908  0.75399  1.0000
  N   N10       1.0  0.14390  0.58818  0.76076  1.0000
  C   C46       1.0  0.07267  0.54011  0.76256  1.0000
  C   C47       1.0  0.03047  0.56932  0.76270  1.0000
  C   C48       1.0  0.95815  0.52980  0.75998  1.0000
  H   H29       1.0  0.28915  0.53993  0.75058  1.0000
  H   H30       1.0  0.17239  0.51461  0.75328  1.0000
  H   H31       1.0  0.05762  0.62519  0.76362  1.0000
  H   H32       1.0  0.92840  0.55501  0.76183  1.0000
  C   C49       1.0  0.37910  0.64213  0.74384  1.0000
  C   C50       1.0  0.40450  0.71309  0.74437  1.0000
  C   C51       1.0  0.42819  0.61810  0.74347  1.0000
  N   N11       1.0  0.40699  0.55323  0.74150  1.0000
  H   H33       1.0  0.45993  0.75069  0.74372  1.0000
  H   H34       1.0  0.48305  0.66033  0.74451  1.0000
  C   C52       1.0  0.35875  0.73806  0.74479  1.0000
  C   C53       1.0  0.28723  0.69106  0.74547  1.0000
  C   C54       1.0  0.38571  0.81151  0.75065  1.0000
  N   N12       1.0  0.44891  0.85846  0.73679  1.0000
  H   H35       1.0  0.25090  0.70848  0.74838  1.0000
  H   H36       1.0  0.34927  0.82317  0.77271  1.0000
  C  Sn1       1.0  0.01883  0.46491  0.19033  1.0000
  C   C55       1.0  0.06197  0.53516  0.20686  1.0000
  C  Sn2       1.0  0.04200  0.56742  0.26922  1.0000
  C  Sn3       1.0  0.97760  0.52864  0.31616  1.0000
  C   C56       1.0  0.93451  0.45843  0.29965  1.0000
  C  Sn4       1.0  0.95443  0.42613  0.23726  1.0000
  O  Te1       1.0  0.03984  0.43373  0.12771  1.0000
  O  Te2       1.0  0.08599  0.63772  0.28454  1.0000
  O  Te3       1.0  0.95661  0.55989  0.37881  1.0000
  O  Te4       1.0  0.91049  0.35587  0.22196  1.0000
  Mg  Mg1       1.0  0.03446  0.65692  0.37643  1.0000
  Mg  Mg2       1.0  0.96199  0.33662  0.13020  1.0000
  C  Sn5       1.0  0.43396  0.00883  0.71761  1.0000
  C   C57       1.0  0.50945  0.05395  0.79369  1.0000
  C  Sn6       1.0  0.56865  0.03897  0.82509  1.0000
  C  Sn7       1.0  0.55205  0.97763  0.77938  1.0000
  C   C58       1.0  0.99507  0.93256  0.70332  1.0000
  C  Sn8       1.0  0.41736  0.94749  0.67190  1.0000
  O  Te5       1.0  0.37568  0.02484  0.68740  1.0000
  O  Te6       1.0  0.64367  0.08485  0.90136  1.0000
  O  Te7       1.0  0.61040  0.96165  0.80967  1.0000
  O  Te8       1.0  0.86084  0.90165  0.59566  1.0000
  Mg  Mg3       1.0  0.70339  0.04036  0.91641  1.0000
  Mg  Mg4       1.0  0.80108  0.94612  0.58045  1.0000
  C  Sn9       1.0  0.57444  0.54279  0.82775  1.0000
  C   C59       1.0  0.55067  0.47450  0.81167  1.0000
  C  Sn10      1.0  0.47333  0.43296  0.74333  1.0000
  C  Sn11      1.0  0.41861  0.46027  0.68982  1.0000
  C   C60       1.0  0.44238  0.52852  0.70589  1.0000
  C  Sn12      1.0  0.51971  0.57010  0.77425  1.0000
  O  Te9       1.0  0.65205  0.58339  0.89642  1.0000
  O  Te10      1.0  0.45095  0.36484  0.72858  1.0000
  O  Te11      1.0  0.34095  0.41961  0.62112  1.0000
  O  Te12      1.0  0.54210  0.63819  0.78897  1.0000
  Mg  Mg5       1.0  0.33865  0.32996  0.62696  1.0000
  Mg  Mg6       1.0  0.65438  0.67312  0.89046  1.0000
