data_image0
_chemical_formula_structural       C3NC3H4C3NC3H4C3NH2C3NC3H4C3NC3H4C3NH2C3NH2C3NC3H4C3NH2C3NH2C3NC3H4C3NH2C2Sn2C2HTe2HMgC2Sn2C2HTe2HMgC2Sn2C2HTe2HMg
_chemical_formula_sum              "C66 N12 H42 Sn6 Te6 Mg3"
_cell_length_a       22.4831
_cell_length_b       22.6166
_cell_length_c       8.28845
_cell_angle_alpha    61.8907
_cell_angle_beta     123.701
_cell_angle_gamma    121.025

_symmetry_space_group_name_H-M    'P1'
_space_group_IT_number       1

loop_
  _space_group_symop_operation_xyz
  'x, y, z'

loop_
  _atom_site_type_symbol
  _atom_site_label
  _atom_site_symmetry_multiplicity
  _atom_site_fract_x
  _atom_site_fract_y
  _atom_site_fract_z
  _atom_site_occupancy
  C   C1        1.0  0.73825  0.37901  0.26127  1.0000
  C   C2        1.0  0.69217  0.40321  0.26132  1.0000
  C   C3        1.0  0.81241  0.42898  0.25804  1.0000
  N   N1        1.0  0.85704  0.40999  0.25492  1.0000
  C   C4        1.0  0.92874  0.45787  0.25494  1.0000
  C   C5        1.0  0.97084  0.43009  0.24885  1.0000
  C   C6        1.0  0.04328  0.47086  0.25251  1.0000
  H   H1        1.0  0.71119  0.45842  0.26040  1.0000
  H   H2        1.0  0.82622  0.48337  0.25699  1.0000
  H   H3        1.0  0.94414  0.37531  0.23874  1.0000
  H   H4        1.0  0.07290  0.44753  0.24359  1.0000
  C   C7        1.0  0.61953  0.35697  0.25972  1.0000
  C   C8        1.0  0.59330  0.28617  0.25690  1.0000
  C   C9        1.0  0.57021  0.38153  0.25688  1.0000
  N   N2        1.0  0.59293  0.44522  0.26919  1.0000
  C   C10       1.0  0.54505  0.46854  0.26505  1.0000
  C   C11       1.0  0.57410  0.54077  0.26435  1.0000
  C   C12       1.0  0.53174  0.57057  0.25709  1.0000
  H   H5        1.0  0.53728  0.24970  0.25512  1.0000
  H   H6        1.0  0.51291  0.34213  0.24192  1.0000
  H   H7        1.0  0.63114  0.57275  0.26863  1.0000
  H   H8        1.0  0.55667  0.62651  0.25766  1.0000
  C   C13       1.0  0.63895  0.26095  0.25680  1.0000
  C   C14       1.0  0.71098  0.30748  0.25906  1.0000
  C   C15       1.0  0.61187  0.18809  0.24614  1.0000
  N   N3        1.0  0.54879  0.14037  0.25894  1.0000
  H   H9        1.0  0.74668  0.28997  0.25390  1.0000
  H   H10       1.0  0.64787  0.17688  0.22131  1.0000
  C   C16       1.0  0.26556  0.62102  0.24907  1.0000
  C   C17       1.0  0.31093  0.59678  0.24674  1.0000
  C   C18       1.0  0.19177  0.57109  0.25270  1.0000
  N   N4        1.0  0.14838  0.58987  0.26148  1.0000
  C   C19       1.0  0.07687  0.54233  0.26201  1.0000
  C   C20       1.0  0.03501  0.57014  0.26906  1.0000
  C   C21       1.0  0.96260  0.52926  0.26565  1.0000
  H   H11       1.0  0.29172  0.54143  0.24901  1.0000
  H   H12       1.0  0.17721  0.51733  0.24783  1.0000
  H   H13       1.0  0.06186  0.62494  0.27960  1.0000
  H   H14       1.0  0.93299  0.55239  0.27544  1.0000
  C   C22       1.0  0.38271  0.64301  0.24376  1.0000
  C   C23       1.0  0.40857  0.71421  0.24293  1.0000
  C   C24       1.0  0.43110  0.61799  0.24414  1.0000
  N   N5        1.0  0.41027  0.55266  0.24736  1.0000
  C   C25       1.0  0.45788  0.52892  0.25152  1.0000
  C   C26       1.0  0.42904  0.45635  0.25441  1.0000
  C   C27       1.0  0.47154  0.42641  0.26210  1.0000
  H   H15       1.0  0.46377  0.75128  0.23970  1.0000
  H   H16       1.0  0.48589  0.65917  0.24205  1.0000
  H   H17       1.0  0.37255  0.42409  0.25337  1.0000
  H   H18       1.0  0.44761  0.37000  0.26666  1.0000
  C   C28       1.0  0.36381  0.73934  0.24714  1.0000
  C   C29       1.0  0.29282  0.69252  0.25133  1.0000
  C   C30       1.0  0.39135  0.81273  0.25417  1.0000
  N   N6        1.0  0.45233  0.86014  0.22885  1.0000
  H   H19       1.0  0.25776  0.70983  0.25978  1.0000
  H   H20       1.0  0.35791  0.82440  0.28729  1.0000
  C   C31       1.0  0.73405  0.37926  0.75974  1.0000
  C   C32       1.0  0.68770  0.40201  0.76338  1.0000
  C   C33       1.0  0.80835  0.42965  0.75818  1.0000
  N   N7        1.0  0.85322  0.41008  0.75774  1.0000
  H   H21       1.0  0.70560  0.45668  0.76464  1.0000
  H   H22       1.0  0.82253  0.48425  0.75623  1.0000
  C   C34       1.0  0.61589  0.35450  0.76531  1.0000
  C   C35       1.0  0.59048  0.28404  0.76153  1.0000
  C   C36       1.0  0.56746  0.37854  0.76788  1.0000
  N   N8        1.0  0.58767  0.44429  0.76044  1.0000
  C   C37       1.0  0.54004  0.46788  0.75612  1.0000
  C   C38       1.0  0.57097  0.53895  0.76667  1.0000
  C   C39       1.0  0.52937  0.56888  0.76187  1.0000
  H   H23       1.0  0.53532  0.24651  0.76409  1.0000
  H   H24       1.0  0.51341  0.33742  0.77519  1.0000
  H   H25       1.0  0.62923  0.56942  0.77971  1.0000
  H   H26       1.0  0.55617  0.62357  0.77387  1.0000
  C   C40       1.0  0.63577  0.26060  0.75320  1.0000
  C   C41       1.0  0.70726  0.30833  0.75326  1.0000
  C   C42       1.0  0.60834  0.18812  0.73858  1.0000
  N   N9        1.0  0.54616  0.14037  0.75598  1.0000
  H   H27       1.0  0.74344  0.29246  0.74439  1.0000
  H   H28       1.0  0.64325  0.17727  0.70821  1.0000
  C   C43       1.0  0.26110  0.61918  0.74755  1.0000
  C   C44       1.0  0.30727  0.59526  0.74686  1.0000
  C   C45       1.0  0.18751  0.56908  0.75399  1.0000
  N   N10       1.0  0.14390  0.58818  0.76076  1.0000
  H   H29       1.0  0.28915  0.53993  0.75058  1.0000
  H   H30       1.0  0.17239  0.51461  0.75328  1.0000
  C   C46       1.0  0.37910  0.64213  0.74384  1.0000
  C   C47       1.0  0.40450  0.71309  0.74437  1.0000
  C   C48       1.0  0.42819  0.61810  0.74347  1.0000
  N   N11       1.0  0.40699  0.55323  0.74150  1.0000
  C   C49       1.0  0.45402  0.52882  0.74559  1.0000
  C   C50       1.0  0.42297  0.45752  0.73499  1.0000
  C   C51       1.0  0.46471  0.42745  0.74004  1.0000
  H   H31       1.0  0.45993  0.75069  0.74372  1.0000
  H   H32       1.0  0.48305  0.66033  0.74451  1.0000
  H   H33       1.0  0.36506  0.42640  0.72373  1.0000
  H   H34       1.0  0.43869  0.37253  0.72990  1.0000
  C   C52       1.0  0.35875  0.73806  0.74479  1.0000
  C   C53       1.0  0.28723  0.69106  0.74547  1.0000
  C   C54       1.0  0.38571  0.81151  0.75065  1.0000
  N   N12       1.0  0.44891  0.85846  0.73679  1.0000
  H   H35       1.0  0.25090  0.70848  0.74838  1.0000
  H   H36       1.0  0.34927  0.82317  0.77271  1.0000
  C   C55       1.0  0.58346  0.02145  0.33967  1.0000
  C   C56       1.0  0.54207  0.06517  0.26383  1.0000
  C  Sn1       1.0  0.46252  0.03896  0.17068  1.0000
  C  Sn2       1.0  0.94234  0.96762  0.15341  1.0000
  C   C57       1.0  0.98427  0.92429  0.22989  1.0000
  C   C58       1.0  0.06385  0.95107  0.32277  1.0000
  H   H37       1.0  0.64503  0.04215  0.41162  1.0000
  O  Te1       1.0  0.42205  0.08337  0.09567  1.0000
  O  Te2       1.0  0.86288  0.94005  0.06108  1.0000
  H   H38       1.0  0.09588  0.91719  0.38159  1.0000
  Mg  Mg1       1.0  0.47109  0.92896  0.98237  1.0000
  C   C59       1.0  0.58027  0.02057  0.84271  1.0000
  C   C60       1.0  0.53905  0.06455  0.76602  1.0000
  C  Sn3       1.0  0.45950  0.03841  0.67350  1.0000
  C  Sn4       1.0  0.42064  0.96688  0.65773  1.0000
  C   C61       1.0  0.98086  0.92329  0.73506  1.0000
  C   C62       1.0  0.54199  0.95000  0.82729  1.0000
  H   H39       1.0  0.64185  0.04122  0.91417  1.0000
  O  Te3       1.0  0.41920  0.08309  0.59762  1.0000
  O  Te4       1.0  0.85963  0.93938  0.56605  1.0000
  H   H40       1.0  0.09235  0.91592  0.88677  1.0000
  Mg  Mg2       1.0  0.31150  0.02108  0.48571  1.0000
  C   C63       1.0  0.01274  0.56899  0.75793  1.0000
  C   C64       1.0  0.06317  0.54708  0.76957  1.0000
  C  Sn5       1.0  0.04079  0.47740  0.76551  1.0000
  C  Sn6       1.0  0.96650  0.42887  0.74944  1.0000
  C   C65       1.0  0.91646  0.45133  0.73773  1.0000
  C   C66       1.0  0.93945  0.52117  0.74199  1.0000
  H   H41       1.0  0.03051  0.62305  0.76111  1.0000
  O  Te5       1.0  0.09189  0.45638  0.77737  1.0000
  O  Te6       1.0  0.94264  0.35892  0.74498  1.0000
  H   H42       1.0  0.90038  0.53814  0.73284  1.0000
  Mg  Mg3       1.0  0.03290  0.35548  0.76547  1.0000
