data_image0
_chemical_formula_structural       C3NH2C3NH2C3NH2C3NH2C3NH2C3NH2C3NH2C3NH2C3NH2C3NH2C3NH2C3NH2SnCSn2CSnTe4Mg2SnCSn2CSnTe4Mg2SnCSn2CSnTe4Mg2SnCSn2CSnTe4Mg2SnCSn2CSnTe4Mg2SnCSn2CSnTe4Mg2
_chemical_formula_sum              "C48 N12 H24 Sn24 Te24 Mg12"
_cell_length_a       22.4831
_cell_length_b       22.6166
_cell_length_c       8.28845
_cell_angle_alpha    61.8907
_cell_angle_beta     123.701
_cell_angle_gamma    121.025

_symmetry_space_group_name_H-M    'P1'
_space_group_IT_number       1

loop_
  _space_group_symop_operation_xyz
  'x, y, z'

loop_
  _atom_site_type_symbol
  _atom_site_label
  _atom_site_symmetry_multiplicity
  _atom_site_fract_x
  _atom_site_fract_y
  _atom_site_fract_z
  _atom_site_occupancy
  C   C1        1.0  0.73825  0.37901  0.26127  1.0000
  C   C2        1.0  0.69217  0.40321  0.26132  1.0000
  C   C3        1.0  0.81241  0.42898  0.25804  1.0000
  N   N1        1.0  0.85704  0.40999  0.25492  1.0000
  H   H1        1.0  0.71119  0.45842  0.26040  1.0000
  H   H2        1.0  0.82622  0.48337  0.25699  1.0000
  C   C4        1.0  0.61953  0.35697  0.25972  1.0000
  C   C5        1.0  0.59330  0.28617  0.25690  1.0000
  C   C6        1.0  0.57021  0.38153  0.25688  1.0000
  N   N2        1.0  0.59293  0.44522  0.26919  1.0000
  H   H3        1.0  0.53728  0.24970  0.25512  1.0000
  H   H4        1.0  0.51291  0.34213  0.24192  1.0000
  C   C7        1.0  0.63895  0.26095  0.25680  1.0000
  C   C8        1.0  0.71098  0.30748  0.25906  1.0000
  C   C9        1.0  0.61187  0.18809  0.24614  1.0000
  N   N3        1.0  0.54879  0.14037  0.25894  1.0000
  H   H5        1.0  0.74668  0.28997  0.25390  1.0000
  H   H6        1.0  0.64787  0.17688  0.22131  1.0000
  C   C10       1.0  0.26556  0.62102  0.24907  1.0000
  C   C11       1.0  0.31093  0.59678  0.24674  1.0000
  C   C12       1.0  0.19177  0.57109  0.25270  1.0000
  N   N4        1.0  0.14838  0.58987  0.26148  1.0000
  H   H7        1.0  0.29172  0.54143  0.24901  1.0000
  H   H8        1.0  0.17721  0.51733  0.24783  1.0000
  C   C13       1.0  0.38271  0.64301  0.24376  1.0000
  C   C14       1.0  0.40857  0.71421  0.24293  1.0000
  C   C15       1.0  0.43110  0.61799  0.24414  1.0000
  N   N5        1.0  0.41027  0.55266  0.24736  1.0000
  H   H9        1.0  0.46377  0.75128  0.23970  1.0000
  H   H10       1.0  0.48589  0.65917  0.24205  1.0000
  C   C16       1.0  0.36381  0.73934  0.24714  1.0000
  C   C17       1.0  0.29282  0.69252  0.25133  1.0000
  C   C18       1.0  0.39135  0.81273  0.25417  1.0000
  N   N6        1.0  0.45233  0.86014  0.22885  1.0000
  H   H11       1.0  0.25776  0.70983  0.25978  1.0000
  H   H12       1.0  0.35791  0.82440  0.28729  1.0000
  C   C19       1.0  0.73405  0.37926  0.75974  1.0000
  C   C20       1.0  0.68770  0.40201  0.76338  1.0000
  C   C21       1.0  0.80835  0.42965  0.75818  1.0000
  N   N7        1.0  0.85322  0.41008  0.75774  1.0000
  H   H13       1.0  0.70560  0.45668  0.76464  1.0000
  H   H14       1.0  0.82253  0.48425  0.75623  1.0000
  C   C22       1.0  0.61589  0.35450  0.76531  1.0000
  C   C23       1.0  0.59048  0.28404  0.76153  1.0000
  C   C24       1.0  0.56746  0.37854  0.76788  1.0000
  N   N8        1.0  0.58767  0.44429  0.76044  1.0000
  H   H15       1.0  0.53532  0.24651  0.76409  1.0000
  H   H16       1.0  0.51341  0.33742  0.77519  1.0000
  C   C25       1.0  0.63577  0.26060  0.75320  1.0000
  C   C26       1.0  0.70726  0.30833  0.75326  1.0000
  C   C27       1.0  0.60834  0.18812  0.73858  1.0000
  N   N9        1.0  0.54616  0.14037  0.75598  1.0000
  H   H17       1.0  0.74344  0.29246  0.74439  1.0000
  H   H18       1.0  0.64325  0.17727  0.70821  1.0000
  C   C28       1.0  0.26110  0.61918  0.74755  1.0000
  C   C29       1.0  0.30727  0.59526  0.74686  1.0000
  C   C30       1.0  0.18751  0.56908  0.75399  1.0000
  N   N10       1.0  0.14390  0.58818  0.76076  1.0000
  H   H19       1.0  0.28915  0.53993  0.75058  1.0000
  H   H20       1.0  0.17239  0.51461  0.75328  1.0000
  C   C31       1.0  0.37910  0.64213  0.74384  1.0000
  C   C32       1.0  0.40450  0.71309  0.74437  1.0000
  C   C33       1.0  0.42819  0.61810  0.74347  1.0000
  N   N11       1.0  0.40699  0.55323  0.74150  1.0000
  H   H21       1.0  0.45993  0.75069  0.74372  1.0000
  H   H22       1.0  0.48305  0.66033  0.74451  1.0000
  C   C34       1.0  0.35875  0.73806  0.74479  1.0000
  C   C35       1.0  0.28723  0.69106  0.74547  1.0000
  C   C36       1.0  0.38571  0.81151  0.75065  1.0000
  N   N12       1.0  0.44891  0.85846  0.73679  1.0000
  H   H23       1.0  0.25090  0.70848  0.74838  1.0000
  H   H24       1.0  0.34927  0.82317  0.77271  1.0000
  C  Sn1       1.0  0.99576  0.42809  0.30940  1.0000
  C   C37       1.0  0.94722  0.44852  0.31145  1.0000
  C  Sn2       1.0  0.96096  0.52073  0.27050  1.0000
  C  Sn3       1.0  0.02452  0.57361  0.22645  1.0000
  C   C38       1.0  0.07302  0.55317  0.22438  1.0000
  C  Sn4       1.0  0.05933  0.48097  0.26536  1.0000
  O  Te1       1.0  0.98093  0.35559  0.35078  1.0000
  O  Te2       1.0  0.91165  0.53985  0.27349  1.0000
  O  Te3       1.0  0.03933  0.64615  0.18506  1.0000
  O  Te4       1.0  0.10859  0.46184  0.26234  1.0000
  Mg  Mg1       1.0  0.95574  0.64550  0.20719  1.0000
  Mg  Mg2       1.0  0.06454  0.35621  0.32852  1.0000
  C  Sn5       1.0  0.44945  0.43370  0.19960  1.0000
  C   C39       1.0  0.52350  0.46610  0.21073  1.0000
  C  Sn6       1.0  0.57081  0.53116  0.26201  1.0000
  C  Sn7       1.0  0.54354  0.56452  0.30313  1.0000
  C   C40       1.0  0.46954  0.53211  0.29202  1.0000
  C  Sn8       1.0  0.42219  0.46705  0.24072  1.0000
  O  Te5       1.0  0.40316  0.36866  0.14806  1.0000
  O  Te6       1.0  0.64461  0.56254  0.27211  1.0000
  O  Te7       1.0  0.58991  0.62961  0.35469  1.0000
  O  Te8       1.0  0.34843  0.43567  0.23064  1.0000
  Mg  Mg3       1.0  0.68606  0.65131  0.34882  1.0000
  Mg  Mg4       1.0  0.30694  0.34689  0.15406  1.0000
  C  Sn9       1.0  0.43700  0.00928  0.21500  1.0000
  C   C41       1.0  0.51248  0.05412  0.29306  1.0000
  C  Sn10      1.0  0.57180  0.03957  0.32352  1.0000
  C  Sn11      1.0  0.55534  0.97896  0.27484  1.0000
  C   C42       1.0  0.99836  0.93416  0.19681  1.0000
  C  Sn12      1.0  0.93900  0.94866  0.16632  1.0000
  O  Te9       1.0  0.37860  0.02485  0.18578  1.0000
  O  Te10      1.0  0.64682  0.08518  0.40180  1.0000
  O  Te11      1.0  0.13229  0.96341  0.30414  1.0000
  O  Te12      1.0  0.86403  0.90311  0.08806  1.0000
  Mg  Mg5       1.0  0.70674  0.04149  0.41445  1.0000
  Mg  Mg6       1.0  0.80407  0.94676  0.07525  1.0000
  C  Sn13      1.0  0.96381  0.54849  0.69970  1.0000
  C   C43       1.0  0.92219  0.47649  0.70054  1.0000
  C  Sn14      1.0  0.95802  0.43141  0.74900  1.0000
  C  Sn15      1.0  0.03710  0.45885  0.79777  1.0000
  C   C44       1.0  0.07869  0.53080  0.79695  1.0000
  C  Sn16      1.0  0.04290  0.57593  0.74847  1.0000
  O  Te13      1.0  0.92683  0.59258  0.65080  1.0000
  O  Te14      1.0  0.91520  0.35963  0.74876  1.0000
  O  Te15      1.0  0.07407  0.41468  0.84669  1.0000
  O  Te16      1.0  0.08567  0.64766  0.74874  1.0000
  Mg  Mg7       1.0  0.99134  0.32078  0.82570  1.0000
  Mg  Mg8       1.0  0.00961  0.68655  0.67192  1.0000
  C  Sn17      1.0  0.53448  0.57388  0.70303  1.0000
  C   C45       1.0  0.46068  0.54160  0.69359  1.0000
  C  Sn18      1.0  0.42570  0.46737  0.73253  1.0000
  C  Sn19      1.0  0.46531  0.42449  0.78208  1.0000
  C   C46       1.0  0.53906  0.45676  0.79154  1.0000
  C  Sn20      1.0  0.57409  0.53100  0.75258  1.0000
  O  Te17      1.0  0.56834  0.64818  0.66354  1.0000
  O  Te18      1.0  0.35187  0.43634  0.72210  1.0000
  O  Te19      1.0  0.43138  0.35013  0.82157  1.0000
  O  Te20      1.0  0.64788  0.56203  0.76303  1.0000
  Mg  Mg9       1.0  0.32995  0.33287  0.78859  1.0000
  Mg  Mg10      1.0  0.66986  0.66548  0.69667  1.0000
  C  Sn21      1.0  0.57602  0.03025  0.77709  1.0000
  C   C47       1.0  0.53321  0.07051  0.71766  1.0000
  C  Sn22      1.0  0.45571  0.03767  0.67693  1.0000
  C  Sn23      1.0  0.42026  0.96301  0.69613  1.0000
  C   C48       1.0  0.98154  0.92279  0.75556  1.0000
  C  Sn24      1.0  0.54058  0.95560  0.79628  1.0000
  O  Te21      1.0  0.65342  0.06420  0.81704  1.0000
  O  Te22      1.0  0.41408  0.07904  0.61768  1.0000
  O  Te23      1.0  0.86127  0.92908  0.65611  1.0000
  O  Te24      1.0  0.10067  0.91426  0.85553  1.0000
  Mg  Mg11      1.0  0.31025  0.00828  0.58016  1.0000
  Mg  Mg12      1.0  0.68604  0.98496  0.89319  1.0000
