data_image0
_chemical_formula_structural       C3NH2C3NH2C3NH2C3NH2C3NH2C3NH2C3NH2C3NH2C3NH2C3NH2C3NH2C3NH2C2Sn2C2HTe2HMgC2Sn2C2HTe2HMgC2Sn2C2HTe2HMgC2Sn2C2HTe2HMgC2Sn2C2HTe2HMgC2Sn2C2HTe2HMg
_chemical_formula_sum              "C60 N12 H36 Sn12 Te12 Mg6"
_cell_length_a       22.4831
_cell_length_b       22.6166
_cell_length_c       8.28845
_cell_angle_alpha    61.8907
_cell_angle_beta     123.701
_cell_angle_gamma    121.025

_symmetry_space_group_name_H-M    'P1'
_space_group_IT_number       1

loop_
  _space_group_symop_operation_xyz
  'x, y, z'

loop_
  _atom_site_type_symbol
  _atom_site_label
  _atom_site_symmetry_multiplicity
  _atom_site_fract_x
  _atom_site_fract_y
  _atom_site_fract_z
  _atom_site_occupancy
  C   C1        1.0  0.73825  0.37901  0.26127  1.0000
  C   C2        1.0  0.69217  0.40321  0.26132  1.0000
  C   C3        1.0  0.81241  0.42898  0.25804  1.0000
  N   N1        1.0  0.85704  0.40999  0.25492  1.0000
  H   H1        1.0  0.71119  0.45842  0.26040  1.0000
  H   H2        1.0  0.82622  0.48337  0.25699  1.0000
  C   C4        1.0  0.61953  0.35697  0.25972  1.0000
  C   C5        1.0  0.59330  0.28617  0.25690  1.0000
  C   C6        1.0  0.57021  0.38153  0.25688  1.0000
  N   N2        1.0  0.59293  0.44522  0.26919  1.0000
  H   H3        1.0  0.53728  0.24970  0.25512  1.0000
  H   H4        1.0  0.51291  0.34213  0.24192  1.0000
  C   C7        1.0  0.63895  0.26095  0.25680  1.0000
  C   C8        1.0  0.71098  0.30748  0.25906  1.0000
  C   C9        1.0  0.61187  0.18809  0.24614  1.0000
  N   N3        1.0  0.54879  0.14037  0.25894  1.0000
  H   H5        1.0  0.74668  0.28997  0.25390  1.0000
  H   H6        1.0  0.64787  0.17688  0.22131  1.0000
  C   C10       1.0  0.26556  0.62102  0.24907  1.0000
  C   C11       1.0  0.31093  0.59678  0.24674  1.0000
  C   C12       1.0  0.19177  0.57109  0.25270  1.0000
  N   N4        1.0  0.14838  0.58987  0.26148  1.0000
  H   H7        1.0  0.29172  0.54143  0.24901  1.0000
  H   H8        1.0  0.17721  0.51733  0.24783  1.0000
  C   C13       1.0  0.38271  0.64301  0.24376  1.0000
  C   C14       1.0  0.40857  0.71421  0.24293  1.0000
  C   C15       1.0  0.43110  0.61799  0.24414  1.0000
  N   N5        1.0  0.41027  0.55266  0.24736  1.0000
  H   H9        1.0  0.46377  0.75128  0.23970  1.0000
  H   H10       1.0  0.48589  0.65917  0.24205  1.0000
  C   C16       1.0  0.36381  0.73934  0.24714  1.0000
  C   C17       1.0  0.29282  0.69252  0.25133  1.0000
  C   C18       1.0  0.39135  0.81273  0.25417  1.0000
  N   N6        1.0  0.45233  0.86014  0.22885  1.0000
  H   H11       1.0  0.25776  0.70983  0.25978  1.0000
  H   H12       1.0  0.35791  0.82440  0.28729  1.0000
  C   C19       1.0  0.73405  0.37926  0.75974  1.0000
  C   C20       1.0  0.68770  0.40201  0.76338  1.0000
  C   C21       1.0  0.80835  0.42965  0.75818  1.0000
  N   N7        1.0  0.85322  0.41008  0.75774  1.0000
  H   H13       1.0  0.70560  0.45668  0.76464  1.0000
  H   H14       1.0  0.82253  0.48425  0.75623  1.0000
  C   C22       1.0  0.61589  0.35450  0.76531  1.0000
  C   C23       1.0  0.59048  0.28404  0.76153  1.0000
  C   C24       1.0  0.56746  0.37854  0.76788  1.0000
  N   N8        1.0  0.58767  0.44429  0.76044  1.0000
  H   H15       1.0  0.53532  0.24651  0.76409  1.0000
  H   H16       1.0  0.51341  0.33742  0.77519  1.0000
  C   C25       1.0  0.63577  0.26060  0.75320  1.0000
  C   C26       1.0  0.70726  0.30833  0.75326  1.0000
  C   C27       1.0  0.60834  0.18812  0.73858  1.0000
  N   N9        1.0  0.54616  0.14037  0.75598  1.0000
  H   H17       1.0  0.74344  0.29246  0.74439  1.0000
  H   H18       1.0  0.64325  0.17727  0.70821  1.0000
  C   C28       1.0  0.26110  0.61918  0.74755  1.0000
  C   C29       1.0  0.30727  0.59526  0.74686  1.0000
  C   C30       1.0  0.18751  0.56908  0.75399  1.0000
  N   N10       1.0  0.14390  0.58818  0.76076  1.0000
  H   H19       1.0  0.28915  0.53993  0.75058  1.0000
  H   H20       1.0  0.17239  0.51461  0.75328  1.0000
  C   C31       1.0  0.37910  0.64213  0.74384  1.0000
  C   C32       1.0  0.40450  0.71309  0.74437  1.0000
  C   C33       1.0  0.42819  0.61810  0.74347  1.0000
  N   N11       1.0  0.40699  0.55323  0.74150  1.0000
  H   H21       1.0  0.45993  0.75069  0.74372  1.0000
  H   H22       1.0  0.48305  0.66033  0.74451  1.0000
  C   C34       1.0  0.35875  0.73806  0.74479  1.0000
  C   C35       1.0  0.28723  0.69106  0.74547  1.0000
  C   C36       1.0  0.38571  0.81151  0.75065  1.0000
  N   N12       1.0  0.44891  0.85846  0.73679  1.0000
  H   H23       1.0  0.25090  0.70848  0.74838  1.0000
  H   H24       1.0  0.34927  0.82317  0.77271  1.0000
  C   C37       1.0  0.02803  0.45284  0.25554  1.0000
  C   C38       1.0  0.06900  0.52516  0.25109  1.0000
  C  Sn1       1.0  0.04018  0.56507  0.25950  1.0000
  C  Sn2       1.0  0.96902  0.53182  0.27267  1.0000
  C   C39       1.0  0.92850  0.45942  0.27717  1.0000
  C   C40       1.0  0.95785  0.41999  0.26860  1.0000
  H   H25       1.0  0.05075  0.42231  0.24902  1.0000
  O  Te1       1.0  0.08184  0.63728  0.25483  1.0000
  O  Te2       1.0  0.93891  0.57045  0.28136  1.0000
  H   H26       1.0  0.92614  0.36398  0.27218  1.0000
  Mg  Mg1       1.0  0.01698  0.66742  0.27034  1.0000
  C   C41       1.0  0.45432  0.42365  0.26554  1.0000
  C   C42       1.0  0.52503  0.45659  0.25589  1.0000
  C  Sn3       1.0  0.56599  0.52880  0.25280  1.0000
  C  Sn4       1.0  0.53545  0.56861  0.25957  1.0000
  C   C43       1.0  0.46469  0.53515  0.26936  1.0000
  C   C44       1.0  0.42418  0.46287  0.27231  1.0000
  H   H27       1.0  0.42299  0.36772  0.26794  1.0000
  O  Te3       1.0  0.63654  0.56089  0.24305  1.0000
  O  Te4       1.0  0.57519  0.64085  0.25675  1.0000
  H   H28       1.0  0.36945  0.43737  0.27992  1.0000
  Mg  Mg2       1.0  0.66910  0.66069  0.24264  1.0000
  C   C45       1.0  0.43206  0.01713  0.14899  1.0000
  C   C46       1.0  0.50662  0.06001  0.24468  1.0000
  C  Sn5       1.0  0.56756  0.03765  0.32670  1.0000
  C  Sn6       1.0  0.07190  0.97111  0.31236  1.0000
  C   C47       1.0  0.99711  0.92863  0.21620  1.0000
  C   C48       1.0  0.93655  0.95151  0.13472  1.0000
  H   H29       1.0  0.38520  0.03485  0.08584  1.0000
  O  Te5       1.0  0.64169  0.08113  0.42186  1.0000
  O  Te6       1.0  0.13176  0.94748  0.39295  1.0000
  H   H30       1.0  0.87883  0.91833  0.06052  1.0000
  Mg  Mg3       1.0  0.70432  0.02568  0.50823  1.0000
  C   C49       1.0  0.02361  0.45020  0.76086  1.0000
  C   C50       1.0  0.06498  0.52279  0.75154  1.0000
  C  Sn7       1.0  0.03659  0.56444  0.75432  1.0000
  C  Sn8       1.0  0.96545  0.53267  0.76673  1.0000
  C   C51       1.0  0.92453  0.45999  0.77612  1.0000
  C   C52       1.0  0.95345  0.41881  0.77317  1.0000
  H   H31       1.0  0.04601  0.41832  0.75868  1.0000
  O  Te7       1.0  0.07865  0.63690  0.74483  1.0000
  O  Te8       1.0  0.93576  0.57305  0.76984  1.0000
  H   H32       1.0  0.92143  0.36259  0.78052  1.0000
  Mg  Mg4       1.0  0.01429  0.66969  0.75362  1.0000
  C   C53       1.0  0.54820  0.57035  0.77023  1.0000
  C   C54       1.0  0.47197  0.54176  0.74014  1.0000
  C  Sn9       1.0  0.42809  0.47150  0.72435  1.0000
  C  Sn10      1.0  0.46132  0.42921  0.73907  1.0000
  C   C55       1.0  0.53764  0.45829  0.76933  1.0000
  C   C56       1.0  0.58102  0.52866  0.78485  1.0000
  H   H33       1.0  0.58178  0.62478  0.78236  1.0000
  O  Te9       1.0  0.35201  0.44378  0.69422  1.0000
  O  Te10      1.0  0.41877  0.35882  0.72390  1.0000
  H   H34       1.0  0.64005  0.55077  0.80828  1.0000
  Mg  Mg5       1.0  0.31737  0.34505  0.68303  1.0000
  C   C57       1.0  0.89632  0.97729  0.65678  1.0000
  C   C58       1.0  0.93782  0.93743  0.70544  1.0000
  C  Sn11      1.0  0.01742  0.96405  0.79469  1.0000
  C  Sn12      1.0  0.05601  0.03184  0.83587  1.0000
  C   C59       1.0  0.01397  0.07128  0.78675  1.0000
  C   C60       1.0  0.93434  0.04414  0.69742  1.0000
  H   H35       1.0  0.83471  0.95628  0.58777  1.0000
  O  Te11      1.0  0.05800  0.92355  0.84226  1.0000
  O  Te12      1.0  0.13552  0.05972  0.92505  1.0000
  H   H36       1.0  0.90222  0.07499  0.65989  1.0000
  Mg  Mg6       1.0  0.16562  0.98440  0.96202  1.0000
