data_image0
_chemical_formula_structural       CNCNC4H4CNCNC4H3CNCNC4H4CNCNC4H3CNCNC4H4CNCNC4H3CNCNC4H4CNCNC4H3C2Sn2C2HTe2HMgC2Sn2C2HTe2HMgC2Sn2C2HTe2HMgC2Sn2C2HTe2HMgC2Sn2C2HTe2HMgC2Sn2C2HTe2HMgC2Sn2C2HTe2HMgC2Sn2C2HTe2HMgC2Sn2C2HTe2HMgC2Sn2C2HTe2HMgC2Sn2C2HTe2HMgC2Sn2C2HTe2HMg
_chemical_formula_sum              "C96 N16 H52 Sn24 Te24 Mg12"
_cell_length_a       25.3665
_cell_length_b       25.7283
_cell_length_c       10.1048
_cell_angle_alpha    52.6054
_cell_angle_beta     89.5711
_cell_angle_gamma    90.0561

_symmetry_space_group_name_H-M    'P1'
_space_group_IT_number       1

loop_
  _space_group_symop_operation_xyz
  'x, y, z'

loop_
  _atom_site_type_symbol
  _atom_site_label
  _atom_site_symmetry_multiplicity
  _atom_site_fract_x
  _atom_site_fract_y
  _atom_site_fract_z
  _atom_site_occupancy
  C   C1        1.0  0.13423  0.00395  0.25790  1.0000
  N   N1        1.0  0.35708  0.03976  0.16567  1.0000
  C   C2        1.0  0.38819  0.99358  0.19938  1.0000
  N   N2        1.0  0.06022  0.94033  0.25649  1.0000
  C   C3        1.0  0.11272  0.95553  0.24939  1.0000
  C   C4        1.0  0.14546  0.91680  0.22091  1.0000
  C   C5        1.0  0.05907  0.89300  0.23283  1.0000
  C   C6        1.0  0.11185  0.87947  0.20372  1.0000
  H   H1        1.0  0.37248  0.94682  0.23441  1.0000
  H   H2        1.0  0.18777  0.91928  0.21105  1.0000
  H   H3        1.0  0.12150  0.84859  0.16789  1.0000
  H   H4        1.0  0.97332  0.97259  0.72438  1.0000
  C   C7        1.0  0.99150  0.12555  0.29152  1.0000
  N   N3        1.0  0.97309  0.36289  0.22027  1.0000
  C   C8        1.0  0.01429  0.39534  0.20794  1.0000
  N   N4        1.0  0.05293  0.05474  0.27644  1.0000
  C   C9        1.0  0.04217  0.10083  0.30149  1.0000
  C   C10       1.0  0.09184  0.12041  0.32561  1.0000
  C   C11       1.0  0.10665  0.04648  0.27625  1.0000
  C   C12       1.0  0.13081  0.08876  0.30547  1.0000
  H   H5        1.0  0.05438  0.37992  0.20580  1.0000
  H   H6        1.0  0.09670  0.15242  0.36014  1.0000
  H   H7        1.0  0.17292  0.09169  0.31525  1.0000
  C   C13       1.0  0.86243  0.99437  0.73697  1.0000
  N   N5        1.0  0.63764  0.97402  0.75851  1.0000
  C   C14       1.0  0.60971  0.00184  0.80704  1.0000
  N   N6        1.0  0.93702  0.05323  0.75446  1.0000
  C   C15       1.0  0.88449  0.03725  0.76577  1.0000
  C   C16       1.0  0.85271  0.07342  0.80532  1.0000
  C   C17       1.0  0.93881  0.09954  0.78260  1.0000
  C   C18       1.0  0.88656  0.10994  0.82248  1.0000
  H   H8        1.0  0.62778  0.03161  0.84023  1.0000
  H   H9        1.0  0.81038  0.07078  0.81933  1.0000
  H   H10       1.0  0.87797  0.14013  0.86144  1.0000
  H   H11       1.0  0.02302  0.03087  0.26450  1.0000
  C   C19       1.0  0.00820  0.87528  0.70576  1.0000
  N   N7        1.0  0.03337  0.63800  0.77758  1.0000
  C   C20       1.0  0.99319  0.60622  0.77909  1.0000
  N   N8        1.0  0.94485  0.94856  0.70733  1.0000
  C   C21       1.0  0.95750  0.90297  0.68158  1.0000
  C   C22       1.0  0.90880  0.88391  0.64960  1.0000
  C   C23       1.0  0.89080  0.95611  0.70419  1.0000
  C   C24       1.0  0.86854  0.91431  0.66953  1.0000
  H   H12       1.0  0.95240  0.62212  0.77263  1.0000
  H   H13       1.0  0.90561  0.85206  0.61309  1.0000
  H   H14       1.0  0.82682  0.90913  0.65925  1.0000
  C   C25       1.0  0.86922  0.98610  0.25491  1.0000
  N   N9        1.0  0.64442  0.96062  0.26369  1.0000
  C   C26       1.0  0.61326  0.00873  0.21614  1.0000
  N   N10       1.0  0.94370  0.04577  0.27225  1.0000
  C   C27       1.0  0.89127  0.03644  0.25547  1.0000
  C   C28       1.0  0.85896  0.08598  0.24318  1.0000
  C   C29       1.0  0.94509  0.09940  0.27258  1.0000
  C   C30       1.0  0.89221  0.12574  0.24930  1.0000
  H   H15       1.0  0.62857  0.05485  0.18477  1.0000
  H   H16       1.0  0.81652  0.09049  0.22896  1.0000
  H   H17       1.0  0.88187  0.16916  0.23754  1.0000
  H   H18       1.0  0.02013  0.03669  0.75180  1.0000
  C   C31       1.0  0.01299  0.85967  0.24057  1.0000
  N   N11       1.0  0.04249  0.63300  0.26713  1.0000
  C   C32       1.0  0.00216  0.60382  0.26053  1.0000
  N   N12       1.0  0.95036  0.93123  0.25222  1.0000
  C   C33       1.0  0.96185  0.87856  0.25267  1.0000
  C   C34       1.0  0.91244  0.84955  0.26231  1.0000
  C   C35       1.0  0.89653  0.93826  0.25597  1.0000
  C   C36       1.0  0.87297  0.88667  0.26015  1.0000
  H   H19       1.0  0.96166  0.61690  0.26967  1.0000
  H   H20       1.0  0.90780  0.80595  0.27061  1.0000
  H   H21       1.0  0.83105  0.87837  0.26380  1.0000
  C   C37       1.0  0.13009  0.01624  0.73286  1.0000
  N   N13       1.0  0.35450  0.03984  0.74952  1.0000
  C   C38       1.0  0.38416  0.99053  0.79783  1.0000
  N   N14       1.0  0.05604  0.95613  0.72031  1.0000
  C   C39       1.0  0.10803  0.96255  0.74779  1.0000
  C   C40       1.0  0.13874  0.90708  0.78857  1.0000
  C   C41       1.0  0.05370  0.89880  0.73728  1.0000
  C   C42       1.0  0.10461  0.86606  0.78802  1.0000
  H   H22       1.0  0.36725  0.94503  0.82833  1.0000
  H   H23       1.0  0.18021  0.89984  0.81611  1.0000
  H   H24       1.0  0.11315  0.81844  0.82140  1.0000
  H   H25       1.0  0.97959  0.95871  0.25275  1.0000
  C   C43       1.0  0.98419  0.13633  0.76062  1.0000
  N   N15       1.0  0.96865  0.36457  0.73596  1.0000
  C   C44       1.0  0.00934  0.39289  0.74298  1.0000
  N   N16       1.0  0.04782  0.06906  0.73570  1.0000
  C   C45       1.0  0.03475  0.12293  0.72819  1.0000
  C   C46       1.0  0.08275  0.15874  0.69183  1.0000
  C   C47       1.0  0.10157  0.06651  0.71774  1.0000
  C   C48       1.0  0.12326  0.12371  0.69033  1.0000
  H   H26       1.0  0.04966  0.37821  0.73943  1.0000
  H   H27       1.0  0.08550  0.20524  0.67000  1.0000
  H   H28       1.0  0.16463  0.13634  0.67035  1.0000
  C   C49       1.0  0.26885  0.96167  0.36312  1.0000
  C   C50       1.0  0.29759  0.01275  0.22574  1.0000
  C  Sn1       1.0  0.27164  0.06737  0.09114  1.0000
  C  Sn2       1.0  0.21587  0.07079  0.09453  1.0000
  C   C51       1.0  0.18748  0.01945  0.23260  1.0000
  C   C52       1.0  0.21385  0.96501  0.36659  1.0000
  H   H29       1.0  0.28925  0.91955  0.46683  1.0000
  O  Te1       1.0  0.29774  0.87944  0.95484  1.0000
  O  Te2       1.0  0.18571  0.88631  0.96172  1.0000
  H   H30       1.0  0.19158  0.92549  0.47299  1.0000
  Mg  Mg1       1.0  0.24309  0.94286  0.80395  1.0000
  C   C53       1.0  0.48210  0.06267  0.16827  1.0000
  C   C54       1.0  0.45079  0.01516  0.18056  1.0000
  C  Sn3       1.0  0.47381  0.95937  0.21208  1.0000
  C  Sn4       1.0  0.52921  0.95111  0.23167  1.0000
  C   C55       1.0  0.56019  0.99890  0.21927  1.0000
  C   C56       1.0  0.53675  0.05456  0.18764  1.0000
  H   H31       1.0  0.46397  0.10572  0.14389  1.0000
  O  Te3       1.0  0.44294  0.91239  0.22391  1.0000
  O  Te4       1.0  0.55423  0.89581  0.26332  1.0000
  H   H32       1.0  0.56100  0.09131  0.17824  1.0000
  Mg  Mg2       1.0  0.49410  0.84546  0.26851  1.0000
  C   C57       1.0  0.93952  0.20694  0.36339  1.0000
  C   C58       1.0  0.97744  0.18639  0.30343  1.0000
  C  Sn5       1.0  0.01885  0.22815  0.20209  1.0000
  C  Sn6       1.0  0.02228  0.29161  0.16024  1.0000
  C   C59       1.0  0.98417  0.31169  0.22095  1.0000
  C   C60       1.0  0.94288  0.26952  0.32223  1.0000
  H   H33       1.0  0.90759  0.17430  0.44183  1.0000
  O  Te5       1.0  0.05639  0.20685  0.14320  1.0000
  O  Te6       1.0  0.06327  0.33433  0.05922  1.0000
  H   H34       1.0  0.91354  0.28543  0.36872  1.0000
  Mg  Mg3       1.0  0.10485  0.28287  0.00948  1.0000
  C   C61       1.0  0.06360  0.51990  0.22150  1.0000
  C   C62       1.0  0.01931  0.55097  0.22647  1.0000
  C  Sn7       1.0  0.96870  0.52887  0.22907  1.0000
  C  Sn8       1.0  0.96244  0.47464  0.22669  1.0000
  C   C63       1.0  0.00699  0.44386  0.22184  1.0000
  C   C64       1.0  0.05745  0.46639  0.21922  1.0000
  H   H35       1.0  0.10264  0.53731  0.21956  1.0000
  O  Te7       1.0  0.92489  0.56049  0.23397  1.0000
  O  Te8       1.0  0.91231  0.45153  0.22927  1.0000
  H   H36       1.0  0.09173  0.44230  0.21548  1.0000
  Mg  Mg4       1.0  0.86473  0.51090  0.23586  1.0000
  C   C65       1.0  0.73290  0.95918  0.91952  1.0000
  C   C66       1.0  0.69750  0.97703  0.79318  1.0000
  C  Sn9       1.0  0.71611  0.99821  0.63709  1.0000
  C  Sn10      1.0  0.77120  0.00151  0.60731  1.0000
  C   C67       1.0  0.80629  0.98350  0.73457  1.0000
  C   C68       1.0  0.78724  0.96240  0.89028  1.0000
  H   H37       1.0  0.72138  0.18134  0.04003  1.0000
  O  Te9       1.0  0.68020  0.01588  0.51223  1.0000
  O  Te10      1.0  0.79087  0.02248  0.45249  1.0000
  H   H38       1.0  0.81466  0.94854  0.98811  1.0000
  Mg  Mg5       1.0  0.72622  0.04135  0.32197  1.0000
  C   C69       1.0  0.47850  0.04764  0.81622  1.0000
  C   C70       1.0  0.44677  0.00910  0.79400  1.0000
  C  Sn11      1.0  0.46923  0.96052  0.78992  1.0000
  C  Sn12      1.0  0.52449  0.95044  0.80850  1.0000
  C   C71       1.0  0.55589  0.98922  0.83078  1.0000
  C   C72       1.0  0.53301  0.03771  0.83462  1.0000
  H   H39       1.0  0.46080  0.08513  0.81929  1.0000
  O  Te11      1.0  0.43695  0.92247  0.76755  1.0000
  O  Te12      1.0  0.54796  0.90222  0.80496  1.0000
  H   H40       1.0  0.55759  0.06751  0.85193  1.0000
  Mg  Mg6       1.0  0.48741  0.86288  0.77136  1.0000
  C   C73       1.0  0.06647  0.79142  0.65695  1.0000
  C   C74       1.0  0.02189  0.81590  0.68378  1.0000
  C  Sn13      1.0  0.97816  0.77545  0.76952  1.0000
  C  Sn14      1.0  0.97920  0.70930  0.82940  1.0000
  C   C75       1.0  0.02401  0.68527  0.80202  1.0000
  C   C76       1.0  0.06754  0.72617  0.71603  1.0000
  H   H41       1.0  0.10016  0.82305  0.59050  1.0000
  O  Te13      1.0  0.93393  0.80070  0.79519  1.0000
  O  Te14      1.0  0.93605  0.66780  0.91553  1.0000
  H   H42       1.0  0.10206  0.70720  0.69537  1.0000
  Mg  Mg7       1.0  0.88488  0.72494  0.91943  1.0000
  C   C77       1.0  0.05676  0.51613  0.76754  1.0000
  C   C78       1.0  0.01182  0.54720  0.76885  1.0000
  C  Sn15      1.0  0.96166  0.52406  0.77163  1.0000
  C  Sn16      1.0  0.95651  0.46878  0.77317  1.0000
  C   C79       1.0  0.00172  0.43802  0.77196  1.0000
  C   C80       1.0  0.05172  0.46159  0.76912  1.0000
  H   H43       1.0  0.09545  0.53435  0.76544  1.0000
  O  Te15      1.0  0.91717  0.55569  0.77285  1.0000
  O  Te16      1.0  0.90686  0.44462  0.77601  1.0000
  H   H44       1.0  0.08651  0.43750  0.76822  1.0000
  Mg  Mg8       1.0  0.85803  0.50445  0.77672  1.0000
  C   C81       1.0  0.76682  0.03845  0.10493  1.0000
  C   C82       1.0  0.80284  0.99637  0.22928  1.0000
  C  Sn17      1.0  0.78595  0.93635  0.37387  1.0000
  C  Sn18      1.0  0.73196  0.91824  0.39396  1.0000
  C   C83       1.0  0.69624  0.96067  0.26877  1.0000
  C   C84       1.0  0.71357  0.02062  0.12461  1.0000
  H   H45       1.0  0.77701  0.84630  0.99335  1.0000
  O  Te17      1.0  0.82246  0.89490  0.49691  1.0000
  O  Te18      1.0  0.71501  0.85853  0.53719  1.0000
  H   H46       1.0  0.68567  0.05317  0.02830  1.0000
  Mg  Mg9       1.0  0.77987  0.81872  0.66975  1.0000
  C   C85       1.0  0.98530  0.74762  0.14999  1.0000
  C   C86       1.0  0.02370  0.69918  0.23389  1.0000
  C  Sn19      1.0  0.06049  0.70082  0.33354  1.0000
  C  Sn20      1.0  0.05868  0.75197  0.34926  1.0000
  C   C87       1.0  0.02008  0.80018  0.26491  1.0000
  C   C88       1.0  0.98347  0.79808  0.16548  1.0000
  H   H47       1.0  0.95695  0.74598  0.07313  1.0000
  O  Te19      1.0  0.09861  0.65204  0.41645  1.0000
  O  Te20      1.0  0.09495  0.75478  0.44809  1.0000
  H   H48       1.0  0.95372  0.83557  0.10062  1.0000
  Mg  Mg10      1.0  0.13945  0.67706  0.53645  1.0000
  C   C89       1.0  0.25909  0.08613  0.57935  1.0000
  C   C90       1.0  0.29314  0.04685  0.71302  1.0000
  C  Sn21      1.0  0.27406  0.99082  0.86369  1.0000
  C  Sn22      1.0  0.21987  0.97392  0.88046  1.0000
  C   C91       1.0  0.18614  0.01351  0.74596  1.0000
  C   C92       1.0  0.20564  0.06948  0.59577  1.0000
  H   H49       1.0  0.27418  0.12941  0.46311  1.0000
  O  Te21      1.0  0.30862  0.95213  0.99599  1.0000
  O  Te22      1.0  0.20299  0.15670  0.02963  1.0000
  H   H50       1.0  0.17927  0.09986  0.49227  1.0000
  Mg  Mg11      1.0  0.26570  0.11954  0.17423  1.0000
  C   C93       1.0  0.02394  0.21799  0.84682  1.0000
  C   C94       1.0  0.98699  0.19321  0.79597  1.0000
  C  Sn23      1.0  0.94287  0.23005  0.70546  1.0000
  C  Sn24      1.0  0.93572  0.29286  0.66525  1.0000
  C   C95       1.0  0.97293  0.31723  0.71659  1.0000
  C   C96       1.0  0.01693  0.27995  0.80715  1.0000
  H   H51       1.0  0.05800  0.18917  0.91681  1.0000
  O  Te23      1.0  0.90633  0.20454  0.65569  1.0000
  O  Te24      1.0  0.89199  0.33072  0.57487  1.0000
  H   H52       1.0  0.04555  0.29917  0.84640  1.0000
  Mg  Mg12      1.0  0.85312  0.27471  0.53495  1.0000
