data_image0
_chemical_formula_structural       CNCNC4H4CNCNC4H3CNCNC4H4CNCNC4H3CNCNC4H4CNCNC4H3CNCNC4H4CNCNC4H3SnCSn2CSnTe4Mg2SnCSn2CSnTe4Mg2SnCSn2CSnTe4Mg2SnCSn2CSnTe4Mg2SnCSn2CSnTe4Mg2SnCSn2CSnTe4Mg2SnCSn2CSnTe4Mg2SnCSn2CSnTe4Mg2SnCSn2CSnTe4Mg2SnCSn2CSnTe4Mg2SnCSn2CSnTe4Mg2SnCSn2CSnTe4Mg2
_chemical_formula_sum              "C72 N16 H28 Sn48 Te48 Mg24"
_cell_length_a       25.3665
_cell_length_b       25.7283
_cell_length_c       10.1048
_cell_angle_alpha    52.6054
_cell_angle_beta     89.5711
_cell_angle_gamma    90.0561

_symmetry_space_group_name_H-M    'P1'
_space_group_IT_number       1

loop_
  _space_group_symop_operation_xyz
  'x, y, z'

loop_
  _atom_site_type_symbol
  _atom_site_label
  _atom_site_symmetry_multiplicity
  _atom_site_fract_x
  _atom_site_fract_y
  _atom_site_fract_z
  _atom_site_occupancy
  C   C1        1.0  0.13423  0.00395  0.25790  1.0000
  N   N1        1.0  0.35708  0.03976  0.16567  1.0000
  C   C2        1.0  0.38819  0.99358  0.19938  1.0000
  N   N2        1.0  0.06022  0.94033  0.25649  1.0000
  C   C3        1.0  0.11272  0.95553  0.24939  1.0000
  C   C4        1.0  0.14546  0.91680  0.22091  1.0000
  C   C5        1.0  0.05907  0.89300  0.23283  1.0000
  C   C6        1.0  0.11185  0.87947  0.20372  1.0000
  H   H1        1.0  0.37248  0.94682  0.23441  1.0000
  H   H2        1.0  0.18777  0.91928  0.21105  1.0000
  H   H3        1.0  0.12150  0.84859  0.16789  1.0000
  H   H4        1.0  0.97332  0.97259  0.72438  1.0000
  C   C7        1.0  0.99150  0.12555  0.29152  1.0000
  N   N3        1.0  0.97309  0.36289  0.22027  1.0000
  C   C8        1.0  0.01429  0.39534  0.20794  1.0000
  N   N4        1.0  0.05293  0.05474  0.27644  1.0000
  C   C9        1.0  0.04217  0.10083  0.30149  1.0000
  C   C10       1.0  0.09184  0.12041  0.32561  1.0000
  C   C11       1.0  0.10665  0.04648  0.27625  1.0000
  C   C12       1.0  0.13081  0.08876  0.30547  1.0000
  H   H5        1.0  0.05438  0.37992  0.20580  1.0000
  H   H6        1.0  0.09670  0.15242  0.36014  1.0000
  H   H7        1.0  0.17292  0.09169  0.31525  1.0000
  C   C13       1.0  0.86243  0.99437  0.73697  1.0000
  N   N5        1.0  0.63764  0.97402  0.75851  1.0000
  C   C14       1.0  0.60971  0.00184  0.80704  1.0000
  N   N6        1.0  0.93702  0.05323  0.75446  1.0000
  C   C15       1.0  0.88449  0.03725  0.76577  1.0000
  C   C16       1.0  0.85271  0.07342  0.80532  1.0000
  C   C17       1.0  0.93881  0.09954  0.78260  1.0000
  C   C18       1.0  0.88656  0.10994  0.82248  1.0000
  H   H8        1.0  0.62778  0.03161  0.84023  1.0000
  H   H9        1.0  0.81038  0.07078  0.81933  1.0000
  H   H10       1.0  0.87797  0.14013  0.86144  1.0000
  H   H11       1.0  0.02302  0.03087  0.26450  1.0000
  C   C19       1.0  0.00820  0.87528  0.70576  1.0000
  N   N7        1.0  0.03337  0.63800  0.77758  1.0000
  C   C20       1.0  0.99319  0.60622  0.77909  1.0000
  N   N8        1.0  0.94485  0.94856  0.70733  1.0000
  C   C21       1.0  0.95750  0.90297  0.68158  1.0000
  C   C22       1.0  0.90880  0.88391  0.64960  1.0000
  C   C23       1.0  0.89080  0.95611  0.70419  1.0000
  C   C24       1.0  0.86854  0.91431  0.66953  1.0000
  H   H12       1.0  0.95240  0.62212  0.77263  1.0000
  H   H13       1.0  0.90561  0.85206  0.61309  1.0000
  H   H14       1.0  0.82682  0.90913  0.65925  1.0000
  C   C25       1.0  0.86922  0.98610  0.25491  1.0000
  N   N9        1.0  0.64442  0.96062  0.26369  1.0000
  C   C26       1.0  0.61326  0.00873  0.21614  1.0000
  N   N10       1.0  0.94370  0.04577  0.27225  1.0000
  C   C27       1.0  0.89127  0.03644  0.25547  1.0000
  C   C28       1.0  0.85896  0.08598  0.24318  1.0000
  C   C29       1.0  0.94509  0.09940  0.27258  1.0000
  C   C30       1.0  0.89221  0.12574  0.24930  1.0000
  H   H15       1.0  0.62857  0.05485  0.18477  1.0000
  H   H16       1.0  0.81652  0.09049  0.22896  1.0000
  H   H17       1.0  0.88187  0.16916  0.23754  1.0000
  H   H18       1.0  0.02013  0.03669  0.75180  1.0000
  C   C31       1.0  0.01299  0.85967  0.24057  1.0000
  N   N11       1.0  0.04249  0.63300  0.26713  1.0000
  C   C32       1.0  0.00216  0.60382  0.26053  1.0000
  N   N12       1.0  0.95036  0.93123  0.25222  1.0000
  C   C33       1.0  0.96185  0.87856  0.25267  1.0000
  C   C34       1.0  0.91244  0.84955  0.26231  1.0000
  C   C35       1.0  0.89653  0.93826  0.25597  1.0000
  C   C36       1.0  0.87297  0.88667  0.26015  1.0000
  H   H19       1.0  0.96166  0.61690  0.26967  1.0000
  H   H20       1.0  0.90780  0.80595  0.27061  1.0000
  H   H21       1.0  0.83105  0.87837  0.26380  1.0000
  C   C37       1.0  0.13009  0.01624  0.73286  1.0000
  N   N13       1.0  0.35450  0.03984  0.74952  1.0000
  C   C38       1.0  0.38416  0.99053  0.79783  1.0000
  N   N14       1.0  0.05604  0.95613  0.72031  1.0000
  C   C39       1.0  0.10803  0.96255  0.74779  1.0000
  C   C40       1.0  0.13874  0.90708  0.78857  1.0000
  C   C41       1.0  0.05370  0.89880  0.73728  1.0000
  C   C42       1.0  0.10461  0.86606  0.78802  1.0000
  H   H22       1.0  0.36725  0.94503  0.82833  1.0000
  H   H23       1.0  0.18021  0.89984  0.81611  1.0000
  H   H24       1.0  0.11315  0.81844  0.82140  1.0000
  H   H25       1.0  0.97959  0.95871  0.25275  1.0000
  C   C43       1.0  0.98419  0.13633  0.76062  1.0000
  N   N15       1.0  0.96865  0.36457  0.73596  1.0000
  C   C44       1.0  0.00934  0.39289  0.74298  1.0000
  N   N16       1.0  0.04782  0.06906  0.73570  1.0000
  C   C45       1.0  0.03475  0.12293  0.72819  1.0000
  C   C46       1.0  0.08275  0.15874  0.69183  1.0000
  C   C47       1.0  0.10157  0.06651  0.71774  1.0000
  C   C48       1.0  0.12326  0.12371  0.69033  1.0000
  H   H26       1.0  0.04966  0.37821  0.73943  1.0000
  H   H27       1.0  0.08550  0.20524  0.67000  1.0000
  H   H28       1.0  0.16463  0.13634  0.67035  1.0000
  C  Sn1       1.0  0.26910  0.95732  0.32594  1.0000
  C   C49       1.0  0.29703  0.01194  0.19500  1.0000
  C  Sn2       1.0  0.27172  0.07188  0.08664  1.0000
  C  Sn3       1.0  0.21735  0.07737  0.10967  1.0000
  C   C50       1.0  0.18945  0.02279  0.24056  1.0000
  C  Sn4       1.0  0.21473  0.96281  0.34897  1.0000
  O  Te1       1.0  0.29521  0.89788  0.43277  1.0000
  O  Te2       1.0  0.29725  0.88727  0.95661  1.0000
  O  Te3       1.0  0.19125  0.13688  0.00270  1.0000
  O  Te4       1.0  0.18601  0.90894  0.47895  1.0000
  Mg  Mg1       1.0  0.24414  0.95775  0.84402  1.0000
  Mg  Mg2       1.0  0.24007  0.83844  0.59166  1.0000
  C  Sn5       1.0  0.52122  0.95450  0.18338  1.0000
  C   C51       1.0  0.55074  0.00348  0.16663  1.0000
  C  Sn6       1.0  0.52731  0.04968  0.17832  1.0000
  C  Sn7       1.0  0.47224  0.04685  0.20748  1.0000
  C   C52       1.0  0.44175  0.99789  0.22424  1.0000
  C  Sn8       1.0  0.46514  0.95167  0.21253  1.0000
  O  Te5       1.0  0.54547  0.90881  0.17125  1.0000
  O  Te6       1.0  0.55864  0.09820  0.16110  1.0000
  O  Te7       1.0  0.44800  0.09259  0.21960  1.0000
  O  Te8       1.0  0.43485  0.90316  0.22977  1.0000
  Mg  Mg3       1.0  0.50735  0.14935  0.18751  1.0000
  Mg  Mg4       1.0  0.48609  0.85198  0.20347  1.0000
  C  Sn9       1.0  0.03678  0.24197  0.21866  1.0000
  C   C53       1.0  0.00160  0.18904  0.30264  1.0000
  C  Sn10      1.0  0.95076  0.19638  0.34299  1.0000
  C  Sn11      1.0  0.93472  0.25790  0.29838  1.0000
  C   C54       1.0  0.96988  0.31078  0.21444  1.0000
  C  Sn12      1.0  0.02074  0.30349  0.17406  1.0000
  O  Te9       1.0  0.08741  0.23352  0.17958  1.0000
  O  Te10      1.0  0.91630  0.14275  0.42703  1.0000
  O  Te11      1.0  0.88403  0.26631  0.33755  1.0000
  O  Te12      1.0  0.05518  0.35708  0.09005  1.0000
  Mg  Mg5       1.0  0.85141  0.17867  0.45274  1.0000
  Mg  Mg6       1.0  0.12007  0.32122  0.06419  1.0000
  C  Sn13      1.0  0.05877  0.53486  0.16787  1.0000
  C   C55       1.0  0.01404  0.56059  0.19000  1.0000
  C  Sn14      1.0  0.96594  0.52702  0.23722  1.0000
  C  Sn15      1.0  0.96247  0.46644  0.26298  1.0000
  C   C56       1.0  0.00718  0.44073  0.24088  1.0000
  C  Sn16      1.0  0.05530  0.47428  0.19362  1.0000
  O  Te13      1.0  0.10645  0.56926  0.12063  1.0000
  O  Te14      1.0  0.92176  0.55374  0.25853  1.0000
  O  Te15      1.0  0.91473  0.43204  0.31025  1.0000
  O  Te16      1.0  0.09945  0.44758  0.17235  1.0000
  Mg  Mg7       1.0  0.86563  0.48846  0.32374  1.0000
  Mg  Mg8       1.0  0.15561  0.51280  0.10723  1.0000
  C  Sn17      1.0  0.76188  0.01995  0.58055  1.0000
  C   C57       1.0  0.79627  0.00776  0.70381  1.0000
  C  Sn18      1.0  0.77923  0.97191  0.86940  1.0000
  C  Sn19      1.0  0.72672  0.94772  0.91273  1.0000
  C   C58       1.0  0.69237  0.95991  0.78951  1.0000
  C  Sn20      1.0  0.70938  0.99576  0.62387  1.0000
  O  Te17      1.0  0.77976  0.05589  0.41580  1.0000
  O  Te18      1.0  0.81433  0.96037  0.99043  1.0000
  O  Te19      1.0  0.71208  0.15027  0.07763  1.0000
  O  Te20      1.0  0.67431  0.00729  0.50289  1.0000
  Mg  Mg9       1.0  0.77466  0.14735  0.19777  1.0000
  Mg  Mg10      1.0  0.71716  0.05880  0.29554  1.0000
  C  Sn21      1.0  0.48289  0.93119  0.85928  1.0000
  C   C59       1.0  0.44650  0.97162  0.86061  1.0000
  C  Sn22      1.0  0.46255  0.03149  0.82145  1.0000
  C  Sn23      1.0  0.51609  0.05139  0.78000  1.0000
  C   C60       1.0  0.55245  0.01098  0.77866  1.0000
  C  Sn24      1.0  0.53643  0.95109  0.81783  1.0000
  O  Te21      1.0  0.46596  0.87154  0.89883  1.0000
  O  Te22      1.0  0.42545  0.07107  0.82368  1.0000
  O  Te23      1.0  0.53300  0.11109  0.74044  1.0000
  O  Te24      1.0  0.57349  0.91153  0.81560  1.0000
  Mg  Mg11      1.0  0.46768  0.14794  0.76059  1.0000
  Mg  Mg12      1.0  0.53131  0.83467  0.87857  1.0000
  C  Sn25      1.0  0.05548  0.79798  0.61442  1.0000
  C   C61       1.0  0.01265  0.81912  0.65785  1.0000
  C  Sn26      1.0  0.97654  0.77393  0.77987  1.0000
  C  Sn27      1.0  0.98339  0.70617  0.86025  1.0000
  C   C62       1.0  0.02621  0.68506  0.81685  1.0000
  C  Sn28      1.0  0.06234  0.73022  0.69481  1.0000
  O  Te25      1.0  0.09110  0.84403  0.49209  1.0000
  O  Te26      1.0  0.93401  0.79624  0.82113  1.0000
  O  Te27      1.0  0.94773  0.66012  0.98266  1.0000
  O  Te28      1.0  0.10484  0.70794  0.65357  1.0000
  Mg  Mg13      1.0  0.89612  0.71456  0.99569  1.0000
  Mg  Mg14      1.0  0.14277  0.78957  0.47910  1.0000
  C  Sn29      1.0  0.95024  0.49465  0.82863  1.0000
  C   C63       1.0  0.99128  0.53219  0.82328  1.0000
  C  Sn30      1.0  0.04152  0.53063  0.76829  1.0000
  C  Sn31      1.0  0.05095  0.49076  0.71748  1.0000
  C   C64       1.0  0.00992  0.45326  0.72281  1.0000
  C  Sn32      1.0  0.95966  0.45478  0.77782  1.0000
  O  Te29      1.0  0.90032  0.49697  0.88403  1.0000
  O  Te30      1.0  0.08193  0.56857  0.76411  1.0000
  O  Te31      1.0  0.10091  0.48847  0.66206  1.0000
  O  Te32      1.0  0.91927  0.41688  0.78199  1.0000
  Mg  Mg15      1.0  0.14316  0.54894  0.67886  1.0000
  Mg  Mg16      1.0  0.85802  0.43650  0.86713  1.0000
  C  Sn33      1.0  0.73882  0.92348  0.42520  1.0000
  C   C65       1.0  0.70320  0.96803  0.30316  1.0000
  C  Sn34      1.0  0.72110  0.01932  0.14357  1.0000
  C  Sn35      1.0  0.77574  0.02620  0.10510  1.0000
  C   C66       1.0  0.81133  0.98166  0.22709  1.0000
  C  Sn36      1.0  0.79347  0.93036  0.38674  1.0000
  O  Te33      1.0  0.72004  0.87257  0.58391  1.0000
  O  Te34      1.0  0.68473  0.06326  0.02365  1.0000
  O  Te35      1.0  0.79128  0.83864  0.94624  1.0000
  O  Te36      1.0  0.82979  0.88643  0.50660  1.0000
  Mg  Mg17      1.0  0.72634  0.88601  0.82529  1.0000
  Mg  Mg18      1.0  0.78601  0.82513  0.70496  1.0000
  C  Sn37      1.0  0.97513  0.76886  0.18734  1.0000
  C   C67       1.0  0.00518  0.79013  0.26173  1.0000
  C  Sn38      1.0  0.05421  0.76224  0.33012  1.0000
  C  Sn39      1.0  0.07362  0.71206  0.32394  1.0000
  C   C68       1.0  0.04358  0.69083  0.24956  1.0000
  C  Sn40      1.0  0.99454  0.71869  0.18116  1.0000
  O  Te37      1.0  0.92623  0.79745  0.11975  1.0000
  O  Te38      1.0  0.08353  0.78430  0.40388  1.0000
  O  Te39      1.0  0.12256  0.68348  0.39161  1.0000
  O  Te40      1.0  0.96524  0.69666  0.10741  1.0000
  Mg  Mg19      1.0  0.14787  0.73016  0.47865  1.0000
  Mg  Mg20      1.0  0.90091  0.75079  0.03252  1.0000
  C  Sn41      1.0  0.25784  0.09327  0.61058  1.0000
  C   C69       1.0  0.29183  0.04958  0.74022  1.0000
  C  Sn42      1.0  0.27481  0.98629  0.86951  1.0000
  C  Sn43      1.0  0.22275  0.96621  0.86919  1.0000
  C   C70       1.0  0.18880  0.00987  0.73960  1.0000
  C  Sn44      1.0  0.20578  0.07319  0.61026  1.0000
  O  Te41      1.0  0.27568  0.15631  0.48259  1.0000
  O  Te42      1.0  0.30950  0.94350  0.99779  1.0000
  O  Te43      1.0  0.20492  0.90311  0.99733  1.0000
  O  Te44      1.0  0.17112  0.11596  0.48203  1.0000
  Mg  Mg21      1.0  0.27007  0.10118  0.14432  1.0000
  Mg  Mg22      1.0  0.21374  0.19679  0.33540  1.0000
  C  Sn45      1.0  0.94276  0.26192  0.62913  1.0000
  C   C71       1.0  0.98014  0.21205  0.70950  1.0000
  C  Sn46      1.0  0.01353  0.20565  0.82785  1.0000
  C  Sn47      1.0  0.00947  0.24999  0.86678  1.0000
  C   C72       1.0  0.97210  0.29982  0.78646  1.0000
  C  Sn48      1.0  0.93869  0.30626  0.66806  1.0000
  O  Te45      1.0  0.90978  0.26740  0.51123  1.0000
  O  Te46      1.0  0.05060  0.15541  0.90651  1.0000
  O  Te47      1.0  0.04249  0.24448  0.98478  1.0000
  O  Te48      1.0  0.90164  0.35645  0.58945  1.0000
  Mg  Mg23      1.0  0.08988  0.40655  0.05831  1.0000
  Mg  Mg24      1.0  0.86554  0.34387  0.43770  1.0000
