data_image0
_chemical_formula_structural       C32N4H4C16H24N4C16H8C8O16C16B8C8H8C32N4H4C16H24N4C16H8C8O16C16B8C8H8SnCSn2CSnTe4Mg2SnCSn2CSnTe4Mg2SnCSn2CSnTe4Mg2SnCSn2CSnTe4Mg2SnCSn2CSnTe4Mg2SnCSn2CSnTe4Mg2SnCSn2CSnTe4Mg2SnCSn2CSnTe4Mg2SnCSn2CSnTe4Mg2SnCSn2CSnTe4Mg2SnCSn2CSnTe4Mg2SnCSn2CSnTe4Mg2SnCSn2CSnTe4Mg2SnCSn2CSnTe4Mg2SnCSn2CSnTe4Mg2SnCSn2CSnTe4Mg2
_chemical_formula_sum              "C224 N16 H88 O32 B16 Sn64 Te64 Mg32"
_cell_length_a       42.9323
_cell_length_b       42.1778
_cell_length_c       13.8371
_cell_angle_alpha    91.3247
_cell_angle_beta     90.8637
_cell_angle_gamma    90.0145

_symmetry_space_group_name_H-M    'P1'
_space_group_IT_number       1

loop_
  _space_group_symop_operation_xyz
  'x, y, z'

loop_
  _atom_site_type_symbol
  _atom_site_label
  _atom_site_symmetry_multiplicity
  _atom_site_fract_x
  _atom_site_fract_y
  _atom_site_fract_z
  _atom_site_occupancy
  C   C1        1.0  0.28996  0.29004  0.89807  1.0000
  C   C2        1.0  0.79782  0.78453  0.90125  1.0000
  C   C3        1.0  0.71493  0.70330  0.89636  1.0000
  C   C4        1.0  0.20800  0.20757  0.89815  1.0000
  C   C5        1.0  0.70576  0.28707  0.10644  1.0000
  C   C6        1.0  0.21460  0.79518  0.10318  1.0000
  C   C7        1.0  0.29634  0.71271  0.10591  1.0000
  C   C8        1.0  0.79083  0.20801  0.10635  1.0000
  C   C9        1.0  0.70282  0.71750  0.09779  1.0000
  C   C10       1.0  0.20635  0.21208  0.10589  1.0000
  C   C11       1.0  0.28906  0.29362  0.10599  1.0000
  C   C12       1.0  0.78566  0.79886  0.10256  1.0000
  C   C13       1.0  0.29829  0.71365  0.89787  1.0000
  C   C14       1.0  0.79528  0.21249  0.89893  1.0000
  C   C15       1.0  0.71082  0.29200  0.89933  1.0000
  C   C16       1.0  0.21436  0.79379  0.89480  1.0000
  C   C17       1.0  0.26894  0.27044  0.94949  1.0000
  C   C18       1.0  0.77398  0.76769  0.95011  1.0000
  C   C19       1.0  0.73275  0.72723  0.94754  1.0000
  C   C20       1.0  0.22809  0.22948  0.94955  1.0000
  C   C21       1.0  0.72825  0.26829  0.05507  1.0000
  C   C22       1.0  0.23570  0.77478  0.05225  1.0000
  C   C23       1.0  0.27659  0.73397  0.05381  1.0000
  C   C24       1.0  0.77054  0.22893  0.05484  1.0000
  C   C25       1.0  0.72643  0.73461  0.04856  1.0000
  C   C26       1.0  0.22736  0.23164  0.05434  1.0000
  C   C27       1.0  0.26843  0.27234  0.05434  1.0000
  C   C28       1.0  0.76764  0.77513  0.05108  1.0000
  C   C29       1.0  0.27734  0.73420  0.94890  1.0000
  C   C30       1.0  0.77307  0.23147  0.95063  1.0000
  C   C31       1.0  0.73092  0.27095  0.95092  1.0000
  C   C32       1.0  0.23587  0.77441  0.94728  1.0000
  N   N1        1.0  0.54989  0.49944  0.99376  1.0000
  N   N2        1.0  0.04994  0.99886  0.00648  1.0000
  N   N3        1.0  0.45177  0.49942  0.00070  1.0000
  N   N4        1.0  0.95183  0.99987  0.00339  1.0000
  H   H1        1.0  0.52611  0.50028  0.99511  1.0000
  H   H2        1.0  0.02614  0.99816  0.00643  1.0000
  H   H3        1.0  0.47557  0.49856  0.00012  1.0000
  H   H4        1.0  0.97564  0.00052  0.00313  1.0000
  C   C33       1.0  0.56769  0.47221  0.99500  1.0000
  C   C34       1.0  0.06865  0.97228  0.00488  1.0000
  C   C35       1.0  0.43396  0.52663  0.00118  1.0000
  C   C36       1.0  0.93314  0.02648  0.00413  1.0000
  C   C37       1.0  0.43288  0.47296  0.00144  1.0000
  C   C38       1.0  0.93382  0.97280  0.00347  1.0000
  C   C39       1.0  0.56879  0.52588  0.99241  1.0000
  C   C40       1.0  0.06794  0.02593  0.00694  1.0000
  C   C41       1.0  0.59967  0.48209  0.99358  1.0000
  C   C42       1.0  0.10030  0.98321  0.00481  1.0000
  C   C43       1.0  0.40197  0.51671  0.00195  1.0000
  C   C44       1.0  0.90148  0.01560  0.00469  1.0000
  C   C45       1.0  0.40132  0.48409  0.00215  1.0000
  C   C46       1.0  0.90189  0.98296  0.00448  1.0000
  C   C47       1.0  0.60034  0.51469  0.99214  1.0000
  C   C48       1.0  0.09987  0.01584  0.00629  1.0000
  H   H5        1.0  0.29041  0.28905  0.81972  1.0000
  H   H6        1.0  0.80286  0.77923  0.82582  1.0000
  H   H7        1.0  0.71949  0.69750  0.82090  1.0000
  H   H8        1.0  0.20840  0.20572  0.81984  1.0000
  H   H9        1.0  0.70346  0.28515  0.18423  1.0000
  H   H10       1.0  0.21494  0.79660  0.18161  1.0000
  H   H11       1.0  0.29619  0.71247  0.18432  1.0000
  H   H12       1.0  0.78904  0.20574  0.18414  1.0000
  H   H13       1.0  0.69804  0.72266  0.17345  1.0000
  H   H14       1.0  0.20529  0.21360  0.18410  1.0000
  H   H15       1.0  0.28886  0.29531  0.18430  1.0000
  H   H16       1.0  0.78088  0.80487  0.17771  1.0000
  H   H17       1.0  0.29992  0.71431  0.81974  1.0000
  H   H18       1.0  0.79727  0.21406  0.82094  1.0000
  H   H19       1.0  0.71272  0.29434  0.82156  1.0000
  H   H20       1.0  0.21466  0.79400  0.81639  1.0000
  H   H21       1.0  0.61927  0.46595  0.99411  1.0000
  H   H22       1.0  0.12042  0.96776  0.00343  1.0000
  H   H23       1.0  0.38234  0.53282  0.00215  1.0000
  H   H24       1.0  0.88136  0.03108  0.00550  1.0000
  H   H25       1.0  0.38110  0.46874  0.00284  1.0000
  H   H26       1.0  0.88217  0.96696  0.00528  1.0000
  H   H27       1.0  0.62058  0.52997  0.99138  1.0000
  H   H28       1.0  0.11959  0.03186  0.00663  1.0000
  N   N5        1.0  0.49987  0.45139  0.00039  1.0000
  N   N6        1.0  0.00154  0.95129  0.00134  1.0000
  N   N7        1.0  0.50183  0.54749  0.99756  1.0000
  N   N8        1.0  0.00031  0.04741  0.00782  1.0000
  C   C49       1.0  0.52519  0.43151  0.00057  1.0000
  C   C50       1.0  0.02676  0.93122  0.00054  1.0000
  C   C51       1.0  0.47648  0.56737  0.99826  1.0000
  C   C52       1.0  0.97508  0.06745  0.00663  1.0000
  C   C53       1.0  0.47444  0.43159  0.00163  1.0000
  C   C54       1.0  0.97600  0.93166  0.00185  1.0000
  C   C55       1.0  0.52725  0.56730  0.99643  1.0000
  C   C56       1.0  0.02580  0.06707  0.00822  1.0000
  C   C57       1.0  0.51560  0.39830  0.00217  1.0000
  C   C58       1.0  0.01698  0.89808  0.00048  1.0000
  C   C59       1.0  0.48608  0.60057  0.99762  1.0000
  C   C60       1.0  0.98481  0.10060  0.00663  1.0000
  C   C61       1.0  0.48388  0.39836  0.00256  1.0000
  C   C62       1.0  0.98528  0.89835  0.00128  1.0000
  C   C63       1.0  0.51777  0.60053  0.99623  1.0000
  C   C64       1.0  0.01653  0.10037  0.00757  1.0000
  H   H29       1.0  0.53118  0.37810  0.00258  1.0000
  H   H30       1.0  0.03243  0.87777  0.00054  1.0000
  H   H31       1.0  0.47053  0.62079  0.99810  1.0000
  H   H32       1.0  0.96937  0.12088  0.00555  1.0000
  H   H33       1.0  0.46820  0.37825  0.00333  1.0000
  H   H34       1.0  0.96948  0.87833  0.00188  1.0000
  H   H35       1.0  0.53336  0.62071  0.99477  1.0000
  H   H36       1.0  0.03229  0.12041  0.00738  1.0000
  C   C65       1.0  0.55667  0.44092  0.99834  1.0000
  C   C66       1.0  0.05823  0.94074  0.00201  1.0000
  C   C67       1.0  0.44500  0.55794  0.00020  1.0000
  C   C68       1.0  0.94362  0.05797  0.00488  1.0000
  C   C69       1.0  0.44307  0.44136  0.00183  1.0000
  C   C70       1.0  0.94462  0.94140  0.00273  1.0000
  C   C71       1.0  0.55865  0.55753  0.99398  1.0000
  C   C72       1.0  0.05715  0.05730  0.00765  1.0000
  O   O1        1.0  0.16723  0.16663  0.91897  1.0000
  O   O2        1.0  0.67223  0.66437  0.91414  1.0000
  O   O3        1.0  0.83755  0.82668  0.92282  1.0000
  O   O4        1.0  0.33146  0.33059  0.91850  1.0000
  O   O5        1.0  0.83403  0.16956  0.08614  1.0000
  O   O6        1.0  0.33582  0.67016  0.08608  1.0000
  O   O7        1.0  0.17170  0.83359  0.08179  1.0000
  O   O8        1.0  0.66461  0.32793  0.08569  1.0000
  O   O9        1.0  0.82947  0.83672  0.08581  1.0000
  O   O10       1.0  0.33106  0.33326  0.08595  1.0000
  O   O11       1.0  0.16588  0.17047  0.08634  1.0000
  O   O12       1.0  0.66349  0.67478  0.07662  1.0000
  O   O13       1.0  0.17053  0.83178  0.91422  1.0000
  O   O14       1.0  0.66767  0.33047  0.91890  1.0000
  O   O15       1.0  0.83617  0.17152  0.91908  1.0000
  O   O16       1.0  0.33767  0.67137  0.91887  1.0000
  C   C73       1.0  0.30921  0.30978  0.95088  1.0000
  C   C74       1.0  0.81402  0.80706  0.95352  1.0000
  C   C75       1.0  0.69246  0.68805  0.94651  1.0000
  C   C76       1.0  0.18859  0.18931  0.95095  1.0000
  C   C77       1.0  0.68743  0.30704  0.05381  1.0000
  C   C78       1.0  0.19429  0.81270  0.04967  1.0000
  C   C79       1.0  0.31512  0.69289  0.05349  1.0000
  C   C80       1.0  0.81192  0.19091  0.05377  1.0000
  C   C81       1.0  0.68680  0.69471  0.04593  1.0000
  C   C82       1.0  0.18775  0.19163  0.05347  1.0000
  C   C83       1.0  0.30888  0.31148  0.05349  1.0000
  C   C84       1.0  0.80859  0.81366  0.05308  1.0000
  C   C85       1.0  0.31620  0.69353  0.95098  1.0000
  C   C86       1.0  0.81367  0.19261  0.95149  1.0000
  C   C87       1.0  0.68963  0.30904  0.95168  1.0000
  C   C88       1.0  0.19385  0.81179  0.94694  1.0000
  B   B1        1.0  0.34960  0.65724  0.00264  1.0000
  B   B2        1.0  0.84840  0.15747  0.00256  1.0000
  B   B3        1.0  0.65275  0.34218  0.00202  1.0000
  B   B4        1.0  0.15728  0.84520  0.99801  1.0000
  B   B5        1.0  0.65477  0.65627  0.99499  1.0000
  B   B6        1.0  0.15351  0.15527  0.00307  1.0000
  B   B7        1.0  0.34475  0.34485  0.00221  1.0000
  B   B8        1.0  0.84692  0.84462  0.00469  1.0000
  C   C89       1.0  0.24873  0.24911  0.90087  1.0000
  C   C90       1.0  0.75636  0.74402  0.90188  1.0000
  C   C91       1.0  0.74815  0.24730  0.10338  1.0000
  C   C92       1.0  0.25619  0.75475  0.10179  1.0000
  C   C93       1.0  0.74394  0.75841  0.09667  1.0000
  C   C94       1.0  0.24754  0.25298  0.10293  1.0000
  C   C95       1.0  0.25716  0.75457  0.89937  1.0000
  C   C96       1.0  0.75324  0.25252  0.90237  1.0000
  H   H37       1.0  0.24909  0.24768  0.82231  1.0000
  H   H38       1.0  0.76138  0.73838  0.82648  1.0000
  H   H39       1.0  0.74614  0.24511  0.18133  1.0000
  H   H40       1.0  0.25605  0.75520  0.18044  1.0000
  H   H41       1.0  0.73896  0.76405  0.17210  1.0000
  H   H42       1.0  0.24706  0.25446  0.18145  1.0000
  H   H43       1.0  0.25789  0.75476  0.82080  1.0000
  H   H44       1.0  0.75531  0.25471  0.82444  1.0000
  C   C97       1.0  0.29048  0.29122  0.39782  1.0000
  C   C98       1.0  0.79681  0.78292  0.39431  1.0000
  C   C99       1.0  0.71360  0.70188  0.39517  1.0000
  C   C100      1.0  0.20634  0.21118  0.39526  1.0000
  C   C101      1.0  0.70045  0.28297  0.59739  1.0000
  C   C102      1.0  0.20160  0.78573  0.60331  1.0000
  C   C103      1.0  0.28517  0.70515  0.60829  1.0000
  C   C104      1.0  0.78317  0.20147  0.59905  1.0000
  C   C105      1.0  0.70579  0.71329  0.60008  1.0000
  C   C106      1.0  0.21042  0.20877  0.60269  1.0000
  C   C107      1.0  0.29503  0.28852  0.60525  1.0000
  C   C108      1.0  0.78811  0.79495  0.59876  1.0000
  C   C109      1.0  0.28771  0.70609  0.40034  1.0000
  C   C110      1.0  0.79855  0.21693  0.40308  1.0000
  C   C111      1.0  0.71618  0.29868  0.40175  1.0000
  C   C112      1.0  0.20472  0.78722  0.39553  1.0000
  C   C113      1.0  0.27073  0.27015  0.44852  1.0000
  C   C114      1.0  0.77409  0.76522  0.44548  1.0000
  C   C115      1.0  0.73279  0.72481  0.44590  1.0000
  C   C116      1.0  0.22876  0.23040  0.44719  1.0000
  C   C117      1.0  0.72526  0.26654  0.54957  1.0000
  C   C118      1.0  0.22270  0.76516  0.55281  1.0000
  C   C119      1.0  0.26420  0.72497  0.55533  1.0000
  C   C120      1.0  0.76641  0.22598  0.55039  1.0000
  C   C121      1.0  0.72861  0.73077  0.54878  1.0000
  C   C122      1.0  0.23086  0.22917  0.55182  1.0000
  C   C123      1.0  0.27295  0.26886  0.55315  1.0000
  C   C124      1.0  0.76973  0.77132  0.54825  1.0000
  C   C125      1.0  0.26558  0.72553  0.45056  1.0000
  C   C126      1.0  0.77437  0.23398  0.45212  1.0000
  C   C127      1.0  0.73324  0.27456  0.45130  1.0000
  C   C128      1.0  0.22417  0.76581  0.44806  1.0000
  N   N9        1.0  0.54851  0.49977  0.50388  1.0000
  N   N10       1.0  0.04868  0.00085  0.49607  1.0000
  N   N11       1.0  0.45052  0.50128  0.50953  1.0000
  N   N12       1.0  0.95051  0.99983  0.49353  1.0000
  H   H45       1.0  0.52473  0.49924  0.50621  1.0000
  H   H46       1.0  0.02487  0.00096  0.49565  1.0000
  H   H47       1.0  0.47432  0.50160  0.50984  1.0000
  H   H48       1.0  0.97433  0.99973  0.49430  1.0000
  C   C129      1.0  0.56702  0.47305  0.50273  1.0000
  C   C130      1.0  0.06705  0.97403  0.49740  1.0000
  C   C131      1.0  0.43214  0.52810  0.51137  1.0000
  C   C132      1.0  0.93214  0.02665  0.49375  1.0000
  C   C133      1.0  0.43219  0.47441  0.50882  1.0000
  C   C134      1.0  0.93216  0.97298  0.49370  1.0000
  C   C135      1.0  0.56671  0.52673  0.50411  1.0000
  C   C136      1.0  0.06702  0.02771  0.49583  1.0000
  C   C137      1.0  0.59874  0.48376  0.50235  1.0000
  C   C138      1.0  0.09884  0.98460  0.49776  1.0000
  C   C139      1.0  0.40037  0.51758  0.51203  1.0000
  C   C140      1.0  0.90036  0.01607  0.49362  1.0000
  C   C141      1.0  0.40040  0.48494  0.51060  1.0000
  C   C142      1.0  0.90036  0.98345  0.49348  1.0000
  C   C143      1.0  0.59855  0.51638  0.50260  1.0000
  C   C144      1.0  0.09881  0.01721  0.49672  1.0000
  H   H49       1.0  0.28923  0.29241  0.31964  1.0000
  H   H50       1.0  0.80048  0.77849  0.31765  1.0000
  H   H51       1.0  0.71657  0.69725  0.31828  1.0000
  H   H52       1.0  0.20459  0.21185  0.31710  1.0000
  H   H53       1.0  0.69416  0.27746  0.67093  1.0000
  H   H54       1.0  0.19984  0.78503  0.68142  1.0000
  H   H55       1.0  0.28387  0.70394  0.68640  1.0000
  H   H56       1.0  0.77713  0.19500  0.67204  1.0000
  H   H57       1.0  0.70248  0.71765  0.67699  1.0000
  H   H58       1.0  0.21174  0.20769  0.68090  1.0000
  H   H59       1.0  0.29708  0.28757  0.68337  1.0000
  H   H60       1.0  0.78493  0.79973  0.67557  1.0000
  H   H61       1.0  0.28849  0.70572  0.32195  1.0000
  H   H62       1.0  0.80479  0.22278  0.32978  1.0000
  H   H63       1.0  0.72240  0.30523  0.32897  1.0000
  H   H64       1.0  0.20521  0.78762  0.31717  1.0000
  H   H65       1.0  0.61880  0.46824  0.50257  1.0000
  H   H66       1.0  0.11878  0.96890  0.49900  1.0000
  H   H67       1.0  0.38045  0.53330  0.51392  1.0000
  H   H68       1.0  0.88042  0.03178  0.49371  1.0000
  H   H69       1.0  0.38049  0.46920  0.51133  1.0000
  H   H70       1.0  0.88044  0.96770  0.49371  1.0000
  H   H71       1.0  0.61839  0.53223  0.50257  1.0000
  H   H72       1.0  0.11875  0.03293  0.49665  1.0000
  N   N13       1.0  0.49977  0.45244  0.50932  1.0000
  N   N14       1.0  0.99963  0.95235  0.49969  1.0000
  N   N15       1.0  0.49938  0.54873  0.51193  1.0000
  N   N16       1.0  0.99951  0.04836  0.49198  1.0000
  C   C145      1.0  0.52485  0.43224  0.50592  1.0000
  C   C146      1.0  0.02516  0.93272  0.50012  1.0000
  C   C147      1.0  0.47428  0.56892  0.51441  1.0000
  C   C148      1.0  0.97397  0.06800  0.49325  1.0000
  C   C149      1.0  0.47408  0.43298  0.50742  1.0000
  C   C150      1.0  0.97439  0.93228  0.49904  1.0000
  C   C151      1.0  0.52499  0.56824  0.51119  1.0000
  C   C152      1.0  0.02473  0.06843  0.49245  1.0000
  C   C153      1.0  0.51481  0.39916  0.50144  1.0000
  C   C154      1.0  0.01587  0.89940  0.49990  1.0000
  C   C155      1.0  0.48421  0.60203  0.51599  1.0000
  C   C156      1.0  0.98324  0.10131  0.49443  1.0000
  C   C157      1.0  0.48313  0.39963  0.50253  1.0000
  C   C158      1.0  0.98417  0.89914  0.49929  1.0000
  C   C159      1.0  0.51590  0.60160  0.51396  1.0000
  C   C160      1.0  0.01494  0.10158  0.49386  1.0000
  H   H73       1.0  0.53005  0.37875  0.49674  1.0000
  H   H74       1.0  0.03161  0.87932  0.49941  1.0000
  H   H75       1.0  0.46887  0.62242  0.51802  1.0000
  H   H76       1.0  0.96748  0.12137  0.49598  1.0000
  H   H77       1.0  0.46728  0.37964  0.49920  1.0000
  H   H78       1.0  0.96869  0.87883  0.49822  1.0000
  H   H79       1.0  0.53179  0.62155  0.51403  1.0000
  H   H80       1.0  0.03041  0.12189  0.49508  1.0000
  C   C161      1.0  0.55641  0.44155  0.50371  1.0000
  C   C162      1.0  0.05653  0.94257  0.49909  1.0000
  C   C163      1.0  0.44278  0.55956  0.51342  1.0000
  C   C164      1.0  0.94262  0.05815  0.49417  1.0000
  C   C165      1.0  0.44273  0.44291  0.50769  1.0000
  C   C166      1.0  0.94288  0.94160  0.49608  1.0000
  C   C167      1.0  0.55625  0.55822  0.50694  1.0000
  C   C168      1.0  0.05627  0.05911  0.49402  1.0000
  O   O17       1.0  0.16421  0.17162  0.41418  1.0000
  O   O18       1.0  0.67039  0.66351  0.41553  1.0000
  O   O19       1.0  0.83638  0.82549  0.41337  1.0000
  O   O20       1.0  0.33146  0.33209  0.41886  1.0000
  O   O21       1.0  0.82610  0.16251  0.58038  1.0000
  O   O22       1.0  0.32962  0.66798  0.59085  1.0000
  O   O23       1.0  0.16255  0.82834  0.58121  1.0000
  O   O24       1.0  0.66051  0.32460  0.57681  1.0000
  O   O25       1.0  0.82971  0.83486  0.57721  1.0000
  O   O26       1.0  0.33579  0.32970  0.58582  1.0000
  O   O27       1.0  0.16753  0.16966  0.58134  1.0000
  O   O28       1.0  0.66546  0.67155  0.58110  1.0000
  O   O29       1.0  0.16559  0.83010  0.41424  1.0000
  O   O30       1.0  0.67226  0.33658  0.41891  1.0000
  O   O31       1.0  0.83682  0.17333  0.42045  1.0000
  O   O32       1.0  0.33114  0.66820  0.42349  1.0000
  C   C169      1.0  0.31072  0.30973  0.45106  1.0000
  C   C170      1.0  0.81353  0.80529  0.44575  1.0000
  C   C171      1.0  0.69186  0.68622  0.44722  1.0000
  C   C172      1.0  0.18741  0.19218  0.44722  1.0000
  C   C173      1.0  0.68491  0.30559  0.54675  1.0000
  C   C174      1.0  0.18403  0.80605  0.54981  1.0000
  C   C175      1.0  0.30657  0.68802  0.55704  1.0000
  C   C176      1.0  0.80632  0.18634  0.54942  1.0000
  C   C177      1.0  0.68842  0.69150  0.54840  1.0000
  C   C178      1.0  0.18944  0.19100  0.54964  1.0000
  C   C179      1.0  0.31318  0.30835  0.55338  1.0000
  C   C180      1.0  0.80932  0.81116  0.54628  1.0000
  C   C181      1.0  0.30766  0.68832  0.45447  1.0000
  C   C182      1.0  0.81340  0.19345  0.45218  1.0000
  C   C183      1.0  0.69240  0.31315  0.45021  1.0000
  C   C184      1.0  0.18575  0.80698  0.44742  1.0000
  B   B9        1.0  0.34430  0.65569  0.50793  1.0000
  B   B10       1.0  0.84462  0.15478  0.50035  1.0000
  B   B11       1.0  0.65296  0.34354  0.49769  1.0000
  B   B12       1.0  0.15147  0.84297  0.49730  1.0000
  B   B13       1.0  0.65449  0.65462  0.49890  1.0000
  B   B14       1.0  0.15251  0.15762  0.49732  1.0000
  B   B15       1.0  0.34669  0.34422  0.50231  1.0000
  B   B16       1.0  0.84623  0.84340  0.49498  1.0000
  C   C185      1.0  0.24888  0.25076  0.39930  1.0000
  C   C186      1.0  0.75560  0.74207  0.39792  1.0000
  C   C187      1.0  0.74214  0.24259  0.59576  1.0000
  C   C188      1.0  0.24241  0.74439  0.60262  1.0000
  C   C189      1.0  0.74719  0.75381  0.59633  1.0000
  C   C190      1.0  0.25299  0.24829  0.60097  1.0000
  C   C191      1.0  0.24521  0.74557  0.40058  1.0000
  C   C192      1.0  0.75767  0.25812  0.40627  1.0000
  H   H81       1.0  0.24734  0.25179  0.32092  1.0000
  H   H82       1.0  0.75904  0.73745  0.32101  1.0000
  H   H83       1.0  0.73601  0.23649  0.66916  1.0000
  H   H84       1.0  0.24094  0.74358  0.68098  1.0000
  H   H85       1.0  0.74379  0.75848  0.67318  1.0000
  H   H86       1.0  0.25464  0.24719  0.67934  1.0000
  H   H87       1.0  0.24606  0.74566  0.32203  1.0000
  H   H88       1.0  0.76366  0.26415  0.33271  1.0000
  C  Sn1       1.0  0.09019  0.10903  0.09746  1.0000
  C   C193      1.0  0.07763  0.09162  0.01901  1.0000
  C  Sn2       1.0  0.09751  0.09854  0.93012  1.0000
  C  Sn3       1.0  0.12566  0.11561  0.91943  1.0000
  C   C194      1.0  0.13821  0.13300  0.99785  1.0000
  C  Sn4       1.0  0.11834  0.12610  0.08677  1.0000
  O  Te1       1.0  0.07478  0.10936  0.18565  1.0000
  O  Te2       1.0  0.08450  0.08098  0.85273  1.0000
  O  Te3       1.0  0.14106  0.11527  0.83114  1.0000
  O  Te4       1.0  0.13134  0.14365  0.16413  1.0000
  Mg  Mg1       1.0  0.11417  0.08787  0.74709  1.0000
  Mg  Mg2       1.0  0.10169  0.13676  0.26981  1.0000
  C  Sn5       1.0  0.61478  0.61243  0.09330  1.0000
  C   C195      1.0  0.63237  0.62264  0.01574  1.0000
  C  Sn6       1.0  0.62834  0.62212  0.92083  1.0000
  C  Sn7       1.0  0.60130  0.60344  0.90305  1.0000
  C   C196      1.0  0.58373  0.59324  0.98058  1.0000
  C  Sn8       1.0  0.58774  0.59374  0.07552  1.0000
  O  Te5       1.0  0.62410  0.62081  0.18759  1.0000
  O  Te6       1.0  0.64631  0.63260  0.84448  1.0000
  O  Te7       1.0  0.59199  0.59505  0.80866  1.0000
  O  Te8       1.0  0.56979  0.58328  0.15184  1.0000
  Mg  Mg3       1.0  0.62408  0.61503  0.72881  1.0000
  Mg  Mg4       1.0  0.59198  0.60084  0.26753  1.0000
  C  Sn9       1.0  0.88512  0.89293  0.10006  1.0000
  C   C197      1.0  0.86950  0.87881  0.02083  1.0000
  C  Sn10      1.0  0.88623  0.88885  0.92786  1.0000
  C  Sn11      1.0  0.91431  0.90574  0.91379  1.0000
  C   C198      1.0  0.92992  0.91983  0.99298  1.0000
  C  Sn12      1.0  0.91320  0.90981  0.08598  1.0000
  O  Te9       1.0  0.87282  0.89017  0.19236  1.0000
  O  Te10      1.0  0.87020  0.87455  0.84978  1.0000
  O  Te11      1.0  0.92660  0.90848  0.82139  1.0000
  O  Te12      1.0  0.92922  0.92410  0.16404  1.0000
  Mg  Mg5       1.0  0.89627  0.88489  0.73798  1.0000
  Mg  Mg6       1.0  0.90317  0.91375  0.27587  1.0000
  C  Sn13      1.0  0.39324  0.37972  0.90673  1.0000
  C   C199      1.0  0.37936  0.36597  0.98629  1.0000
  C  Sn14      1.0  0.37817  0.37211  0.07859  1.0000
  C  Sn15      1.0  0.39608  0.40019  0.09165  1.0000
  C   C200      1.0  0.40994  0.41393  0.01212  1.0000
  C  Sn16      1.0  0.41115  0.40780  0.91979  1.0000
  O  Te13      1.0  0.38926  0.36559  0.81510  1.0000
  O  Te14      1.0  0.36407  0.35792  0.15703  1.0000
  O  Te15      1.0  0.40005  0.41432  0.18337  1.0000
  O  Te16      1.0  0.42523  0.42198  0.84138  1.0000
  Mg  Mg7       1.0  0.37626  0.38610  0.26762  1.0000
  Mg  Mg8       1.0  0.41304  0.39383  0.73076  1.0000
  C  Sn17      1.0  0.90908  0.10581  0.90858  1.0000
  C   C201      1.0  0.92290  0.09147  0.98851  1.0000
  C  Sn18      1.0  0.90506  0.08757  0.08004  1.0000
  C  Sn19      1.0  0.87768  0.10598  0.09194  1.0000
  C   C202      1.0  0.86387  0.12031  0.01204  1.0000
  C  Sn20      1.0  0.88170  0.12422  0.92047  1.0000
  O  Te17      1.0  0.92245  0.10180  0.81774  1.0000
  O  Te18      1.0  0.91931  0.07301  0.15887  1.0000
  O  Te19      1.0  0.86431  0.10998  0.18288  1.0000
  O  Te20      1.0  0.86747  0.13877  0.84168  1.0000
  Mg  Mg9       1.0  0.89229  0.08544  0.26807  1.0000
  Mg  Mg10      1.0  0.89445  0.12633  0.73245  1.0000
  C  Sn21      1.0  0.38691  0.60972  0.90455  1.0000
  C   C203      1.0  0.37139  0.62277  0.98411  1.0000
  C  Sn22      1.0  0.37789  0.61051  0.07783  1.0000
  C  Sn23      1.0  0.40535  0.59243  0.09233  1.0000
  C   C204      1.0  0.42085  0.57940  0.01280  1.0000
  C  Sn24      1.0  0.41436  0.59165  0.91905  1.0000
  O  Te21      1.0  0.37513  0.61471  0.81150  1.0000
  O  Te22      1.0  0.36196  0.62378  0.15624  1.0000
  O  Te23      1.0  0.41711  0.58745  0.18547  1.0000
  O  Te24      1.0  0.43027  0.57839  0.84067  1.0000
  Mg  Mg11      1.0  0.38718  0.61037  0.26908  1.0000
  Mg  Mg12      1.0  0.40509  0.59180  0.72780  1.0000
  C  Sn25      1.0  0.11093  0.91086  0.08792  1.0000
  C   C205      1.0  0.09221  0.92060  0.01063  1.0000
  C  Sn26      1.0  0.09538  0.91003  0.92499  1.0000
  C  Sn27      1.0  0.11274  0.88153  0.91643  1.0000
  C   C206      1.0  0.13144  0.87180  0.99369  1.0000
  C  Sn28      1.0  0.12829  0.88235  0.07936  1.0000
  O  Te25      1.0  0.11227  0.92938  0.17285  1.0000
  O  Te26      1.0  0.07651  0.92027  0.84871  1.0000
  O  Te27      1.0  0.11139  0.86301  0.83140  1.0000
  O  Te28      1.0  0.14714  0.87213  0.15561  1.0000
  Mg  Mg13      1.0  0.08237  0.88688  0.74771  1.0000
  Mg  Mg14      1.0  0.14129  0.90549  0.25666  1.0000
  C  Sn29      1.0  0.61801  0.39173  0.90762  1.0000
  C   C207      1.0  0.63085  0.37645  0.98742  1.0000
  C  Sn30      1.0  0.61155  0.37098  0.07713  1.0000
  C  Sn31      1.0  0.58368  0.38872  0.08729  1.0000
  C   C208      1.0  0.57085  0.40398  0.00753  1.0000
  C  Sn32      1.0  0.59014  0.40947  0.91778  1.0000
  O  Te29      1.0  0.63284  0.38930  0.81862  1.0000
  O  Te30      1.0  0.62484  0.35551  0.15586  1.0000
  O  Te31      1.0  0.56886  0.39115  0.17638  1.0000
  O  Te32      1.0  0.57687  0.42492  0.83908  1.0000
  Mg  Mg15      1.0  0.59594  0.36586  0.26220  1.0000
  Mg  Mg16      1.0  0.60573  0.41458  0.73270  1.0000
  C  Sn33      1.0  0.09903  0.09852  0.39701  1.0000
  C   C209      1.0  0.08800  0.08158  0.47511  1.0000
  C  Sn34      1.0  0.09474  0.09181  0.56987  1.0000
  C  Sn35      1.0  0.11287  0.11955  0.58693  1.0000
  C   C210      1.0  0.12387  0.13648  0.50887  1.0000
  C  Sn36      1.0  0.11715  0.12626  0.41408  1.0000
  O  Te33      1.0  0.09200  0.08786  0.30289  1.0000
  O  Te34      1.0  0.08347  0.07448  0.64677  1.0000
  O  Te35      1.0  0.11989  0.13020  0.68116  1.0000
  O  Te36      1.0  0.12840  0.14358  0.33720  1.0000
  Mg  Mg17      1.0  0.09924  0.09853  0.76195  1.0000
  Mg  Mg18      1.0  0.11263  0.11956  0.22201  1.0000
  C  Sn37      1.0  0.60419  0.59093  0.40998  1.0000
  C   C211      1.0  0.58931  0.57893  0.49049  1.0000
  C  Sn38      1.0  0.59197  0.59452  0.58040  1.0000
  C  Sn39      1.0  0.60988  0.62272  0.59003  1.0000
  C   C212      1.0  0.62474  0.63471  0.50955  1.0000
  C  Sn40      1.0  0.62209  0.61913  0.41962  1.0000
  O  Te37      1.0  0.60121  0.57495  0.32080  1.0000
  O  Te38      1.0  0.57689  0.58206  0.65984  1.0000
  O  Te39      1.0  0.61285  0.63870  0.67931  1.0000
  O  Te40      1.0  0.63716  0.63158  0.34020  1.0000
  Mg  Mg19      1.0  0.58793  0.61241  0.76617  1.0000
  Mg  Mg20      1.0  0.62612  0.60125  0.23383  1.0000
  C  Sn41      1.0  0.88587  0.89005  0.59362  1.0000
  C   C213      1.0  0.86862  0.87783  0.51480  1.0000
  C  Sn42      1.0  0.87835  0.88283  0.42048  1.0000
  C  Sn43      1.0  0.90591  0.90040  0.40460  1.0000
  C   C214      1.0  0.92314  0.91261  0.48339  1.0000
  C  Sn44      1.0  0.91342  0.90762  0.57774  1.0000
  O  Te41      1.0  0.87571  0.88477  0.68728  1.0000
  O  Te42      1.0  0.86072  0.87038  0.34284  1.0000
  O  Te43      1.0  0.91606  0.90568  0.31084  1.0000
  O  Te44      1.0  0.93104  0.92006  0.65534  1.0000
  Mg  Mg21      1.0  0.88413  0.88392  0.22870  1.0000
  Mg  Mg22      1.0  0.90767  0.90652  0.76951  1.0000
  C  Sn45      1.0  0.39030  0.38499  0.40534  1.0000
  C   C215      1.0  0.37981  0.36724  0.48244  1.0000
  C  Sn46      1.0  0.38665  0.37684  0.57770  1.0000
  C  Sn47      1.0  0.40434  0.40479  0.59629  1.0000
  C   C216      1.0  0.41482  0.42253  0.51922  1.0000
  C  Sn48      1.0  0.40799  0.41294  0.42394  1.0000
  O  Te45      1.0  0.38318  0.37494  0.31070  1.0000
  O  Te46      1.0  0.37591  0.35870  0.65358  1.0000
  O  Te47      1.0  0.41145  0.41483  0.69103  1.0000
  O  Te48      1.0  0.41871  0.43107  0.34808  1.0000
  Mg  Mg23      1.0  0.39160  0.38214  0.77000  1.0000
  Mg  Mg24      1.0  0.40302  0.40765  0.23164  1.0000
  C  Sn49      1.0  0.90835  0.10779  0.40542  1.0000
  C   C217      1.0  0.92135  0.09171  0.48343  1.0000
  C  Sn50      1.0  0.90675  0.09237  0.57300  1.0000
  C  Sn51      1.0  0.87856  0.10944  0.58482  1.0000
  C   C218      1.0  0.86557  0.12551  0.50684  1.0000
  C  Sn52      1.0  0.88015  0.12487  0.41724  1.0000
  O  Te49      1.0  0.92334  0.10681  0.31653  1.0000
  O  Te50      1.0  0.92020  0.07612  0.64994  1.0000
  O  Te51      1.0  0.86357  0.11042  0.67380  1.0000
  O  Te52      1.0  0.86672  0.14111  0.34033  1.0000
  Mg  Mg25      1.0  0.89098  0.08451  0.75685  1.0000
  Mg  Mg26      1.0  0.89590  0.13271  0.23337  1.0000
  C  Sn53      1.0  0.40612  0.60526  0.41480  1.0000
  C   C219      1.0  0.42137  0.59276  0.49532  1.0000
  C  Sn54      1.0  0.40935  0.59755  0.58777  1.0000
  C  Sn55      1.0  0.38150  0.61518  0.59999  1.0000
  C   C220      1.0  0.36627  0.62766  0.51951  1.0000
  C  Sn56      1.0  0.37827  0.62289  0.42702  1.0000
  O  Te53      1.0  0.41855  0.60018  0.32305  1.0000
  O  Te54      1.0  0.42502  0.58483  0.66717  1.0000
  O  Te55      1.0  0.36908  0.62025  0.69184  1.0000
  O  Te56      1.0  0.36262  0.63559  0.34765  1.0000
  Mg  Mg27      1.0  0.39888  0.59816  0.77755  1.0000
  Mg  Mg28      1.0  0.38872  0.62226  0.23724  1.0000
  C  Sn57      1.0  0.10211  0.90512  0.59588  1.0000
  C   C221      1.0  0.08912  0.92076  0.51696  1.0000
  C  Sn58      1.0  0.09315  0.90875  0.42305  1.0000
  C  Sn59      1.0  0.11050  0.88052  0.40769  1.0000
  C   C222      1.0  0.12347  0.86490  0.48657  1.0000
  C  Sn60      1.0  0.11946  0.87689  0.58052  1.0000
  O  Te57      1.0  0.09778  0.91755  0.68913  1.0000
  O  Te58      1.0  0.07996  0.92481  0.34530  1.0000
  O  Te59      1.0  0.11482  0.86810  0.31434  1.0000
  O  Te60      1.0  0.13264  0.86085  0.65823  1.0000
  Mg  Mg29      1.0  0.09230  0.89851  0.23186  1.0000
  Mg  Mg30      1.0  0.12029  0.88711  0.77171  1.0000
  C  Sn61      1.0  0.59832  0.40089  0.40187  1.0000
  C   C223      1.0  0.57865  0.40944  0.47770  1.0000
  C  Sn62      1.0  0.58502  0.39933  0.57138  1.0000
  C  Sn63      1.0  0.61160  0.38031  0.58967  1.0000
  C   C224      1.0  0.63125  0.37178  0.51388  1.0000
  C  Sn64      1.0  0.62490  0.38186  0.42017  1.0000
  O  Te61      1.0  0.59151  0.41126  0.30879  1.0000
  O  Te62      1.0  0.56501  0.40817  0.64601  1.0000
  O  Te63      1.0  0.61840  0.36994  0.68285  1.0000
  O  Te64      1.0  0.64490  0.37304  0.34557  1.0000
  Mg  Mg31      1.0  0.58416  0.38818  0.76051  1.0000
  Mg  Mg32      1.0  0.62578  0.39303  0.23106  1.0000
