data_image0
_chemical_formula_structural       C2NC3NC4H6C5NC3NC4H7CNCNC4H4C2NC3NC4H5C6NC5NC4H10C5NC3NC4H7C5NC3NC4H8C2NC3NC4H5C2Sn2C2HTe2HMgC2Sn2C2HTe2HMgC2Sn2C2HTe2HMgC2Sn2C2HTe2HMgC2Sn2C2HTe2HMgC2Sn2C2HTe2HMg
_chemical_formula_sum              "C108 N16 H64 Sn12 Te12 Mg6"
_cell_length_a       25.3665
_cell_length_b       25.7283
_cell_length_c       10.1048
_cell_angle_alpha    52.6054
_cell_angle_beta     89.5711
_cell_angle_gamma    90.0561

_symmetry_space_group_name_H-M    'P1'
_space_group_IT_number       1

loop_
  _space_group_symop_operation_xyz
  'x, y, z'

loop_
  _atom_site_type_symbol
  _atom_site_label
  _atom_site_symmetry_multiplicity
  _atom_site_fract_x
  _atom_site_fract_y
  _atom_site_fract_z
  _atom_site_occupancy
  C   C1        1.0  0.47026  0.05401  0.16814  1.0000
  C   C2        1.0  0.13423  0.00395  0.25790  1.0000
  N   N1        1.0  0.35708  0.03976  0.16567  1.0000
  C   C3        1.0  0.38819  0.99358  0.19938  1.0000
  C   C4        1.0  0.47696  0.94770  0.22678  1.0000
  C   C5        1.0  0.44549  0.99903  0.19646  1.0000
  N   N2        1.0  0.06022  0.94033  0.25649  1.0000
  C   C6        1.0  0.11272  0.95553  0.24939  1.0000
  C   C7        1.0  0.14546  0.91680  0.22091  1.0000
  C   C8        1.0  0.05907  0.89300  0.23283  1.0000
  C   C9        1.0  0.11185  0.87947  0.20372  1.0000
  H   H1        1.0  0.44558  0.09317  0.14577  1.0000
  H   H2        1.0  0.37248  0.94682  0.23441  1.0000
  H   H3        1.0  0.45792  0.90589  0.24418  1.0000
  H   H4        1.0  0.18777  0.91928  0.21105  1.0000
  H   H5        1.0  0.12150  0.84859  0.16789  1.0000
  H   H6        1.0  0.97332  0.97259  0.72438  1.0000
  C   C10       1.0  0.97968  0.30640  0.23190  1.0000
  C   C11       1.0  0.94135  0.25679  0.32353  1.0000
  C   C12       1.0  0.94673  0.19654  0.35489  1.0000
  C   C13       1.0  0.98833  0.18497  0.28249  1.0000
  C   C14       1.0  0.99150  0.12555  0.29152  1.0000
  N   N3        1.0  0.97309  0.36289  0.22027  1.0000
  C   C15       1.0  0.02596  0.23565  0.18793  1.0000
  C   C16       1.0  0.02249  0.29446  0.16431  1.0000
  C   C17       1.0  0.01429  0.39534  0.20794  1.0000
  N   N4        1.0  0.05293  0.05474  0.27644  1.0000
  C   C18       1.0  0.04217  0.10083  0.30149  1.0000
  C   C19       1.0  0.09184  0.12041  0.32561  1.0000
  C   C20       1.0  0.10665  0.04648  0.27625  1.0000
  C   C21       1.0  0.13081  0.08876  0.30547  1.0000
  H   H7        1.0  0.90829  0.26669  0.37412  1.0000
  H   H8        1.0  0.91901  0.15743  0.43870  1.0000
  H   H9        1.0  0.05792  0.22865  0.12879  1.0000
  H   H10       1.0  0.05180  0.33233  0.08762  1.0000
  H   H11       1.0  0.05438  0.37992  0.20580  1.0000
  H   H12       1.0  0.09670  0.15242  0.36014  1.0000
  H   H13       1.0  0.17292  0.09169  0.31525  1.0000
  C   C22       1.0  0.86243  0.99437  0.73697  1.0000
  N   N5        1.0  0.63764  0.97402  0.75851  1.0000
  C   C23       1.0  0.60971  0.00184  0.80704  1.0000
  N   N6        1.0  0.93702  0.05323  0.75446  1.0000
  C   C24       1.0  0.88449  0.03725  0.76577  1.0000
  C   C25       1.0  0.85271  0.07342  0.80532  1.0000
  C   C26       1.0  0.93881  0.09954  0.78260  1.0000
  C   C27       1.0  0.88656  0.10994  0.82248  1.0000
  H   H14       1.0  0.62778  0.03161  0.84023  1.0000
  H   H15       1.0  0.81038  0.07078  0.81933  1.0000
  H   H16       1.0  0.87797  0.14013  0.86144  1.0000
  H   H17       1.0  0.02302  0.03087  0.26450  1.0000
  C   C28       1.0  0.04818  0.52810  0.76698  1.0000
  C   C29       1.0  0.00820  0.87528  0.70576  1.0000
  N   N7        1.0  0.03337  0.63800  0.77758  1.0000
  C   C30       1.0  0.99319  0.60622  0.77909  1.0000
  C   C31       1.0  0.95262  0.51882  0.77977  1.0000
  C   C32       1.0  0.99866  0.55021  0.77793  1.0000
  N   N8        1.0  0.94485  0.94856  0.70733  1.0000
  C   C33       1.0  0.95750  0.90297  0.68158  1.0000
  C   C34       1.0  0.90880  0.88391  0.64960  1.0000
  C   C35       1.0  0.89080  0.95611  0.70419  1.0000
  C   C36       1.0  0.86854  0.91431  0.66953  1.0000
  H   H18       1.0  0.08340  0.55288  0.76462  1.0000
  H   H19       1.0  0.95240  0.62212  0.77263  1.0000
  H   H20       1.0  0.91439  0.53570  0.78922  1.0000
  H   H21       1.0  0.90561  0.85206  0.61309  1.0000
  H   H22       1.0  0.82682  0.90913  0.65925  1.0000
  C   C37       1.0  0.69883  0.96950  0.26087  1.0000
  C   C38       1.0  0.72957  0.91848  0.39078  1.0000
  C   C39       1.0  0.78403  0.92491  0.38892  1.0000
  C   C40       1.0  0.53151  0.95038  0.23212  1.0000
  C   C41       1.0  0.81052  0.98143  0.25721  1.0000
  C   C42       1.0  0.86922  0.98610  0.25491  1.0000
  N   N9        1.0  0.64442  0.96062  0.26369  1.0000
  C   C43       1.0  0.77946  0.03186  0.12838  1.0000
  C   C44       1.0  0.72495  0.02640  0.12929  1.0000
  C   C45       1.0  0.61326  0.00873  0.21614  1.0000
  C   C46       1.0  0.52486  0.05702  0.17155  1.0000
  C   C47       1.0  0.55630  0.00493  0.20612  1.0000
  N   N10       1.0  0.94370  0.04577  0.27225  1.0000
  C   C48       1.0  0.89127  0.03644  0.25547  1.0000
  C   C49       1.0  0.85896  0.08598  0.24318  1.0000
  C   C50       1.0  0.94509  0.09940  0.27258  1.0000
  C   C51       1.0  0.89221  0.12574  0.24930  1.0000
  H   H23       1.0  0.70965  0.87464  0.49372  1.0000
  H   H24       1.0  0.80708  0.88546  0.49122  1.0000
  H   H25       1.0  0.55600  0.91086  0.25608  1.0000
  H   H26       1.0  0.79891  0.07523  0.02356  1.0000
  H   H27       1.0  0.70230  0.06486  0.02355  1.0000
  H   H28       1.0  0.62857  0.05485  0.18477  1.0000
  H   H29       1.0  0.54402  0.09939  0.15067  1.0000
  H   H30       1.0  0.81652  0.09049  0.22896  1.0000
  H   H31       1.0  0.88187  0.16916  0.23754  1.0000
  H   H32       1.0  0.02013  0.03669  0.75180  1.0000
  C   C52       1.0  0.03348  0.68757  0.26248  1.0000
  C   C53       1.0  0.06717  0.70098  0.34811  1.0000
  C   C54       1.0  0.05937  0.75601  0.34082  1.0000
  C   C55       1.0  0.01932  0.80192  0.24348  1.0000
  C   C56       1.0  0.01299  0.85967  0.24057  1.0000
  N   N11       1.0  0.04249  0.63300  0.26713  1.0000
  C   C57       1.0  0.98685  0.78923  0.15299  1.0000
  C   C58       1.0  0.99338  0.73286  0.16486  1.0000
  C   C59       1.0  0.00216  0.60382  0.26053  1.0000
  N   N12       1.0  0.95036  0.93123  0.25222  1.0000
  C   C60       1.0  0.96185  0.87856  0.25267  1.0000
  C   C61       1.0  0.91244  0.84955  0.26231  1.0000
  C   C62       1.0  0.89653  0.93826  0.25597  1.0000
  C   C63       1.0  0.87297  0.88667  0.26015  1.0000
  H   H33       1.0  0.09852  0.66694  0.42422  1.0000
  H   H34       1.0  0.08448  0.76456  0.41258  1.0000
  H   H35       1.0  0.95750  0.82498  0.06808  1.0000
  H   H36       1.0  0.96917  0.72472  0.09054  1.0000
  H   H37       1.0  0.96166  0.61690  0.26967  1.0000
  H   H38       1.0  0.90780  0.80595  0.27061  1.0000
  H   H39       1.0  0.83105  0.87837  0.26380  1.0000
  C   C64       1.0  0.29989  0.03239  0.74788  1.0000
  C   C65       1.0  0.27135  0.08001  0.60494  1.0000
  C   C66       1.0  0.21704  0.07409  0.59959  1.0000
  C   C67       1.0  0.18866  0.02096  0.73609  1.0000
  C   C68       1.0  0.13009  0.01624  0.73286  1.0000
  N   N13       1.0  0.35450  0.03984  0.74952  1.0000
  C   C69       1.0  0.21758  0.97378  0.87821  1.0000
  C   C70       1.0  0.27188  0.97948  0.88548  1.0000
  C   C71       1.0  0.38416  0.99053  0.79783  1.0000
  N   N14       1.0  0.05604  0.95613  0.72031  1.0000
  C   C72       1.0  0.10803  0.96255  0.74779  1.0000
  C   C73       1.0  0.13874  0.90708  0.78857  1.0000
  C   C74       1.0  0.05370  0.89880  0.73728  1.0000
  C   C75       1.0  0.10461  0.86606  0.78802  1.0000
  H   H40       1.0  0.29293  0.12050  0.49759  1.0000
  H   H41       1.0  0.19567  0.11139  0.48820  1.0000
  H   H42       1.0  0.19637  0.93291  0.98570  1.0000
  H   H43       1.0  0.29296  0.94436  0.00004  1.0000
  H   H44       1.0  0.36725  0.94503  0.82833  1.0000
  H   H45       1.0  0.18021  0.89984  0.81611  1.0000
  H   H46       1.0  0.11315  0.81844  0.82140  1.0000
  H   H47       1.0  0.97959  0.95871  0.25275  1.0000
  C   C76       1.0  0.95572  0.46754  0.76953  1.0000
  C   C77       1.0  0.98419  0.13633  0.76062  1.0000
  N   N15       1.0  0.96865  0.36457  0.73596  1.0000
  C   C78       1.0  0.00934  0.39289  0.74298  1.0000
  C   C79       1.0  0.05111  0.47704  0.75568  1.0000
  C   C80       1.0  0.00507  0.44624  0.75556  1.0000
  N   N16       1.0  0.04782  0.06906  0.73570  1.0000
  C   C81       1.0  0.03475  0.12293  0.72819  1.0000
  C   C82       1.0  0.08275  0.15874  0.69183  1.0000
  C   C83       1.0  0.10157  0.06651  0.71774  1.0000
  C   C84       1.0  0.12326  0.12371  0.69033  1.0000
  H   H48       1.0  0.92053  0.44302  0.77140  1.0000
  H   H49       1.0  0.04966  0.37821  0.73943  1.0000
  H   H50       1.0  0.08951  0.46118  0.74412  1.0000
  H   H51       1.0  0.08550  0.20524  0.67000  1.0000
  H   H52       1.0  0.16463  0.13634  0.67035  1.0000
  C   C85       1.0  0.51360  0.94008  0.81370  1.0000
  C   C86       1.0  0.54563  0.98751  0.79949  1.0000
  C  Sn1       1.0  0.52321  0.03728  0.79868  1.0000
  C  Sn2       1.0  0.46768  0.03947  0.81243  1.0000
  C   C87       1.0  0.43598  0.99177  0.82671  1.0000
  C   C88       1.0  0.45883  0.94220  0.82733  1.0000
  H   H53       1.0  0.53127  0.90170  0.81427  1.0000
  O  Te1       1.0  0.55579  0.08428  0.78433  1.0000
  O  Te2       1.0  0.44424  0.08866  0.81202  1.0000
  H   H54       1.0  0.43402  0.90546  0.83844  1.0000
  Mg  Mg1       1.0  0.50525  0.14164  0.78967  1.0000
  C   C89       1.0  0.95333  0.48300  0.23216  1.0000
  C   C90       1.0  0.99719  0.45866  0.20183  1.0000
  C  Sn3       1.0  0.04775  0.48154  0.19629  1.0000
  C  Sn4       1.0  0.05440  0.52966  0.22169  1.0000
  C   C91       1.0  0.01027  0.55366  0.25206  1.0000
  C   C92       1.0  0.95986  0.53044  0.25728  1.0000
  H   H55       1.0  0.91432  0.46501  0.23629  1.0000
  O  Te3       1.0  0.09114  0.45673  0.16578  1.0000
  O  Te4       1.0  0.10449  0.55337  0.21688  1.0000
  H   H56       1.0  0.92591  0.54926  0.28088  1.0000
  Mg  Mg2       1.0  0.15142  0.50442  0.17104  1.0000
  C   C93       1.0  0.96712  0.75004  0.81166  1.0000
  C   C94       1.0  0.00345  0.80116  0.74768  1.0000
  C  Sn5       1.0  0.05175  0.79978  0.68256  1.0000
  C  Sn6       1.0  0.06379  0.74616  0.68161  1.0000
  C   C95       1.0  0.02717  0.69528  0.74581  1.0000
  C   C96       1.0  0.97896  0.69715  0.81071  1.0000
  H   H57       1.0  0.92981  0.75150  0.86180  1.0000
  O  Te5       1.0  0.08760  0.85124  0.61918  1.0000
  O  Te6       1.0  0.11177  0.74354  0.61722  1.0000
  H   H58       1.0  0.95083  0.65758  0.86015  1.0000
  Mg  Mg3       1.0  0.14776  0.82540  0.54498  1.0000
  C   C97       1.0  0.93006  0.28538  0.65617  1.0000
  C   C98       1.0  0.96067  0.30329  0.73722  1.0000
  C  Sn7       1.0  0.00394  0.26553  0.83177  1.0000
  C  Sn8       1.0  0.01672  0.20883  0.84517  1.0000
  C   C99       1.0  0.98587  0.19136  0.76352  1.0000
  C   C100      1.0  0.94264  0.22948  0.66927  1.0000
  H   H59       1.0  0.89663  0.31489  0.58318  1.0000
  O  Te7       1.0  0.03410  0.28411  0.91198  1.0000
  O  Te8       1.0  0.05977  0.17023  0.93881  1.0000
  H   H60       1.0  0.91897  0.21562  0.60645  1.0000
  Mg  Mg4       1.0  0.09212  0.45419  0.02512  1.0000
  C   C101      1.0  0.26885  0.96167  0.36312  1.0000
  C   C102      1.0  0.29759  0.01275  0.22574  1.0000
  C  Sn9       1.0  0.27164  0.06737  0.09114  1.0000
  C  Sn10      1.0  0.21587  0.07079  0.09453  1.0000
  C   C103      1.0  0.18748  0.01945  0.23260  1.0000
  C   C104      1.0  0.21385  0.96501  0.36659  1.0000
  H   H61       1.0  0.28925  0.91955  0.46683  1.0000
  O  Te9       1.0  0.29774  0.87944  0.95484  1.0000
  O  Te10      1.0  0.18571  0.88631  0.96172  1.0000
  H   H62       1.0  0.19158  0.92549  0.47299  1.0000
  Mg  Mg5       1.0  0.24309  0.94286  0.80395  1.0000
  C   C105      1.0  0.76254  0.96494  0.91191  1.0000
  C   C106      1.0  0.79704  0.97738  0.78702  1.0000
  C  Sn11      1.0  0.77733  0.99297  0.63817  1.0000
  C  Sn12      1.0  0.72205  0.99614  0.61424  1.0000
  C   C107      1.0  0.68787  0.98365  0.73990  1.0000
  C   C108      1.0  0.70801  0.96808  0.88839  1.0000
  H   H63       1.0  0.78134  0.19144  0.02677  1.0000
  O  Te11      1.0  0.81235  0.00524  0.51471  1.0000
  O  Te12      1.0  0.70129  0.01164  0.46666  1.0000
  H   H64       1.0  0.68129  0.95848  0.98501  1.0000
  Mg  Mg6       1.0  0.76500  0.02434  0.33528  1.0000
