data_image0
_chemical_formula_structural       C6NC5NC4H10C2NC3NC4H5CNCNC4H4C5NC3NC4H7C2NC3NC4H6C2NC3NC4H5C5NC3NC4H8C5NC3NC4H7SnCSn2CSnTe4Mg2SnCSn2CSnTe4Mg2SnCSn2CSnTe4Mg2SnCSn2CSnTe4Mg2SnCSn2CSnTe4Mg2SnCSn2CSnTe4Mg2
_chemical_formula_sum              "C96 N16 H52 Sn24 Te24 Mg12"
_cell_length_a       25.3665
_cell_length_b       25.7283
_cell_length_c       10.1048
_cell_angle_alpha    52.6054
_cell_angle_beta     89.5711
_cell_angle_gamma    90.0561

_symmetry_space_group_name_H-M    'P1'
_space_group_IT_number       1

loop_
  _space_group_symop_operation_xyz
  'x, y, z'

loop_
  _atom_site_type_symbol
  _atom_site_label
  _atom_site_symmetry_multiplicity
  _atom_site_fract_x
  _atom_site_fract_y
  _atom_site_fract_z
  _atom_site_occupancy
  C   C1        1.0  0.30291  0.02898  0.19153  1.0000
  C   C2        1.0  0.28121  0.97154  0.33469  1.0000
  C   C3        1.0  0.22676  0.96383  0.35760  1.0000
  C   C4        1.0  0.47026  0.05401  0.16814  1.0000
  C   C5        1.0  0.19250  0.01278  0.23918  1.0000
  C   C6        1.0  0.13423  0.00395  0.25790  1.0000
  N   N1        1.0  0.35708  0.03976  0.16567  1.0000
  C   C7        1.0  0.21440  0.07060  0.09805  1.0000
  C   C8        1.0  0.26858  0.07880  0.07489  1.0000
  C   C9        1.0  0.38819  0.99358  0.19938  1.0000
  C   C10       1.0  0.47696  0.94770  0.22678  1.0000
  C   C11       1.0  0.44549  0.99903  0.19646  1.0000
  N   N2        1.0  0.06022  0.94033  0.25649  1.0000
  C   C12       1.0  0.11272  0.95553  0.24939  1.0000
  C   C13       1.0  0.14546  0.91680  0.22091  1.0000
  C   C14       1.0  0.05907  0.89300  0.23283  1.0000
  C   C15       1.0  0.11185  0.87947  0.20372  1.0000
  H   H1        1.0  0.30737  0.93437  0.43034  1.0000
  H   H2        1.0  0.20990  0.91975  0.46908  1.0000
  H   H3        1.0  0.44558  0.09317  0.14577  1.0000
  H   H4        1.0  0.18809  0.10876  0.00588  1.0000
  H   H5        1.0  0.28582  0.12301  0.96533  1.0000
  H   H6        1.0  0.37248  0.94682  0.23441  1.0000
  H   H7        1.0  0.45792  0.90589  0.24418  1.0000
  H   H8        1.0  0.18777  0.91928  0.21105  1.0000
  H   H9        1.0  0.12150  0.84859  0.16789  1.0000
  H   H10       1.0  0.97332  0.97259  0.72438  1.0000
  C   C16       1.0  0.96152  0.47346  0.22282  1.0000
  C   C17       1.0  0.99150  0.12555  0.29152  1.0000
  N   N3        1.0  0.97309  0.36289  0.22027  1.0000
  C   C18       1.0  0.01429  0.39534  0.20794  1.0000
  C   C19       1.0  0.05711  0.48186  0.20630  1.0000
  C   C20       1.0  0.01049  0.45127  0.20925  1.0000
  N   N4        1.0  0.05293  0.05474  0.27644  1.0000
  C   C21       1.0  0.04217  0.10083  0.30149  1.0000
  C   C22       1.0  0.09184  0.12041  0.32561  1.0000
  C   C23       1.0  0.10665  0.04648  0.27625  1.0000
  C   C24       1.0  0.13081  0.08876  0.30547  1.0000
  H   H11       1.0  0.92580  0.44995  0.22355  1.0000
  H   H12       1.0  0.05438  0.37992  0.20580  1.0000
  H   H13       1.0  0.09476  0.46543  0.19202  1.0000
  H   H14       1.0  0.09670  0.15242  0.36014  1.0000
  H   H15       1.0  0.17292  0.09169  0.31525  1.0000
  C   C25       1.0  0.86243  0.99437  0.73697  1.0000
  N   N5        1.0  0.63764  0.97402  0.75851  1.0000
  C   C26       1.0  0.60971  0.00184  0.80704  1.0000
  N   N6        1.0  0.93702  0.05323  0.75446  1.0000
  C   C27       1.0  0.88449  0.03725  0.76577  1.0000
  C   C28       1.0  0.85271  0.07342  0.80532  1.0000
  C   C29       1.0  0.93881  0.09954  0.78260  1.0000
  C   C30       1.0  0.88656  0.10994  0.82248  1.0000
  H   H16       1.0  0.62778  0.03161  0.84023  1.0000
  H   H17       1.0  0.81038  0.07078  0.81933  1.0000
  H   H18       1.0  0.87797  0.14013  0.86144  1.0000
  H   H19       1.0  0.02302  0.03087  0.26450  1.0000
  C   C31       1.0  0.02445  0.69424  0.76649  1.0000
  C   C32       1.0  0.06423  0.74276  0.68807  1.0000
  C   C33       1.0  0.05726  0.80305  0.65582  1.0000
  C   C34       1.0  0.01226  0.81570  0.71554  1.0000
  C   C35       1.0  0.00820  0.87528  0.70576  1.0000
  N   N7        1.0  0.03337  0.63800  0.77758  1.0000
  C   C36       1.0  0.97336  0.76561  0.79942  1.0000
  C   C37       1.0  0.97867  0.70674  0.82306  1.0000
  C   C38       1.0  0.99319  0.60622  0.77909  1.0000
  N   N8        1.0  0.94485  0.94856  0.70733  1.0000
  C   C39       1.0  0.95750  0.90297  0.68158  1.0000
  C   C40       1.0  0.90880  0.88391  0.64960  1.0000
  C   C41       1.0  0.89080  0.95611  0.70419  1.0000
  C   C42       1.0  0.86854  0.91431  0.66953  1.0000
  H   H20       1.0  0.09996  0.73221  0.64794  1.0000
  H   H21       1.0  0.08655  0.84158  0.58215  1.0000
  H   H22       1.0  0.93892  0.77290  0.85155  1.0000
  H   H23       1.0  0.94812  0.66930  0.89163  1.0000
  H   H24       1.0  0.95240  0.62212  0.77263  1.0000
  H   H25       1.0  0.90561  0.85206  0.61309  1.0000
  H   H26       1.0  0.82682  0.90913  0.65925  1.0000
  C   C43       1.0  0.53151  0.95038  0.23212  1.0000
  C   C44       1.0  0.86922  0.98610  0.25491  1.0000
  N   N9        1.0  0.64442  0.96062  0.26369  1.0000
  C   C45       1.0  0.61326  0.00873  0.21614  1.0000
  C   C46       1.0  0.52486  0.05702  0.17155  1.0000
  C   C47       1.0  0.55630  0.00493  0.20612  1.0000
  N   N10       1.0  0.94370  0.04577  0.27225  1.0000
  C   C48       1.0  0.89127  0.03644  0.25547  1.0000
  C   C49       1.0  0.85896  0.08598  0.24318  1.0000
  C   C50       1.0  0.94509  0.09940  0.27258  1.0000
  C   C51       1.0  0.89221  0.12574  0.24930  1.0000
  H   H27       1.0  0.55600  0.91086  0.25608  1.0000
  H   H28       1.0  0.62857  0.05485  0.18477  1.0000
  H   H29       1.0  0.54402  0.09939  0.15067  1.0000
  H   H30       1.0  0.81652  0.09049  0.22896  1.0000
  H   H31       1.0  0.88187  0.16916  0.23754  1.0000
  H   H32       1.0  0.02013  0.03669  0.75180  1.0000
  C   C52       1.0  0.05526  0.53177  0.22207  1.0000
  C   C53       1.0  0.01299  0.85967  0.24057  1.0000
  N   N11       1.0  0.04249  0.63300  0.26713  1.0000
  C   C54       1.0  0.00216  0.60382  0.26053  1.0000
  C   C55       1.0  0.95969  0.52319  0.23884  1.0000
  C   C56       1.0  0.00637  0.55240  0.24150  1.0000
  N   N12       1.0  0.95036  0.93123  0.25222  1.0000
  C   C57       1.0  0.96185  0.87856  0.25267  1.0000
  C   C58       1.0  0.91244  0.84955  0.26231  1.0000
  C   C59       1.0  0.89653  0.93826  0.25597  1.0000
  C   C60       1.0  0.87297  0.88667  0.26015  1.0000
  H   H33       1.0  0.09090  0.55582  0.21996  1.0000
  H   H34       1.0  0.96166  0.61690  0.26967  1.0000
  H   H35       1.0  0.92191  0.54006  0.25110  1.0000
  H   H36       1.0  0.90780  0.80595  0.27061  1.0000
  H   H37       1.0  0.83105  0.87837  0.26380  1.0000
  C   C61       1.0  0.29989  0.03239  0.74788  1.0000
  C   C62       1.0  0.27135  0.08001  0.60494  1.0000
  C   C63       1.0  0.21704  0.07409  0.59959  1.0000
  C   C64       1.0  0.18866  0.02096  0.73609  1.0000
  C   C65       1.0  0.13009  0.01624  0.73286  1.0000
  N   N13       1.0  0.35450  0.03984  0.74952  1.0000
  C   C66       1.0  0.21758  0.97378  0.87821  1.0000
  C   C67       1.0  0.27188  0.97948  0.88548  1.0000
  C   C68       1.0  0.38416  0.99053  0.79783  1.0000
  N   N14       1.0  0.05604  0.95613  0.72031  1.0000
  C   C69       1.0  0.10803  0.96255  0.74779  1.0000
  C   C70       1.0  0.13874  0.90708  0.78857  1.0000
  C   C71       1.0  0.05370  0.89880  0.73728  1.0000
  C   C72       1.0  0.10461  0.86606  0.78802  1.0000
  H   H38       1.0  0.29293  0.12050  0.49759  1.0000
  H   H39       1.0  0.19567  0.11139  0.48820  1.0000
  H   H40       1.0  0.19637  0.93291  0.98570  1.0000
  H   H41       1.0  0.29296  0.94436  0.00004  1.0000
  H   H42       1.0  0.36725  0.94503  0.82833  1.0000
  H   H43       1.0  0.18021  0.89984  0.81611  1.0000
  H   H44       1.0  0.11315  0.81844  0.82140  1.0000
  H   H45       1.0  0.97959  0.95871  0.25275  1.0000
  C   C73       1.0  0.97423  0.30902  0.74277  1.0000
  C   C74       1.0  0.93485  0.29452  0.67178  1.0000
  C   C75       1.0  0.93793  0.23872  0.67962  1.0000
  C   C76       1.0  0.97946  0.19338  0.76248  1.0000
  C   C77       1.0  0.98419  0.13633  0.76062  1.0000
  N   N15       1.0  0.96865  0.36457  0.73596  1.0000
  C   C78       1.0  0.01707  0.20660  0.84112  1.0000
  C   C79       1.0  0.01523  0.26354  0.82755  1.0000
  C   C80       1.0  0.00934  0.39289  0.74298  1.0000
  N   N16       1.0  0.04782  0.06906  0.73570  1.0000
  C   C81       1.0  0.03475  0.12293  0.72819  1.0000
  C   C82       1.0  0.08275  0.15874  0.69183  1.0000
  C   C83       1.0  0.10157  0.06651  0.71774  1.0000
  C   C84       1.0  0.12326  0.12371  0.69033  1.0000
  H   H46       1.0  0.90261  0.32870  0.60656  1.0000
  H   H47       1.0  0.90801  0.23013  0.61843  1.0000
  H   H48       1.0  0.04739  0.17083  0.91696  1.0000
  H   H49       1.0  0.04458  0.27183  0.89012  1.0000
  H   H50       1.0  0.04966  0.37821  0.73943  1.0000
  H   H51       1.0  0.08550  0.20524  0.67000  1.0000
  H   H52       1.0  0.16463  0.13634  0.67035  1.0000
  C  Sn1       1.0  0.73250  0.97875  0.61977  1.0000
  C   C85       1.0  0.69903  0.96005  0.75266  1.0000
  C  Sn2       1.0  0.71713  0.96026  0.88255  1.0000
  C  Sn3       1.0  0.76978  0.97961  0.87951  1.0000
  C   C86       1.0  0.80322  0.99830  0.74667  1.0000
  C  Sn4       1.0  0.78515  0.99809  0.61673  1.0000
  O  Te1       1.0  0.71357  0.97816  0.49125  1.0000
  O  Te2       1.0  0.68616  0.17987  0.01409  1.0000
  O  Te3       1.0  0.79192  0.21870  0.00818  1.0000
  O  Te4       1.0  0.81931  0.01700  0.48524  1.0000
  Mg  Mg1       1.0  0.73031  0.18882  0.16008  1.0000
  Mg  Mg2       1.0  0.77519  0.00811  0.33915  1.0000
  C  Sn5       1.0  0.95050  0.49092  0.72184  1.0000
  C   C87       1.0  0.99605  0.46237  0.71388  1.0000
  C  Sn6       1.0  0.04499  0.47422  0.75363  1.0000
  C  Sn7       1.0  0.04848  0.51544  0.80246  1.0000
  C   C88       1.0  0.00295  0.54395  0.81042  1.0000
  C  Sn8       1.0  0.95399  0.53213  0.77066  1.0000
  O  Te5       1.0  0.90198  0.47839  0.68156  1.0000
  O  Te6       1.0  0.08998  0.44515  0.74470  1.0000
  O  Te7       1.0  0.09705  0.52795  0.84275  1.0000
  O  Te8       1.0  0.90902  0.56117  0.77961  1.0000
  Mg  Mg3       1.0  0.14708  0.47706  0.81177  1.0000
  Mg  Mg4       1.0  0.85190  0.52926  0.71265  1.0000
  C  Sn9       1.0  0.03678  0.24197  0.21866  1.0000
  C   C89       1.0  0.00160  0.18904  0.30264  1.0000
  C  Sn10      1.0  0.95076  0.19638  0.34299  1.0000
  C  Sn11      1.0  0.93472  0.25790  0.29838  1.0000
  C   C90       1.0  0.96988  0.31078  0.21444  1.0000
  C  Sn12      1.0  0.02074  0.30349  0.17406  1.0000
  O  Te9       1.0  0.08741  0.23352  0.17958  1.0000
  O  Te10      1.0  0.91630  0.14275  0.42703  1.0000
  O  Te11      1.0  0.88403  0.26631  0.33755  1.0000
  O  Te12      1.0  0.05518  0.35708  0.09005  1.0000
  Mg  Mg5       1.0  0.85141  0.17867  0.45274  1.0000
  Mg  Mg6       1.0  0.12007  0.32122  0.06419  1.0000
  C  Sn13      1.0  0.50862  0.03387  0.86420  1.0000
  C   C91       1.0  0.54500  0.99302  0.86461  1.0000
  C  Sn14      1.0  0.52964  0.95398  0.81834  1.0000
  C  Sn15      1.0  0.47683  0.95585  0.77057  1.0000
  C   C92       1.0  0.44049  0.99669  0.77015  1.0000
  C  Sn16      1.0  0.45581  0.03574  0.81643  1.0000
  O  Te13      1.0  0.52485  0.07248  0.91091  1.0000
  O  Te14      1.0  0.56672  0.91352  0.81978  1.0000
  O  Te15      1.0  0.46063  0.91719  0.72384  1.0000
  O  Te16      1.0  0.41878  0.07619  0.81498  1.0000
  Mg  Mg7       1.0  0.52561  0.87008  0.74578  1.0000
  Mg  Mg8       1.0  0.45985  0.11967  0.88886  1.0000
  C  Sn17      1.0  0.07397  0.75344  0.31017  1.0000
  C   C93       1.0  0.03523  0.80135  0.22464  1.0000
  C  Sn18      1.0  0.99108  0.79045  0.16248  1.0000
  C  Sn19      1.0  0.98552  0.73039  0.18638  1.0000
  C   C94       1.0  0.02423  0.68252  0.27188  1.0000
  C  Sn20      1.0  0.06840  0.69338  0.33407  1.0000
  O  Te17      1.0  0.11777  0.76539  0.37124  1.0000
  O  Te18      1.0  0.95289  0.83909  0.07733  1.0000
  O  Te19      1.0  0.94166  0.71848  0.12521  1.0000
  O  Te20      1.0  0.10658  0.64478  0.41919  1.0000
  Mg  Mg9       1.0  0.90029  0.79977  0.01758  1.0000
  Mg  Mg10      1.0  0.15918  0.68403  0.47907  1.0000
  C  Sn21      1.0  0.73791  0.02396  0.09451  1.0000
  C   C95       1.0  0.70602  0.97196  0.21759  1.0000
  C  Sn22      1.0  0.72582  0.92483  0.37660  1.0000
  C  Sn23      1.0  0.77860  0.92979  0.41341  1.0000
  C   C96       1.0  0.81046  0.98177  0.29039  1.0000
  C  Sn24      1.0  0.79069  0.02892  0.13132  1.0000
  O  Te21      1.0  0.71407  0.83200  0.93641  1.0000
  O  Te22      1.0  0.69418  0.87328  0.49758  1.0000
  O  Te23      1.0  0.79921  0.88317  0.57167  1.0000
  O  Te24      1.0  0.82329  0.08046  0.01040  1.0000
  Mg  Mg11      1.0  0.74032  0.82204  0.69454  1.0000
  Mg  Mg12      1.0  0.77396  0.89322  0.81344  1.0000
