data_image0
_chemical_formula_structural       B12H24C96O24SnCSn2CSnTe4Mg2SnCSn2CSnTe4Mg2SnCSn2CSnTe4Mg2SnCSn2CSnTe4Mg2SnCSn2CSnTe4Mg2SnCSn2CSnTe4Mg2SnCSn2CSnTe4Mg2SnCSn2CSnTe4Mg2SnCSn2CSnTe4Mg2SnCSn2CSnTe4Mg2SnCSn2CSnTe4Mg2SnCSn2CSnTe4Mg2
_chemical_formula_sum              "B12 H24 C120 O24 Sn48 Te48 Mg24"
_cell_length_a       46.5283
_cell_length_b       46.6063
_cell_length_c       8.1791
_cell_angle_alpha    74.2626
_cell_angle_beta     124.983
_cell_angle_gamma    120.23

_symmetry_space_group_name_H-M    'P1'
_space_group_IT_number       1

loop_
  _space_group_symop_operation_xyz
  'x, y, z'

loop_
  _atom_site_type_symbol
  _atom_site_label
  _atom_site_symmetry_multiplicity
  _atom_site_fract_x
  _atom_site_fract_y
  _atom_site_fract_z
  _atom_site_occupancy
  B   B1        1.0  0.80977  0.40244  0.22261  1.0000
  B   B2        1.0  0.60105  0.40282  0.27877  1.0000
  B   B3        1.0  0.59808  0.18845  0.26390  1.0000
  B   B4        1.0  0.19649  0.59390  0.27096  1.0000
  B   B5        1.0  0.40763  0.59208  0.24747  1.0000
  B   B6        1.0  0.40772  0.80717  0.25184  1.0000
  B   B7        1.0  0.80262  0.40644  0.71787  1.0000
  B   B8        1.0  0.59347  0.40667  0.77314  1.0000
  B   B9        1.0  0.59261  0.19297  0.75508  1.0000
  B   B10       1.0  0.18867  0.59668  0.76289  1.0000
  B   B11       1.0  0.40171  0.59778  0.74514  1.0000
  B   B12       1.0  0.40405  0.81189  0.76041  1.0000
  H   H1        1.0  0.73237  0.30872  0.25576  1.0000
  H   H2        1.0  0.69305  0.26831  0.26910  1.0000
  H   H3        1.0  0.58406  0.26897  0.25230  1.0000
  H   H4        1.0  0.58567  0.30915  0.26585  1.0000
  H   H5        1.0  0.69381  0.41683  0.26450  1.0000
  H   H6        1.0  0.31502  0.72630  0.25440  1.0000
  H   H7        1.0  0.42421  0.72780  0.26092  1.0000
  H   H8        1.0  0.42638  0.68636  0.28547  1.0000
  H   H9        1.0  0.31512  0.57910  0.25865  1.0000
  H   H10       1.0  0.27479  0.68701  0.24554  1.0000
  H   H11       1.0  0.27741  0.57910  0.28569  1.0000
  H   H12       1.0  0.72610  0.42113  0.74585  1.0000
  H   H13       1.0  0.72551  0.31300  0.75178  1.0000
  H   H14       1.0  0.68599  0.27338  0.75415  1.0000
  H   H15       1.0  0.57755  0.27275  0.74973  1.0000
  H   H16       1.0  0.57806  0.31311  0.75434  1.0000
  H   H17       1.0  0.68751  0.42114  0.76868  1.0000
  H   H18       1.0  0.27030  0.58366  0.77425  1.0000
  H   H19       1.0  0.26706  0.69080  0.74421  1.0000
  H   H20       1.0  0.30844  0.73169  0.75020  1.0000
  H   H21       1.0  0.41819  0.73157  0.77099  1.0000
  H   H22       1.0  0.41917  0.69139  0.78128  1.0000
  H   H23       1.0  0.30821  0.58362  0.75223  1.0000
  H   H24       1.0  0.73134  0.41648  0.23680  1.0000
  C   C1        1.0  0.98486  0.49161  0.23037  1.0000
  C   C2        1.0  0.50777  0.48897  0.21476  1.0000
  C   C3        1.0  0.51059  0.01450  0.26014  1.0000
  C   C4        1.0  0.01855  0.50873  0.23214  1.0000
  C   C5        1.0  0.49066  0.50551  0.21060  1.0000
  C   C6        1.0  0.49429  0.98107  0.26092  1.0000
  C   C7        1.0  0.95407  0.47586  0.22805  1.0000
  C   C8        1.0  0.52392  0.47373  0.22482  1.0000
  C   C9        1.0  0.52547  0.04494  0.25753  1.0000
  C   C10       1.0  0.04938  0.52453  0.23442  1.0000
  C   C11       1.0  0.47559  0.52052  0.21416  1.0000
  C   C12       1.0  0.47888  0.95056  0.26036  1.0000
  C   C13       1.0  0.75934  0.39156  0.23881  1.0000
  C   C14       1.0  0.61050  0.36183  0.26364  1.0000
  C   C15       1.0  0.63985  0.24058  0.26616  1.0000
  C   C16       1.0  0.24837  0.60421  0.26989  1.0000
  C   C17       1.0  0.39942  0.63352  0.26900  1.0000
  C   C18       1.0  0.36775  0.75466  0.25441  1.0000
  C   C19       1.0  0.39864  0.75537  0.25883  1.0000
  C   C20       1.0  0.36808  0.60350  0.25890  1.0000
  C   C21       1.0  0.24757  0.63439  0.25827  1.0000
  C   C22       1.0  0.60906  0.24065  0.25833  1.0000
  C   C23       1.0  0.64095  0.39202  0.26538  1.0000
  C   C24       1.0  0.75998  0.36146  0.24700  1.0000
  C   C25       1.0  0.73097  0.39272  0.24438  1.0000
  C   C26       1.0  0.60914  0.33186  0.26109  1.0000
  C   C27       1.0  0.67022  0.26951  0.26700  1.0000
  C   C28       1.0  0.27759  0.60294  0.27353  1.0000
  C   C29       1.0  0.40165  0.66365  0.27789  1.0000
  C   C30       1.0  0.33809  0.72550  0.25606  1.0000
  C   C31       1.0  0.40055  0.72654  0.26371  1.0000
  C   C32       1.0  0.33863  0.60275  0.26344  1.0000
  C   C33       1.0  0.27624  0.66416  0.25306  1.0000
  C   C34       1.0  0.60807  0.26976  0.25557  1.0000
  C   C35       1.0  0.67052  0.39297  0.26107  1.0000
  C   C36       1.0  0.73169  0.33160  0.25582  1.0000
  C   C37       1.0  0.70119  0.36236  0.25421  1.0000
  C   C38       1.0  0.63931  0.33170  0.25832  1.0000
  C   C39       1.0  0.67023  0.30026  0.26210  1.0000
  C   C40       1.0  0.30785  0.63324  0.26758  1.0000
  C   C41       1.0  0.37076  0.66409  0.27225  1.0000
  C   C42       1.0  0.33888  0.69519  0.26114  1.0000
  C   C43       1.0  0.37044  0.69556  0.26744  1.0000
  C   C44       1.0  0.33950  0.63334  0.26968  1.0000
  C   C45       1.0  0.30740  0.66393  0.26092  1.0000
  C   C46       1.0  0.63917  0.30032  0.25846  1.0000
  C   C47       1.0  0.67018  0.36245  0.25764  1.0000
  C   C48       1.0  0.70142  0.33160  0.25850  1.0000
  C   C49       1.0  0.97835  0.49224  0.73572  1.0000
  C   C50       1.0  0.50585  0.49615  0.73589  1.0000
  C   C51       1.0  0.50784  0.01927  0.74959  1.0000
  C   C52       1.0  0.01194  0.50867  0.73729  1.0000
  C   C53       1.0  0.48896  0.51301  0.73151  1.0000
  C   C54       1.0  0.49198  0.98589  0.75160  1.0000
  C   C55       1.0  0.94786  0.47707  0.73620  1.0000
  C   C56       1.0  0.52051  0.47976  0.74264  1.0000
  C   C57       1.0  0.52176  0.04969  0.74861  1.0000
  C   C58       1.0  0.04266  0.52368  0.73866  1.0000
  C   C59       1.0  0.47351  0.52813  0.72981  1.0000
  C   C60       1.0  0.47685  0.95537  0.75379  1.0000
  C   C61       1.0  0.75279  0.39583  0.73813  1.0000
  C   C62       1.0  0.60312  0.36590  0.75738  1.0000
  C   C63       1.0  0.63346  0.24528  0.75654  1.0000
  C   C64       1.0  0.24098  0.60805  0.76314  1.0000
  C   C65       1.0  0.39300  0.63864  0.76942  1.0000
  C   C66       1.0  0.36196  0.75968  0.75543  1.0000
  C   C67       1.0  0.39277  0.75963  0.76272  1.0000
  C   C68       1.0  0.36175  0.60850  0.75840  1.0000
  C   C69       1.0  0.23991  0.63803  0.75345  1.0000
  C   C70       1.0  0.60307  0.24492  0.75495  1.0000
  C   C71       1.0  0.63403  0.39616  0.76472  1.0000
  C   C72       1.0  0.75292  0.36567  0.74182  1.0000
  C   C73       1.0  0.72489  0.39720  0.74688  1.0000
  C   C74       1.0  0.60182  0.33598  0.75378  1.0000
  C   C75       1.0  0.66345  0.27430  0.75661  1.0000
  C   C76       1.0  0.27039  0.60730  0.76600  1.0000
  C   C77       1.0  0.39472  0.66865  0.77579  1.0000
  C   C78       1.0  0.33144  0.73064  0.75231  1.0000
  C   C79       1.0  0.39401  0.73061  0.76715  1.0000
  C   C80       1.0  0.33183  0.60741  0.75999  1.0000
  C   C81       1.0  0.26860  0.66805  0.75007  1.0000
  C   C82       1.0  0.60160  0.27375  0.75240  1.0000
  C   C83       1.0  0.66397  0.39729  0.76265  1.0000
  C   C84       1.0  0.72477  0.33588  0.75126  1.0000
  C   C85       1.0  0.69477  0.36687  0.75380  1.0000
  C   C86       1.0  0.63244  0.33593  0.75465  1.0000
  C   C87       1.0  0.66344  0.30476  0.75651  1.0000
  C   C88       1.0  0.30065  0.63781  0.76243  1.0000
  C   C89       1.0  0.36355  0.66863  0.76953  1.0000
  C   C90       1.0  0.33157  0.69992  0.75719  1.0000
  C   C91       1.0  0.36316  0.69994  0.76518  1.0000
  C   C92       1.0  0.33231  0.63789  0.76502  1.0000
  C   C93       1.0  0.30000  0.66845  0.75654  1.0000
  C   C94       1.0  0.63230  0.30452  0.75374  1.0000
  C   C95       1.0  0.66351  0.36682  0.75639  1.0000
  C   C96       1.0  0.69467  0.33609  0.75433  1.0000
  O   O1        1.0  0.79158  0.36773  0.23858  1.0000
  O   O2        1.0  0.63566  0.41813  0.27479  1.0000
  O   O3        1.0  0.58246  0.20827  0.25662  1.0000
  O   O4        1.0  0.21518  0.62854  0.25658  1.0000
  O   O5        1.0  0.37242  0.57728  0.24397  1.0000
  O   O6        1.0  0.42410  0.78821  0.25594  1.0000
  O   O7        1.0  0.37259  0.78667  0.24846  1.0000
  O   O8        1.0  0.42482  0.62691  0.26435  1.0000
  O   O9        1.0  0.21671  0.57844  0.27933  1.0000
  O   O10       1.0  0.63381  0.20814  0.27124  1.0000
  O   O11       1.0  0.58490  0.36797  0.26916  1.0000
  O   O12       1.0  0.78998  0.41745  0.22244  1.0000
  O   O13       1.0  0.78411  0.37169  0.73183  1.0000
  O   O14       1.0  0.62879  0.42207  0.77622  1.0000
  O   O15       1.0  0.57719  0.21234  0.75538  1.0000
  O   O16       1.0  0.20715  0.63144  0.75172  1.0000
  O   O17       1.0  0.36644  0.58251  0.74257  1.0000
  O   O18       1.0  0.41935  0.79208  0.76459  1.0000
  O   O19       1.0  0.36850  0.79225  0.75450  1.0000
  O   O20       1.0  0.41879  0.63254  0.76579  1.0000
  O   O21       1.0  0.20933  0.58188  0.77028  1.0000
  O   O22       1.0  0.62742  0.21309  0.75518  1.0000
  O   O23       1.0  0.57710  0.37191  0.76007  1.0000
  O   O24       1.0  0.78350  0.42173  0.72194  1.0000
  C  Sn1       1.0  0.88577  0.41746  0.14413  1.0000
  C   C97       1.0  0.90891  0.45180  0.16430  1.0000
  C  Sn2       1.0  0.90307  0.47212  0.22933  1.0000
  C  Sn3       1.0  0.87350  0.45781  0.27529  1.0000
  C   C98       1.0  0.85039  0.42348  0.25515  1.0000
  C  Sn4       1.0  0.85620  0.40314  0.19008  1.0000
  O  Te1       1.0  0.89212  0.39762  0.07887  1.0000
  O  Te2       1.0  0.92656  0.50639  0.24828  1.0000
  O  Te3       1.0  0.86717  0.47768  0.34058  1.0000
  O  Te4       1.0  0.83273  0.36889  0.17117  1.0000
  Mg  Mg1       1.0  0.90669  0.52303  0.34276  1.0000
  Mg  Mg2       1.0  0.85260  0.35223  0.07680  1.0000
  C  Sn5       1.0  0.53436  0.40527  0.21113  1.0000
  C   C99       1.0  0.57013  0.41835  0.22503  1.0000
  C  Sn6       1.0  0.59576  0.45209  0.26897  1.0000
  C  Sn7       1.0  0.58544  0.47321  0.29980  1.0000
  C   C100      1.0  0.54970  0.46013  0.28594  1.0000
  C  Sn8       1.0  0.52404  0.42639  0.24197  1.0000
  O  Te5       1.0  0.50919  0.37146  0.16705  1.0000
  O  Te6       1.0  0.63134  0.46460  0.28201  1.0000
  O  Te7       1.0  0.61064  0.50704  0.34391  1.0000
  O  Te8       1.0  0.48848  0.41388  0.22896  1.0000
  Mg  Mg3       1.0  0.65580  0.51235  0.34578  1.0000
  Mg  Mg4       1.0  0.46401  0.36613  0.16530  1.0000
  C  Sn9       1.0  0.54271  0.12496  0.31239  1.0000
  C   C101      1.0  0.57736  0.14648  0.31472  1.0000
  C  Sn10      1.0  0.59404  0.13462  0.26733  1.0000
  C  Sn11      1.0  0.57568  0.10053  0.21642  1.0000
  C   C102      1.0  0.54104  0.07903  0.21407  1.0000
  C  Sn12      1.0  0.52435  0.09087  0.26149  1.0000
  O  Te9       1.0  0.52655  0.13736  0.36028  1.0000
  O  Te10      1.0  0.62870  0.15661  0.27074  1.0000
  O  Te11      1.0  0.59186  0.08813  0.16852  1.0000
  O  Te12      1.0  0.48970  0.06890  0.25805  1.0000
  Mg  Mg5       1.0  0.63938  0.12786  0.19405  1.0000
  Mg  Mg6       1.0  0.47899  0.09763  0.33461  1.0000
  C  Sn13      1.0  0.12430  0.53597  0.18420  1.0000
  C   C103      1.0  0.14931  0.56997  0.21477  1.0000
  C  Sn14      1.0  0.14409  0.59079  0.27999  1.0000
  C  Sn15      1.0  0.11324  0.57733  0.31553  1.0000
  C   C104      1.0  0.08825  0.54335  0.28500  1.0000
  C  Sn16      1.0  0.09344  0.52251  0.21974  1.0000
  O  Te13      1.0  0.13006  0.51562  0.11896  1.0000
  O  Te14      1.0  0.16947  0.62471  0.30943  1.0000
  O  Te15      1.0  0.10749  0.59771  0.38081  1.0000
  O  Te16      1.0  0.06809  0.48861  0.19033  1.0000
  Mg  Mg7       1.0  0.14972  0.64229  0.39946  1.0000
  Mg  Mg8       1.0  0.08783  0.47100  0.10042  1.0000
  C  Sn17      1.0  0.48179  0.57840  0.29353  1.0000
  C   C105      1.0  0.46716  0.54409  0.27752  1.0000
  C  Sn18      1.0  0.42823  0.52304  0.22061  1.0000
  C  Sn19      1.0  0.40340  0.53656  0.17868  1.0000
  C   C106      1.0  0.41803  0.57086  0.19466  1.0000
  C  Sn20      1.0  0.45696  0.59193  0.25160  1.0000
  O  Te17      1.0  0.52080  0.59897  0.35066  1.0000
  O  Te18      1.0  0.41427  0.48881  0.20570  1.0000
  O  Te19      1.0  0.36436  0.51595  0.12152  1.0000
  O  Te20      1.0  0.47092  0.62613  0.26648  1.0000
  Mg  Mg9       1.0  0.35896  0.47100  0.12224  1.0000
  Mg  Mg10      1.0  0.52621  0.64397  0.34982  1.0000
  C  Sn21      1.0  0.40371  0.87011  0.18316  1.0000
  C   C107      1.0  0.41796  0.84889  0.19595  1.0000
  C  Sn22      1.0  0.45718  0.86114  0.25944  1.0000
  C  Sn23      1.0  0.48271  0.89531  0.31137  1.0000
  C   C108      1.0  0.46847  0.91651  0.29860  1.0000
  C  Sn24      1.0  0.42925  0.90429  0.23509  1.0000
  O  Te21      1.0  0.36440  0.85732  0.11932  1.0000
  O  Te22      1.0  0.47074  0.83944  0.27096  1.0000
  O  Te23      1.0  0.52206  0.90809  0.37524  1.0000
  O  Te24      1.0  0.41569  0.92596  0.22359  1.0000
  Mg  Mg11      1.0  0.52670  0.86867  0.36637  1.0000
  Mg  Mg12      1.0  0.35974  0.89676  0.12831  1.0000
  C  Sn25      1.0  0.89311  0.47542  0.78989  1.0000
  C   C109      1.0  0.91363  0.46225  0.78369  1.0000
  C  Sn26      1.0  0.89512  0.42946  0.71864  1.0000
  C  Sn27      1.0  0.85527  0.40941  0.65840  1.0000
  C   C110      1.0  0.83477  0.42258  0.66459  1.0000
  C  Sn28      1.0  0.85326  0.45538  0.72966  1.0000
  O  Te25      1.0  0.91220  0.50827  0.85543  1.0000
  O  Te26      1.0  0.91624  0.41684  0.71380  1.0000
  O  Te27      1.0  0.83619  0.37654  0.59283  1.0000
  O  Te28      1.0  0.83216  0.46799  0.73447  1.0000
  Mg  Mg13      1.0  0.87736  0.37064  0.61290  1.0000
  Mg  Mg14      1.0  0.87100  0.51419  0.83525  1.0000
  C  Sn29      1.0  0.57209  0.47539  0.68846  1.0000
  C   C111      1.0  0.53890  0.46326  0.69855  1.0000
  C  Sn30      1.0  0.52470  0.43150  0.76930  1.0000
  C  Sn31      1.0  0.54409  0.41145  0.83139  1.0000
  C   C112      1.0  0.57726  0.42358  0.82133  1.0000
  C  Sn32      1.0  0.59148  0.45533  0.75056  1.0000
  O  Te29      1.0  0.58577  0.50721  0.61724  1.0000
  O  Te30      1.0  0.49146  0.41992  0.77793  1.0000
  O  Te31      1.0  0.53038  0.37960  0.90265  1.0000
  O  Te32      1.0  0.62471  0.46692  0.74194  1.0000
  Mg  Mg15      1.0  0.48405  0.37489  0.88614  1.0000
  Mg  Mg16      1.0  0.63215  0.51195  0.63386  1.0000
  C  Sn33      1.0  0.53789  0.12942  0.80339  1.0000
  C   C113      1.0  0.57249  0.15115  0.80551  1.0000
  C  Sn34      1.0  0.58960  0.13944  0.76038  1.0000
  C  Sn35      1.0  0.57174  0.10530  0.71198  1.0000
  C   C114      1.0  0.53716  0.08360  0.70984  1.0000
  C  Sn36      1.0  0.52004  0.09529  0.75500  1.0000
  O  Te33      1.0  0.52130  0.14167  0.84899  1.0000
  O  Te34      1.0  0.62420  0.16164  0.76354  1.0000
  O  Te35      1.0  0.58836  0.09307  0.66637  1.0000
  O  Te36      1.0  0.48546  0.07311  0.75182  1.0000
  Mg  Mg17      1.0  0.63559  0.13304  0.69054  1.0000
  Mg  Mg18      1.0  0.47403  0.10168  0.82469  1.0000
  C  Sn37      1.0  0.10904  0.52556  0.79857  1.0000
  C   C115      1.0  0.08753  0.53802  0.80098  1.0000
  C  Sn38      1.0  0.09590  0.57159  0.76687  1.0000
  C  Sn39      1.0  0.12639  0.59315  0.72944  1.0000
  C   C116      1.0  0.14788  0.58069  0.72701  1.0000
  C  Sn40      1.0  0.13953  0.54712  0.76114  1.0000
  O  Te37      1.0  0.10016  0.49192  0.83305  1.0000
  O  Te38      1.0  0.07401  0.58347  0.77009  1.0000
  O  Te39      1.0  0.13526  0.62682  0.69495  1.0000
  O  Te40      1.0  0.16140  0.53524  0.75790  1.0000
  Mg  Mg19      1.0  0.09717  0.63123  0.71451  1.0000
  Mg  Mg20      1.0  0.13825  0.48748  0.81335  1.0000
  C  Sn41      1.0  0.47711  0.58575  0.79459  1.0000
  C   C117      1.0  0.46347  0.55147  0.78398  1.0000
  C  Sn42      1.0  0.42466  0.52986  0.72725  1.0000
  C  Sn43      1.0  0.39895  0.54277  0.68002  1.0000
  C   C118      1.0  0.41259  0.57703  0.69060  1.0000
  C  Sn44      1.0  0.45140  0.59866  0.74735  1.0000
  O  Te41      1.0  0.51602  0.60689  0.85164  1.0000
  O  Te42      1.0  0.41170  0.49569  0.71780  1.0000
  O  Te43      1.0  0.36002  0.52159  0.62294  1.0000
  O  Te44      1.0  0.46436  0.63281  0.75678  1.0000
  Mg  Mg21      1.0  0.35613  0.47696  0.63217  1.0000
  Mg  Mg22      1.0  0.51991  0.65156  0.84229  1.0000
  C  Sn45      1.0  0.46980  0.89459  0.70916  1.0000
  C   C119      1.0  0.45704  0.91629  0.70643  1.0000
  C  Sn46      1.0  0.42828  0.90495  0.75136  1.0000
  C  Sn47      1.0  0.41195  0.87123  0.80017  1.0000
  C   C120      1.0  0.42472  0.84956  0.80292  1.0000
  C  Sn48      1.0  0.45348  0.86087  0.75797  1.0000
  O  Te45      1.0  0.49859  0.90647  0.66375  1.0000
  O  Te46      1.0  0.41598  0.92711  0.74759  1.0000
  O  Te47      1.0  0.38315  0.85937  0.84559  1.0000
  O  Te48      1.0  0.46578  0.83874  0.76176  1.0000
  Mg  Mg23      1.0  0.37604  0.89912  0.82055  1.0000
  Mg  Mg24      1.0  0.50574  0.86670  0.68894  1.0000
