data_image0
_chemical_formula_structural       B12H24C96O24C2Sn2C2HTe2HMgC2Sn2C2HTe2HMgC2Sn2C2HTe2HMgC2Sn2C2HTe2HMgC2Sn2C2HTe2HMgC2Sn2C2HTe2HMgC2Sn2C2HTe2HMgC2Sn2C2HTe2HMgC2Sn2C2HTe2HMgC2Sn2C2HTe2HMgC2Sn2C2HTe2HMgC2Sn2C2HTe2HMg
_chemical_formula_sum              "B12 H48 C144 O24 Sn24 Te24 Mg12"
_cell_length_a       46.5283
_cell_length_b       46.6063
_cell_length_c       8.1791
_cell_angle_alpha    74.2626
_cell_angle_beta     124.983
_cell_angle_gamma    120.23

_symmetry_space_group_name_H-M    'P1'
_space_group_IT_number       1

loop_
  _space_group_symop_operation_xyz
  'x, y, z'

loop_
  _atom_site_type_symbol
  _atom_site_label
  _atom_site_symmetry_multiplicity
  _atom_site_fract_x
  _atom_site_fract_y
  _atom_site_fract_z
  _atom_site_occupancy
  B   B1        1.0  0.80977  0.40244  0.22261  1.0000
  B   B2        1.0  0.60105  0.40282  0.27877  1.0000
  B   B3        1.0  0.59808  0.18845  0.26390  1.0000
  B   B4        1.0  0.19649  0.59390  0.27096  1.0000
  B   B5        1.0  0.40763  0.59208  0.24747  1.0000
  B   B6        1.0  0.40772  0.80717  0.25184  1.0000
  B   B7        1.0  0.80262  0.40644  0.71787  1.0000
  B   B8        1.0  0.59347  0.40667  0.77314  1.0000
  B   B9        1.0  0.59261  0.19297  0.75508  1.0000
  B   B10       1.0  0.18867  0.59668  0.76289  1.0000
  B   B11       1.0  0.40171  0.59778  0.74514  1.0000
  B   B12       1.0  0.40405  0.81189  0.76041  1.0000
  H   H1        1.0  0.73237  0.30872  0.25576  1.0000
  H   H2        1.0  0.69305  0.26831  0.26910  1.0000
  H   H3        1.0  0.58406  0.26897  0.25230  1.0000
  H   H4        1.0  0.58567  0.30915  0.26585  1.0000
  H   H5        1.0  0.69381  0.41683  0.26450  1.0000
  H   H6        1.0  0.31502  0.72630  0.25440  1.0000
  H   H7        1.0  0.42421  0.72780  0.26092  1.0000
  H   H8        1.0  0.42638  0.68636  0.28547  1.0000
  H   H9        1.0  0.31512  0.57910  0.25865  1.0000
  H   H10       1.0  0.27479  0.68701  0.24554  1.0000
  H   H11       1.0  0.27741  0.57910  0.28569  1.0000
  H   H12       1.0  0.72610  0.42113  0.74585  1.0000
  H   H13       1.0  0.72551  0.31300  0.75178  1.0000
  H   H14       1.0  0.68599  0.27338  0.75415  1.0000
  H   H15       1.0  0.57755  0.27275  0.74973  1.0000
  H   H16       1.0  0.57806  0.31311  0.75434  1.0000
  H   H17       1.0  0.68751  0.42114  0.76868  1.0000
  H   H18       1.0  0.27030  0.58366  0.77425  1.0000
  H   H19       1.0  0.26706  0.69080  0.74421  1.0000
  H   H20       1.0  0.30844  0.73169  0.75020  1.0000
  H   H21       1.0  0.41819  0.73157  0.77099  1.0000
  H   H22       1.0  0.41917  0.69139  0.78128  1.0000
  H   H23       1.0  0.30821  0.58362  0.75223  1.0000
  H   H24       1.0  0.73134  0.41648  0.23680  1.0000
  C   C1        1.0  0.98486  0.49161  0.23037  1.0000
  C   C2        1.0  0.50777  0.48897  0.21476  1.0000
  C   C3        1.0  0.51059  0.01450  0.26014  1.0000
  C   C4        1.0  0.01855  0.50873  0.23214  1.0000
  C   C5        1.0  0.49066  0.50551  0.21060  1.0000
  C   C6        1.0  0.49429  0.98107  0.26092  1.0000
  C   C7        1.0  0.95407  0.47586  0.22805  1.0000
  C   C8        1.0  0.52392  0.47373  0.22482  1.0000
  C   C9        1.0  0.52547  0.04494  0.25753  1.0000
  C   C10       1.0  0.04938  0.52453  0.23442  1.0000
  C   C11       1.0  0.47559  0.52052  0.21416  1.0000
  C   C12       1.0  0.47888  0.95056  0.26036  1.0000
  C   C13       1.0  0.75934  0.39156  0.23881  1.0000
  C   C14       1.0  0.61050  0.36183  0.26364  1.0000
  C   C15       1.0  0.63985  0.24058  0.26616  1.0000
  C   C16       1.0  0.24837  0.60421  0.26989  1.0000
  C   C17       1.0  0.39942  0.63352  0.26900  1.0000
  C   C18       1.0  0.36775  0.75466  0.25441  1.0000
  C   C19       1.0  0.39864  0.75537  0.25883  1.0000
  C   C20       1.0  0.36808  0.60350  0.25890  1.0000
  C   C21       1.0  0.24757  0.63439  0.25827  1.0000
  C   C22       1.0  0.60906  0.24065  0.25833  1.0000
  C   C23       1.0  0.64095  0.39202  0.26538  1.0000
  C   C24       1.0  0.75998  0.36146  0.24700  1.0000
  C   C25       1.0  0.73097  0.39272  0.24438  1.0000
  C   C26       1.0  0.60914  0.33186  0.26109  1.0000
  C   C27       1.0  0.67022  0.26951  0.26700  1.0000
  C   C28       1.0  0.27759  0.60294  0.27353  1.0000
  C   C29       1.0  0.40165  0.66365  0.27789  1.0000
  C   C30       1.0  0.33809  0.72550  0.25606  1.0000
  C   C31       1.0  0.40055  0.72654  0.26371  1.0000
  C   C32       1.0  0.33863  0.60275  0.26344  1.0000
  C   C33       1.0  0.27624  0.66416  0.25306  1.0000
  C   C34       1.0  0.60807  0.26976  0.25557  1.0000
  C   C35       1.0  0.67052  0.39297  0.26107  1.0000
  C   C36       1.0  0.73169  0.33160  0.25582  1.0000
  C   C37       1.0  0.70119  0.36236  0.25421  1.0000
  C   C38       1.0  0.63931  0.33170  0.25832  1.0000
  C   C39       1.0  0.67023  0.30026  0.26210  1.0000
  C   C40       1.0  0.30785  0.63324  0.26758  1.0000
  C   C41       1.0  0.37076  0.66409  0.27225  1.0000
  C   C42       1.0  0.33888  0.69519  0.26114  1.0000
  C   C43       1.0  0.37044  0.69556  0.26744  1.0000
  C   C44       1.0  0.33950  0.63334  0.26968  1.0000
  C   C45       1.0  0.30740  0.66393  0.26092  1.0000
  C   C46       1.0  0.63917  0.30032  0.25846  1.0000
  C   C47       1.0  0.67018  0.36245  0.25764  1.0000
  C   C48       1.0  0.70142  0.33160  0.25850  1.0000
  C   C49       1.0  0.97835  0.49224  0.73572  1.0000
  C   C50       1.0  0.50585  0.49615  0.73589  1.0000
  C   C51       1.0  0.50784  0.01927  0.74959  1.0000
  C   C52       1.0  0.01194  0.50867  0.73729  1.0000
  C   C53       1.0  0.48896  0.51301  0.73151  1.0000
  C   C54       1.0  0.49198  0.98589  0.75160  1.0000
  C   C55       1.0  0.94786  0.47707  0.73620  1.0000
  C   C56       1.0  0.52051  0.47976  0.74264  1.0000
  C   C57       1.0  0.52176  0.04969  0.74861  1.0000
  C   C58       1.0  0.04266  0.52368  0.73866  1.0000
  C   C59       1.0  0.47351  0.52813  0.72981  1.0000
  C   C60       1.0  0.47685  0.95537  0.75379  1.0000
  C   C61       1.0  0.75279  0.39583  0.73813  1.0000
  C   C62       1.0  0.60312  0.36590  0.75738  1.0000
  C   C63       1.0  0.63346  0.24528  0.75654  1.0000
  C   C64       1.0  0.24098  0.60805  0.76314  1.0000
  C   C65       1.0  0.39300  0.63864  0.76942  1.0000
  C   C66       1.0  0.36196  0.75968  0.75543  1.0000
  C   C67       1.0  0.39277  0.75963  0.76272  1.0000
  C   C68       1.0  0.36175  0.60850  0.75840  1.0000
  C   C69       1.0  0.23991  0.63803  0.75345  1.0000
  C   C70       1.0  0.60307  0.24492  0.75495  1.0000
  C   C71       1.0  0.63403  0.39616  0.76472  1.0000
  C   C72       1.0  0.75292  0.36567  0.74182  1.0000
  C   C73       1.0  0.72489  0.39720  0.74688  1.0000
  C   C74       1.0  0.60182  0.33598  0.75378  1.0000
  C   C75       1.0  0.66345  0.27430  0.75661  1.0000
  C   C76       1.0  0.27039  0.60730  0.76600  1.0000
  C   C77       1.0  0.39472  0.66865  0.77579  1.0000
  C   C78       1.0  0.33144  0.73064  0.75231  1.0000
  C   C79       1.0  0.39401  0.73061  0.76715  1.0000
  C   C80       1.0  0.33183  0.60741  0.75999  1.0000
  C   C81       1.0  0.26860  0.66805  0.75007  1.0000
  C   C82       1.0  0.60160  0.27375  0.75240  1.0000
  C   C83       1.0  0.66397  0.39729  0.76265  1.0000
  C   C84       1.0  0.72477  0.33588  0.75126  1.0000
  C   C85       1.0  0.69477  0.36687  0.75380  1.0000
  C   C86       1.0  0.63244  0.33593  0.75465  1.0000
  C   C87       1.0  0.66344  0.30476  0.75651  1.0000
  C   C88       1.0  0.30065  0.63781  0.76243  1.0000
  C   C89       1.0  0.36355  0.66863  0.76953  1.0000
  C   C90       1.0  0.33157  0.69992  0.75719  1.0000
  C   C91       1.0  0.36316  0.69994  0.76518  1.0000
  C   C92       1.0  0.33231  0.63789  0.76502  1.0000
  C   C93       1.0  0.30000  0.66845  0.75654  1.0000
  C   C94       1.0  0.63230  0.30452  0.75374  1.0000
  C   C95       1.0  0.66351  0.36682  0.75639  1.0000
  C   C96       1.0  0.69467  0.33609  0.75433  1.0000
  O   O1        1.0  0.79158  0.36773  0.23858  1.0000
  O   O2        1.0  0.63566  0.41813  0.27479  1.0000
  O   O3        1.0  0.58246  0.20827  0.25662  1.0000
  O   O4        1.0  0.21518  0.62854  0.25658  1.0000
  O   O5        1.0  0.37242  0.57728  0.24397  1.0000
  O   O6        1.0  0.42410  0.78821  0.25594  1.0000
  O   O7        1.0  0.37259  0.78667  0.24846  1.0000
  O   O8        1.0  0.42482  0.62691  0.26435  1.0000
  O   O9        1.0  0.21671  0.57844  0.27933  1.0000
  O   O10       1.0  0.63381  0.20814  0.27124  1.0000
  O   O11       1.0  0.58490  0.36797  0.26916  1.0000
  O   O12       1.0  0.78998  0.41745  0.22244  1.0000
  O   O13       1.0  0.78411  0.37169  0.73183  1.0000
  O   O14       1.0  0.62879  0.42207  0.77622  1.0000
  O   O15       1.0  0.57719  0.21234  0.75538  1.0000
  O   O16       1.0  0.20715  0.63144  0.75172  1.0000
  O   O17       1.0  0.36644  0.58251  0.74257  1.0000
  O   O18       1.0  0.41935  0.79208  0.76459  1.0000
  O   O19       1.0  0.36850  0.79225  0.75450  1.0000
  O   O20       1.0  0.41879  0.63254  0.76579  1.0000
  O   O21       1.0  0.20933  0.58188  0.77028  1.0000
  O   O22       1.0  0.62742  0.21309  0.75518  1.0000
  O   O23       1.0  0.57710  0.37191  0.76007  1.0000
  O   O24       1.0  0.78350  0.42173  0.72194  1.0000
  C   C97       1.0  0.87472  0.46489  0.23494  1.0000
  C   C98       1.0  0.85001  0.43082  0.20377  1.0000
  C  Sn1       1.0  0.86102  0.40923  0.18839  1.0000
  C  Sn2       1.0  0.89746  0.42206  0.20464  1.0000
  C   C99       1.0  0.92197  0.45617  0.23596  1.0000
  C   C100      1.0  0.91066  0.47756  0.25106  1.0000
  H   H25       1.0  0.86598  0.48143  0.24673  1.0000
  O  Te1       1.0  0.83599  0.37526  0.15716  1.0000
  O  Te2       1.0  0.90919  0.40104  0.18990  1.0000
  H   H26       1.0  0.92981  0.50393  0.27533  1.0000
  Mg  Mg1       1.0  0.86496  0.35662  0.14713  1.0000
  C   C101      1.0  0.59772  0.46461  0.26352  1.0000
  C   C102      1.0  0.58821  0.43078  0.29278  1.0000
  C  Sn3       1.0  0.55367  0.40865  0.29032  1.0000
  C  Sn4       1.0  0.52823  0.42068  0.25788  1.0000
  C   C103      1.0  0.53799  0.45457  0.22862  1.0000
  C   C104      1.0  0.57264  0.47649  0.23143  1.0000
  H   H27       1.0  0.62451  0.48157  0.26559  1.0000
  O  Te3       1.0  0.54462  0.37493  0.31989  1.0000
  O  Te4       1.0  0.49352  0.39911  0.25461  1.0000
  H   H28       1.0  0.57998  0.50268  0.20864  1.0000
  Mg  Mg2       1.0  0.49398  0.35532  0.30238  1.0000
  C   C105      1.0  0.59703  0.12452  0.27259  1.0000
  C   C106      1.0  0.58306  0.14637  0.25412  1.0000
  C  Sn5       1.0  0.54788  0.13421  0.24477  1.0000
  C  Sn6       1.0  0.52636  0.09952  0.25417  1.0000
  C   C107      1.0  0.54059  0.07787  0.27279  1.0000
  C   C108      1.0  0.57582  0.09030  0.28195  1.0000
  H   H29       1.0  0.62429  0.13413  0.27979  1.0000
  O  Te5       1.0  0.53434  0.15639  0.22624  1.0000
  O  Te6       1.0  0.49112  0.08671  0.24523  1.0000
  H   H30       1.0  0.58664  0.07337  0.29638  1.0000
  Mg  Mg3       1.0  0.48475  0.12691  0.21993  1.0000
  C   C109      1.0  0.11504  0.58468  0.27618  1.0000
  C   C110      1.0  0.08903  0.55091  0.24018  1.0000
  C  Sn7       1.0  0.09896  0.52840  0.22530  1.0000
  C  Sn8       1.0  0.13565  0.53997  0.24700  1.0000
  C   C111      1.0  0.16148  0.57380  0.28312  1.0000
  C   C112      1.0  0.15123  0.59611  0.29767  1.0000
  H   H31       1.0  0.10713  0.60195  0.28754  1.0000
  O  Te7       1.0  0.07262  0.49475  0.18921  1.0000
  O  Te8       1.0  0.14633  0.51800  0.23289  1.0000
  H   H32       1.0  0.17139  0.62225  0.32567  1.0000
  Mg  Mg4       1.0  0.10049  0.47449  0.18222  1.0000
  C   C113      1.0  0.46900  0.59025  0.24167  1.0000
  C   C114      1.0  0.43312  0.57800  0.22501  1.0000
  C  Sn9       1.0  0.40977  0.54379  0.21367  1.0000
  C  Sn10      1.0  0.42265  0.52148  0.21922  1.0000
  C   C115      1.0  0.45861  0.53398  0.23606  1.0000
  C   C116      1.0  0.48174  0.56827  0.24723  1.0000
  H   H33       1.0  0.48691  0.61677  0.25043  1.0000
  O  Te9       1.0  0.37399  0.53197  0.19699  1.0000
  O  Te10      1.0  0.39990  0.48717  0.20824  1.0000
  H   H34       1.0  0.50953  0.57774  0.26027  1.0000
  Mg  Mg5       1.0  0.35338  0.48312  0.18670  1.0000
  C   C117      1.0  0.41610  0.88950  0.23823  1.0000
  C   C118      1.0  0.45282  0.91173  0.26494  1.0000
  C  Sn11      1.0  0.47635  0.89997  0.27762  1.0000
  C  Sn12      1.0  0.46277  0.86531  0.26320  1.0000
  C   C119      1.0  0.42598  0.84328  0.23635  1.0000
  C   C120      1.0  0.40268  0.85531  0.22391  1.0000
  H   H35       1.0  0.39806  0.89881  0.22850  1.0000
  O  Te11      1.0  0.51297  0.92252  0.30438  1.0000
  O  Te12      1.0  0.48568  0.85289  0.27531  1.0000
  H   H36       1.0  0.37424  0.83809  0.20311  1.0000
  Mg  Mg6       1.0  0.53347  0.89351  0.31219  1.0000
  C   C121      1.0  0.86440  0.40762  0.69999  1.0000
  C   C122      1.0  0.84466  0.42004  0.71917  1.0000
  C  Sn13      1.0  0.85876  0.45427  0.73481  1.0000
  C  Sn14      1.0  0.89326  0.47641  0.73109  1.0000
  C   C123      1.0  0.91277  0.46373  0.71172  1.0000
  C   C124      1.0  0.89842  0.42944  0.69623  1.0000
  H   H37       1.0  0.85329  0.38109  0.68790  1.0000
  O  Te13      1.0  0.83869  0.46626  0.75395  1.0000
  O  Te14      1.0  0.90798  0.51073  0.74638  1.0000
  H   H38       1.0  0.91369  0.41983  0.68126  1.0000
  Mg  Mg7       1.0  0.87027  0.51505  0.76996  1.0000
  C   C125      1.0  0.53308  0.40930  0.79000  1.0000
  C   C126      1.0  0.56496  0.42057  0.76982  1.0000
  C  Sn15      1.0  0.58546  0.45439  0.74866  1.0000
  C  Sn16      1.0  0.57377  0.47730  0.74780  1.0000
  C   C127      1.0  0.54185  0.46579  0.76823  1.0000
  C   C128      1.0  0.52154  0.43189  0.78924  1.0000
  H   H39       1.0  0.51737  0.38308  0.80637  1.0000
  O  Te15      1.0  0.61724  0.46522  0.72859  1.0000
  O  Te16      1.0  0.59376  0.51124  0.72695  1.0000
  H   H40       1.0  0.49687  0.42318  0.80500  1.0000
  Mg  Mg8       1.0  0.63517  0.51390  0.70425  1.0000
  C   C129      1.0  0.52908  0.12864  0.73702  1.0000
  C   C130      1.0  0.56548  0.15090  0.75979  1.0000
  C  Sn17      1.0  0.58870  0.13916  0.76895  1.0000
  C  Sn18      1.0  0.57515  0.10449  0.75495  1.0000
  C   C131      1.0  0.53868  0.08243  0.73204  1.0000
  C   C132      1.0  0.51568  0.09444  0.72312  1.0000
  H   H41       1.0  0.51128  0.13793  0.73001  1.0000
  O  Te17      1.0  0.62500  0.16173  0.79181  1.0000
  O  Te18      1.0  0.59775  0.09209  0.76359  1.0000
  H   H42       1.0  0.48749  0.07721  0.70536  1.0000
  Mg  Mg9       1.0  0.64516  0.13274  0.79581  1.0000
  C   C133      1.0  0.10672  0.58454  0.77484  1.0000
  C   C134      1.0  0.08192  0.55050  0.74248  1.0000
  C  Sn19      1.0  0.09296  0.52890  0.72748  1.0000
  C  Sn20      1.0  0.12953  0.54169  0.74534  1.0000
  C   C135      1.0  0.15415  0.57579  0.77785  1.0000
  C   C136      1.0  0.14280  0.59718  0.79255  1.0000
  H   H43       1.0  0.09795  0.60109  0.78633  1.0000
  O  Te19      1.0  0.06782  0.49496  0.69505  1.0000
  O  Te20      1.0  0.14130  0.52067  0.73103  1.0000
  H   H44       1.0  0.16202  0.62353  0.81774  1.0000
  Mg  Mg10      1.0  0.09689  0.47629  0.68619  1.0000
  C   C137      1.0  0.47242  0.58818  0.72921  1.0000
  C   C138      1.0  0.46150  0.55409  0.73942  1.0000
  C  Sn21      1.0  0.42701  0.53158  0.73658  1.0000
  C  Sn22      1.0  0.40305  0.54349  0.72320  1.0000
  C   C139      1.0  0.41421  0.57764  0.71292  1.0000
  C   C140      1.0  0.44879  0.59994  0.71594  1.0000
  H   H45       1.0  0.49916  0.60544  0.73144  1.0000
  O  Te21      1.0  0.41655  0.49761  0.74697  1.0000
  O  Te22      1.0  0.36842  0.52154  0.72001  1.0000
  H   H46       1.0  0.45722  0.62633  0.70791  1.0000
  Mg  Mg11      1.0  0.36663  0.47751  0.73767  1.0000
  C   C141      1.0  0.41452  0.89483  0.74401  1.0000
  C   C142      1.0  0.45075  0.91666  0.76379  1.0000
  C  Sn23      1.0  0.47370  0.90436  0.77513  1.0000
  C  Sn24      1.0  0.46005  0.86955  0.76643  1.0000
  C   C143      1.0  0.42374  0.84793  0.74649  1.0000
  C   C144      1.0  0.40102  0.86050  0.73534  1.0000
  H   H47       1.0  0.39692  0.90456  0.73527  1.0000
  O  Te23      1.0  0.50984  0.92651  0.79494  1.0000
  O  Te24      1.0  0.48239  0.85659  0.77735  1.0000
  H   H48       1.0  0.37295  0.84360  0.71990  1.0000
  Mg  Mg12      1.0  0.52965  0.89682  0.80382  1.0000
