data_image0
_chemical_formula_structural       B12H48C132O24SnCSn2CSnTe4Mg2SnCSn2CSnTe4Mg2SnCSn2CSnTe4Mg2SnCSn2CSnTe4Mg2SnCSn2CSnTe4Mg2SnCSn2CSnTe4Mg2
_chemical_formula_sum              "B12 H48 C144 O24 Sn24 Te24 Mg12"
_cell_length_a       46.5283
_cell_length_b       46.6063
_cell_length_c       8.1791
_cell_angle_alpha    74.2626
_cell_angle_beta     124.983
_cell_angle_gamma    120.23

_symmetry_space_group_name_H-M    'P1'
_space_group_IT_number       1

loop_
  _space_group_symop_operation_xyz
  'x, y, z'

loop_
  _atom_site_type_symbol
  _atom_site_label
  _atom_site_symmetry_multiplicity
  _atom_site_fract_x
  _atom_site_fract_y
  _atom_site_fract_z
  _atom_site_occupancy
  B   B1        1.0  0.80977  0.40244  0.22261  1.0000
  B   B2        1.0  0.60105  0.40282  0.27877  1.0000
  B   B3        1.0  0.59808  0.18845  0.26390  1.0000
  B   B4        1.0  0.19649  0.59390  0.27096  1.0000
  B   B5        1.0  0.40763  0.59208  0.24747  1.0000
  B   B6        1.0  0.40772  0.80717  0.25184  1.0000
  B   B7        1.0  0.80262  0.40644  0.71787  1.0000
  B   B8        1.0  0.59347  0.40667  0.77314  1.0000
  B   B9        1.0  0.59261  0.19297  0.75508  1.0000
  B   B10       1.0  0.18867  0.59668  0.76289  1.0000
  B   B11       1.0  0.40171  0.59778  0.74514  1.0000
  B   B12       1.0  0.40405  0.81189  0.76041  1.0000
  H   H1        1.0  0.73237  0.30872  0.25576  1.0000
  H   H2        1.0  0.69305  0.26831  0.26910  1.0000
  H   H3        1.0  0.58406  0.26897  0.25230  1.0000
  H   H4        1.0  0.58567  0.30915  0.26585  1.0000
  H   H5        1.0  0.69381  0.41683  0.26450  1.0000
  H   H6        1.0  0.52890  0.14558  0.25114  1.0000
  H   H7        1.0  0.49736  0.08397  0.24441  1.0000
  H   H8        1.0  0.59214  0.08419  0.26540  1.0000
  H   H9        1.0  0.62381  0.14584  0.27149  1.0000
  H   H10       1.0  0.50422  0.58628  0.23279  1.0000
  H   H11       1.0  0.47486  0.61704  0.24550  1.0000
  H   H12       1.0  0.37963  0.52447  0.22117  1.0000
  H   H13       1.0  0.40917  0.49378  0.20964  1.0000
  H   H14       1.0  0.31502  0.72630  0.25440  1.0000
  H   H15       1.0  0.42421  0.72780  0.26092  1.0000
  H   H16       1.0  0.42638  0.68636  0.28547  1.0000
  H   H17       1.0  0.31512  0.57910  0.25865  1.0000
  H   H18       1.0  0.27479  0.68701  0.24554  1.0000
  H   H19       1.0  0.27741  0.57910  0.28569  1.0000
  H   H20       1.0  0.72610  0.42113  0.74585  1.0000
  H   H21       1.0  0.72551  0.31300  0.75178  1.0000
  H   H22       1.0  0.68599  0.27338  0.75415  1.0000
  H   H23       1.0  0.57755  0.27275  0.74973  1.0000
  H   H24       1.0  0.57806  0.31311  0.75434  1.0000
  H   H25       1.0  0.68751  0.42114  0.76868  1.0000
  H   H26       1.0  0.61702  0.47345  0.75295  1.0000
  H   H27       1.0  0.58500  0.50514  0.73052  1.0000
  H   H28       1.0  0.49614  0.41397  0.78052  1.0000
  H   H29       1.0  0.52816  0.38245  0.80197  1.0000
  H   H30       1.0  0.49978  0.59362  0.73494  1.0000
  H   H31       1.0  0.46880  0.62368  0.73759  1.0000
  H   H32       1.0  0.37504  0.53040  0.72070  1.0000
  H   H33       1.0  0.40629  0.50060  0.71832  1.0000
  H   H34       1.0  0.27030  0.58366  0.77425  1.0000
  H   H35       1.0  0.26706  0.69080  0.74421  1.0000
  H   H36       1.0  0.30844  0.73169  0.75020  1.0000
  H   H37       1.0  0.41819  0.73157  0.77099  1.0000
  H   H38       1.0  0.41917  0.69139  0.78128  1.0000
  H   H39       1.0  0.30821  0.58362  0.75223  1.0000
  H   H40       1.0  0.14421  0.52923  0.73774  1.0000
  H   H41       1.0  0.08083  0.49760  0.72249  1.0000
  H   H42       1.0  0.08499  0.58913  0.77702  1.0000
  H   H43       1.0  0.14807  0.62087  0.78892  1.0000
  H   H44       1.0  0.37882  0.85511  0.74999  1.0000
  H   H45       1.0  0.40965  0.91664  0.74328  1.0000
  H   H46       1.0  0.47371  0.85426  0.77715  1.0000
  H   H47       1.0  0.50490  0.91585  0.77373  1.0000
  H   H48       1.0  0.73134  0.41648  0.23680  1.0000
  C   C1        1.0  0.98486  0.49161  0.23037  1.0000
  C   C2        1.0  0.50777  0.48897  0.21476  1.0000
  C   C3        1.0  0.51059  0.01450  0.26014  1.0000
  C   C4        1.0  0.01855  0.50873  0.23214  1.0000
  C   C5        1.0  0.49066  0.50551  0.21060  1.0000
  C   C6        1.0  0.49429  0.98107  0.26092  1.0000
  C   C7        1.0  0.95407  0.47586  0.22805  1.0000
  C   C8        1.0  0.52392  0.47373  0.22482  1.0000
  C   C9        1.0  0.52547  0.04494  0.25753  1.0000
  C   C10       1.0  0.04938  0.52453  0.23442  1.0000
  C   C11       1.0  0.47559  0.52052  0.21416  1.0000
  C   C12       1.0  0.47888  0.95056  0.26036  1.0000
  C   C13       1.0  0.54281  0.07993  0.25618  1.0000
  C   C14       1.0  0.45876  0.53788  0.22024  1.0000
  C   C15       1.0  0.57876  0.09788  0.26389  1.0000
  C   C16       1.0  0.47709  0.57292  0.23105  1.0000
  C   C17       1.0  0.42320  0.52071  0.21584  1.0000
  C   C18       1.0  0.52491  0.09770  0.24953  1.0000
  C   C19       1.0  0.59627  0.13239  0.26711  1.0000
  C   C20       1.0  0.46038  0.59000  0.23694  1.0000
  C   C21       1.0  0.40672  0.53800  0.22158  1.0000
  C   C22       1.0  0.54275  0.13223  0.25321  1.0000
  C   C23       1.0  0.57875  0.15032  0.26224  1.0000
  C   C24       1.0  0.42499  0.57297  0.23318  1.0000
  C   C25       1.0  0.75934  0.39156  0.23881  1.0000
  C   C26       1.0  0.61050  0.36183  0.26364  1.0000
  C   C27       1.0  0.63985  0.24058  0.26616  1.0000
  C   C28       1.0  0.24837  0.60421  0.26989  1.0000
  C   C29       1.0  0.39942  0.63352  0.26900  1.0000
  C   C30       1.0  0.36775  0.75466  0.25441  1.0000
  C   C31       1.0  0.39864  0.75537  0.25883  1.0000
  C   C32       1.0  0.36808  0.60350  0.25890  1.0000
  C   C33       1.0  0.24757  0.63439  0.25827  1.0000
  C   C34       1.0  0.60906  0.24065  0.25833  1.0000
  C   C35       1.0  0.64095  0.39202  0.26538  1.0000
  C   C36       1.0  0.75998  0.36146  0.24700  1.0000
  C   C37       1.0  0.73097  0.39272  0.24438  1.0000
  C   C38       1.0  0.60914  0.33186  0.26109  1.0000
  C   C39       1.0  0.67022  0.26951  0.26700  1.0000
  C   C40       1.0  0.27759  0.60294  0.27353  1.0000
  C   C41       1.0  0.40165  0.66365  0.27789  1.0000
  C   C42       1.0  0.33809  0.72550  0.25606  1.0000
  C   C43       1.0  0.40055  0.72654  0.26371  1.0000
  C   C44       1.0  0.33863  0.60275  0.26344  1.0000
  C   C45       1.0  0.27624  0.66416  0.25306  1.0000
  C   C46       1.0  0.60807  0.26976  0.25557  1.0000
  C   C47       1.0  0.67052  0.39297  0.26107  1.0000
  C   C48       1.0  0.73169  0.33160  0.25582  1.0000
  C   C49       1.0  0.70119  0.36236  0.25421  1.0000
  C   C50       1.0  0.63931  0.33170  0.25832  1.0000
  C   C51       1.0  0.67023  0.30026  0.26210  1.0000
  C   C52       1.0  0.30785  0.63324  0.26758  1.0000
  C   C53       1.0  0.37076  0.66409  0.27225  1.0000
  C   C54       1.0  0.33888  0.69519  0.26114  1.0000
  C   C55       1.0  0.37044  0.69556  0.26744  1.0000
  C   C56       1.0  0.33950  0.63334  0.26968  1.0000
  C   C57       1.0  0.30740  0.66393  0.26092  1.0000
  C   C58       1.0  0.63917  0.30032  0.25846  1.0000
  C   C59       1.0  0.67018  0.36245  0.25764  1.0000
  C   C60       1.0  0.70142  0.33160  0.25850  1.0000
  C   C61       1.0  0.97835  0.49224  0.73572  1.0000
  C   C62       1.0  0.50585  0.49615  0.73589  1.0000
  C   C63       1.0  0.50784  0.01927  0.74959  1.0000
  C   C64       1.0  0.01194  0.50867  0.73729  1.0000
  C   C65       1.0  0.48896  0.51301  0.73151  1.0000
  C   C66       1.0  0.49198  0.98589  0.75160  1.0000
  C   C67       1.0  0.94786  0.47707  0.73620  1.0000
  C   C68       1.0  0.52051  0.47976  0.74264  1.0000
  C   C69       1.0  0.52176  0.04969  0.74861  1.0000
  C   C70       1.0  0.04266  0.52368  0.73866  1.0000
  C   C71       1.0  0.47351  0.52813  0.72981  1.0000
  C   C72       1.0  0.47685  0.95537  0.75379  1.0000
  C   C73       1.0  0.53829  0.46168  0.75306  1.0000
  C   C74       1.0  0.07846  0.54133  0.74624  1.0000
  C   C75       1.0  0.45541  0.54506  0.72804  1.0000
  C   C76       1.0  0.45925  0.92038  0.75716  1.0000
  C   C77       1.0  0.52242  0.42675  0.77306  1.0000
  C   C78       1.0  0.09582  0.52452  0.73766  1.0000
  C   C79       1.0  0.47268  0.58010  0.73342  1.0000
  C   C80       1.0  0.42328  0.90272  0.74969  1.0000
  C   C81       1.0  0.47729  0.90228  0.76859  1.0000
  C   C82       1.0  0.41966  0.52751  0.72146  1.0000
  C   C83       1.0  0.09798  0.57639  0.76571  1.0000
  C   C84       1.0  0.57287  0.47831  0.74712  1.0000
  C   C85       1.0  0.54060  0.40928  0.78520  1.0000
  C   C86       1.0  0.13132  0.54233  0.74717  1.0000
  C   C87       1.0  0.45509  0.59669  0.73480  1.0000
  C   C88       1.0  0.40610  0.86823  0.75246  1.0000
  C   C89       1.0  0.45955  0.86775  0.77001  1.0000
  C   C90       1.0  0.40229  0.54435  0.72294  1.0000
  C   C91       1.0  0.13337  0.59391  0.77397  1.0000
  C   C92       1.0  0.59066  0.46048  0.75984  1.0000
  C   C93       1.0  0.57478  0.42561  0.77683  1.0000
  C   C94       1.0  0.15067  0.57732  0.76422  1.0000
  C   C95       1.0  0.41977  0.57928  0.73187  1.0000
  C   C96       1.0  0.42359  0.84996  0.76131  1.0000
  C   C97       1.0  0.75279  0.39583  0.73813  1.0000
  C   C98       1.0  0.60312  0.36590  0.75738  1.0000
  C   C99       1.0  0.63346  0.24528  0.75654  1.0000
  C   C100      1.0  0.24098  0.60805  0.76314  1.0000
  C   C101      1.0  0.39300  0.63864  0.76942  1.0000
  C   C102      1.0  0.36196  0.75968  0.75543  1.0000
  C   C103      1.0  0.39277  0.75963  0.76272  1.0000
  C   C104      1.0  0.36175  0.60850  0.75840  1.0000
  C   C105      1.0  0.23991  0.63803  0.75345  1.0000
  C   C106      1.0  0.60307  0.24492  0.75495  1.0000
  C   C107      1.0  0.63403  0.39616  0.76472  1.0000
  C   C108      1.0  0.75292  0.36567  0.74182  1.0000
  C   C109      1.0  0.72489  0.39720  0.74688  1.0000
  C   C110      1.0  0.60182  0.33598  0.75378  1.0000
  C   C111      1.0  0.66345  0.27430  0.75661  1.0000
  C   C112      1.0  0.27039  0.60730  0.76600  1.0000
  C   C113      1.0  0.39472  0.66865  0.77579  1.0000
  C   C114      1.0  0.33144  0.73064  0.75231  1.0000
  C   C115      1.0  0.39401  0.73061  0.76715  1.0000
  C   C116      1.0  0.33183  0.60741  0.75999  1.0000
  C   C117      1.0  0.26860  0.66805  0.75007  1.0000
  C   C118      1.0  0.60160  0.27375  0.75240  1.0000
  C   C119      1.0  0.66397  0.39729  0.76265  1.0000
  C   C120      1.0  0.72477  0.33588  0.75126  1.0000
  C   C121      1.0  0.69477  0.36687  0.75380  1.0000
  C   C122      1.0  0.63244  0.33593  0.75465  1.0000
  C   C123      1.0  0.66344  0.30476  0.75651  1.0000
  C   C124      1.0  0.30065  0.63781  0.76243  1.0000
  C   C125      1.0  0.36355  0.66863  0.76953  1.0000
  C   C126      1.0  0.33157  0.69992  0.75719  1.0000
  C   C127      1.0  0.36316  0.69994  0.76518  1.0000
  C   C128      1.0  0.33231  0.63789  0.76502  1.0000
  C   C129      1.0  0.30000  0.66845  0.75654  1.0000
  C   C130      1.0  0.63230  0.30452  0.75374  1.0000
  C   C131      1.0  0.66351  0.36682  0.75639  1.0000
  C   C132      1.0  0.69467  0.33609  0.75433  1.0000
  O   O1        1.0  0.79158  0.36773  0.23858  1.0000
  O   O2        1.0  0.63566  0.41813  0.27479  1.0000
  O   O3        1.0  0.58246  0.20827  0.25662  1.0000
  O   O4        1.0  0.21518  0.62854  0.25658  1.0000
  O   O5        1.0  0.37242  0.57728  0.24397  1.0000
  O   O6        1.0  0.42410  0.78821  0.25594  1.0000
  O   O7        1.0  0.37259  0.78667  0.24846  1.0000
  O   O8        1.0  0.42482  0.62691  0.26435  1.0000
  O   O9        1.0  0.21671  0.57844  0.27933  1.0000
  O   O10       1.0  0.63381  0.20814  0.27124  1.0000
  O   O11       1.0  0.58490  0.36797  0.26916  1.0000
  O   O12       1.0  0.78998  0.41745  0.22244  1.0000
  O   O13       1.0  0.78411  0.37169  0.73183  1.0000
  O   O14       1.0  0.62879  0.42207  0.77622  1.0000
  O   O15       1.0  0.57719  0.21234  0.75538  1.0000
  O   O16       1.0  0.20715  0.63144  0.75172  1.0000
  O   O17       1.0  0.36644  0.58251  0.74257  1.0000
  O   O18       1.0  0.41935  0.79208  0.76459  1.0000
  O   O19       1.0  0.36850  0.79225  0.75450  1.0000
  O   O20       1.0  0.41879  0.63254  0.76579  1.0000
  O   O21       1.0  0.20933  0.58188  0.77028  1.0000
  O   O22       1.0  0.62742  0.21309  0.75518  1.0000
  O   O23       1.0  0.57710  0.37191  0.76007  1.0000
  O   O24       1.0  0.78350  0.42173  0.72194  1.0000
  C  Sn1       1.0  0.47283  0.89064  0.20871  1.0000
  C   C133      1.0  0.45940  0.91189  0.20461  1.0000
  C  Sn2       1.0  0.42994  0.89992  0.24518  1.0000
  C  Sn3       1.0  0.41357  0.86601  0.29092  1.0000
  C   C134      1.0  0.42700  0.84479  0.29503  1.0000
  C  Sn4       1.0  0.45646  0.85673  0.25445  1.0000
  O  Te1       1.0  0.50230  0.90315  0.16768  1.0000
  O  Te2       1.0  0.41699  0.92164  0.24012  1.0000
  O  Te3       1.0  0.38407  0.85352  0.33196  1.0000
  O  Te4       1.0  0.46941  0.83504  0.25953  1.0000
  Mg  Mg1       1.0  0.37623  0.89285  0.30674  1.0000
  Mg  Mg2       1.0  0.51018  0.86380  0.19303  1.0000
  C  Sn5       1.0  0.57983  0.47151  0.19848  1.0000
  C   C135      1.0  0.54490  0.45855  0.19326  1.0000
  C  Sn6       1.0  0.52935  0.42612  0.25315  1.0000
  C  Sn7       1.0  0.54913  0.40624  0.31978  1.0000
  C   C136      1.0  0.58403  0.41921  0.32502  1.0000
  C  Sn8       1.0  0.59960  0.45164  0.26511  1.0000
  O  Te5       1.0  0.59484  0.50400  0.13791  1.0000
  O  Te6       1.0  0.49439  0.41370  0.24655  1.0000
  O  Te7       1.0  0.53409  0.37374  0.38037  1.0000
  O  Te8       1.0  0.63455  0.46406  0.27172  1.0000
  Mg  Mg3       1.0  0.48562  0.36799  0.34448  1.0000
  Mg  Mg4       1.0  0.64335  0.50977  0.17393  1.0000
  C  Sn9       1.0  0.58474  0.12999  0.70142  1.0000
  C   C137      1.0  0.57174  0.15119  0.70232  1.0000
  C  Sn10      1.0  0.54264  0.13905  0.74578  1.0000
  C  Sn11      1.0  0.52621  0.10502  0.78937  1.0000
  C   C138      1.0  0.53921  0.08385  0.78849  1.0000
  C  Sn12      1.0  0.56831  0.09596  0.74501  1.0000
  O  Te9       1.0  0.61387  0.14266  0.65758  1.0000
  O  Te10      1.0  0.53011  0.16072  0.74571  1.0000
  O  Te11      1.0  0.49706  0.09237  0.83323  1.0000
  O  Te12      1.0  0.58085  0.07431  0.74511  1.0000
  Mg  Mg5       1.0  0.48973  0.13169  0.81465  1.0000
  Mg  Mg6       1.0  0.62124  0.10332  0.67629  1.0000
  C  Sn13      1.0  0.86757  0.46311  0.16811  1.0000
  C   C139      1.0  0.84538  0.42868  0.15747  1.0000
  C  Sn14      1.0  0.86156  0.40745  0.19649  1.0000
  C  Sn15      1.0  0.90075  0.42091  0.24732  1.0000
  C   C140      1.0  0.92292  0.45532  0.25797  1.0000
  C  Sn16      1.0  0.90676  0.47657  0.21895  1.0000
  O  Te13      1.0  0.85079  0.48387  0.12853  1.0000
  O  Te14      1.0  0.83879  0.37311  0.18485  1.0000
  O  Te15      1.0  0.91751  0.40012  0.28691  1.0000
  O  Te16      1.0  0.92950  0.51089  0.23060  1.0000
  Mg  Mg7       1.0  0.87474  0.35506  0.25199  1.0000
  Mg  Mg8       1.0  0.89360  0.52896  0.16359  1.0000
  C  Sn17      1.0  0.11448  0.52447  0.29608  1.0000
  C   C141      1.0  0.09368  0.53808  0.29569  1.0000
  C  Sn18      1.0  0.10373  0.57196  0.26513  1.0000
  C  Sn19      1.0  0.13523  0.59268  0.23418  1.0000
  C   C142      1.0  0.15601  0.57907  0.23455  1.0000
  C  Sn20      1.0  0.14598  0.54518  0.26513  1.0000
  O  Te17      1.0  0.10392  0.49053  0.32691  1.0000
  O  Te18      1.0  0.08251  0.58500  0.26545  1.0000
  O  Te19      1.0  0.14578  0.62664  0.20334  1.0000
  O  Te20      1.0  0.16718  0.53215  0.26479  1.0000
  Mg  Mg9       1.0  0.10804  0.63273  0.21681  1.0000
  Mg  Mg10      1.0  0.14166  0.48441  0.31330  1.0000
  C  Sn21      1.0  0.89311  0.47542  0.78989  1.0000
  C   C143      1.0  0.91363  0.46225  0.78369  1.0000
  C  Sn22      1.0  0.89512  0.42946  0.71864  1.0000
  C  Sn23      1.0  0.85527  0.40941  0.65840  1.0000
  C   C144      1.0  0.83477  0.42258  0.66459  1.0000
  C  Sn24      1.0  0.85326  0.45538  0.72966  1.0000
  O  Te21      1.0  0.91220  0.50827  0.85543  1.0000
  O  Te22      1.0  0.91624  0.41684  0.71380  1.0000
  O  Te23      1.0  0.83619  0.37654  0.59283  1.0000
  O  Te24      1.0  0.83216  0.46799  0.73447  1.0000
  Mg  Mg11      1.0  0.87736  0.37064  0.61290  1.0000
  Mg  Mg12      1.0  0.87100  0.51419  0.83525  1.0000
