data_image0
_chemical_formula_structural       B12H48C132O24C2Sn2C2HTe2HMgC2Sn2C2HTe2HMgC2Sn2C2HTe2HMgC2Sn2C2HTe2HMgC2Sn2C2HTe2HMgC2Sn2C2HTe2HMg
_chemical_formula_sum              "B12 H60 C156 O24 Sn12 Te12 Mg6"
_cell_length_a       46.5283
_cell_length_b       46.6063
_cell_length_c       8.1791
_cell_angle_alpha    74.2626
_cell_angle_beta     124.983
_cell_angle_gamma    120.23

_symmetry_space_group_name_H-M    'P1'
_space_group_IT_number       1

loop_
  _space_group_symop_operation_xyz
  'x, y, z'

loop_
  _atom_site_type_symbol
  _atom_site_label
  _atom_site_symmetry_multiplicity
  _atom_site_fract_x
  _atom_site_fract_y
  _atom_site_fract_z
  _atom_site_occupancy
  B   B1        1.0  0.80977  0.40244  0.22261  1.0000
  B   B2        1.0  0.60105  0.40282  0.27877  1.0000
  B   B3        1.0  0.59808  0.18845  0.26390  1.0000
  B   B4        1.0  0.19649  0.59390  0.27096  1.0000
  B   B5        1.0  0.40763  0.59208  0.24747  1.0000
  B   B6        1.0  0.40772  0.80717  0.25184  1.0000
  B   B7        1.0  0.80262  0.40644  0.71787  1.0000
  B   B8        1.0  0.59347  0.40667  0.77314  1.0000
  B   B9        1.0  0.59261  0.19297  0.75508  1.0000
  B   B10       1.0  0.18867  0.59668  0.76289  1.0000
  B   B11       1.0  0.40171  0.59778  0.74514  1.0000
  B   B12       1.0  0.40405  0.81189  0.76041  1.0000
  H   H1        1.0  0.91592  0.50158  0.24570  1.0000
  H   H2        1.0  0.85323  0.46979  0.23671  1.0000
  H   H3        1.0  0.91222  0.40995  0.19514  1.0000
  H   H4        1.0  0.84966  0.37815  0.18814  1.0000
  H   H5        1.0  0.73237  0.30872  0.25576  1.0000
  H   H6        1.0  0.69305  0.26831  0.26910  1.0000
  H   H7        1.0  0.58406  0.26897  0.25230  1.0000
  H   H8        1.0  0.58567  0.30915  0.26585  1.0000
  H   H9        1.0  0.69381  0.41683  0.26450  1.0000
  H   H10       1.0  0.52890  0.14558  0.25114  1.0000
  H   H11       1.0  0.49736  0.08397  0.24441  1.0000
  H   H12       1.0  0.59214  0.08419  0.26540  1.0000
  H   H13       1.0  0.62381  0.14584  0.27149  1.0000
  H   H14       1.0  0.50422  0.58628  0.23279  1.0000
  H   H15       1.0  0.47486  0.61704  0.24550  1.0000
  H   H16       1.0  0.37963  0.52447  0.22117  1.0000
  H   H17       1.0  0.40917  0.49378  0.20964  1.0000
  H   H18       1.0  0.47690  0.85037  0.27408  1.0000
  H   H19       1.0  0.50776  0.91202  0.27531  1.0000
  H   H20       1.0  0.41094  0.91099  0.23978  1.0000
  H   H21       1.0  0.37991  0.84942  0.23520  1.0000
  H   H22       1.0  0.31502  0.72630  0.25440  1.0000
  H   H23       1.0  0.42421  0.72780  0.26092  1.0000
  H   H24       1.0  0.42638  0.68636  0.28547  1.0000
  H   H25       1.0  0.31512  0.57910  0.25865  1.0000
  H   H26       1.0  0.27479  0.68701  0.24554  1.0000
  H   H27       1.0  0.27741  0.57910  0.28569  1.0000
  H   H28       1.0  0.84211  0.38086  0.69399  1.0000
  H   H29       1.0  0.90548  0.41126  0.70873  1.0000
  H   H30       1.0  0.91038  0.50436  0.74486  1.0000
  H   H31       1.0  0.84647  0.47404  0.72471  1.0000
  H   H32       1.0  0.72610  0.42113  0.74585  1.0000
  H   H33       1.0  0.72551  0.31300  0.75178  1.0000
  H   H34       1.0  0.68599  0.27338  0.75415  1.0000
  H   H35       1.0  0.57755  0.27275  0.74973  1.0000
  H   H36       1.0  0.57806  0.31311  0.75434  1.0000
  H   H37       1.0  0.68751  0.42114  0.76868  1.0000
  H   H38       1.0  0.27030  0.58366  0.77425  1.0000
  H   H39       1.0  0.26706  0.69080  0.74421  1.0000
  H   H40       1.0  0.30844  0.73169  0.75020  1.0000
  H   H41       1.0  0.41819  0.73157  0.77099  1.0000
  H   H42       1.0  0.41917  0.69139  0.78128  1.0000
  H   H43       1.0  0.30821  0.58362  0.75223  1.0000
  H   H44       1.0  0.37882  0.85511  0.74999  1.0000
  H   H45       1.0  0.40965  0.91664  0.74328  1.0000
  H   H46       1.0  0.47371  0.85426  0.77715  1.0000
  H   H47       1.0  0.50490  0.91585  0.77373  1.0000
  H   H48       1.0  0.73134  0.41648  0.23680  1.0000
  C   C1        1.0  0.98486  0.49161  0.23037  1.0000
  C   C2        1.0  0.50777  0.48897  0.21476  1.0000
  C   C3        1.0  0.51059  0.01450  0.26014  1.0000
  C   C4        1.0  0.01855  0.50873  0.23214  1.0000
  C   C5        1.0  0.49066  0.50551  0.21060  1.0000
  C   C6        1.0  0.49429  0.98107  0.26092  1.0000
  C   C7        1.0  0.95407  0.47586  0.22805  1.0000
  C   C8        1.0  0.52392  0.47373  0.22482  1.0000
  C   C9        1.0  0.52547  0.04494  0.25753  1.0000
  C   C10       1.0  0.04938  0.52453  0.23442  1.0000
  C   C11       1.0  0.47559  0.52052  0.21416  1.0000
  C   C12       1.0  0.47888  0.95056  0.26036  1.0000
  C   C13       1.0  0.91847  0.45788  0.22289  1.0000
  C   C14       1.0  0.54281  0.07993  0.25618  1.0000
  C   C15       1.0  0.45876  0.53788  0.22024  1.0000
  C   C16       1.0  0.46138  0.91559  0.25820  1.0000
  C   C17       1.0  0.90113  0.47464  0.23197  1.0000
  C   C18       1.0  0.57876  0.09788  0.26389  1.0000
  C   C19       1.0  0.47709  0.57292  0.23105  1.0000
  C   C20       1.0  0.42495  0.89745  0.24588  1.0000
  C   C21       1.0  0.47999  0.89816  0.26837  1.0000
  C   C22       1.0  0.42320  0.52071  0.21584  1.0000
  C   C23       1.0  0.52491  0.09770  0.24953  1.0000
  C   C24       1.0  0.89929  0.42278  0.20636  1.0000
  C   C25       1.0  0.86601  0.45673  0.22621  1.0000
  C   C26       1.0  0.59627  0.13239  0.26711  1.0000
  C   C27       1.0  0.46038  0.59000  0.23694  1.0000
  C   C28       1.0  0.40784  0.86292  0.24381  1.0000
  C   C29       1.0  0.46252  0.86364  0.26688  1.0000
  C   C30       1.0  0.40672  0.53800  0.22158  1.0000
  C   C31       1.0  0.54275  0.13223  0.25321  1.0000
  C   C32       1.0  0.86418  0.40517  0.20133  1.0000
  C   C33       1.0  0.84696  0.42170  0.21260  1.0000
  C   C34       1.0  0.57875  0.15032  0.26224  1.0000
  C   C35       1.0  0.42499  0.57297  0.23318  1.0000
  C   C36       1.0  0.42617  0.84528  0.25410  1.0000
  C   C37       1.0  0.75934  0.39156  0.23881  1.0000
  C   C38       1.0  0.61050  0.36183  0.26364  1.0000
  C   C39       1.0  0.63985  0.24058  0.26616  1.0000
  C   C40       1.0  0.24837  0.60421  0.26989  1.0000
  C   C41       1.0  0.39942  0.63352  0.26900  1.0000
  C   C42       1.0  0.36775  0.75466  0.25441  1.0000
  C   C43       1.0  0.39864  0.75537  0.25883  1.0000
  C   C44       1.0  0.36808  0.60350  0.25890  1.0000
  C   C45       1.0  0.24757  0.63439  0.25827  1.0000
  C   C46       1.0  0.60906  0.24065  0.25833  1.0000
  C   C47       1.0  0.64095  0.39202  0.26538  1.0000
  C   C48       1.0  0.75998  0.36146  0.24700  1.0000
  C   C49       1.0  0.73097  0.39272  0.24438  1.0000
  C   C50       1.0  0.60914  0.33186  0.26109  1.0000
  C   C51       1.0  0.67022  0.26951  0.26700  1.0000
  C   C52       1.0  0.27759  0.60294  0.27353  1.0000
  C   C53       1.0  0.40165  0.66365  0.27789  1.0000
  C   C54       1.0  0.33809  0.72550  0.25606  1.0000
  C   C55       1.0  0.40055  0.72654  0.26371  1.0000
  C   C56       1.0  0.33863  0.60275  0.26344  1.0000
  C   C57       1.0  0.27624  0.66416  0.25306  1.0000
  C   C58       1.0  0.60807  0.26976  0.25557  1.0000
  C   C59       1.0  0.67052  0.39297  0.26107  1.0000
  C   C60       1.0  0.73169  0.33160  0.25582  1.0000
  C   C61       1.0  0.70119  0.36236  0.25421  1.0000
  C   C62       1.0  0.63931  0.33170  0.25832  1.0000
  C   C63       1.0  0.67023  0.30026  0.26210  1.0000
  C   C64       1.0  0.30785  0.63324  0.26758  1.0000
  C   C65       1.0  0.37076  0.66409  0.27225  1.0000
  C   C66       1.0  0.33888  0.69519  0.26114  1.0000
  C   C67       1.0  0.37044  0.69556  0.26744  1.0000
  C   C68       1.0  0.33950  0.63334  0.26968  1.0000
  C   C69       1.0  0.30740  0.66393  0.26092  1.0000
  C   C70       1.0  0.63917  0.30032  0.25846  1.0000
  C   C71       1.0  0.67018  0.36245  0.25764  1.0000
  C   C72       1.0  0.70142  0.33160  0.25850  1.0000
  C   C73       1.0  0.97835  0.49224  0.73572  1.0000
  C   C74       1.0  0.50585  0.49615  0.73589  1.0000
  C   C75       1.0  0.50784  0.01927  0.74959  1.0000
  C   C76       1.0  0.01194  0.50867  0.73729  1.0000
  C   C77       1.0  0.48896  0.51301  0.73151  1.0000
  C   C78       1.0  0.49198  0.98589  0.75160  1.0000
  C   C79       1.0  0.94786  0.47707  0.73620  1.0000
  C   C80       1.0  0.52051  0.47976  0.74264  1.0000
  C   C81       1.0  0.52176  0.04969  0.74861  1.0000
  C   C82       1.0  0.04266  0.52368  0.73866  1.0000
  C   C83       1.0  0.47351  0.52813  0.72981  1.0000
  C   C84       1.0  0.47685  0.95537  0.75379  1.0000
  C   C85       1.0  0.91215  0.45983  0.72861  1.0000
  C   C86       1.0  0.45925  0.92038  0.75716  1.0000
  C   C87       1.0  0.89493  0.47737  0.73125  1.0000
  C   C88       1.0  0.42328  0.90272  0.74969  1.0000
  C   C89       1.0  0.47729  0.90228  0.76859  1.0000
  C   C90       1.0  0.89248  0.42470  0.71400  1.0000
  C   C91       1.0  0.85931  0.46026  0.72068  1.0000
  C   C92       1.0  0.40610  0.86823  0.75246  1.0000
  C   C93       1.0  0.45955  0.86775  0.77001  1.0000
  C   C94       1.0  0.85705  0.40792  0.70505  1.0000
  C   C95       1.0  0.83985  0.42522  0.70969  1.0000
  C   C96       1.0  0.42359  0.84996  0.76131  1.0000
  C   C97       1.0  0.75279  0.39583  0.73813  1.0000
  C   C98       1.0  0.60312  0.36590  0.75738  1.0000
  C   C99       1.0  0.63346  0.24528  0.75654  1.0000
  C   C100      1.0  0.24098  0.60805  0.76314  1.0000
  C   C101      1.0  0.39300  0.63864  0.76942  1.0000
  C   C102      1.0  0.36196  0.75968  0.75543  1.0000
  C   C103      1.0  0.39277  0.75963  0.76272  1.0000
  C   C104      1.0  0.36175  0.60850  0.75840  1.0000
  C   C105      1.0  0.23991  0.63803  0.75345  1.0000
  C   C106      1.0  0.60307  0.24492  0.75495  1.0000
  C   C107      1.0  0.63403  0.39616  0.76472  1.0000
  C   C108      1.0  0.75292  0.36567  0.74182  1.0000
  C   C109      1.0  0.72489  0.39720  0.74688  1.0000
  C   C110      1.0  0.60182  0.33598  0.75378  1.0000
  C   C111      1.0  0.66345  0.27430  0.75661  1.0000
  C   C112      1.0  0.27039  0.60730  0.76600  1.0000
  C   C113      1.0  0.39472  0.66865  0.77579  1.0000
  C   C114      1.0  0.33144  0.73064  0.75231  1.0000
  C   C115      1.0  0.39401  0.73061  0.76715  1.0000
  C   C116      1.0  0.33183  0.60741  0.75999  1.0000
  C   C117      1.0  0.26860  0.66805  0.75007  1.0000
  C   C118      1.0  0.60160  0.27375  0.75240  1.0000
  C   C119      1.0  0.66397  0.39729  0.76265  1.0000
  C   C120      1.0  0.72477  0.33588  0.75126  1.0000
  C   C121      1.0  0.69477  0.36687  0.75380  1.0000
  C   C122      1.0  0.63244  0.33593  0.75465  1.0000
  C   C123      1.0  0.66344  0.30476  0.75651  1.0000
  C   C124      1.0  0.30065  0.63781  0.76243  1.0000
  C   C125      1.0  0.36355  0.66863  0.76953  1.0000
  C   C126      1.0  0.33157  0.69992  0.75719  1.0000
  C   C127      1.0  0.36316  0.69994  0.76518  1.0000
  C   C128      1.0  0.33231  0.63789  0.76502  1.0000
  C   C129      1.0  0.30000  0.66845  0.75654  1.0000
  C   C130      1.0  0.63230  0.30452  0.75374  1.0000
  C   C131      1.0  0.66351  0.36682  0.75639  1.0000
  C   C132      1.0  0.69467  0.33609  0.75433  1.0000
  O   O1        1.0  0.79158  0.36773  0.23858  1.0000
  O   O2        1.0  0.63566  0.41813  0.27479  1.0000
  O   O3        1.0  0.58246  0.20827  0.25662  1.0000
  O   O4        1.0  0.21518  0.62854  0.25658  1.0000
  O   O5        1.0  0.37242  0.57728  0.24397  1.0000
  O   O6        1.0  0.42410  0.78821  0.25594  1.0000
  O   O7        1.0  0.37259  0.78667  0.24846  1.0000
  O   O8        1.0  0.42482  0.62691  0.26435  1.0000
  O   O9        1.0  0.21671  0.57844  0.27933  1.0000
  O   O10       1.0  0.63381  0.20814  0.27124  1.0000
  O   O11       1.0  0.58490  0.36797  0.26916  1.0000
  O   O12       1.0  0.78998  0.41745  0.22244  1.0000
  O   O13       1.0  0.78411  0.37169  0.73183  1.0000
  O   O14       1.0  0.62879  0.42207  0.77622  1.0000
  O   O15       1.0  0.57719  0.21234  0.75538  1.0000
  O   O16       1.0  0.20715  0.63144  0.75172  1.0000
  O   O17       1.0  0.36644  0.58251  0.74257  1.0000
  O   O18       1.0  0.41935  0.79208  0.76459  1.0000
  O   O19       1.0  0.36850  0.79225  0.75450  1.0000
  O   O20       1.0  0.41879  0.63254  0.76579  1.0000
  O   O21       1.0  0.20933  0.58188  0.77028  1.0000
  O   O22       1.0  0.62742  0.21309  0.75518  1.0000
  O   O23       1.0  0.57710  0.37191  0.76007  1.0000
  O   O24       1.0  0.78350  0.42173  0.72194  1.0000
  C   C133      1.0  0.11504  0.58468  0.27618  1.0000
  C   C134      1.0  0.08903  0.55091  0.24018  1.0000
  C  Sn1       1.0  0.09896  0.52840  0.22530  1.0000
  C  Sn2       1.0  0.13565  0.53997  0.24700  1.0000
  C   C135      1.0  0.16148  0.57380  0.28312  1.0000
  C   C136      1.0  0.15123  0.59611  0.29767  1.0000
  H   H49       1.0  0.10713  0.60195  0.28754  1.0000
  O  Te1       1.0  0.07262  0.49475  0.18921  1.0000
  O  Te2       1.0  0.14633  0.51800  0.23289  1.0000
  H   H50       1.0  0.17139  0.62225  0.32567  1.0000
  Mg  Mg1       1.0  0.10049  0.47449  0.18222  1.0000
  C   C137      1.0  0.10672  0.58454  0.77484  1.0000
  C   C138      1.0  0.08192  0.55050  0.74248  1.0000
  C  Sn3       1.0  0.09296  0.52890  0.72748  1.0000
  C  Sn4       1.0  0.12953  0.54169  0.74534  1.0000
  C   C139      1.0  0.15415  0.57579  0.77785  1.0000
  C   C140      1.0  0.14280  0.59718  0.79255  1.0000
  H   H51       1.0  0.09795  0.60109  0.78633  1.0000
  O  Te3       1.0  0.06782  0.49496  0.69505  1.0000
  O  Te4       1.0  0.14130  0.52067  0.73103  1.0000
  H   H52       1.0  0.16202  0.62353  0.81774  1.0000
  Mg  Mg2       1.0  0.09689  0.47629  0.68619  1.0000
  C   C141      1.0  0.59772  0.46461  0.26352  1.0000
  C   C142      1.0  0.58821  0.43078  0.29278  1.0000
  C  Sn5       1.0  0.55367  0.40865  0.29032  1.0000
  C  Sn6       1.0  0.52823  0.42068  0.25788  1.0000
  C   C143      1.0  0.53799  0.45457  0.22862  1.0000
  C   C144      1.0  0.57264  0.47649  0.23143  1.0000
  H   H53       1.0  0.62451  0.48157  0.26559  1.0000
  O  Te5       1.0  0.54462  0.37493  0.31989  1.0000
  O  Te6       1.0  0.49352  0.39911  0.25461  1.0000
  H   H54       1.0  0.57998  0.50268  0.20864  1.0000
  Mg  Mg3       1.0  0.49398  0.35532  0.30238  1.0000
  C   C145      1.0  0.59293  0.12953  0.76771  1.0000
  C   C146      1.0  0.57862  0.15118  0.74803  1.0000
  C  Sn7       1.0  0.54325  0.13877  0.73717  1.0000
  C  Sn8       1.0  0.52189  0.10404  0.74628  1.0000
  C   C147      1.0  0.53648  0.08259  0.76612  1.0000
  C   C148      1.0  0.57189  0.09527  0.77678  1.0000
  H   H55       1.0  0.62034  0.13934  0.77607  1.0000
  O  Te7       1.0  0.52936  0.16074  0.71745  1.0000
  O  Te8       1.0  0.48648  0.09097  0.73585  1.0000
  H   H56       1.0  0.58298  0.07851  0.79215  1.0000
  Mg  Mg4       1.0  0.47964  0.13096  0.70931  1.0000
  C   C149      1.0  0.58156  0.47850  0.75305  1.0000
  C   C150      1.0  0.54627  0.46661  0.74207  1.0000
  C  Sn9       1.0  0.52537  0.43271  0.75959  1.0000
  C  Sn10      1.0  0.54015  0.41037  0.78868  1.0000
  C   C151      1.0  0.57550  0.42252  0.79959  1.0000
  C   C152      1.0  0.59617  0.45648  0.78181  1.0000
  H   H57       1.0  0.59757  0.50478  0.73940  1.0000
  O  Te9       1.0  0.49016  0.42125  0.74820  1.0000
  O  Te10      1.0  0.51986  0.37637  0.80673  1.0000
  H   H58       1.0  0.62351  0.46568  0.79044  1.0000
  Mg  Mg5       1.0  0.47318  0.37274  0.78124  1.0000
  C   C153      1.0  0.41194  0.52712  0.72631  1.0000
  C   C154      1.0  0.44503  0.53985  0.71431  1.0000
  C  Sn11      1.0  0.46727  0.57416  0.71815  1.0000
  C  Sn12      1.0  0.45613  0.59605  0.73436  1.0000
  C   C155      1.0  0.42300  0.58306  0.74642  1.0000
  C   C156      1.0  0.40094  0.54870  0.74239  1.0000
  H   H59       1.0  0.39489  0.50053  0.72330  1.0000
  O  Te11      1.0  0.50023  0.58646  0.70593  1.0000
  O  Te12      1.0  0.47784  0.63044  0.73860  1.0000
  H   H60       1.0  0.37534  0.53884  0.75181  1.0000
  Mg  Mg6       1.0  0.52038  0.63523  0.71765  1.0000
