data_image0
_chemical_formula_structural       ZnNBC2NBC2NBC2NBC2N4OC4HOC4HOC4HOC4HOC4HOC4HOC4HOC4HZnNBC2NBC2NBC2NBC2N4OC4HOC4HOC4HOC4HOC4HOC4HOC4HOC4HSnCSn2CSnTe4Mg2SnCSn2CSnTe4Mg2SnCSn2CSnTe4Mg2SnCSn2CSnTe4Mg2SnCSn2CSnTe4Mg2SnCSn2CSnTe4Mg2SnCSn2CSnTe4Mg2SnCSn2CSnTe4Mg2SnCSn2CSnTe4Mg2SnCSn2CSnTe4Mg2SnCSn2CSnTe4Mg2SnCSn2CSnTe4Mg2
_chemical_formula_sum              "Zn2 N16 B8 C104 O16 H16 Sn48 Te48 Mg24"
_cell_length_a       36.9089
_cell_length_b       36.917
_cell_length_c       8.02536
_cell_angle_alpha    68.8078
_cell_angle_beta     67.9463
_cell_angle_gamma    91.5898

_symmetry_space_group_name_H-M    'P1'
_space_group_IT_number       1

loop_
  _space_group_symop_operation_xyz
  'x, y, z'

loop_
  _atom_site_type_symbol
  _atom_site_label
  _atom_site_symmetry_multiplicity
  _atom_site_fract_x
  _atom_site_fract_y
  _atom_site_fract_z
  _atom_site_occupancy
  Zn  Zn1       1.0  0.50262  0.49919  0.25048  1.0000
  N   N1        1.0  0.44850  0.49801  0.24974  1.0000
  B   B1        1.0  0.26998  0.49540  0.23135  1.0000
  C   C1        1.0  0.11223  0.49462  0.24750  1.0000
  C   C2        1.0  0.07963  0.49621  0.24177  1.0000
  N   N2        1.0  0.55665  0.50029  0.25205  1.0000
  B   B2        1.0  0.73586  0.50387  0.26275  1.0000
  C   C3        1.0  0.89412  0.50583  0.24065  1.0000
  C   C4        1.0  0.92679  0.50438  0.24563  1.0000
  N   N3        1.0  0.50206  0.44467  0.25506  1.0000
  B   B3        1.0  0.49875  0.26507  0.24958  1.0000
  C   C5        1.0  0.49108  0.10847  0.25024  1.0000
  C   C6        1.0  0.49070  0.07586  0.24359  1.0000
  N   N4        1.0  0.50306  0.55349  0.24798  1.0000
  B   B4        1.0  0.50041  0.73193  0.26612  1.0000
  C   C7        1.0  0.49460  0.88890  0.25433  1.0000
  C   C8        1.0  0.49259  0.92176  0.25648  1.0000
  N   N5        1.0  0.43698  0.43254  0.25291  1.0000
  N   N6        1.0  0.56788  0.56578  0.25087  1.0000
  N   N7        1.0  0.56691  0.43507  0.25625  1.0000
  N   N8        1.0  0.43791  0.56285  0.24847  1.0000
  O   O1        1.0  0.29101  0.46412  0.23640  1.0000
  C   C9        1.0  0.42669  0.46701  0.25027  1.0000
  C   C10       1.0  0.38925  0.47774  0.24569  1.0000
  C   C11       1.0  0.35726  0.45679  0.24359  1.0000
  C   C12       1.0  0.32625  0.47688  0.23965  1.0000
  H   H1        1.0  0.35727  0.42749  0.24207  1.0000
  O   O2        1.0  0.71435  0.53472  0.26298  1.0000
  C   C13       1.0  0.57824  0.53127  0.25284  1.0000
  C   C14       1.0  0.61566  0.52052  0.25782  1.0000
  C   C15       1.0  0.64764  0.54156  0.25978  1.0000
  C   C16       1.0  0.67895  0.52179  0.26126  1.0000
  H   H2        1.0  0.64748  0.57083  0.26164  1.0000
  O   O3        1.0  0.53090  0.28695  0.24771  1.0000
  C   C17       1.0  0.53244  0.42364  0.25500  1.0000
  C   C18       1.0  0.52076  0.38556  0.25388  1.0000
  C   C19       1.0  0.54049  0.35367  0.25179  1.0000
  C   C20       1.0  0.51916  0.32199  0.25268  1.0000
  H   H3        1.0  0.57001  0.35387  0.25064  1.0000
  O   O4        1.0  0.46925  0.70903  0.26655  1.0000
  C   C21       1.0  0.47242  0.57410  0.24960  1.0000
  C   C22       1.0  0.48344  0.61197  0.25242  1.0000
  C   C23       1.0  0.46236  0.64279  0.25784  1.0000
  C   C24       1.0  0.48248  0.67477  0.25940  1.0000
  H   H4        1.0  0.43264  0.64135  0.26144  1.0000
  O   O5        1.0  0.71414  0.47213  0.26157  1.0000
  C   C25       1.0  0.57777  0.46994  0.25557  1.0000
  C   C26       1.0  0.61547  0.48196  0.25842  1.0000
  C   C27       1.0  0.64737  0.46231  0.26028  1.0000
  C   C28       1.0  0.67885  0.48360  0.26070  1.0000
  H   H5        1.0  0.64733  0.43288  0.26030  1.0000
  O   O6        1.0  0.29181  0.52719  0.23195  1.0000
  C   C29       1.0  0.42723  0.52819  0.24741  1.0000
  C   C30       1.0  0.38957  0.51632  0.24433  1.0000
  C   C31       1.0  0.35801  0.53632  0.23988  1.0000
  C   C32       1.0  0.32666  0.51529  0.23752  1.0000
  H   H6        1.0  0.35836  0.56582  0.23883  1.0000
  O   O7        1.0  0.46732  0.28599  0.25774  1.0000
  C   C33       1.0  0.47137  0.42261  0.25502  1.0000
  C   C34       1.0  0.48218  0.38503  0.25481  1.0000
  C   C35       1.0  0.46084  0.35276  0.25714  1.0000
  C   C36       1.0  0.48056  0.32145  0.25701  1.0000
  H   H7        1.0  0.43153  0.35284  0.25566  1.0000
  O   O8        1.0  0.53264  0.71217  0.25859  1.0000
  C   C37       1.0  0.53357  0.57587  0.24850  1.0000
  C   C38       1.0  0.52209  0.61333  0.25062  1.0000
  C   C39       1.0  0.54213  0.64609  0.25145  1.0000
  C   C40       1.0  0.52105  0.67649  0.25556  1.0000
  H   H8        1.0  0.57158  0.64713  0.25134  1.0000
  Zn  Zn2       1.0  0.49844  0.50078  0.75010  1.0000
  N   N9        1.0  0.44442  0.49929  0.74972  1.0000
  B   B5        1.0  0.26622  0.49727  0.72889  1.0000
  C   C41       1.0  0.10874  0.49816  0.74289  1.0000
  C   C42       1.0  0.07625  0.49924  0.73576  1.0000
  N   N10       1.0  0.55246  0.50201  0.75426  1.0000
  B   B6        1.0  0.73151  0.50304  0.76598  1.0000
  C   C43       1.0  0.88991  0.50310  0.73941  1.0000
  C   C44       1.0  0.92250  0.50177  0.74549  1.0000
  N   N11       1.0  0.49791  0.44638  0.75484  1.0000
  B   B7        1.0  0.50012  0.26710  0.74780  1.0000
  C   C45       1.0  0.50292  0.11105  0.74547  1.0000
  C   C46       1.0  0.50369  0.07855  0.73782  1.0000
  N   N12       1.0  0.49929  0.55511  0.74690  1.0000
  B   B8        1.0  0.49870  0.73341  0.76690  1.0000
  C   C47       1.0  0.50064  0.89101  0.75328  1.0000
  C   C48       1.0  0.50098  0.92388  0.75682  1.0000
  N   N13       1.0  0.43307  0.43374  0.75229  1.0000
  N   N14       1.0  0.56413  0.56743  0.75101  1.0000
  N   N15       1.0  0.56271  0.43691  0.75806  1.0000
  N   N16       1.0  0.43427  0.56439  0.74641  1.0000
  O   O9        1.0  0.28690  0.46569  0.73619  1.0000
  C   C49       1.0  0.42271  0.46826  0.74995  1.0000
  C   C50       1.0  0.38532  0.47907  0.74473  1.0000
  C   C51       1.0  0.35314  0.45808  0.74400  1.0000
  C   C52       1.0  0.32232  0.47837  0.73841  1.0000
  H   H9        1.0  0.35279  0.42850  0.74584  1.0000
  O   O10       1.0  0.71092  0.53466  0.76133  1.0000
  C   C53       1.0  0.57445  0.53297  0.75347  1.0000
  C   C54       1.0  0.61191  0.52204  0.75779  1.0000
  C   C55       1.0  0.64435  0.54264  0.75827  1.0000
  C   C56       1.0  0.67523  0.52222  0.76104  1.0000
  H   H10       1.0  0.64492  0.57205  0.75849  1.0000
  O   O11       1.0  0.53108  0.28987  0.74908  1.0000
  C   C57       1.0  0.52830  0.42557  0.75669  1.0000
  C   C58       1.0  0.51719  0.38746  0.75663  1.0000
  C   C59       1.0  0.53804  0.35635  0.75610  1.0000
  C   C60       1.0  0.51805  0.32433  0.75412  1.0000
  H   H11       1.0  0.56745  0.35780  0.75635  1.0000
  O   O12       1.0  0.46717  0.71102  0.76733  1.0000
  C   C61       1.0  0.46866  0.57577  0.74845  1.0000
  C   C62       1.0  0.47979  0.61361  0.75230  1.0000
  C   C63       1.0  0.45923  0.64479  0.75784  1.0000
  C   C64       1.0  0.47982  0.67652  0.75970  1.0000
  H   H12       1.0  0.42955  0.64387  0.76083  1.0000
  O   O13       1.0  0.70899  0.47130  0.76845  1.0000
  C   C65       1.0  0.57352  0.47172  0.75726  1.0000
  C   C66       1.0  0.61123  0.48342  0.75961  1.0000
  C   C67       1.0  0.64252  0.46304  0.76335  1.0000
  C   C68       1.0  0.67424  0.48371  0.76429  1.0000
  H   H13       1.0  0.64168  0.43347  0.76513  1.0000
  O   O14       1.0  0.28860  0.52925  0.72507  1.0000
  C   C69       1.0  0.42343  0.52970  0.74566  1.0000
  C   C70       1.0  0.38587  0.51785  0.74149  1.0000
  C   C71       1.0  0.35459  0.53810  0.73450  1.0000
  C   C72       1.0  0.32316  0.51705  0.73284  1.0000
  H   H14       1.0  0.35527  0.56784  0.73073  1.0000
  O   O15       1.0  0.46824  0.28723  0.75128  1.0000
  C   C73       1.0  0.46745  0.42389  0.75453  1.0000
  C   C74       1.0  0.47886  0.38630  0.75486  1.0000
  C   C75       1.0  0.45898  0.35357  0.75343  1.0000
  C   C76       1.0  0.47980  0.32289  0.75404  1.0000
  H   H15       1.0  0.42997  0.35283  0.74862  1.0000
  O   O16       1.0  0.53061  0.71308  0.75923  1.0000
  C   C77       1.0  0.52973  0.57727  0.74852  1.0000
  C   C78       1.0  0.51839  0.61460  0.75110  1.0000
  C   C79       1.0  0.53894  0.64696  0.75208  1.0000
  C   C80       1.0  0.51839  0.67767  0.75597  1.0000
  H   H16       1.0  0.56834  0.64740  0.75253  1.0000
  C  Sn1       1.0  0.20522  0.46640  0.16237  1.0000
  C   C81       1.0  0.22826  0.49448  0.17911  1.0000
  C  Sn2       1.0  0.21081  0.52208  0.24944  1.0000
  C  Sn3       1.0  0.16946  0.52161  0.30429  1.0000
  C   C82       1.0  0.14645  0.49354  0.28757  1.0000
  C  Sn4       1.0  0.16387  0.46593  0.21722  1.0000
  O  Te1       1.0  0.22329  0.43909  0.09171  1.0000
  O  Te2       1.0  0.23446  0.54987  0.26481  1.0000
  O  Te3       1.0  0.15140  0.54896  0.37499  1.0000
  O  Te4       1.0  0.14025  0.43815  0.20187  1.0000
  Mg  Mg1       1.0  0.19611  0.58097  0.36929  1.0000
  Mg  Mg2       1.0  0.17856  0.40702  0.09752  1.0000
  C  Sn5       1.0  0.01047  0.52714  0.32254  1.0000
  C   C83       1.0  0.03350  0.49868  0.29462  1.0000
  C  Sn6       1.0  0.02369  0.47273  0.22084  1.0000
  C  Sn7       1.0  0.99018  0.47530  0.17386  1.0000
  C   C84       1.0  0.96718  0.50375  0.20175  1.0000
  C  Sn8       1.0  0.97696  0.52970  0.27556  1.0000
  O  Te5       1.0  0.02083  0.55278  0.39647  1.0000
  O  Te6       1.0  0.04715  0.44452  0.19425  1.0000
  O  Te7       1.0  0.97983  0.44963  0.09989  1.0000
  O  Te8       1.0  0.95353  0.55791  0.30212  1.0000
  Mg  Mg3       1.0  0.02099  0.41623  0.08939  1.0000
  Mg  Mg4       1.0  0.97967  0.58622  0.40687  1.0000
  C  Sn9       1.0  0.80997  0.54494  0.21192  1.0000
  C   C85       1.0  0.78634  0.51589  0.20408  1.0000
  C  Sn10      1.0  0.79612  0.47847  0.23285  1.0000
  C  Sn11      1.0  0.83021  0.46990  0.27036  1.0000
  C   C86       1.0  0.85381  0.49894  0.27821  1.0000
  C  Sn12      1.0  0.84406  0.53637  0.24942  1.0000
  O  Te9       1.0  0.79963  0.58214  0.18273  1.0000
  O  Te10      1.0  0.77205  0.44991  0.22426  1.0000
  O  Te11      1.0  0.84053  0.43266  0.29954  1.0000
  O  Te12      1.0  0.86811  0.56492  0.25803  1.0000
  Mg  Mg5       1.0  0.79842  0.40360  0.27380  1.0000
  Mg  Mg6       1.0  0.84175  0.61122  0.20862  1.0000
  C  Sn13      1.0  0.45520  0.19273  0.30079  1.0000
  C   C87       1.0  0.48601  0.21537  0.30201  1.0000
  C  Sn14      1.0  0.52348  0.20487  0.26060  1.0000
  C  Sn15      1.0  0.53031  0.17106  0.21694  1.0000
  C   C88       1.0  0.49952  0.14845  0.21570  1.0000
  C  Sn16      1.0  0.46203  0.15892  0.25713  1.0000
  O  Te13      1.0  0.41797  0.20378  0.34261  1.0000
  O  Te14      1.0  0.55382  0.22795  0.26278  1.0000
  O  Te15      1.0  0.56758  0.16003  0.17511  1.0000
  O  Te16      1.0  0.43171  0.13587  0.25493  1.0000
  Mg  Mg7       1.0  0.59941  0.20088  0.19613  1.0000
  Mg  Mg8       1.0  0.38612  0.16292  0.32145  1.0000
  C  Sn17      1.0  0.45188  0.00580  0.27764  1.0000
  C   C89       1.0  0.47969  0.02936  0.29335  1.0000
  C  Sn18      1.0  0.51696  0.01956  0.27284  1.0000
  C  Sn19      1.0  0.52665  0.98551  0.23573  1.0000
  C   C90       1.0  0.52660  0.96198  0.22001  1.0000
  C  Sn20      1.0  0.48931  0.97176  0.24054  1.0000
  O  Te17      1.0  0.41479  0.01616  0.29865  1.0000
  O  Te18      1.0  0.54428  0.04355  0.28921  1.0000
  O  Te19      1.0  0.59152  0.97516  0.21474  1.0000
  O  Te20      1.0  0.46202  0.94778  0.22415  1.0000
  Mg  Mg9       1.0  0.59092  0.01717  0.24922  1.0000
  Mg  Mg10      1.0  0.41537  0.97415  0.26401  1.0000
  C  Sn21      1.0  0.45721  0.81662  0.30782  1.0000
  C   C91       1.0  0.48579  0.84217  0.30836  1.0000
  C  Sn22      1.0  0.52432  0.83464  0.27079  1.0000
  C  Sn23      1.0  0.53452  0.80090  0.23174  1.0000
  C   C92       1.0  0.50596  0.77538  0.23118  1.0000
  C  Sn24      1.0  0.46741  0.78287  0.26877  1.0000
  O  Te21      1.0  0.41887  0.82472  0.34575  1.0000
  O  Te22      1.0  0.55238  0.86060  0.27219  1.0000
  O  Te23      1.0  0.57290  0.79281  0.19379  1.0000
  O  Te24      1.0  0.43937  0.75694  0.26734  1.0000
  Mg  Mg11      1.0  0.60068  0.83694  0.21197  1.0000
  Mg  Mg12      1.0  0.39106  0.78059  0.32745  1.0000
  C  Sn25      1.0  0.20061  0.46829  0.66590  1.0000
  C   C93       1.0  0.22426  0.49640  0.67945  1.0000
  C  Sn26      1.0  0.20755  0.52479  0.74543  1.0000
  C  Sn27      1.0  0.16634  0.52509  0.79909  1.0000
  C   C94       1.0  0.14271  0.49699  0.78556  1.0000
  C  Sn28      1.0  0.15940  0.46859  0.71956  1.0000
  O  Te25      1.0  0.21794  0.44018  0.59957  1.0000
  O  Te26      1.0  0.23180  0.55260  0.75767  1.0000
  O  Te27      1.0  0.14902  0.55323  0.86545  1.0000
  O  Te28      1.0  0.13517  0.44079  0.70735  1.0000
  Mg  Mg13      1.0  0.19435  0.58494  0.85667  1.0000
  Mg  Mg14      1.0  0.17258  0.40842  0.60847  1.0000
  C  Sn29      1.0  0.98321  0.46051  0.78655  1.0000
  C   C95       1.0  0.96028  0.48970  0.79930  1.0000
  C  Sn30      1.0  0.97784  0.52733  0.76314  1.0000
  C  Sn31      1.0  0.01918  0.53598  0.71307  1.0000
  C   C96       1.0  0.04209  0.50680  0.70032  1.0000
  C  Sn32      1.0  0.02456  0.46916  0.73649  1.0000
  O  Te29      1.0  0.96504  0.42310  0.82330  1.0000
  O  Te30      1.0  0.95430  0.55602  0.77684  1.0000
  O  Te31      1.0  0.03735  0.57343  0.67633  1.0000
  O  Te32      1.0  0.04807  0.44048  0.72277  1.0000
  Mg  Mg15      1.0  0.99277  0.60260  0.71328  1.0000
  Mg  Mg16      1.0  0.00964  0.39390  0.78620  1.0000
  C  Sn33      1.0  0.79645  0.46342  0.80132  1.0000
  C   C97       1.0  0.77334  0.49245  0.81466  1.0000
  C  Sn34      1.0  0.79090  0.53046  0.77341  1.0000
  C  Sn35      1.0  0.83244  0.53965  0.71753  1.0000
  C   C98       1.0  0.85553  0.51063  0.70418  1.0000
  C  Sn36      1.0  0.83799  0.47261  0.74544  1.0000
  O  Te33      1.0  0.77826  0.42562  0.84322  1.0000
  O  Te34      1.0  0.76718  0.55899  0.78782  1.0000
  O  Te35      1.0  0.85062  0.57749  0.67563  1.0000
  O  Te36      1.0  0.86169  0.44410  0.73102  1.0000
  Mg  Mg17      1.0  0.80575  0.60624  0.71588  1.0000
  Mg  Mg18      1.0  0.82315  0.39684  0.80283  1.0000
  C  Sn37      1.0  0.53046  0.17244  0.81950  1.0000
  C   C99       1.0  0.50231  0.14880  0.80619  1.0000
  C  Sn38      1.0  0.47381  0.16528  0.74255  1.0000
  C  Sn39      1.0  0.47346  0.20625  0.69102  1.0000
  C   C100      1.0  0.50160  0.22987  0.70431  1.0000
  C  Sn40      1.0  0.53010  0.21341  0.76796  1.0000
  O  Te37      1.0  0.55867  0.15534  0.88347  1.0000
  O  Te38      1.0  0.44597  0.14104  0.73052  1.0000
  O  Te39      1.0  0.44521  0.22334  0.62702  1.0000
  O  Te40      1.0  0.55794  0.23763  0.77998  1.0000
  Mg  Mg19      1.0  0.41348  0.17812  0.63512  1.0000
  Mg  Mg20      1.0  0.59045  0.20058  0.87525  1.0000
  C  Sn41      1.0  0.50214  0.98529  0.82688  1.0000
  C   C101      1.0  0.47390  0.96255  0.80973  1.0000
  C  Sn42      1.0  0.44716  0.98031  0.73572  1.0000
  C  Sn43      1.0  0.44869  0.02166  0.67750  1.0000
  C   C102      1.0  0.47693  0.04437  0.69462  1.0000
  C  Sn44      1.0  0.50368  0.02664  0.76866  1.0000
  O  Te41      1.0  0.52858  0.96691  0.90125  1.0000
  O  Te42      1.0  0.41917  0.95696  0.72003  1.0000
  O  Te43      1.0  0.42222  0.04003  0.60309  1.0000
  O  Te44      1.0  0.53166  0.04996  0.78433  1.0000
  Mg  Mg21      1.0  0.38953  0.99566  0.60986  1.0000
  Mg  Mg22      1.0  0.56132  0.01130  0.89437  1.0000
  C  Sn45      1.0  0.54003  0.82942  0.70993  1.0000
  C   C103      1.0  0.51090  0.85259  0.70295  1.0000
  C  Sn46      1.0  0.47254  0.83548  0.74554  1.0000
  C  Sn47      1.0  0.46309  0.79433  0.79629  1.0000
  C   C104      1.0  0.49221  0.77117  0.80328  1.0000
  C  Sn48      1.0  0.53058  0.78827  0.76068  1.0000
  O  Te45      1.0  0.57818  0.84716  0.66680  1.0000
  O  Te46      1.0  0.44392  0.85926  0.73752  1.0000
  O  Te47      1.0  0.42490  0.77660  0.83942  1.0000
  O  Te48      1.0  0.55919  0.76451  0.76871  1.0000
  Mg  Mg23      1.0  0.39615  0.82137  0.80869  1.0000
  Mg  Mg24      1.0  0.60695  0.80236  0.69767  1.0000
