data_image0
_chemical_formula_structural       ZnNBC2NBC2NBC2NBC2N4OC4HOC4HOC4HOC4HOC4HOC4HOC4HOC4HZnNBC2NBC2NBC2NBC2N4OC4HOC4HOC4HOC4HOC4HOC4HOC4HOC4HC2Sn2C2HTe2HMgC2Sn2C2HTe2HMgC2Sn2C2HTe2HMgC2Sn2C2HTe2HMgC2Sn2C2HTe2HMgC2Sn2C2HTe2HMgC2Sn2C2HTe2HMgC2Sn2C2HTe2HMgC2Sn2C2HTe2HMgC2Sn2C2HTe2HMgC2Sn2C2HTe2HMgC2Sn2C2HTe2HMg
_chemical_formula_sum              "Zn2 N16 B8 C128 O16 H40 Sn24 Te24 Mg12"
_cell_length_a       36.9089
_cell_length_b       36.917
_cell_length_c       8.02536
_cell_angle_alpha    68.8078
_cell_angle_beta     67.9463
_cell_angle_gamma    91.5898

_symmetry_space_group_name_H-M    'P1'
_space_group_IT_number       1

loop_
  _space_group_symop_operation_xyz
  'x, y, z'

loop_
  _atom_site_type_symbol
  _atom_site_label
  _atom_site_symmetry_multiplicity
  _atom_site_fract_x
  _atom_site_fract_y
  _atom_site_fract_z
  _atom_site_occupancy
  Zn  Zn1       1.0  0.50262  0.49919  0.25048  1.0000
  N   N1        1.0  0.44850  0.49801  0.24974  1.0000
  B   B1        1.0  0.26998  0.49540  0.23135  1.0000
  C   C1        1.0  0.11223  0.49462  0.24750  1.0000
  C   C2        1.0  0.07963  0.49621  0.24177  1.0000
  N   N2        1.0  0.55665  0.50029  0.25205  1.0000
  B   B2        1.0  0.73586  0.50387  0.26275  1.0000
  C   C3        1.0  0.89412  0.50583  0.24065  1.0000
  C   C4        1.0  0.92679  0.50438  0.24563  1.0000
  N   N3        1.0  0.50206  0.44467  0.25506  1.0000
  B   B3        1.0  0.49875  0.26507  0.24958  1.0000
  C   C5        1.0  0.49108  0.10847  0.25024  1.0000
  C   C6        1.0  0.49070  0.07586  0.24359  1.0000
  N   N4        1.0  0.50306  0.55349  0.24798  1.0000
  B   B4        1.0  0.50041  0.73193  0.26612  1.0000
  C   C7        1.0  0.49460  0.88890  0.25433  1.0000
  C   C8        1.0  0.49259  0.92176  0.25648  1.0000
  N   N5        1.0  0.43698  0.43254  0.25291  1.0000
  N   N6        1.0  0.56788  0.56578  0.25087  1.0000
  N   N7        1.0  0.56691  0.43507  0.25625  1.0000
  N   N8        1.0  0.43791  0.56285  0.24847  1.0000
  O   O1        1.0  0.29101  0.46412  0.23640  1.0000
  C   C9        1.0  0.42669  0.46701  0.25027  1.0000
  C   C10       1.0  0.38925  0.47774  0.24569  1.0000
  C   C11       1.0  0.35726  0.45679  0.24359  1.0000
  C   C12       1.0  0.32625  0.47688  0.23965  1.0000
  H   H1        1.0  0.35727  0.42749  0.24207  1.0000
  O   O2        1.0  0.71435  0.53472  0.26298  1.0000
  C   C13       1.0  0.57824  0.53127  0.25284  1.0000
  C   C14       1.0  0.61566  0.52052  0.25782  1.0000
  C   C15       1.0  0.64764  0.54156  0.25978  1.0000
  C   C16       1.0  0.67895  0.52179  0.26126  1.0000
  H   H2        1.0  0.64748  0.57083  0.26164  1.0000
  O   O3        1.0  0.53090  0.28695  0.24771  1.0000
  C   C17       1.0  0.53244  0.42364  0.25500  1.0000
  C   C18       1.0  0.52076  0.38556  0.25388  1.0000
  C   C19       1.0  0.54049  0.35367  0.25179  1.0000
  C   C20       1.0  0.51916  0.32199  0.25268  1.0000
  H   H3        1.0  0.57001  0.35387  0.25064  1.0000
  O   O4        1.0  0.46925  0.70903  0.26655  1.0000
  C   C21       1.0  0.47242  0.57410  0.24960  1.0000
  C   C22       1.0  0.48344  0.61197  0.25242  1.0000
  C   C23       1.0  0.46236  0.64279  0.25784  1.0000
  C   C24       1.0  0.48248  0.67477  0.25940  1.0000
  H   H4        1.0  0.43264  0.64135  0.26144  1.0000
  O   O5        1.0  0.71414  0.47213  0.26157  1.0000
  C   C25       1.0  0.57777  0.46994  0.25557  1.0000
  C   C26       1.0  0.61547  0.48196  0.25842  1.0000
  C   C27       1.0  0.64737  0.46231  0.26028  1.0000
  C   C28       1.0  0.67885  0.48360  0.26070  1.0000
  H   H5        1.0  0.64733  0.43288  0.26030  1.0000
  O   O6        1.0  0.29181  0.52719  0.23195  1.0000
  C   C29       1.0  0.42723  0.52819  0.24741  1.0000
  C   C30       1.0  0.38957  0.51632  0.24433  1.0000
  C   C31       1.0  0.35801  0.53632  0.23988  1.0000
  C   C32       1.0  0.32666  0.51529  0.23752  1.0000
  H   H6        1.0  0.35836  0.56582  0.23883  1.0000
  O   O7        1.0  0.46732  0.28599  0.25774  1.0000
  C   C33       1.0  0.47137  0.42261  0.25502  1.0000
  C   C34       1.0  0.48218  0.38503  0.25481  1.0000
  C   C35       1.0  0.46084  0.35276  0.25714  1.0000
  C   C36       1.0  0.48056  0.32145  0.25701  1.0000
  H   H7        1.0  0.43153  0.35284  0.25566  1.0000
  O   O8        1.0  0.53264  0.71217  0.25859  1.0000
  C   C37       1.0  0.53357  0.57587  0.24850  1.0000
  C   C38       1.0  0.52209  0.61333  0.25062  1.0000
  C   C39       1.0  0.54213  0.64609  0.25145  1.0000
  C   C40       1.0  0.52105  0.67649  0.25556  1.0000
  H   H8        1.0  0.57158  0.64713  0.25134  1.0000
  Zn  Zn2       1.0  0.49844  0.50078  0.75010  1.0000
  N   N9        1.0  0.44442  0.49929  0.74972  1.0000
  B   B5        1.0  0.26622  0.49727  0.72889  1.0000
  C   C41       1.0  0.10874  0.49816  0.74289  1.0000
  C   C42       1.0  0.07625  0.49924  0.73576  1.0000
  N   N10       1.0  0.55246  0.50201  0.75426  1.0000
  B   B6        1.0  0.73151  0.50304  0.76598  1.0000
  C   C43       1.0  0.88991  0.50310  0.73941  1.0000
  C   C44       1.0  0.92250  0.50177  0.74549  1.0000
  N   N11       1.0  0.49791  0.44638  0.75484  1.0000
  B   B7        1.0  0.50012  0.26710  0.74780  1.0000
  C   C45       1.0  0.50292  0.11105  0.74547  1.0000
  C   C46       1.0  0.50369  0.07855  0.73782  1.0000
  N   N12       1.0  0.49929  0.55511  0.74690  1.0000
  B   B8        1.0  0.49870  0.73341  0.76690  1.0000
  C   C47       1.0  0.50064  0.89101  0.75328  1.0000
  C   C48       1.0  0.50098  0.92388  0.75682  1.0000
  N   N13       1.0  0.43307  0.43374  0.75229  1.0000
  N   N14       1.0  0.56413  0.56743  0.75101  1.0000
  N   N15       1.0  0.56271  0.43691  0.75806  1.0000
  N   N16       1.0  0.43427  0.56439  0.74641  1.0000
  O   O9        1.0  0.28690  0.46569  0.73619  1.0000
  C   C49       1.0  0.42271  0.46826  0.74995  1.0000
  C   C50       1.0  0.38532  0.47907  0.74473  1.0000
  C   C51       1.0  0.35314  0.45808  0.74400  1.0000
  C   C52       1.0  0.32232  0.47837  0.73841  1.0000
  H   H9        1.0  0.35279  0.42850  0.74584  1.0000
  O   O10       1.0  0.71092  0.53466  0.76133  1.0000
  C   C53       1.0  0.57445  0.53297  0.75347  1.0000
  C   C54       1.0  0.61191  0.52204  0.75779  1.0000
  C   C55       1.0  0.64435  0.54264  0.75827  1.0000
  C   C56       1.0  0.67523  0.52222  0.76104  1.0000
  H   H10       1.0  0.64492  0.57205  0.75849  1.0000
  O   O11       1.0  0.53108  0.28987  0.74908  1.0000
  C   C57       1.0  0.52830  0.42557  0.75669  1.0000
  C   C58       1.0  0.51719  0.38746  0.75663  1.0000
  C   C59       1.0  0.53804  0.35635  0.75610  1.0000
  C   C60       1.0  0.51805  0.32433  0.75412  1.0000
  H   H11       1.0  0.56745  0.35780  0.75635  1.0000
  O   O12       1.0  0.46717  0.71102  0.76733  1.0000
  C   C61       1.0  0.46866  0.57577  0.74845  1.0000
  C   C62       1.0  0.47979  0.61361  0.75230  1.0000
  C   C63       1.0  0.45923  0.64479  0.75784  1.0000
  C   C64       1.0  0.47982  0.67652  0.75970  1.0000
  H   H12       1.0  0.42955  0.64387  0.76083  1.0000
  O   O13       1.0  0.70899  0.47130  0.76845  1.0000
  C   C65       1.0  0.57352  0.47172  0.75726  1.0000
  C   C66       1.0  0.61123  0.48342  0.75961  1.0000
  C   C67       1.0  0.64252  0.46304  0.76335  1.0000
  C   C68       1.0  0.67424  0.48371  0.76429  1.0000
  H   H13       1.0  0.64168  0.43347  0.76513  1.0000
  O   O14       1.0  0.28860  0.52925  0.72507  1.0000
  C   C69       1.0  0.42343  0.52970  0.74566  1.0000
  C   C70       1.0  0.38587  0.51785  0.74149  1.0000
  C   C71       1.0  0.35459  0.53810  0.73450  1.0000
  C   C72       1.0  0.32316  0.51705  0.73284  1.0000
  H   H14       1.0  0.35527  0.56784  0.73073  1.0000
  O   O15       1.0  0.46824  0.28723  0.75128  1.0000
  C   C73       1.0  0.46745  0.42389  0.75453  1.0000
  C   C74       1.0  0.47886  0.38630  0.75486  1.0000
  C   C75       1.0  0.45898  0.35357  0.75343  1.0000
  C   C76       1.0  0.47980  0.32289  0.75404  1.0000
  H   H15       1.0  0.42997  0.35283  0.74862  1.0000
  O   O16       1.0  0.53061  0.71308  0.75923  1.0000
  C   C77       1.0  0.52973  0.57727  0.74852  1.0000
  C   C78       1.0  0.51839  0.61460  0.75110  1.0000
  C   C79       1.0  0.53894  0.64696  0.75208  1.0000
  C   C80       1.0  0.51839  0.67767  0.75597  1.0000
  H   H16       1.0  0.56834  0.64740  0.75253  1.0000
  C   C81       1.0  0.20009  0.53172  0.24889  1.0000
  C   C82       1.0  0.22345  0.50265  0.24403  1.0000
  C  Sn1       1.0  0.21013  0.46841  0.23083  1.0000
  C  Sn2       1.0  0.17272  0.46327  0.22232  1.0000
  C   C83       1.0  0.14958  0.49253  0.22714  1.0000
  C   C84       1.0  0.16319  0.52667  0.24042  1.0000
  H   H17       1.0  0.21063  0.55815  0.25906  1.0000
  O  Te1       1.0  0.23384  0.43966  0.22620  1.0000
  O  Te2       1.0  0.15869  0.42934  0.20901  1.0000
  H   H18       1.0  0.14511  0.54919  0.24406  1.0000
  Mg  Mg1       1.0  0.20182  0.39856  0.20738  1.0000
  C   C85       1.0  0.01527  0.53640  0.26028  1.0000
  C   C86       1.0  0.03714  0.50628  0.25293  1.0000
  C  Sn3       1.0  0.02270  0.47367  0.23105  1.0000
  C  Sn4       1.0  0.98567  0.47126  0.21623  1.0000
  C   C87       1.0  0.96403  0.50156  0.22360  1.0000
  C   C88       1.0  0.97875  0.53405  0.24559  1.0000
  H   H19       1.0  0.02667  0.56155  0.27719  1.0000
  O  Te3       1.0  0.04492  0.44383  0.22405  1.0000
  O  Te4       1.0  0.97054  0.43900  0.19420  1.0000
  H   H20       1.0  0.96183  0.55738  0.25115  1.0000
  Mg  Mg2       1.0  0.01180  0.40581  0.19253  1.0000
  C   C89       1.0  0.82742  0.46868  0.23213  1.0000
  C   C90       1.0  0.85248  0.49842  0.22768  1.0000
  C  Sn5       1.0  0.83863  0.53205  0.24864  1.0000
  C  Sn6       1.0  0.79894  0.53588  0.27456  1.0000
  C   C91       1.0  0.77409  0.50594  0.27894  1.0000
  C   C92       1.0  0.78826  0.47243  0.25776  1.0000
  H   H21       1.0  0.83837  0.44274  0.21585  1.0000
  O  Te5       1.0  0.86406  0.56149  0.24379  1.0000
  O  Te6       1.0  0.78432  0.56917  0.29594  1.0000
  H   H22       1.0  0.76884  0.44939  0.26133  1.0000
  Mg  Mg3       1.0  0.83040  0.60130  0.27929  1.0000
  C   C93       1.0  0.45612  0.17586  0.24832  1.0000
  C   C94       1.0  0.48476  0.15180  0.24182  1.0000
  C  Sn7       1.0  0.52034  0.16370  0.24792  1.0000
  C  Sn8       1.0  0.52729  0.20039  0.26083  1.0000
  C   C95       1.0  0.49844  0.22424  0.26739  1.0000
  C   C96       1.0  0.46295  0.21204  0.26113  1.0000
  H   H23       1.0  0.42865  0.16642  0.24358  1.0000
  O  Te7       1.0  0.54863  0.13931  0.24121  1.0000
  O  Te8       1.0  0.56258  0.21300  0.26723  1.0000
  H   H24       1.0  0.44077  0.23067  0.26630  1.0000
  Mg  Mg4       1.0  0.59208  0.16941  0.25399  1.0000
  C   C97       1.0  0.49965  0.98848  0.27460  1.0000
  C   C98       1.0  0.49906  0.96370  0.26832  1.0000
  C  Sn9       1.0  0.46620  0.97752  0.23858  1.0000
  C  Sn10      1.0  0.43396  0.01690  0.21468  1.0000
  C   C99       1.0  0.46249  0.04146  0.22105  1.0000
  C   C100      1.0  0.49525  0.02732  0.25095  1.0000
  H   H25       1.0  0.52501  0.97755  0.29763  1.0000
  O  Te9       1.0  0.43817  0.95236  0.23278  1.0000
  O  Te10      1.0  0.40141  0.03147  0.18467  1.0000
  H   H26       1.0  0.51720  0.04653  0.25568  1.0000
  Mg  Mg5       1.0  0.37117  0.98585  0.18825  1.0000
  C   C101      1.0  0.46082  0.82076  0.24248  1.0000
  C   C102      1.0  0.48692  0.84525  0.26312  1.0000
  C  Sn11      1.0  0.52157  0.83356  0.27904  1.0000
  C  Sn12      1.0  0.53018  0.79664  0.27410  1.0000
  C   C103      1.0  0.50389  0.77236  0.25326  1.0000
  C   C104      1.0  0.46929  0.78435  0.23751  1.0000
  H   H27       1.0  0.43406  0.83004  0.23019  1.0000
  O  Te11      1.0  0.54732  0.85838  0.29966  1.0000
  O  Te12      1.0  0.56461  0.78423  0.28963  1.0000
  H   H28       1.0  0.44910  0.76539  0.22140  1.0000
  Mg  Mg6       1.0  0.59047  0.82842  0.31542  1.0000
  C   C105      1.0  0.19702  0.53464  0.74387  1.0000
  C   C106      1.0  0.21966  0.50493  0.74310  1.0000
  C  Sn13      1.0  0.20556  0.47049  0.73400  1.0000
  C  Sn14      1.0  0.16810  0.46579  0.72547  1.0000
  C   C107      1.0  0.14569  0.49569  0.72617  1.0000
  C   C108      1.0  0.16007  0.53004  0.73537  1.0000
  H   H29       1.0  0.20816  0.56122  0.75088  1.0000
  O  Te13      1.0  0.22855  0.44109  0.73345  1.0000
  O  Te14      1.0  0.15330  0.43167  0.71620  1.0000
  H   H30       1.0  0.14255  0.55304  0.73583  1.0000
  Mg  Mg7       1.0  0.19562  0.39996  0.71925  1.0000
  C   C109      1.0  0.00879  0.46312  0.72733  1.0000
  C   C110      1.0  0.03442  0.49237  0.72300  1.0000
  C  Sn15      1.0  0.02153  0.52659  0.74027  1.0000
  C  Sn16      1.0  0.98224  0.53154  0.76233  1.0000
  C   C111      1.0  0.95682  0.50210  0.76663  1.0000
  C   C112      1.0  0.97002  0.46797  0.74916  1.0000
  H   H31       1.0  0.01900  0.43671  0.71392  1.0000
  O  Te15      1.0  0.04752  0.55552  0.73558  1.0000
  O  Te16      1.0  0.96858  0.56544  0.77998  1.0000
  H   H32       1.0  0.95017  0.44532  0.75264  1.0000
  Mg  Mg8       1.0  0.01513  0.59652  0.76516  1.0000
  C   C113      1.0  0.80185  0.46696  0.73562  1.0000
  C   C114      1.0  0.77669  0.49355  0.76924  1.0000
  C  Sn17      1.0  0.79054  0.52772  0.78137  1.0000
  C  Sn18      1.0  0.83033  0.53533  0.75933  1.0000
  C   C115      1.0  0.85527  0.50856  0.72560  1.0000
  C   C116      1.0  0.84111  0.47445  0.71379  1.0000
  H   H33       1.0  0.79090  0.44058  0.72637  1.0000
  O  Te17      1.0  0.76500  0.55397  0.81509  1.0000
  O  Te18      1.0  0.84494  0.56926  0.77072  1.0000
  H   H34       1.0  0.86060  0.45388  0.68764  1.0000
  Mg  Mg9       1.0  0.79870  0.59612  0.81882  1.0000
  C   C117      1.0  0.53919  0.17820  0.75574  1.0000
  C   C118      1.0  0.50962  0.15244  0.76303  1.0000
  C  Sn19      1.0  0.47489  0.16493  0.75204  1.0000
  C  Sn20      1.0  0.46975  0.20395  0.73337  1.0000
  C   C119      1.0  0.49953  0.22949  0.72607  1.0000
  C   C120      1.0  0.53416  0.21669  0.73725  1.0000
  H   H35       1.0  0.56600  0.16830  0.76428  1.0000
  O  Te19      1.0  0.44563  0.13882  0.75962  1.0000
  O  Te20      1.0  0.43534  0.21720  0.72202  1.0000
  H   H36       1.0  0.55706  0.23664  0.73147  1.0000
  Mg  Mg10      1.0  0.40397  0.17063  0.73870  1.0000
  C   C121      1.0  0.46709  0.01288  0.71756  1.0000
  C   C122      1.0  0.49371  0.03534  0.74523  1.0000
  C  Sn21      1.0  0.52669  0.02094  0.77088  1.0000
  C  Sn22      1.0  0.53307  0.98336  0.76866  1.0000
  C   C123      1.0  0.50629  0.96114  0.74074  1.0000
  C   C124      1.0  0.47337  0.97582  0.71528  1.0000
  H   H37       1.0  0.44163  0.02425  0.69776  1.0000
  O  Te21      1.0  0.55298  0.04375  0.79842  1.0000
  O  Te22      1.0  0.56581  0.96826  0.79386  1.0000
  H   H38       1.0  0.45279  0.95845  0.69373  1.0000
  Mg  Mg11      1.0  0.59323  0.01042  0.82643  1.0000
  C   C125      1.0  0.46294  0.82449  0.74289  1.0000
  C   C126      1.0  0.49043  0.84770  0.76212  1.0000
  C  Sn23      1.0  0.52453  0.83424  0.77738  1.0000
  C  Sn24      1.0  0.53114  0.79684  0.77321  1.0000
  C   C127      1.0  0.50347  0.77385  0.75378  1.0000
  C   C128      1.0  0.46945  0.78760  0.73868  1.0000
  H   H39       1.0  0.43662  0.83514  0.73110  1.0000
  O  Te23      1.0  0.55169  0.85780  0.79659  1.0000
  O  Te24      1.0  0.56498  0.78267  0.78811  1.0000
  H   H40       1.0  0.44818  0.76964  0.72366  1.0000
  Mg  Mg12      1.0  0.59330  0.82561  0.81195  1.0000
