data_image0
_chemical_formula_structural       ZnNBC4NBC2NBC5NBC3N4OC6H3OC4HOC7H4OC5H2OC4HOC6H3OC7H4OC5H2ZnNBC5NBC3NBC3NBC3N4OC7H4OC5H2OC5H2OC5H2OC5H2OC7H4OC5H2OC5H2SnCSn2CSnTe4Mg2SnCSn2CSnTe4Mg2SnCSn2CSnTe4Mg2SnCSn2CSnTe4Mg2SnCSn2CSnTe4Mg2SnCSn2CSnTe4Mg2
_chemical_formula_sum              "Zn2 N16 B8 C128 O16 H40 Sn24 Te24 Mg12"
_cell_length_a       36.9089
_cell_length_b       36.917
_cell_length_c       8.02536
_cell_angle_alpha    68.8078
_cell_angle_beta     67.9463
_cell_angle_gamma    91.5898

_symmetry_space_group_name_H-M    'P1'
_space_group_IT_number       1

loop_
  _space_group_symop_operation_xyz
  'x, y, z'

loop_
  _atom_site_type_symbol
  _atom_site_label
  _atom_site_symmetry_multiplicity
  _atom_site_fract_x
  _atom_site_fract_y
  _atom_site_fract_z
  _atom_site_occupancy
  Zn  Zn1       1.0  0.50262  0.49919  0.25048  1.0000
  N   N1        1.0  0.44850  0.49801  0.24974  1.0000
  B   B1        1.0  0.26998  0.49540  0.23135  1.0000
  C   C1        1.0  0.22845  0.49497  0.23139  1.0000
  C   C2        1.0  0.15053  0.49411  0.24649  1.0000
  C   C3        1.0  0.11223  0.49462  0.24750  1.0000
  C   C4        1.0  0.07963  0.49621  0.24177  1.0000
  N   N2        1.0  0.55665  0.50029  0.25205  1.0000
  B   B2        1.0  0.73586  0.50387  0.26275  1.0000
  C   C5        1.0  0.89412  0.50583  0.24065  1.0000
  C   C6        1.0  0.92679  0.50438  0.24563  1.0000
  N   N3        1.0  0.50206  0.44467  0.25506  1.0000
  B   B3        1.0  0.49875  0.26507  0.24958  1.0000
  C   C7        1.0  0.49706  0.22381  0.24613  1.0000
  C   C8        1.0  0.49251  0.14648  0.25337  1.0000
  C   C9        1.0  0.49108  0.10847  0.25024  1.0000
  C   C10       1.0  0.49070  0.07586  0.24359  1.0000
  C   C11       1.0  0.49113  0.03771  0.24255  1.0000
  N   N4        1.0  0.50306  0.55349  0.24798  1.0000
  B   B4        1.0  0.50041  0.73193  0.26612  1.0000
  C   C12       1.0  0.49460  0.88890  0.25433  1.0000
  C   C13       1.0  0.49259  0.92176  0.25648  1.0000
  C   C14       1.0  0.49166  0.96011  0.25431  1.0000
  N   N5        1.0  0.43698  0.43254  0.25291  1.0000
  N   N6        1.0  0.56788  0.56578  0.25087  1.0000
  N   N7        1.0  0.56691  0.43507  0.25625  1.0000
  N   N8        1.0  0.43791  0.56285  0.24847  1.0000
  O   O1        1.0  0.29101  0.46412  0.23640  1.0000
  C   C15       1.0  0.42669  0.46701  0.25027  1.0000
  C   C16       1.0  0.38925  0.47774  0.24569  1.0000
  C   C17       1.0  0.35726  0.45679  0.24359  1.0000
  C   C18       1.0  0.32625  0.47688  0.23965  1.0000
  C   C19       1.0  0.20859  0.46315  0.22171  1.0000
  C   C20       1.0  0.17036  0.46258  0.22849  1.0000
  H   H1        1.0  0.35727  0.42749  0.24207  1.0000
  H   H2        1.0  0.22365  0.43880  0.20679  1.0000
  H   H3        1.0  0.15552  0.43833  0.21679  1.0000
  O   O2        1.0  0.71435  0.53472  0.26298  1.0000
  C   C21       1.0  0.57824  0.53127  0.25284  1.0000
  C   C22       1.0  0.61566  0.52052  0.25782  1.0000
  C   C23       1.0  0.64764  0.54156  0.25978  1.0000
  C   C24       1.0  0.67895  0.52179  0.26126  1.0000
  H   H4        1.0  0.64748  0.57083  0.26164  1.0000
  O   O3        1.0  0.53090  0.28695  0.24771  1.0000
  C   C25       1.0  0.53244  0.42364  0.25500  1.0000
  C   C26       1.0  0.52076  0.38556  0.25388  1.0000
  C   C27       1.0  0.54049  0.35367  0.25179  1.0000
  C   C28       1.0  0.51916  0.32199  0.25268  1.0000
  C   C29       1.0  0.52798  0.20271  0.25558  1.0000
  C   C30       1.0  0.52585  0.16474  0.25976  1.0000
  C   C31       1.0  0.52175  0.01746  0.27098  1.0000
  H   H5        1.0  0.57001  0.35387  0.25064  1.0000
  H   H6        1.0  0.55368  0.21633  0.26222  1.0000
  H   H7        1.0  0.54965  0.14857  0.26899  1.0000
  H   H8        1.0  0.54470  0.03187  0.29266  1.0000
  O   O4        1.0  0.46925  0.70903  0.26655  1.0000
  C   C32       1.0  0.47242  0.57410  0.24960  1.0000
  C   C33       1.0  0.48344  0.61197  0.25242  1.0000
  C   C34       1.0  0.46236  0.64279  0.25784  1.0000
  C   C35       1.0  0.48248  0.67477  0.25940  1.0000
  C   C36       1.0  0.46105  0.98031  0.22589  1.0000
  H   H9        1.0  0.43264  0.64135  0.26144  1.0000
  H   H10       1.0  0.43794  0.96588  0.20545  1.0000
  O   O5        1.0  0.71414  0.47213  0.26157  1.0000
  C   C37       1.0  0.57777  0.46994  0.25557  1.0000
  C   C38       1.0  0.61547  0.48196  0.25842  1.0000
  C   C39       1.0  0.64737  0.46231  0.26028  1.0000
  C   C40       1.0  0.67885  0.48360  0.26070  1.0000
  H   H11       1.0  0.64733  0.43288  0.26030  1.0000
  O   O6        1.0  0.29181  0.52719  0.23195  1.0000
  C   C41       1.0  0.42723  0.52819  0.24741  1.0000
  C   C42       1.0  0.38957  0.51632  0.24433  1.0000
  C   C43       1.0  0.35801  0.53632  0.23988  1.0000
  C   C44       1.0  0.32666  0.51529  0.23752  1.0000
  C   C45       1.0  0.20848  0.52628  0.24955  1.0000
  C   C46       1.0  0.17020  0.52594  0.25785  1.0000
  H   H12       1.0  0.35836  0.56582  0.23883  1.0000
  H   H13       1.0  0.22314  0.55073  0.26073  1.0000
  H   H14       1.0  0.15474  0.54983  0.27545  1.0000
  O   O7        1.0  0.46732  0.28599  0.25774  1.0000
  C   C47       1.0  0.47137  0.42261  0.25502  1.0000
  C   C48       1.0  0.48218  0.38503  0.25481  1.0000
  C   C49       1.0  0.46084  0.35276  0.25714  1.0000
  C   C50       1.0  0.48056  0.32145  0.25701  1.0000
  C   C51       1.0  0.46371  0.20532  0.24158  1.0000
  C   C52       1.0  0.46129  0.16740  0.24492  1.0000
  C   C53       1.0  0.46085  0.01836  0.21979  1.0000
  H   H15       1.0  0.43153  0.35284  0.25566  1.0000
  H   H16       1.0  0.43955  0.22117  0.23370  1.0000
  H   H17       1.0  0.43580  0.15365  0.23783  1.0000
  H   H18       1.0  0.43754  0.03391  0.19498  1.0000
  O   O8        1.0  0.53264  0.71217  0.25859  1.0000
  C   C54       1.0  0.53357  0.57587  0.24850  1.0000
  C   C55       1.0  0.52209  0.61333  0.25062  1.0000
  C   C56       1.0  0.54213  0.64609  0.25145  1.0000
  C   C57       1.0  0.52105  0.67649  0.25556  1.0000
  C   C58       1.0  0.52203  0.97948  0.27650  1.0000
  H   H19       1.0  0.57158  0.64713  0.25134  1.0000
  H   H20       1.0  0.54527  0.96388  0.30183  1.0000
  Zn  Zn2       1.0  0.49844  0.50078  0.75010  1.0000
  N   N9        1.0  0.44442  0.49929  0.74972  1.0000
  B   B5        1.0  0.26622  0.49727  0.72889  1.0000
  C   C59       1.0  0.22455  0.49714  0.73065  1.0000
  C   C60       1.0  0.14681  0.49735  0.74462  1.0000
  C   C61       1.0  0.10874  0.49816  0.74289  1.0000
  C   C62       1.0  0.07625  0.49924  0.73576  1.0000
  C   C63       1.0  0.03814  0.50010  0.73495  1.0000
  N   N10       1.0  0.55246  0.50201  0.75426  1.0000
  B   B6        1.0  0.73151  0.50304  0.76598  1.0000
  C   C64       1.0  0.88991  0.50310  0.73941  1.0000
  C   C65       1.0  0.92250  0.50177  0.74549  1.0000
  C   C66       1.0  0.96059  0.50079  0.74667  1.0000
  N   N11       1.0  0.49791  0.44638  0.75484  1.0000
  B   B7        1.0  0.50012  0.26710  0.74780  1.0000
  C   C67       1.0  0.50292  0.11105  0.74547  1.0000
  C   C68       1.0  0.50369  0.07855  0.73782  1.0000
  C   C69       1.0  0.50351  0.04031  0.73804  1.0000
  N   N12       1.0  0.49929  0.55511  0.74690  1.0000
  B   B8        1.0  0.49870  0.73341  0.76690  1.0000
  C   C70       1.0  0.50064  0.89101  0.75328  1.0000
  C   C71       1.0  0.50098  0.92388  0.75682  1.0000
  C   C72       1.0  0.50151  0.96228  0.75498  1.0000
  N   N13       1.0  0.43307  0.43374  0.75229  1.0000
  N   N14       1.0  0.56413  0.56743  0.75101  1.0000
  N   N15       1.0  0.56271  0.43691  0.75806  1.0000
  N   N16       1.0  0.43427  0.56439  0.74641  1.0000
  O   O9        1.0  0.28690  0.46569  0.73619  1.0000
  C   C73       1.0  0.42271  0.46826  0.74995  1.0000
  C   C74       1.0  0.38532  0.47907  0.74473  1.0000
  C   C75       1.0  0.35314  0.45808  0.74400  1.0000
  C   C76       1.0  0.32232  0.47837  0.73841  1.0000
  C   C77       1.0  0.20397  0.46519  0.72519  1.0000
  C   C78       1.0  0.16582  0.46514  0.73147  1.0000
  C   C79       1.0  0.01795  0.46862  0.72346  1.0000
  H   H21       1.0  0.35279  0.42850  0.74584  1.0000
  H   H22       1.0  0.21837  0.44030  0.71390  1.0000
  H   H23       1.0  0.15039  0.44084  0.72262  1.0000
  H   H24       1.0  0.03288  0.44432  0.70763  1.0000
  O   O10       1.0  0.71092  0.53466  0.76133  1.0000
  C   C80       1.0  0.57445  0.53297  0.75347  1.0000
  C   C81       1.0  0.61191  0.52204  0.75779  1.0000
  C   C82       1.0  0.64435  0.54264  0.75827  1.0000
  C   C83       1.0  0.67523  0.52222  0.76104  1.0000
  C   C84       1.0  0.98078  0.53226  0.75838  1.0000
  H   H25       1.0  0.64492  0.57205  0.75849  1.0000
  H   H26       1.0  0.96589  0.55661  0.77363  1.0000
  O   O11       1.0  0.53108  0.28987  0.74908  1.0000
  C   C85       1.0  0.52830  0.42557  0.75669  1.0000
  C   C86       1.0  0.51719  0.38746  0.75663  1.0000
  C   C87       1.0  0.53804  0.35635  0.75610  1.0000
  C   C88       1.0  0.51805  0.32433  0.75412  1.0000
  C   C89       1.0  0.53441  0.01982  0.75921  1.0000
  H   H27       1.0  0.56745  0.35780  0.75635  1.0000
  H   H28       1.0  0.55872  0.03426  0.77196  1.0000
  O   O12       1.0  0.46717  0.71102  0.76733  1.0000
  C   C90       1.0  0.46866  0.57577  0.74845  1.0000
  C   C91       1.0  0.47979  0.61361  0.75230  1.0000
  C   C92       1.0  0.45923  0.64479  0.75784  1.0000
  C   C93       1.0  0.47982  0.67652  0.75970  1.0000
  C   C94       1.0  0.47078  0.98290  0.73225  1.0000
  H   H29       1.0  0.42955  0.64387  0.76083  1.0000
  H   H30       1.0  0.44668  0.96851  0.71775  1.0000
  O   O13       1.0  0.70899  0.47130  0.76845  1.0000
  C   C95       1.0  0.57352  0.47172  0.75726  1.0000
  C   C96       1.0  0.61123  0.48342  0.75961  1.0000
  C   C97       1.0  0.64252  0.46304  0.76335  1.0000
  C   C98       1.0  0.67424  0.48371  0.76429  1.0000
  C   C99       1.0  0.97989  0.46889  0.72976  1.0000
  H   H31       1.0  0.64168  0.43347  0.76513  1.0000
  H   H32       1.0  0.96476  0.44495  0.71724  1.0000
  O   O14       1.0  0.28860  0.52925  0.72507  1.0000
  C   C100      1.0  0.42343  0.52970  0.74566  1.0000
  C   C101      1.0  0.38587  0.51785  0.74149  1.0000
  C   C102      1.0  0.35459  0.53810  0.73450  1.0000
  C   C103      1.0  0.32316  0.51705  0.73284  1.0000
  C   C104      1.0  0.20527  0.52903  0.74536  1.0000
  C   C105      1.0  0.16705  0.52922  0.75305  1.0000
  C   C106      1.0  0.01881  0.53195  0.75253  1.0000
  H   H33       1.0  0.35527  0.56784  0.73073  1.0000
  H   H34       1.0  0.22051  0.55357  0.75358  1.0000
  H   H35       1.0  0.15218  0.55365  0.76694  1.0000
  H   H36       1.0  0.03393  0.55589  0.76518  1.0000
  O   O15       1.0  0.46824  0.28723  0.75128  1.0000
  C   C107      1.0  0.46745  0.42389  0.75453  1.0000
  C   C108      1.0  0.47886  0.38630  0.75486  1.0000
  C   C109      1.0  0.45898  0.35357  0.75343  1.0000
  C   C110      1.0  0.47980  0.32289  0.75404  1.0000
  C   C111      1.0  0.47175  0.02111  0.72417  1.0000
  H   H37       1.0  0.42997  0.35283  0.74862  1.0000
  H   H38       1.0  0.44828  0.03692  0.70405  1.0000
  O   O16       1.0  0.53061  0.71308  0.75923  1.0000
  C   C112      1.0  0.52973  0.57727  0.74852  1.0000
  C   C113      1.0  0.51839  0.61460  0.75110  1.0000
  C   C114      1.0  0.53894  0.64696  0.75208  1.0000
  C   C115      1.0  0.51839  0.67767  0.75597  1.0000
  C   C116      1.0  0.53333  0.98155  0.76811  1.0000
  H   H39       1.0  0.56834  0.64740  0.75253  1.0000
  H   H40       1.0  0.55684  0.96575  0.78755  1.0000
  C  Sn1       1.0  0.80997  0.54494  0.21192  1.0000
  C   C117      1.0  0.78634  0.51589  0.20408  1.0000
  C  Sn2       1.0  0.79612  0.47847  0.23285  1.0000
  C  Sn3       1.0  0.83021  0.46990  0.27036  1.0000
  C   C118      1.0  0.85381  0.49894  0.27821  1.0000
  C  Sn4       1.0  0.84406  0.53637  0.24942  1.0000
  O  Te1       1.0  0.79963  0.58214  0.18273  1.0000
  O  Te2       1.0  0.77205  0.44991  0.22426  1.0000
  O  Te3       1.0  0.84053  0.43266  0.29954  1.0000
  O  Te4       1.0  0.86811  0.56492  0.25803  1.0000
  Mg  Mg1       1.0  0.79842  0.40360  0.27380  1.0000
  Mg  Mg2       1.0  0.84175  0.61122  0.20862  1.0000
  C  Sn5       1.0  0.82742  0.47458  0.67641  1.0000
  C   C119      1.0  0.85143  0.50313  0.68543  1.0000
  C  Sn6       1.0  0.83490  0.53146  0.75244  1.0000
  C  Sn7       1.0  0.79351  0.53124  0.81179  1.0000
  C   C120      1.0  0.76952  0.50270  0.80279  1.0000
  C  Sn8       1.0  0.78602  0.47436  0.73577  1.0000
  O  Te5       1.0  0.84458  0.44653  0.60894  1.0000
  O  Te6       1.0  0.85951  0.55971  0.76007  1.0000
  O  Te7       1.0  0.77636  0.55932  0.87929  1.0000
  O  Te8       1.0  0.76144  0.44611  0.72815  1.0000
  Mg  Mg3       1.0  0.82219  0.59176  0.86281  1.0000
  Mg  Mg4       1.0  0.79873  0.41404  0.62554  1.0000
  C  Sn9       1.0  0.45721  0.81662  0.30782  1.0000
  C   C121      1.0  0.48579  0.84217  0.30836  1.0000
  C  Sn10      1.0  0.52432  0.83464  0.27079  1.0000
  C  Sn11      1.0  0.53452  0.80090  0.23174  1.0000
  C   C122      1.0  0.50596  0.77538  0.23118  1.0000
  C  Sn12      1.0  0.46741  0.78287  0.26877  1.0000
  O  Te9       1.0  0.41887  0.82472  0.34575  1.0000
  O  Te10      1.0  0.55238  0.86060  0.27219  1.0000
  O  Te11      1.0  0.57290  0.79281  0.19379  1.0000
  O  Te12      1.0  0.43937  0.75694  0.26734  1.0000
  Mg  Mg5       1.0  0.60068  0.83694  0.21197  1.0000
  Mg  Mg6       1.0  0.39106  0.78059  0.32745  1.0000
  C  Sn13      1.0  0.45945  0.82032  0.80815  1.0000
  C   C123      1.0  0.48938  0.84452  0.80728  1.0000
  C  Sn14      1.0  0.52729  0.83522  0.76907  1.0000
  C  Sn15      1.0  0.53549  0.80102  0.73081  1.0000
  C   C124      1.0  0.50558  0.77684  0.73166  1.0000
  C  Sn16      1.0  0.46765  0.78612  0.76989  1.0000
  O  Te13      1.0  0.42176  0.83019  0.84670  1.0000
  O  Te14      1.0  0.55672  0.85986  0.76906  1.0000
  O  Te15      1.0  0.57322  0.79116  0.69225  1.0000
  O  Te16      1.0  0.43824  0.76150  0.76988  1.0000
  Mg  Mg7       1.0  0.60342  0.83397  0.70846  1.0000
  Mg  Mg8       1.0  0.39153  0.78738  0.83035  1.0000
  C  Sn17      1.0  0.47259  0.18060  0.67814  1.0000
  C   C125      1.0  0.50140  0.15736  0.69294  1.0000
  C  Sn18      1.0  0.52954  0.16673  0.75575  1.0000
  C  Sn19      1.0  0.52884  0.20002  0.80492  1.0000
  C   C126      1.0  0.50004  0.22324  0.79015  1.0000
  C  Sn20      1.0  0.47190  0.21389  0.72731  1.0000
  O  Te17      1.0  0.44476  0.17068  0.61502  1.0000
  O  Te18      1.0  0.55806  0.14306  0.76931  1.0000
  O  Te19      1.0  0.55671  0.20994  0.86807  1.0000
  O  Te20      1.0  0.44339  0.23754  0.71378  1.0000
  Mg  Mg9       1.0  0.58966  0.16862  0.86271  1.0000
  Mg  Mg10      1.0  0.41176  0.21199  0.62049  1.0000
  C  Sn21      1.0  0.98639  0.46136  0.27946  1.0000
  C   C127      1.0  0.96431  0.49100  0.29613  1.0000
  C  Sn22      1.0  0.98264  0.52764  0.26779  1.0000
  C  Sn23      1.0  0.02392  0.53483  0.22171  1.0000
  C   C128      1.0  0.04598  0.50521  0.20503  1.0000
  C  Sn24      1.0  0.02767  0.46854  0.23338  1.0000
  O  Te21      1.0  0.96745  0.42494  0.30839  1.0000
  O  Te22      1.0  0.95994  0.55681  0.28529  1.0000
  O  Te23      1.0  0.04285  0.57128  0.19278  1.0000
  O  Te24      1.0  0.05035  0.43939  0.21587  1.0000
  Mg  Mg11      1.0  0.99926  0.60162  0.23239  1.0000
  Mg  Mg12      1.0  0.01106  0.39458  0.26864  1.0000
