data_image0
_chemical_formula_structural       ZnC3BN2CBN2CBN2CBN2C9O2H4C7O2H2C7O2H2C7O2H2C7O2H2C9O2H4C7O2H2C7O2H2N4ZnC3BN2CBN2C3BN2C3BN2C9O2H4C7O2H2C9O2H4C9O2H4C7O2H2C9O2H4C9O2H4C9O2H4N4SnCSn2CSnTe4Mg2SnCSn2CSnTe4Mg2SnCSn2CSnTe4Mg2SnCSn2CSnTe4Mg2
_chemical_formula_sum              "Zn2 C152 B8 N24 O32 H48 Sn16 Te16 Mg8"
_cell_length_a       36.0487
_cell_length_b       35.9317
_cell_length_c       7.8935
_cell_angle_alpha    81.2357
_cell_angle_beta     64.0931
_cell_angle_gamma    90.1695

_symmetry_space_group_name_H-M    'P1'
_space_group_IT_number       1

loop_
  _space_group_symop_operation_xyz
  'x, y, z'

loop_
  _atom_site_type_symbol
  _atom_site_label
  _atom_site_symmetry_multiplicity
  _atom_site_fract_x
  _atom_site_fract_y
  _atom_site_fract_z
  _atom_site_occupancy
  Zn  Zn1       1.0  0.50245  0.50107  0.25117  1.0000
  C   C1        1.0  0.02096  0.49890  0.27709  1.0000
  C   C2        1.0  0.14226  0.49602  0.25360  1.0000
  C   C3        1.0  0.22409  0.49804  0.21138  1.0000
  B   B1        1.0  0.26720  0.49896  0.20619  1.0000
  N   N1        1.0  0.10037  0.49581  0.27282  1.0000
  N   N2        1.0  0.44940  0.50122  0.22777  1.0000
  C   C4        1.0  0.98189  0.50064  0.27311  1.0000
  B   B2        1.0  0.74090  0.50507  0.26772  1.0000
  N   N3        1.0  0.90337  0.50426  0.26057  1.0000
  N   N4        1.0  0.55562  0.50113  0.27626  1.0000
  C   C5        1.0  0.50360  0.02096  0.25259  1.0000
  B   B3        1.0  0.50649  0.26165  0.22685  1.0000
  N   N5        1.0  0.50172  0.09957  0.26198  1.0000
  N   N6        1.0  0.50274  0.44552  0.25700  1.0000
  C   C6        1.0  0.50511  0.98167  0.24184  1.0000
  B   B4        1.0  0.49988  0.74097  0.26432  1.0000
  N   N7        1.0  0.50693  0.90313  0.22913  1.0000
  N   N8        1.0  0.50215  0.55666  0.24818  1.0000
  C   C7        1.0  0.02176  0.43333  0.23558  1.0000
  C   C8        1.0  0.04054  0.46481  0.25891  1.0000
  C   C9        1.0  0.08081  0.46194  0.26590  1.0000
  C   C10       1.0  0.15566  0.46509  0.33650  1.0000
  C   C11       1.0  0.19636  0.46606  0.31240  1.0000
  C   C12       1.0  0.32460  0.47988  0.21916  1.0000
  C   C13       1.0  0.35638  0.45915  0.22638  1.0000
  C   C14       1.0  0.38919  0.48067  0.22358  1.0000
  C   C15       1.0  0.42738  0.46945  0.23083  1.0000
  O   O1        1.0  0.09641  0.43155  0.26491  1.0000
  O   O2        1.0  0.28840  0.46675  0.22033  1.0000
  H   H1        1.0  0.03750  0.40739  0.22222  1.0000
  H   H2        1.0  0.13480  0.44045  0.41961  1.0000
  H   H3        1.0  0.20633  0.44179  0.37796  1.0000
  H   H4        1.0  0.35616  0.42872  0.23343  1.0000
  C   C16       1.0  0.98062  0.56601  0.31596  1.0000
  C   C17       1.0  0.96172  0.53440  0.29455  1.0000
  C   C18       1.0  0.92023  0.53644  0.29890  1.0000
  C   C19       1.0  0.68198  0.52346  0.26921  1.0000
  C   C20       1.0  0.64912  0.54370  0.27183  1.0000
  C   C21       1.0  0.61633  0.52198  0.27554  1.0000
  C   C22       1.0  0.57760  0.53291  0.27346  1.0000
  O   O3        1.0  0.90157  0.56492  0.33330  1.0000
  O   O4        1.0  0.71842  0.53691  0.26532  1.0000
  H   H5        1.0  0.96435  0.59164  0.33464  1.0000
  H   H6        1.0  0.64843  0.57392  0.27197  1.0000
  C   C23       1.0  0.56909  0.02082  0.27093  1.0000
  C   C24       1.0  0.53597  0.04026  0.26752  1.0000
  C   C25       1.0  0.53488  0.08106  0.27960  1.0000
  C   C26       1.0  0.52442  0.31983  0.24324  1.0000
  C   C27       1.0  0.54435  0.35194  0.25304  1.0000
  C   C28       1.0  0.52305  0.38465  0.25647  1.0000
  C   C29       1.0  0.53361  0.42351  0.26341  1.0000
  O   O5        1.0  0.56115  0.09807  0.30538  1.0000
  O   O6        1.0  0.53796  0.28374  0.23329  1.0000
  H   H7        1.0  0.59360  0.03628  0.28284  1.0000
  H   H8        1.0  0.57415  0.35214  0.25652  1.0000
  C   C30       1.0  0.43990  0.98189  0.22038  1.0000
  C   C31       1.0  0.47293  0.96252  0.22475  1.0000
  C   C32       1.0  0.47424  0.92200  0.20873  1.0000
  C   C33       1.0  0.48116  0.68251  0.25574  1.0000
  C   C34       1.0  0.46103  0.65041  0.24747  1.0000
  C   C35       1.0  0.48193  0.61756  0.24799  1.0000
  C   C36       1.0  0.47150  0.57878  0.23995  1.0000
  O   O7        1.0  0.44858  0.90546  0.17723  1.0000
  O   O8        1.0  0.46827  0.71881  0.25932  1.0000
  H   H9        1.0  0.41570  0.96639  0.20631  1.0000
  H   H10       1.0  0.43159  0.65043  0.24042  1.0000
  C   C37       1.0  0.98380  0.43541  0.22622  1.0000
  C   C38       1.0  0.96387  0.46878  0.24453  1.0000
  C   C39       1.0  0.92565  0.47138  0.21856  1.0000
  C   C40       1.0  0.68238  0.48409  0.27197  1.0000
  C   C41       1.0  0.65025  0.46229  0.27453  1.0000
  C   C42       1.0  0.61686  0.48241  0.27612  1.0000
  C   C43       1.0  0.57822  0.47013  0.27563  1.0000
  O   O9        1.0  0.91442  0.44616  0.15811  1.0000
  O   O10       1.0  0.71873  0.47226  0.27306  1.0000
  H   H11       1.0  0.96968  0.41128  0.20160  1.0000
  H   H12       1.0  0.65050  0.43200  0.27642  1.0000
  C   C44       1.0  0.01936  0.56441  0.31837  1.0000
  C   C45       1.0  0.03937  0.53114  0.30124  1.0000
  C   C46       1.0  0.07928  0.52943  0.31241  1.0000
  C   C47       1.0  0.16987  0.52778  0.14624  1.0000
  C   C48       1.0  0.20994  0.52894  0.12970  1.0000
  C   C49       1.0  0.32535  0.51952  0.20670  1.0000
  C   C50       1.0  0.35728  0.54110  0.20670  1.0000
  C   C51       1.0  0.38942  0.52044  0.21653  1.0000
  C   C52       1.0  0.42740  0.53242  0.22297  1.0000
  O   O11       1.0  0.09338  0.55537  0.35735  1.0000
  O   O12       1.0  0.28993  0.53174  0.19652  1.0000
  H   H13       1.0  0.03422  0.58898  0.33564  1.0000
  H   H14       1.0  0.16004  0.55132  0.07607  1.0000
  H   H15       1.0  0.23091  0.55387  0.04791  1.0000
  H   H16       1.0  0.35776  0.57156  0.19839  1.0000
  C   C53       1.0  0.43828  0.02048  0.23223  1.0000
  C   C54       1.0  0.46982  0.04005  0.24726  1.0000
  C   C55       1.0  0.46780  0.08089  0.25539  1.0000
  C   C56       1.0  0.48559  0.31968  0.24054  1.0000
  C   C57       1.0  0.46439  0.35180  0.24171  1.0000
  C   C58       1.0  0.48439  0.38453  0.24926  1.0000
  C   C59       1.0  0.47259  0.42331  0.24822  1.0000
  O   O13       1.0  0.43841  0.09803  0.25445  1.0000
  O   O14       1.0  0.47399  0.28361  0.23174  1.0000
  H   H17       1.0  0.41265  0.03587  0.22811  1.0000
  H   H18       1.0  0.43489  0.35195  0.23525  1.0000
  C   C60       1.0  0.57060  0.98214  0.26000  1.0000
  C   C61       1.0  0.53892  0.96248  0.24615  1.0000
  C   C62       1.0  0.54100  0.92165  0.23541  1.0000
  C   C63       1.0  0.51967  0.68250  0.26169  1.0000
  C   C64       1.0  0.54045  0.65027  0.26460  1.0000
  C   C65       1.0  0.52034  0.61758  0.25737  1.0000
  C   C66       1.0  0.53212  0.57883  0.25827  1.0000
  O   O15       1.0  0.57058  0.90448  0.23362  1.0000
  O   O16       1.0  0.53167  0.71870  0.26661  1.0000
  H   H19       1.0  0.59640  0.96679  0.26266  1.0000
  H   H20       1.0  0.56972  0.65003  0.27314  1.0000
  N   N9        1.0  0.43801  0.43393  0.23866  1.0000
  N   N10       1.0  0.56677  0.56835  0.26737  1.0000
  N   N11       1.0  0.56801  0.43462  0.27216  1.0000
  N   N12       1.0  0.43751  0.56790  0.22728  1.0000
  Zn  Zn2       1.0  0.49765  0.49935  0.75008  1.0000
  C   C67       1.0  0.01716  0.49675  0.76852  1.0000
  C   C68       1.0  0.13764  0.49686  0.75202  1.0000
  C   C69       1.0  0.21918  0.50020  0.71227  1.0000
  B   B5        1.0  0.26236  0.50110  0.70587  1.0000
  N   N13       1.0  0.09603  0.49573  0.76866  1.0000
  N   N14       1.0  0.44455  0.50028  0.72687  1.0000
  C   C70       1.0  0.97822  0.49741  0.76353  1.0000
  B   B6        1.0  0.73470  0.49891  0.77034  1.0000
  N   N15       1.0  0.89804  0.49837  0.75957  1.0000
  N   N16       1.0  0.55058  0.49871  0.77171  1.0000
  C   C71       1.0  0.49680  0.01932  0.74889  1.0000
  C   C72       1.0  0.49428  0.13825  0.75586  1.0000
  C   C73       1.0  0.49755  0.21654  0.74032  1.0000
  B   B7        1.0  0.49843  0.25940  0.73868  1.0000
  N   N17       1.0  0.49367  0.09771  0.76284  1.0000
  N   N18       1.0  0.49696  0.44379  0.75266  1.0000
  C   C74       1.0  0.49889  0.98005  0.73795  1.0000
  C   C75       1.0  0.50108  0.86073  0.74374  1.0000
  C   C76       1.0  0.49803  0.78209  0.76994  1.0000
  B   B8        1.0  0.49690  0.73915  0.77178  1.0000
  N   N19       1.0  0.50172  0.90144  0.72971  1.0000
  N   N20       1.0  0.49798  0.55514  0.74706  1.0000
  C   C77       1.0  0.01945  0.43096  0.73031  1.0000
  C   C78       1.0  0.03755  0.46305  0.75183  1.0000
  C   C79       1.0  0.07771  0.46135  0.75977  1.0000
  C   C80       1.0  0.15122  0.46643  0.83713  1.0000
  C   C81       1.0  0.19173  0.46810  0.81507  1.0000
  C   C82       1.0  0.31944  0.48112  0.71842  1.0000
  C   C83       1.0  0.35075  0.45979  0.72659  1.0000
  C   C84       1.0  0.38399  0.48077  0.72278  1.0000
  C   C85       1.0  0.42192  0.46884  0.73051  1.0000
  O   O17       1.0  0.09437  0.43149  0.75774  1.0000
  O   O18       1.0  0.28291  0.46852  0.72137  1.0000
  H   H21       1.0  0.03598  0.40543  0.71568  1.0000
  H   H22       1.0  0.13071  0.44158  0.91985  1.0000
  H   H23       1.0  0.20175  0.44436  0.88376  1.0000
  H   H24       1.0  0.34986  0.42933  0.73511  1.0000
  C   C86       1.0  0.97550  0.56309  0.80007  1.0000
  C   C87       1.0  0.95770  0.53083  0.77778  1.0000
  C   C88       1.0  0.91912  0.53305  0.75435  1.0000
  C   C89       1.0  0.67618  0.51832  0.77330  1.0000
  C   C90       1.0  0.64375  0.53923  0.77679  1.0000
  C   C91       1.0  0.61112  0.51831  0.77514  1.0000
  C   C92       1.0  0.57274  0.53003  0.77238  1.0000
  O   O19       1.0  0.90720  0.56441  0.72744  1.0000
  O   O20       1.0  0.71226  0.53095  0.77435  1.0000
  H   H25       1.0  0.95956  0.58889  0.80816  1.0000
  H   H26       1.0  0.64327  0.56928  0.78169  1.0000
  C   C93       1.0  0.56196  0.01998  0.77091  1.0000
  C   C94       1.0  0.52866  0.03890  0.76650  1.0000
  C   C95       1.0  0.52661  0.07935  0.78361  1.0000
  C   C96       1.0  0.52908  0.16067  0.61602  1.0000
  C   C97       1.0  0.53092  0.19956  0.61161  1.0000
  C   C98       1.0  0.51730  0.31787  0.74526  1.0000
  C   C99       1.0  0.53766  0.35004  0.75119  1.0000
  C   C100      1.0  0.51656  0.38277  0.75271  1.0000
  C   C101      1.0  0.52764  0.42148  0.75771  1.0000
  O   O21       1.0  0.55183  0.09631  0.81615  1.0000
  O   O22       1.0  0.53041  0.28167  0.73959  1.0000
  H   H27       1.0  0.58588  0.03574  0.78593  1.0000
  H   H28       1.0  0.55403  0.14762  0.51149  1.0000
  H   H29       1.0  0.55811  0.21698  0.50329  1.0000
  H   H30       1.0  0.56746  0.35020  0.75468  1.0000
  C   C102      1.0  0.43338  0.97920  0.71961  1.0000
  C   C103      1.0  0.46676  0.96027  0.72333  1.0000
  C   C104      1.0  0.46837  0.91947  0.71184  1.0000
  C   C105      1.0  0.46716  0.83852  0.89105  1.0000
  C   C106      1.0  0.46539  0.79944  0.90077  1.0000
  C   C107      1.0  0.47797  0.68106  0.75932  1.0000
  C   C108      1.0  0.45769  0.64921  0.74957  1.0000
  C   C109      1.0  0.47853  0.61627  0.74740  1.0000
  C   C110      1.0  0.46771  0.57768  0.73851  1.0000
  O   O23       1.0  0.44234  0.90200  0.68648  1.0000
  O   O24       1.0  0.46493  0.71727  0.76779  1.0000
  H   H31       1.0  0.40910  0.96328  0.70812  1.0000
  H   H32       1.0  0.44275  0.85188  0.99644  1.0000
  H   H33       1.0  0.43874  0.78219  0.01411  1.0000
  H   H34       1.0  0.42808  0.64941  0.74419  1.0000
  C   C111      1.0  0.98065  0.43161  0.72875  1.0000
  C   C112      1.0  0.95998  0.46451  0.74589  1.0000
  C   C113      1.0  0.91798  0.46353  0.75650  1.0000
  C   C114      1.0  0.67662  0.47919  0.76776  1.0000
  C   C115      1.0  0.64455  0.45816  0.76629  1.0000
  C   C116      1.0  0.61142  0.47894  0.77077  1.0000
  C   C117      1.0  0.57286  0.46744  0.76891  1.0000
  O   O25       1.0  0.90205  0.43307  0.75937  1.0000
  O   O26       1.0  0.71298  0.46674  0.76590  1.0000
  H   H35       1.0  0.96588  0.40643  0.71625  1.0000
  H   H36       1.0  0.64478  0.42810  0.76189  1.0000
  C   C118      1.0  0.01345  0.56227  0.81016  1.0000
  C   C119      1.0  0.03440  0.52950  0.79401  1.0000
  C   C120      1.0  0.07408  0.52892  0.80732  1.0000
  C   C121      1.0  0.16479  0.52890  0.64505  1.0000
  C   C122      1.0  0.20480  0.53066  0.62903  1.0000
  C   C123      1.0  0.32104  0.52079  0.70365  1.0000
  C   C124      1.0  0.35335  0.54184  0.70340  1.0000
  C   C125      1.0  0.38501  0.52057  0.71425  1.0000
  C   C126      1.0  0.42316  0.53190  0.72082  1.0000
  O   O27       1.0  0.08732  0.55531  0.85291  1.0000
  O   O28       1.0  0.28589  0.53361  0.69243  1.0000
  H   H37       1.0  0.02726  0.58716  0.83039  1.0000
  H   H38       1.0  0.15457  0.55216  0.57508  1.0000
  H   H39       1.0  0.22544  0.55580  0.54749  1.0000
  H   H40       1.0  0.35450  0.57232  0.69440  1.0000
  C   C127      1.0  0.43139  0.01790  0.72980  1.0000
  C   C128      1.0  0.46275  0.03801  0.74390  1.0000
  C   C129      1.0  0.46018  0.07888  0.75345  1.0000
  C   C130      1.0  0.46080  0.15429  0.88573  1.0000
  C   C131      1.0  0.46236  0.19341  0.87513  1.0000
  C   C132      1.0  0.47827  0.31778  0.74453  1.0000
  C   C133      1.0  0.45724  0.34999  0.74397  1.0000
  C   C134      1.0  0.47766  0.38286  0.74787  1.0000
  C   C135      1.0  0.46631  0.42184  0.74653  1.0000
  O   O29       1.0  0.43071  0.09583  0.75177  1.0000
  O   O30       1.0  0.46611  0.28146  0.74149  1.0000
  H   H41       1.0  0.40548  0.03291  0.72626  1.0000
  H   H42       1.0  0.43423  0.13650  0.99464  1.0000
  H   H43       1.0  0.43616  0.20599  0.97588  1.0000
  H   H44       1.0  0.42753  0.35003  0.73965  1.0000
  C   C136      1.0  0.56422  0.98145  0.75790  1.0000
  C   C137      1.0  0.53298  0.96143  0.74273  1.0000
  C   C138      1.0  0.53558  0.92059  0.73415  1.0000
  C   C139      1.0  0.53400  0.84430  0.61289  1.0000
  C   C140      1.0  0.53260  0.80509  0.62867  1.0000
  C   C141      1.0  0.51679  0.68076  0.76224  1.0000
  C   C142      1.0  0.53735  0.64833  0.76406  1.0000
  C   C143      1.0  0.51693  0.61582  0.75696  1.0000
  C   C144      1.0  0.52813  0.57686  0.75817  1.0000
  O   O31       1.0  0.56535  0.90385  0.73322  1.0000
  O   O32       1.0  0.52911  0.71681  0.76806  1.0000
  H   H45       1.0  0.59011  0.96641  0.76139  1.0000
  H   H46       1.0  0.56002  0.86188  0.49859  1.0000
  H   H47       1.0  0.55826  0.79236  0.52575  1.0000
  H   H48       1.0  0.56661  0.64789  0.77267  1.0000
  N   N21       1.0  0.43173  0.43305  0.73894  1.0000
  N   N22       1.0  0.56244  0.56565  0.76849  1.0000
  N   N23       1.0  0.56236  0.43212  0.76445  1.0000
  N   N24       1.0  0.43372  0.56725  0.72481  1.0000
  C  Sn1       1.0  0.82139  0.53076  0.84296  1.0000
  C   C145      1.0  0.84749  0.50130  0.81978  1.0000
  C  Sn2       1.0  0.84055  0.46963  0.75153  1.0000
  C  Sn3       1.0  0.80684  0.46735  0.70536  1.0000
  C   C146      1.0  0.78077  0.49679  0.72851  1.0000
  C  Sn4       1.0  0.78768  0.52848  0.79679  1.0000
  O  Te1       1.0  0.82892  0.56216  0.91140  1.0000
  O  Te2       1.0  0.86705  0.44053  0.72961  1.0000
  O  Te3       1.0  0.79934  0.43591  0.63688  1.0000
  O  Te4       1.0  0.76121  0.55757  0.81867  1.0000
  Mg  Mg1       1.0  0.84407  0.40357  0.63139  1.0000
  Mg  Mg2       1.0  0.78418  0.59454  0.91679  1.0000
  C  Sn5       1.0  0.46076  0.81088  0.36410  1.0000
  C   C147      1.0  0.48985  0.78907  0.24632  1.0000
  C  Sn6       1.0  0.53049  0.80411  0.12955  1.0000
  C  Sn7       1.0  0.54231  0.84172  0.13060  1.0000
  C   C148      1.0  0.51324  0.86351  0.24835  1.0000
  C  Sn8       1.0  0.47259  0.84849  0.36516  1.0000
  O  Te5       1.0  0.42031  0.79526  0.47967  1.0000
  O  Te6       1.0  0.55902  0.78176  0.01297  1.0000
  O  Te7       1.0  0.58280  0.85733  0.01489  1.0000
  O  Te8       1.0  0.44407  0.87082  0.48171  1.0000
  Mg  Mg3       1.0  0.51467  0.78194  0.88100  1.0000
  Mg  Mg4       1.0  0.39265  0.83691  0.61379  1.0000
  C  Sn9       1.0  0.82203  0.54051  0.16020  1.0000
  C   C149      1.0  0.79250  0.51022  0.21478  1.0000
  C  Sn10      1.0  0.79656  0.47563  0.31073  1.0000
  C  Sn11      1.0  0.83085  0.47123  0.35314  1.0000
  C   C150      1.0  0.86036  0.50151  0.29860  1.0000
  C  Sn12      1.0  0.85632  0.53611  0.20261  1.0000
  O  Te9       1.0  0.81734  0.57484  0.06441  1.0000
  O  Te10      1.0  0.76665  0.44576  0.36379  1.0000
  O  Te11      1.0  0.83553  0.43687  0.44901  1.0000
  O  Te12      1.0  0.88621  0.56597  0.14959  1.0000
  Mg  Mg5       1.0  0.78664  0.40454  0.49176  1.0000
  Mg  Mg6       1.0  0.86624  0.60721  0.02171  1.0000
  C  Sn13      1.0  0.47345  0.18673  0.41266  1.0000
  C   C151      1.0  0.50401  0.21368  0.27590  1.0000
  C  Sn14      1.0  0.53371  0.20378  0.10692  1.0000
  C  Sn15      1.0  0.53284  0.16615  0.07389  1.0000
  C   C152      1.0  0.50229  0.13922  0.21058  1.0000
  C  Sn16      1.0  0.47258  0.14910  0.37963  1.0000
  O  Te13      1.0  0.44406  0.19726  0.58055  1.0000
  O  Te14      1.0  0.46820  0.19746  0.97234  1.0000
  O  Te15      1.0  0.46650  0.12187  0.90583  1.0000
  O  Te16      1.0  0.44233  0.12168  0.51414  1.0000
  Mg  Mg7       1.0  0.50151  0.16934  0.76576  1.0000
  Mg  Mg8       1.0  0.40900  0.14978  0.72071  1.0000
