data_image0
_chemical_formula_structural       ZnC2BNC2BNC2BNC2BNC4OHC4OHC4OHC4OHC4OHC4OHC4OHC4OHN4ZnC2BNC2BNC2BNC2BNC4OHC4OHC4OHC4OHC4OHC4OHC4OHC4OHN4SnCSn2CSnTe4Mg2SnCSn2CSnTe4Mg2SnCSn2CSnTe4Mg2SnCSn2CSnTe4Mg2SnCSn2CSnTe4Mg2SnCSn2CSnTe4Mg2SnCSn2CSnTe4Mg2SnCSn2CSnTe4Mg2
_chemical_formula_sum              "Zn2 C96 B8 N16 O16 H16 Sn32 Te32 Mg16"
_cell_length_a       32.6216
_cell_length_b       32.6156
_cell_length_c       7.93897
_cell_angle_alpha    113.104
_cell_angle_beta     108.938
_cell_angle_gamma    90.063

_symmetry_space_group_name_H-M    'P1'
_space_group_IT_number       1

loop_
  _space_group_symop_operation_xyz
  'x, y, z'

loop_
  _atom_site_type_symbol
  _atom_site_label
  _atom_site_symmetry_multiplicity
  _atom_site_fract_x
  _atom_site_fract_y
  _atom_site_fract_z
  _atom_site_occupancy
  Zn  Zn1       1.0  0.49954  0.49872  0.24963  1.0000
  C   C1        1.0  0.02047  0.50139  0.25482  1.0000
  C   C2        1.0  0.05762  0.49959  0.24819  1.0000
  B   B1        1.0  0.23550  0.49818  0.26002  1.0000
  N   N1        1.0  0.43835  0.49818  0.24980  1.0000
  C   C3        1.0  0.97977  0.50308  0.26154  1.0000
  C   C4        1.0  0.94255  0.50436  0.26733  1.0000
  B   B2        1.0  0.76346  0.50020  0.23889  1.0000
  N   N2        1.0  0.56053  0.49873  0.24715  1.0000
  C   C5        1.0  0.50068  0.01853  0.24278  1.0000
  C   C6        1.0  0.50009  0.05566  0.23694  1.0000
  B   B3        1.0  0.50221  0.23458  0.25995  1.0000
  N   N3        1.0  0.49997  0.43754  0.25199  1.0000
  C   C7        1.0  0.50104  0.97789  0.24875  1.0000
  C   C8        1.0  0.50181  0.94080  0.25490  1.0000
  B   B4        1.0  0.49822  0.76239  0.23724  1.0000
  N   N4        1.0  0.49874  0.55944  0.24446  1.0000
  C   C9        1.0  0.29996  0.47656  0.25756  1.0000
  C   C10       1.0  0.33563  0.45356  0.25771  1.0000
  C   C11       1.0  0.37163  0.47654  0.25528  1.0000
  C   C12       1.0  0.41431  0.46376  0.25243  1.0000
  O   O1        1.0  0.26001  0.46270  0.25900  1.0000
  H   H1        1.0  0.66423  0.42108  0.24088  1.0000
  C   C13       1.0  0.69864  0.52100  0.23790  1.0000
  C   C14       1.0  0.66287  0.54377  0.23859  1.0000
  C   C15       1.0  0.62706  0.52047  0.24083  1.0000
  C   C16       1.0  0.58444  0.53315  0.24432  1.0000
  O   O2        1.0  0.73840  0.53512  0.23584  1.0000
  H   H2        1.0  0.33501  0.57613  0.25367  1.0000
  C   C17       1.0  0.52302  0.29904  0.25726  1.0000
  C   C18       1.0  0.54580  0.33472  0.25599  1.0000
  C   C19       1.0  0.52241  0.37070  0.25499  1.0000
  C   C20       1.0  0.53466  0.41335  0.25185  1.0000
  O   O3        1.0  0.53743  0.25934  0.25957  1.0000
  H   H3        1.0  0.57558  0.66163  0.23120  1.0000
  C   C21       1.0  0.47648  0.69796  0.23876  1.0000
  C   C22       1.0  0.45342  0.66260  0.24123  1.0000
  C   C23       1.0  0.47644  0.62633  0.24156  1.0000
  C   C24       1.0  0.46408  0.58366  0.24449  1.0000
  O   O4        1.0  0.46267  0.73798  0.23768  1.0000
  H   H4        1.0  0.42347  0.33419  0.26208  1.0000
  C   C25       1.0  0.69920  0.47794  0.23989  1.0000
  C   C26       1.0  0.66395  0.45435  0.24060  1.0000
  C   C27       1.0  0.62750  0.47701  0.24170  1.0000
  C   C28       1.0  0.58505  0.46423  0.24586  1.0000
  O   O5        1.0  0.73944  0.46456  0.24024  1.0000
  H   H5        1.0  0.33614  0.42068  0.26189  1.0000
  C   C29       1.0  0.29979  0.51975  0.25683  1.0000
  C   C30       1.0  0.33513  0.54296  0.25509  1.0000
  C   C31       1.0  0.37133  0.51993  0.25355  1.0000
  C   C32       1.0  0.41380  0.53262  0.24986  1.0000
  O   O6        1.0  0.25987  0.53362  0.25898  1.0000
  H   H6        1.0  0.66230  0.57687  0.23656  1.0000
  C   C33       1.0  0.47982  0.29873  0.25783  1.0000
  C   C34       1.0  0.45644  0.33418  0.25833  1.0000
  C   C35       1.0  0.47901  0.37055  0.25677  1.0000
  C   C36       1.0  0.46577  0.41306  0.25394  1.0000
  O   O7        1.0  0.46644  0.25861  0.25883  1.0000
  H   H7        1.0  0.42031  0.66289  0.24368  1.0000
  C   C37       1.0  0.51958  0.69776  0.23663  1.0000
  C   C38       1.0  0.54269  0.66219  0.23618  1.0000
  C   C39       1.0  0.51980  0.62624  0.23899  1.0000
  C   C40       1.0  0.53296  0.58383  0.24235  1.0000
  O   O8        1.0  0.53343  0.73764  0.23545  1.0000
  H   H8        1.0  0.57907  0.33510  0.25586  1.0000
  N   N5        1.0  0.42660  0.42486  0.25410  1.0000
  N   N6        1.0  0.57209  0.57199  0.24234  1.0000
  N   N7        1.0  0.57339  0.42537  0.24866  1.0000
  N   N8        1.0  0.42530  0.57152  0.24692  1.0000
  Zn  Zn2       1.0  0.49959  0.50109  0.74991  1.0000
  C   C41       1.0  0.02058  0.49885  0.75419  1.0000
  C   C42       1.0  0.05775  0.49925  0.74798  1.0000
  B   B5        1.0  0.23564  0.50218  0.76178  1.0000
  N   N9        1.0  0.43825  0.50097  0.74883  1.0000
  C   C43       1.0  0.97987  0.49886  0.76080  1.0000
  C   C44       1.0  0.94264  0.49884  0.76640  1.0000
  B   B6        1.0  0.76391  0.49798  0.74056  1.0000
  N   N10       1.0  0.56080  0.50079  0.74759  1.0000
  C   C45       1.0  0.50050  0.02122  0.74383  1.0000
  C   C46       1.0  0.50045  0.05834  0.73782  1.0000
  B   B7        1.0  0.50039  0.23689  0.75700  1.0000
  N   N11       1.0  0.49946  0.44015  0.75288  1.0000
  C   C47       1.0  0.50055  0.98061  0.75050  1.0000
  C   C48       1.0  0.50065  0.94367  0.75821  1.0000
  B   B8        1.0  0.49800  0.76448  0.73488  1.0000
  N   N12       1.0  0.49962  0.56176  0.74460  1.0000
  C   C49       1.0  0.29993  0.48026  0.75839  1.0000
  C   C50       1.0  0.33550  0.45715  0.75824  1.0000
  C   C51       1.0  0.37145  0.47997  0.75493  1.0000
  C   C52       1.0  0.41399  0.46685  0.75199  1.0000
  O   O9        1.0  0.26013  0.46670  0.76161  1.0000
  H   H9        1.0  0.66286  0.42130  0.74231  1.0000
  C   C53       1.0  0.69966  0.52045  0.74073  1.0000
  C   C54       1.0  0.66438  0.54407  0.74098  1.0000
  C   C55       1.0  0.62787  0.52160  0.74238  1.0000
  C   C56       1.0  0.58526  0.53493  0.74507  1.0000
  O   O10       1.0  0.73993  0.53378  0.74085  1.0000
  H   H10       1.0  0.33495  0.57954  0.75269  1.0000
  C   C57       1.0  0.52128  0.30130  0.75403  1.0000
  C   C58       1.0  0.54431  0.33686  0.75333  1.0000
  C   C59       1.0  0.52124  0.37304  0.75365  1.0000
  C   C60       1.0  0.53392  0.41568  0.75207  1.0000
  O   O11       1.0  0.53549  0.26150  0.75508  1.0000
  H   H11       1.0  0.57672  0.66472  0.73421  1.0000
  C   C61       1.0  0.47682  0.69988  0.73592  1.0000
  C   C62       1.0  0.45404  0.66437  0.73826  1.0000
  C   C63       1.0  0.47750  0.62849  0.74008  1.0000
  C   C64       1.0  0.46498  0.58601  0.74354  1.0000
  O   O12       1.0  0.46253  0.73957  0.73299  1.0000
  H   H12       1.0  0.42192  0.33691  0.75988  1.0000
  C   C65       1.0  0.69910  0.47716  0.74038  1.0000
  C   C66       1.0  0.66332  0.45450  0.74134  1.0000
  C   C67       1.0  0.62752  0.47814  0.74339  1.0000
  C   C68       1.0  0.58490  0.46606  0.74714  1.0000
  O   O13       1.0  0.73890  0.46266  0.73926  1.0000
  H   H13       1.0  0.33605  0.42431  0.76297  1.0000
  C   C69       1.0  0.29981  0.52334  0.75656  1.0000
  C   C70       1.0  0.33516  0.54637  0.75399  1.0000
  C   C71       1.0  0.37135  0.52329  0.75248  1.0000
  C   C72       1.0  0.41397  0.53557  0.74859  1.0000
  O   O14       1.0  0.25995  0.53744  0.75939  1.0000
  H   H14       1.0  0.66468  0.57711  0.73835  1.0000
  C   C73       1.0  0.47817  0.30119  0.75580  1.0000
  C   C74       1.0  0.45494  0.33674  0.75632  1.0000
  C   C75       1.0  0.47782  0.37304  0.75528  1.0000
  C   C76       1.0  0.46497  0.41573  0.75354  1.0000
  O   O15       1.0  0.46475  0.26112  0.75735  1.0000
  H   H15       1.0  0.42081  0.66399  0.73916  1.0000
  C   C77       1.0  0.52012  0.70014  0.73602  1.0000
  C   C78       1.0  0.54363  0.66481  0.73689  1.0000
  C   C79       1.0  0.52098  0.62852  0.73894  1.0000
  C   C80       1.0  0.53406  0.58601  0.74283  1.0000
  O   O16       1.0  0.53362  0.74023  0.73505  1.0000
  H   H16       1.0  0.57754  0.33698  0.75290  1.0000
  N   N13       1.0  0.42592  0.42784  0.75371  1.0000
  N   N14       1.0  0.57320  0.57391  0.74327  1.0000
  N   N15       1.0  0.57285  0.42730  0.74968  1.0000
  N   N16       1.0  0.42602  0.57424  0.74540  1.0000
  C  Sn1       1.0  0.16103  0.54378  0.30249  1.0000
  C   C81       1.0  0.18756  0.51050  0.31067  1.0000
  C  Sn2       1.0  0.16919  0.46738  0.26913  1.0000
  C  Sn3       1.0  0.12333  0.45732  0.21823  1.0000
  C   C82       1.0  0.09682  0.49059  0.21004  1.0000
  C  Sn4       1.0  0.11517  0.53372  0.25160  1.0000
  O  Te1       1.0  0.18011  0.58665  0.34458  1.0000
  O  Te2       1.0  0.19638  0.43467  0.27833  1.0000
  O  Te3       1.0  0.10426  0.41441  0.17614  1.0000
  O  Te4       1.0  0.08800  0.56642  0.24238  1.0000
  Mg  Mg1       1.0  0.15496  0.38123  0.20829  1.0000
  Mg  Mg2       1.0  0.12939  0.61986  0.31229  1.0000
  C  Sn5       1.0  0.84815  0.47078  0.32801  1.0000
  C   C83       1.0  0.81963  0.50157  0.30282  1.0000
  C  Sn6       1.0  0.82967  0.53339  0.23959  1.0000
  C  Sn7       1.0  0.86903  0.53444  0.20060  1.0000
  C   C84       1.0  0.89752  0.50366  0.22576  1.0000
  C  Sn8       1.0  0.88751  0.47183  0.28902  1.0000
  O  Te5       1.0  0.83745  0.43926  0.39133  1.0000
  O  Te6       1.0  0.80066  0.56384  0.21554  1.0000
  O  Te7       1.0  0.87972  0.56600  0.13723  1.0000
  O  Te8       1.0  0.91650  0.44140  0.31304  1.0000
  Mg  Mg3       1.0  0.82970  0.60041  0.12623  1.0000
  Mg  Mg4       1.0  0.88748  0.40480  0.40223  1.0000
  C  Sn9       1.0  0.53481  0.14936  0.17841  1.0000
  C   C85       1.0  0.50319  0.17787  0.20132  1.0000
  C  Sn10      1.0  0.47005  0.16840  0.26207  1.0000
  C  Sn11      1.0  0.46849  0.12964  0.30085  1.0000
  C   C86       1.0  0.50010  0.10115  0.27798  1.0000
  C  Sn12      1.0  0.53325  0.11059  0.21720  1.0000
  O  Te9       1.0  0.56764  0.15948  0.11754  1.0000
  O  Te10      1.0  0.43880  0.19740  0.28387  1.0000
  O  Te11      1.0  0.43562  0.11953  0.36176  1.0000
  O  Te12      1.0  0.56449  0.08162  0.19543  1.0000
  Mg  Mg5       1.0  0.40050  0.16928  0.37027  1.0000
  Mg  Mg6       1.0  0.60281  0.10972  0.10914  1.0000
  C  Sn13      1.0  0.54466  0.84492  0.29050  1.0000
  C   C87       1.0  0.51132  0.81950  0.29807  1.0000
  C  Sn14      1.0  0.46941  0.83181  0.26680  1.0000
  C  Sn15      1.0  0.46062  0.87030  0.22701  1.0000
  C   C88       1.0  0.49394  0.89569  0.21942  1.0000
  C  Sn16      1.0  0.53587  0.88342  0.25071  1.0000
  O  Te13      1.0  0.58632  0.83200  0.32222  1.0000
  O  Te14      1.0  0.43661  0.80588  0.27517  1.0000
  O  Te15      1.0  0.41892  0.88321  0.19529  1.0000
  O  Te16      1.0  0.56865  0.90932  0.24232  1.0000
  Mg  Mg7       1.0  0.38511  0.83710  0.22176  1.0000
  Mg  Mg8       1.0  0.62016  0.87812  0.29561  1.0000
  C  Sn17      1.0  0.13805  0.46821  0.82505  1.0000
  C   C89       1.0  0.10967  0.49935  0.80364  1.0000
  C  Sn18      1.0  0.11920  0.53107  0.73890  1.0000
  C  Sn19      1.0  0.15790  0.53166  0.69451  1.0000
  C   C90       1.0  0.18625  0.50053  0.71590  1.0000
  C  Sn20      1.0  0.17675  0.46880  0.78066  1.0000
  O  Te17      1.0  0.12787  0.43680  0.88998  1.0000
  O  Te18      1.0  0.09034  0.56187  0.71870  1.0000
  O  Te19      1.0  0.16806  0.56311  0.62955  1.0000
  O  Te20      1.0  0.20558  0.43801  0.80084  1.0000
  Mg  Mg9       1.0  0.11850  0.59812  0.62525  1.0000
  Mg  Mg10      1.0  0.17744  0.40174  0.89417  1.0000
  C  Sn21      1.0  0.87164  0.54439  0.80479  1.0000
  C   C91       1.0  0.89859  0.51162  0.81715  1.0000
  C  Sn22      1.0  0.88063  0.46857  0.77836  1.0000
  C  Sn23      1.0  0.83478  0.45804  0.72601  1.0000
  C   C92       1.0  0.80785  0.49079  0.71364  1.0000
  C  Sn24      1.0  0.82579  0.53386  0.75244  1.0000
  O  Te21      1.0  0.89030  0.58720  0.84418  1.0000
  O  Te22      1.0  0.90824  0.43638  0.79173  1.0000
  O  Te23      1.0  0.81613  0.41518  0.68661  1.0000
  O  Te24      1.0  0.79820  0.56603  0.73906  1.0000
  Mg  Mg11      1.0  0.86729  0.38280  0.72416  1.0000
  Mg  Mg12      1.0  0.83911  0.61961  0.80649  1.0000
  C  Sn25      1.0  0.45570  0.12900  0.70266  1.0000
  C   C93       1.0  0.48844  0.10161  0.68829  1.0000
  C  Sn26      1.0  0.53070  0.11989  0.72356  1.0000
  C  Sn27      1.0  0.54046  0.16653  0.77437  1.0000
  C   C94       1.0  0.50773  0.19389  0.78876  1.0000
  C  Sn28      1.0  0.46545  0.17563  0.75348  1.0000
  O  Te25      1.0  0.41368  0.11000  0.66679  1.0000
  O  Te26      1.0  0.56289  0.09183  0.70823  1.0000
  O  Te27      1.0  0.58252  0.18551  0.81025  1.0000
  O  Te28      1.0  0.43328  0.20366  0.76882  1.0000
  Mg  Mg13      1.0  0.61522  0.13350  0.77111  1.0000
  Mg  Mg14      1.0  0.38095  0.16204  0.70607  1.0000
  C  Sn29      1.0  0.53447  0.86306  0.68859  1.0000
  C   C95       1.0  0.50231  0.89113  0.70496  1.0000
  C  Sn30      1.0  0.46831  0.88146  0.76060  1.0000
  C  Sn31      1.0  0.46643  0.84294  0.80085  1.0000
  C   C96       1.0  0.49859  0.81490  0.78451  1.0000
  C  Sn32      1.0  0.53259  0.82454  0.72884  1.0000
  O  Te29      1.0  0.56816  0.87338  0.63275  1.0000
  O  Te30      1.0  0.43653  0.91001  0.77590  1.0000
  O  Te31      1.0  0.43271  0.83264  0.85673  1.0000
  O  Te32      1.0  0.56437  0.79602  0.71357  1.0000
  Mg  Mg15      1.0  0.39712  0.88177  0.85717  1.0000
  Mg  Mg16      1.0  0.60380  0.82424  0.63242  1.0000
