data_image0
_chemical_formula_structural       C3OHC3OHC3OHC3OHC3OHC3OHC3OHC3OHC3OHC3OHC3OHC3OHCH2CH2CH2CH2CH2CH2B6C3OHC3OHC3OHC3OHC3OHC3OHC3OHC3OHC3OHC3OHC3OHC3OHCH2CH2CH2CH2CH2CH2B6SnCSn2CSnTe4Mg2SnCSn2CSnTe4Mg2SnCSn2CSnTe4Mg2SnCSn2CSnTe4Mg2SnCSn2CSnTe4Mg2SnCSn2CSnTe4Mg2
_chemical_formula_sum              "C96 O24 H48 B12 Sn24 Te24 Mg12"
_cell_length_a       25.4867
_cell_length_b       25.706
_cell_length_c       9.27633
_cell_angle_alpha    89.891
_cell_angle_beta     90.0966
_cell_angle_gamma    120.583

_symmetry_space_group_name_H-M    'P1'
_space_group_IT_number       1

loop_
  _space_group_symop_operation_xyz
  'x, y, z'

loop_
  _atom_site_type_symbol
  _atom_site_label
  _atom_site_symmetry_multiplicity
  _atom_site_fract_x
  _atom_site_fract_y
  _atom_site_fract_z
  _atom_site_occupancy
  C   C1        1.0  0.56049  0.39114  0.63886  1.0000
  C   C2        1.0  0.55139  0.34374  0.55200  1.0000
  C   C3        1.0  0.59950  0.35165  0.46201  1.0000
  O   O1        1.0  0.52082  0.39377  0.73591  1.0000
  H   H1        1.0  0.50794  0.30155  0.55202  1.0000
  C   C4        1.0  0.60621  0.16715  0.61807  1.0000
  C   C5        1.0  0.65513  0.20628  0.53318  1.0000
  C   C6        1.0  0.65034  0.25000  0.45108  1.0000
  O   O2        1.0  0.60065  0.12211  0.70957  1.0000
  H   H2        1.0  0.69620  0.20345  0.53022  1.0000
  C   C7        1.0  0.83251  0.44119  0.63862  1.0000
  C   C8        1.0  0.79462  0.45159  0.55233  1.0000
  C   C9        1.0  0.75271  0.40450  0.46194  1.0000
  O   O3        1.0  0.87622  0.47955  0.73590  1.0000
  H   H3        1.0  0.79713  0.49506  0.55339  1.0000
  C   C10       1.0  0.38985  0.55591  0.37624  1.0000
  C   C11       1.0  0.34344  0.54810  0.46719  1.0000
  C   C12       1.0  0.35127  0.59836  0.54702  1.0000
  O   O4        1.0  0.39278  0.51459  0.28587  1.0000
  H   H4        1.0  0.30194  0.50438  0.47739  1.0000
  C   C13       1.0  0.16946  0.60958  0.37824  1.0000
  C   C14       1.0  0.20886  0.65809  0.46296  1.0000
  C   C15       1.0  0.25152  0.65270  0.54958  1.0000
  O   O5        1.0  0.12488  0.60419  0.28383  1.0000
  H   H5        1.0  0.20749  0.69965  0.46254  1.0000
  C   C16       1.0  0.44083  0.83169  0.35278  1.0000
  C   C17       1.0  0.45142  0.79339  0.43628  1.0000
  C   C18       1.0  0.40498  0.75293  0.53060  1.0000
  O   O6        1.0  0.47845  0.87429  0.25244  1.0000
  H   H6        1.0  0.49460  0.79458  0.43021  1.0000
  C   C19       1.0  0.44378  0.61156  0.36535  1.0000
  C   C20       1.0  0.45330  0.66089  0.44521  1.0000
  C   C21       1.0  0.40614  0.65459  0.53636  1.0000
  O   O7        1.0  0.48233  0.60720  0.26797  1.0000
  H   H7        1.0  0.49620  0.70347  0.43775  1.0000
  C   C22       1.0  0.38653  0.83220  0.36367  1.0000
  C   C23       1.0  0.34092  0.79407  0.45739  1.0000
  C   C24       1.0  0.34966  0.75297  0.54036  1.0000
  O   O8        1.0  0.38830  0.87533  0.27100  1.0000
  H   H8        1.0  0.29944  0.79590  0.46785  1.0000
  C   C25       1.0  0.17061  0.55591  0.37923  1.0000
  C   C26       1.0  0.21068  0.54886  0.46575  1.0000
  C   C27       1.0  0.25232  0.59815  0.55131  1.0000
  O   O9        1.0  0.12703  0.51514  0.28481  1.0000
  H   H9        1.0  0.21027  0.50639  0.46764  1.0000
  C   C28       1.0  0.61487  0.44666  0.63531  1.0000
  C   C29       1.0  0.66261  0.45577  0.54759  1.0000
  C   C30       1.0  0.65527  0.40725  0.46125  1.0000
  O   O10       1.0  0.61078  0.48646  0.72868  1.0000
  H   H10       1.0  0.70482  0.49918  0.54508  1.0000
  C   C31       1.0  0.83112  0.38626  0.63512  1.0000
  C   C32       1.0  0.79146  0.33988  0.54561  1.0000
  C   C33       1.0  0.75101  0.34868  0.45891  1.0000
  O   O11       1.0  0.87411  0.38835  0.73005  1.0000
  H   H11       1.0  0.79130  0.29753  0.54196  1.0000
  C   C34       1.0  0.55248  0.16903  0.62066  1.0000
  C   C35       1.0  0.54564  0.20957  0.53649  1.0000
  C   C36       1.0  0.59565  0.25143  0.45261  1.0000
  O   O12       1.0  0.51153  0.12562  0.71522  1.0000
  H   H12       1.0  0.50283  0.20924  0.53490  1.0000
  C   C37       1.0  0.58811  0.29812  0.36940  1.0000
  H   H13       1.0  0.54106  0.27635  0.32935  1.0000
  H   H14       1.0  0.61675  0.31305  0.27308  1.0000
  C   C38       1.0  0.70620  0.29553  0.36673  1.0000
  H   H15       1.0  0.72964  0.27264  0.32586  1.0000
  H   H16       1.0  0.69313  0.31111  0.27081  1.0000
  C   C39       1.0  0.70991  0.41699  0.37369  1.0000
  H   H17       1.0  0.73523  0.46427  0.33787  1.0000
  H   H18       1.0  0.69563  0.39012  0.27483  1.0000
  C   C40       1.0  0.29797  0.58961  0.63872  1.0000
  H   H19       1.0  0.27458  0.54341  0.68195  1.0000
  H   H20       1.0  0.31369  0.61916  0.73317  1.0000
  C   C41       1.0  0.29670  0.70847  0.63399  1.0000
  H   H21       1.0  0.27272  0.73096  0.67386  1.0000
  H   H22       1.0  0.31285  0.69629  0.73042  1.0000
  C   C42       1.0  0.41748  0.71044  0.61887  1.0000
  H   H23       1.0  0.46559  0.73530  0.65168  1.0000
  H   H24       1.0  0.39161  0.69787  0.71952  1.0000
  B   B1        1.0  0.55242  0.45297  0.79055  1.0000
  B   B2        1.0  0.54235  0.09749  0.77079  1.0000
  B   B3        1.0  0.90152  0.44629  0.79216  1.0000
  B   B4        1.0  0.45012  0.54714  0.21889  1.0000
  B   B5        1.0  0.09960  0.54583  0.22523  1.0000
  B   B6        1.0  0.44532  0.90084  0.20254  1.0000
  C   C43       1.0  0.55798  0.38825  0.13685  1.0000
  C   C44       1.0  0.54898  0.34058  0.05077  1.0000
  C   C45       1.0  0.59715  0.34832  0.96101  1.0000
  O   O13       1.0  0.51875  0.39114  0.23535  1.0000
  H   H25       1.0  0.50587  0.29805  0.05230  1.0000
  C   C46       1.0  0.61218  0.16759  0.12423  1.0000
  C   C47       1.0  0.66015  0.20783  0.03841  1.0000
  C   C48       1.0  0.65318  0.25027  0.95616  1.0000
  O   O14       1.0  0.60813  0.12279  0.21501  1.0000
  H   H26       1.0  0.70225  0.20690  0.03401  1.0000
  C   C49       1.0  0.83214  0.44643  0.13298  1.0000
  C   C50       1.0  0.79300  0.45442  0.04509  1.0000
  C   C51       1.0  0.75172  0.40570  0.95747  1.0000
  O   O15       1.0  0.87549  0.48651  0.22903  1.0000
  H   H27       1.0  0.79403  0.49719  0.04282  1.0000
  C   C52       1.0  0.39126  0.55610  0.87421  1.0000
  C   C53       1.0  0.34391  0.54725  0.96314  1.0000
  C   C54       1.0  0.35067  0.59671  0.04460  1.0000
  O   O16       1.0  0.39552  0.51552  0.78417  1.0000
  H   H28       1.0  0.30247  0.50332  0.97034  1.0000
  C   C55       1.0  0.17019  0.61167  0.87730  1.0000
  C   C56       1.0  0.21025  0.65916  0.96312  1.0000
  C   C57       1.0  0.25183  0.65198  0.04926  1.0000
  O   O17       1.0  0.12630  0.60853  0.78417  1.0000
  H   H29       1.0  0.20977  0.70117  0.96419  1.0000
  C   C58       1.0  0.44234  0.82984  0.85770  1.0000
  C   C59       1.0  0.45228  0.79157  0.94272  1.0000
  C   C60       1.0  0.40519  0.75126  0.03559  1.0000
  O   O18       1.0  0.48081  0.87216  0.75802  1.0000
  H   H30       1.0  0.49541  0.79266  0.93809  1.0000
  C   C61       1.0  0.44488  0.61210  0.86542  1.0000
  C   C62       1.0  0.45345  0.66061  0.94708  1.0000
  C   C63       1.0  0.40561  0.65306  0.03751  1.0000
  O   O19       1.0  0.48440  0.60882  0.76905  1.0000
  H   H31       1.0  0.49620  0.70343  0.94213  1.0000
  C   C64       1.0  0.38807  0.83059  0.86556  1.0000
  C   C65       1.0  0.34185  0.79268  0.95844  1.0000
  C   C66       1.0  0.35005  0.75158  0.04302  1.0000
  O   O20       1.0  0.39073  0.87374  0.77135  1.0000
  H   H32       1.0  0.30020  0.79437  0.96638  1.0000
  C   C67       1.0  0.16941  0.55703  0.87607  1.0000
  C   C68       1.0  0.20881  0.54836  0.96164  1.0000
  C   C69       1.0  0.25135  0.59676  0.04845  1.0000
  O   O21       1.0  0.12491  0.51767  0.78095  1.0000
  H   H33       1.0  0.20718  0.50528  0.96277  1.0000
  C   C70       1.0  0.61222  0.44385  0.13167  1.0000
  C   C71       1.0  0.65948  0.45320  0.04199  1.0000
  C   C72       1.0  0.65235  0.40442  0.95724  1.0000
  O   O22       1.0  0.60871  0.48380  0.22539  1.0000
  H   H34       1.0  0.70115  0.49699  0.03673  1.0000
  C   C73       1.0  0.83247  0.39236  0.13332  1.0000
  C   C74       1.0  0.79359  0.34454  0.04628  1.0000
  C   C75       1.0  0.75199  0.35088  0.95799  1.0000
  O   O23       1.0  0.87608  0.39657  0.22917  1.0000
  H   H35       1.0  0.79502  0.30303  0.04558  1.0000
  C   C76       1.0  0.55755  0.16771  0.12810  1.0000
  C   C77       1.0  0.54881  0.20738  0.04530  1.0000
  C   C78       1.0  0.59750  0.24979  0.95898  1.0000
  O   O24       1.0  0.51747  0.12341  0.22180  1.0000
  H   H36       1.0  0.50533  0.20565  0.04590  1.0000
  C   C79       1.0  0.58699  0.29409  0.87286  1.0000
  H   H37       1.0  0.53958  0.27008  0.83480  1.0000
  H   H38       1.0  0.61483  0.30859  0.77513  1.0000
  C   C80       1.0  0.70788  0.29613  0.86902  1.0000
  H   H39       1.0  0.73235  0.27406  0.82962  1.0000
  H   H40       1.0  0.69348  0.30982  0.77208  1.0000
  C   C81       1.0  0.70697  0.41492  0.86841  1.0000
  H   H41       1.0  0.73040  0.46167  0.82869  1.0000
  H   H42       1.0  0.69280  0.38669  0.77178  1.0000
  C   C82       1.0  0.29645  0.58679  0.13472  1.0000
  H   H43       1.0  0.27275  0.53999  0.17426  1.0000
  H   H44       1.0  0.31155  0.61492  0.23166  1.0000
  C   C83       1.0  0.29691  0.70695  0.13583  1.0000
  H   H45       1.0  0.27301  0.72938  0.17647  1.0000
  H   H46       1.0  0.31260  0.69405  0.23188  1.0000
  C   C84       1.0  0.41641  0.70791  0.12334  1.0000
  H   H47       1.0  0.46415  0.73223  0.15899  1.0000
  H   H48       1.0  0.38940  0.69420  0.22224  1.0000
  B   B7        1.0  0.55084  0.45054  0.28923  1.0000
  B   B8        1.0  0.54950  0.09640  0.27598  1.0000
  B   B9        1.0  0.90206  0.45487  0.28845  1.0000
  B   B10       1.0  0.45305  0.54900  0.71832  1.0000
  B   B11       1.0  0.09890  0.55025  0.72438  1.0000
  B   B12       1.0  0.44829  0.89898  0.70562  1.0000
  C  Sn1       1.0  0.56444  0.54256  0.00132  1.0000
  C   C85       1.0  0.53815  0.48403  0.94266  1.0000
  C  Sn2       1.0  0.47552  0.44391  0.95581  1.0000
  C  Sn3       1.0  0.43840  0.46268  0.02906  1.0000
  C   C86       1.0  0.46504  0.52068  0.08765  1.0000
  C  Sn4       1.0  0.52767  0.56082  0.07456  1.0000
  O  Te1       1.0  0.62750  0.58141  0.98688  1.0000
  O  Te2       1.0  0.44993  0.38613  0.89631  1.0000
  O  Te3       1.0  0.37565  0.42327  0.04347  1.0000
  O  Te4       1.0  0.55326  0.61857  0.13399  1.0000
  Mg  Mg1       1.0  0.36237  0.34881  0.94405  1.0000
  Mg  Mg2       1.0  0.64081  0.65594  0.08626  1.0000
  C  Sn5       1.0  0.42900  0.97355  0.98805  1.0000
  C   C87       1.0  0.45766  0.94560  0.04940  1.0000
  C  Sn6       1.0  0.52077  0.97159  0.03810  1.0000
  C  Sn7       1.0  0.04281  0.02670  0.96400  1.0000
  C   C88       1.0  0.01381  0.05514  0.90273  1.0000
  C  Sn8       1.0  0.95069  0.02917  0.91396  1.0000
  O  Te5       1.0  0.36550  0.94726  0.00068  1.0000
  O  Te6       1.0  0.54874  0.94228  0.10028  1.0000
  O  Te7       1.0  0.10600  0.05349  0.95141  1.0000
  O  Te8       1.0  0.92272  0.05845  0.85186  1.0000
  Mg  Mg3       1.0  0.63599  0.99674  0.05426  1.0000
  Mg  Mg4       1.0  0.83549  0.00406  0.89787  1.0000
  C  Sn9       1.0  0.02729  0.45828  0.00336  1.0000
  C   C89       1.0  0.05495  0.51493  0.06966  1.0000
  C  Sn10      1.0  0.02737  0.54997  0.06477  1.0000
  C  Sn11      1.0  0.97130  0.52741  0.99218  1.0000
  C   C90       1.0  0.94366  0.47079  0.92595  1.0000
  C  Sn12      1.0  0.97121  0.43572  0.93077  1.0000
  O  Te9       1.0  0.05567  0.42403  0.00961  1.0000
  O  Te10      1.0  0.05592  0.60647  0.13181  1.0000
  O  Te11      1.0  0.94292  0.56173  0.98597  1.0000
  O  Te12      1.0  0.94270  0.37925  0.86380  1.0000
  Mg  Mg5       1.0  0.99930  0.63633  0.09374  1.0000
  Mg  Mg6       1.0  0.99925  0.34935  0.90186  1.0000
  C  Sn13      1.0  0.56584  0.54271  0.49336  1.0000
  C   C91       1.0  0.53865  0.48371  0.44051  1.0000
  C  Sn14      1.0  0.47642  0.44346  0.46068  1.0000
  C  Sn15      1.0  0.44062  0.46258  0.53516  1.0000
  C   C92       1.0  0.46781  0.52155  0.58794  1.0000
  C  Sn16      1.0  0.53004  0.56184  0.56784  1.0000
  O  Te13      1.0  0.62813  0.58218  0.47194  1.0000
  O  Te14      1.0  0.45026  0.38469  0.40691  1.0000
  O  Te15      1.0  0.37829  0.42305  0.55655  1.0000
  O  Te16      1.0  0.55620  0.62057  0.62154  1.0000
  Mg  Mg7       1.0  0.36359  0.34761  0.46317  1.0000
  Mg  Mg8       1.0  0.64285  0.65770  0.56528  1.0000
  C  Sn17      1.0  0.54834  0.99269  0.54391  1.0000
  C   C93       1.0  0.49109  0.96539  0.60968  1.0000
  C  Sn18      1.0  0.44524  0.97440  0.55477  1.0000
  C  Sn19      1.0  0.94368  0.01143  0.43151  1.0000
  C   C94       1.0  0.00089  0.03869  0.36580  1.0000
  C  Sn20      1.0  0.04677  0.02972  0.42064  1.0000
  O  Te17      1.0  0.59349  0.98305  0.60063  1.0000
  O  Te18      1.0  0.38838  0.94666  0.62240  1.0000
  O  Te19      1.0  0.89846  0.02105  0.37481  1.0000
  O  Te20      1.0  0.10360  0.05743  0.35307  1.0000
  Mg  Mg9       1.0  0.34155  0.97347  0.50478  1.0000
  Mg  Mg10      1.0  0.15045  0.03062  0.47055  1.0000
  C  Sn21      1.0  0.02383  0.46308  0.50661  1.0000
  C   C95       1.0  0.05356  0.52008  0.57127  1.0000
  C  Sn22      1.0  0.02896  0.55769  0.56222  1.0000
  C  Sn23      1.0  0.97346  0.53790  0.48705  1.0000
  C   C96       1.0  0.94376  0.48093  0.42246  1.0000
  C  Sn24      1.0  0.96833  0.44329  0.43143  1.0000
  O  Te21      1.0  0.04926  0.42623  0.51702  1.0000
  O  Te22      1.0  0.05953  0.61450  0.62769  1.0000
  O  Te23      1.0  0.94805  0.57481  0.47667  1.0000
  O  Te24      1.0  0.93779  0.38652  0.36603  1.0000
  Mg  Mg11      1.0  0.00670  0.64828  0.58375  1.0000
  Mg  Mg12      1.0  0.99056  0.35268  0.40997  1.0000
