data_image0
_chemical_formula_structural       BHBHBHC4HCHCHC2H2C2H2C2H2C2H2C4N3BHBHBHC4HCHCHC2H2C2H2C2N3SnCSn2CSnTe4Mg2SnCSn2CSnTe4Mg2SnCSn2CSnTe4Mg2
_chemical_formula_sum              "B6 H24 C36 N6 Sn12 Te12 Mg6"
_cell_length_a       14.9718
_cell_length_b       14.8307
_cell_length_c       8.10817
_cell_angle_alpha    92.3215
_cell_angle_beta     78.2175
_cell_angle_gamma    120.188

_symmetry_space_group_name_H-M    'P1'
_space_group_IT_number       1

loop_
  _space_group_symop_operation_xyz
  'x, y, z'

loop_
  _atom_site_type_symbol
  _atom_site_label
  _atom_site_symmetry_multiplicity
  _atom_site_fract_x
  _atom_site_fract_y
  _atom_site_fract_z
  _atom_site_occupancy
  B   B1        1.0  0.44450  0.71957  0.96337  1.0000
  H   H1        1.0  0.53830  0.76746  0.91781  1.0000
  B   B2        1.0  0.27217  0.71641  0.02667  1.0000
  H   H2        1.0  0.22330  0.76014  0.06378  1.0000
  B   B3        1.0  0.27412  0.54856  0.00245  1.0000
  H   H3        1.0  0.22717  0.45557  0.01005  1.0000
  C   C1        1.0  0.55945  0.27879  0.99920  1.0000
  C   C2        1.0  0.71910  0.27805  0.00639  1.0000
  C   C3        1.0  0.72205  0.44179  0.99339  1.0000
  C   C4        1.0  0.61106  0.22214  0.00394  1.0000
  H   H4        1.0  0.76570  0.52680  0.98689  1.0000
  C   C5        1.0  0.77531  0.38762  0.00440  1.0000
  H   H5        1.0  0.47465  0.23663  0.00626  1.0000
  C   C6        1.0  0.61407  0.38858  0.99018  1.0000
  H   H6        1.0  0.76137  0.23600  0.00427  1.0000
  C   C7        1.0  0.53614  0.59691  0.04524  1.0000
  C   C8        1.0  0.59169  0.54482  0.04612  1.0000
  H   H7        1.0  0.44275  0.33039  0.85060  1.0000
  H   H8        1.0  0.34569  0.42290  0.84680  1.0000
  C   C9        1.0  0.40532  0.94509  0.93831  1.0000
  C   C10       1.0  0.46025  0.05351  0.94050  1.0000
  H   H9        1.0  0.65726  0.08286  0.12300  1.0000
  H   H10       1.0  0.56085  0.89178  0.11921  1.0000
  C   C11       1.0  0.41239  0.45578  0.90849  1.0000
  C   C12       1.0  0.46771  0.40358  0.91124  1.0000
  H   H11       1.0  0.65827  0.57857  0.10844  1.0000
  H   H12       1.0  0.56049  0.67011  0.10548  1.0000
  C   C13       1.0  0.53375  0.93709  0.06469  1.0000
  C   C14       1.0  0.58846  0.04567  0.06590  1.0000
  H   H13       1.0  0.43315  0.09785  0.88329  1.0000
  H   H14       1.0  0.33654  0.90694  0.88133  1.0000
  C   C15       1.0  0.55812  0.44617  0.98118  1.0000
  C   C16       1.0  0.44523  0.55295  0.97756  1.0000
  C   C17       1.0  0.55311  0.10673  0.00398  1.0000
  C   C18       1.0  0.44153  0.88528  0.00041  1.0000
  N   N1        1.0  0.38603  0.77378  0.99741  1.0000
  N   N2        1.0  0.21797  0.60477  0.01366  1.0000
  N   N3        1.0  0.38766  0.60665  0.98198  1.0000
  B   B4        1.0  0.44697  0.72429  0.46606  1.0000
  H   H15       1.0  0.54110  0.77278  0.42772  1.0000
  B   B5        1.0  0.27416  0.72006  0.52372  1.0000
  H   H16       1.0  0.22425  0.76273  0.56123  1.0000
  B   B6        1.0  0.27749  0.55293  0.49230  1.0000
  H   H17       1.0  0.23183  0.46015  0.49189  1.0000
  C   C19       1.0  0.56075  0.28358  0.50290  1.0000
  C   C20       1.0  0.72028  0.28235  0.50897  1.0000
  C   C21       1.0  0.72303  0.44619  0.50154  1.0000
  C   C22       1.0  0.61214  0.22663  0.50669  1.0000
  H   H18       1.0  0.76608  0.53107  0.49912  1.0000
  C   C23       1.0  0.77652  0.39182  0.50865  1.0000
  H   H19       1.0  0.47607  0.24186  0.50871  1.0000
  C   C24       1.0  0.61535  0.39331  0.49685  1.0000
  H   H20       1.0  0.76286  0.24049  0.50514  1.0000
  C   C25       1.0  0.53523  0.60001  0.55327  1.0000
  C   C26       1.0  0.59058  0.54804  0.55724  1.0000
  H   H21       1.0  0.45043  0.33832  0.34496  1.0000
  H   H22       1.0  0.35463  0.43105  0.33402  1.0000
  C   C27       1.0  0.41815  0.46247  0.40257  1.0000
  C   C28       1.0  0.47297  0.41019  0.40886  1.0000
  H   H23       1.0  0.65441  0.58021  0.62551  1.0000
  H   H24       1.0  0.55721  0.67171  0.61732  1.0000
  C   C29       1.0  0.55988  0.45117  0.48701  1.0000
  C   C30       1.0  0.44785  0.55773  0.47683  1.0000
  N   N4        1.0  0.38793  0.77801  0.49806  1.0000
  N   N5        1.0  0.22080  0.60877  0.50680  1.0000
  N   N6        1.0  0.39052  0.61139  0.47787  1.0000
  C  Sn1       1.0  0.03870  0.60478  0.96533  1.0000
  C   C31       1.0  0.22610  0.61590  0.04218  1.0000
  C  Sn2       1.0  0.17921  0.51056  0.09599  1.0000
  C  Sn3       1.0  0.07607  0.43802  0.07240  1.0000
  C   C32       1.0  0.88874  0.42690  0.99556  1.0000
  C  Sn4       1.0  0.93556  0.53225  0.94174  1.0000
  O  Te1       1.0  0.08710  0.71046  0.91251  1.0000
  O  Te2       1.0  0.23490  0.47806  0.17255  1.0000
  O  Te3       1.0  0.02769  0.33228  0.12530  1.0000
  O  Te4       1.0  0.87994  0.56474  0.86520  1.0000
  Mg  Mg1       1.0  0.13545  0.32598  0.22296  1.0000
  Mg  Mg2       1.0  0.97933  0.71678  0.81466  1.0000
  C  Sn5       1.0  0.42651  0.03288  0.48440  1.0000
  C   C33       1.0  0.51983  0.09732  0.54044  1.0000
  C  Sn6       1.0  0.58330  0.05819  0.56938  1.0000
  C  Sn7       1.0  0.05101  0.95248  0.54162  1.0000
  C   C34       1.0  0.95775  0.88811  0.48558  1.0000
  C  Sn8       1.0  0.89422  0.92717  0.45664  1.0000
  O  Te5       1.0  0.36428  0.07366  0.45629  1.0000
  O  Te6       1.0  0.67622  0.12411  0.62544  1.0000
  O  Te7       1.0  0.11333  0.91174  0.56979  1.0000
  O  Te8       1.0  0.80136  0.86132  0.40058  1.0000
  Mg  Mg3       1.0  0.73462  0.03230  0.64576  1.0000
  Mg  Mg4       1.0  0.74293  0.95306  0.38014  1.0000
  C  Sn9       1.0  0.95067  0.42085  0.64015  1.0000
  C   C35       1.0  0.89630  0.45335  0.56000  1.0000
  C  Sn10      1.0  0.95153  0.53577  0.43468  1.0000
  C  Sn11      1.0  0.06343  0.58673  0.38842  1.0000
  C   C36       1.0  0.11773  0.55422  0.46852  1.0000
  C  Sn12      1.0  0.06257  0.47182  0.59389  1.0000
  O  Te9       1.0  0.89384  0.33828  0.76509  1.0000
  O  Te10      1.0  0.89544  0.56688  0.35639  1.0000
  O  Te11      1.0  0.12024  0.66936  0.26337  1.0000
  O  Te12      1.0  0.11859  0.44069  0.67214  1.0000
  Mg  Mg5       1.0  0.00830  0.68323  0.19339  1.0000
  Mg  Mg6       1.0  0.00582  0.32432  0.83508  1.0000
