data_image0
_chemical_formula_structural       BHBHBHC4HCHCHC2H2C2H2C2H2C2H2C4N3BHBHBHC4HCHCHC2H2C2H2C2N3C2Sn2C2HTe2HMgC2Sn2C2HTe2HMgC2Sn2C2HTe2HMg
_chemical_formula_sum              "B6 H30 C42 N6 Sn6 Te6 Mg3"
_cell_length_a       14.9718
_cell_length_b       14.8307
_cell_length_c       8.10817
_cell_angle_alpha    92.3215
_cell_angle_beta     78.2175
_cell_angle_gamma    120.188

_symmetry_space_group_name_H-M    'P1'
_space_group_IT_number       1

loop_
  _space_group_symop_operation_xyz
  'x, y, z'

loop_
  _atom_site_type_symbol
  _atom_site_label
  _atom_site_symmetry_multiplicity
  _atom_site_fract_x
  _atom_site_fract_y
  _atom_site_fract_z
  _atom_site_occupancy
  B   B1        1.0  0.44450  0.71957  0.96337  1.0000
  H   H1        1.0  0.53830  0.76746  0.91781  1.0000
  B   B2        1.0  0.27217  0.71641  0.02667  1.0000
  H   H2        1.0  0.22330  0.76014  0.06378  1.0000
  B   B3        1.0  0.27412  0.54856  0.00245  1.0000
  H   H3        1.0  0.22717  0.45557  0.01005  1.0000
  C   C1        1.0  0.55945  0.27879  0.99920  1.0000
  C   C2        1.0  0.71910  0.27805  0.00639  1.0000
  C   C3        1.0  0.72205  0.44179  0.99339  1.0000
  C   C4        1.0  0.61106  0.22214  0.00394  1.0000
  H   H4        1.0  0.76570  0.52680  0.98689  1.0000
  C   C5        1.0  0.77531  0.38762  0.00440  1.0000
  H   H5        1.0  0.47465  0.23663  0.00626  1.0000
  C   C6        1.0  0.61407  0.38858  0.99018  1.0000
  H   H6        1.0  0.76137  0.23600  0.00427  1.0000
  C   C7        1.0  0.40532  0.94509  0.93831  1.0000
  C   C8        1.0  0.46025  0.05351  0.94050  1.0000
  H   H7        1.0  0.65726  0.08286  0.12300  1.0000
  H   H8        1.0  0.56085  0.89178  0.11921  1.0000
  C   C9        1.0  0.03812  0.45034  0.09804  1.0000
  C   C10       1.0  0.93100  0.39848  0.09462  1.0000
  H   H9        1.0  0.92993  0.58034  0.85532  1.0000
  H   H10       1.0  0.11901  0.67198  0.86048  1.0000
  C   C11       1.0  0.06584  0.59640  0.93074  1.0000
  C   C12       1.0  0.95861  0.54441  0.92872  1.0000
  H   H11       1.0  0.87845  0.32282  0.16500  1.0000
  H   H12       1.0  0.06795  0.41488  0.16967  1.0000
  C   C13       1.0  0.53375  0.93709  0.06469  1.0000
  C   C14       1.0  0.58846  0.04567  0.06590  1.0000
  H   H13       1.0  0.43315  0.09785  0.88329  1.0000
  H   H14       1.0  0.33654  0.90694  0.88133  1.0000
  C   C15       1.0  0.55311  0.10673  0.00398  1.0000
  C   C16       1.0  0.44153  0.88528  0.00041  1.0000
  C   C17       1.0  0.88868  0.44409  0.01003  1.0000
  C   C18       1.0  0.10708  0.55004  0.01520  1.0000
  N   N1        1.0  0.38603  0.77378  0.99741  1.0000
  N   N2        1.0  0.21797  0.60477  0.01366  1.0000
  N   N3        1.0  0.38766  0.60665  0.98198  1.0000
  B   B4        1.0  0.44697  0.72429  0.46606  1.0000
  H   H15       1.0  0.54110  0.77278  0.42772  1.0000
  B   B5        1.0  0.27416  0.72006  0.52372  1.0000
  H   H16       1.0  0.22425  0.76273  0.56123  1.0000
  B   B6        1.0  0.27749  0.55293  0.49230  1.0000
  H   H17       1.0  0.23183  0.46015  0.49189  1.0000
  C   C19       1.0  0.56075  0.28358  0.50290  1.0000
  C   C20       1.0  0.72028  0.28235  0.50897  1.0000
  C   C21       1.0  0.72303  0.44619  0.50154  1.0000
  C   C22       1.0  0.61214  0.22663  0.50669  1.0000
  H   H18       1.0  0.76608  0.53107  0.49912  1.0000
  C   C23       1.0  0.77652  0.39182  0.50865  1.0000
  H   H19       1.0  0.47607  0.24186  0.50871  1.0000
  C   C24       1.0  0.61535  0.39331  0.49685  1.0000
  H   H20       1.0  0.76286  0.24049  0.50514  1.0000
  C   C25       1.0  0.40636  0.94925  0.44147  1.0000
  C   C26       1.0  0.46099  0.05773  0.44357  1.0000
  H   H21       1.0  0.65879  0.08760  0.62427  1.0000
  H   H22       1.0  0.56300  0.89691  0.62090  1.0000
  C   C27       1.0  0.53545  0.94169  0.56619  1.0000
  C   C28       1.0  0.58985  0.05027  0.56748  1.0000
  H   H23       1.0  0.43308  0.10175  0.38760  1.0000
  H   H24       1.0  0.33684  0.91084  0.38633  1.0000
  C   C29       1.0  0.55423  0.11122  0.50602  1.0000
  C   C30       1.0  0.44300  0.88951  0.50244  1.0000
  N   N4        1.0  0.38793  0.77801  0.49806  1.0000
  N   N5        1.0  0.22080  0.60877  0.50680  1.0000
  N   N6        1.0  0.39052  0.61139  0.47787  1.0000
  C   C31       1.0  0.41696  0.43394  0.89343  1.0000
  C   C32       1.0  0.43087  0.52551  0.96790  1.0000
  C  Sn1       1.0  0.64831  0.62807  0.04857  1.0000
  C  Sn2       1.0  0.71978  0.59261  0.05457  1.0000
  C   C33       1.0  0.57197  0.45545  0.97959  1.0000
  C   C34       1.0  0.48744  0.39893  0.89923  1.0000
  H   H25       1.0  0.35159  0.39023  0.83118  1.0000
  O  Te1       1.0  0.66103  0.71938  0.12237  1.0000
  O  Te2       1.0  0.80462  0.64815  0.13433  1.0000
  H   H26       1.0  0.47673  0.32807  0.84150  1.0000
  Mg  Mg1       1.0  0.78875  0.76796  0.21644  1.0000
  C   C35       1.0  0.01441  0.43142  0.60844  1.0000
  C   C36       1.0  0.09608  0.52588  0.52234  1.0000
  C  Sn3       1.0  0.07345  0.58646  0.42964  1.0000
  C  Sn4       1.0  0.96699  0.55163  0.42328  1.0000
  C   C37       1.0  0.88585  0.45705  0.50995  1.0000
  C   C38       1.0  0.90939  0.39703  0.60229  1.0000
  H   H27       1.0  0.03261  0.38500  0.67997  1.0000
  O  Te3       1.0  0.15600  0.68061  0.34431  1.0000
  O  Te4       1.0  0.94214  0.61066  0.33163  1.0000
  H   H28       1.0  0.84613  0.32393  0.66903  1.0000
  Mg  Mg2       1.0  0.08216  0.73346  0.23645  1.0000
  C   C39       1.0  0.58883  0.57221  0.56510  1.0000
  C   C40       1.0  0.56833  0.47475  0.50836  1.0000
  C  Sn5       1.0  0.48696  0.41884  0.42170  1.0000
  C  Sn6       1.0  0.42511  0.46152  0.39143  1.0000
  C   C41       1.0  0.44629  0.55912  0.44861  1.0000
  C   C42       1.0  0.52789  0.61438  0.53524  1.0000
  H   H29       1.0  0.65199  0.61500  0.63206  1.0000
  O  Te5       1.0  0.46752  0.32155  0.36594  1.0000
  O  Te6       1.0  0.34332  0.40733  0.30509  1.0000
  H   H30       1.0  0.54378  0.68987  0.57906  1.0000
  Mg  Mg3       1.0  0.34736  0.27757  0.25406  1.0000
