data_image0
_chemical_formula_structural       N2C8OBONCNC10NOBOH4C4HN2CNCOBOC7OBOH3N2C8OBONCNC10NOBOH4C4HN2CNCOBOC7OBOH3Zn2N2C8OBONCNC10NOBOH4C4HN2CNCOBOC7OBOH3N2C8OBONCNC10NOBOH4C4HN2CNCOBOC7OBOH3Zn2N2C8OBONCNC10NOBOH4C4HN2CNCOBOC7OBOH3N2C8OBONCNC10NOBOH4C4HN2CNCOBOC7OBOH3Zn2N2C8OBONCNC10NOBOH4C4HN2CNCOBOC7OBOH3N2C8OBONCNC10NOBOH4C4HN2CNCOBOC7OBOH3Zn2C2Sn2C2HTe2HMgC2Sn2C2HTe2HMgC2Sn2C2HTe2HMgC2Sn2C2HTe2HMgC2Sn2C2HTe2HMgC2Sn2C2HTe2HMgC2Sn2C2HTe2HMgC2Sn2C2HTe2HMgC2Sn2C2HTe2HMgC2Sn2C2HTe2HMgC2Sn2C2HTe2HMgC2Sn2C2HTe2HMgC2Sn2C2HTe2HMgC2Sn2C2HTe2HMgC2Sn2C2HTe2HMgC2Sn2C2HTe2HMg
_chemical_formula_sum              "N64 C320 O64 B32 H96 Zn8 Sn32 Te32 Mg16"
_cell_length_a       46.3376
_cell_length_b       46.3558
_cell_length_c       7.85334
_cell_angle_alpha    120.739
_cell_angle_beta     90.3702
_cell_angle_gamma    90.2973

_symmetry_space_group_name_H-M    'P1'
_space_group_IT_number       1

loop_
  _space_group_symop_operation_xyz
  'x, y, z'

loop_
  _atom_site_type_symbol
  _atom_site_label
  _atom_site_symmetry_multiplicity
  _atom_site_fract_x
  _atom_site_fract_y
  _atom_site_fract_z
  _atom_site_occupancy
  N   N1        1.0  0.49957  0.54225  0.22803  1.0000
  N   N2        1.0  0.55137  0.55270  0.24750  1.0000
  C   C1        1.0  0.55968  0.52574  0.25388  1.0000
  C   C2        1.0  0.58980  0.51748  0.26126  1.0000
  C   C3        1.0  0.58977  0.48728  0.26584  1.0000
  C   C4        1.0  0.55959  0.47796  0.26323  1.0000
  C   C5        1.0  0.61526  0.47172  0.27245  1.0000
  C   C6        1.0  0.64029  0.48809  0.27130  1.0000
  C   C7        1.0  0.64030  0.51803  0.26611  1.0000
  C   C8        1.0  0.61531  0.53379  0.26076  1.0000
  O   O1        1.0  0.66851  0.52794  0.26583  1.0000
  B   B1        1.0  0.68571  0.50357  0.27171  1.0000
  O   O2        1.0  0.66850  0.47887  0.27561  1.0000
  N   N3        1.0  0.94774  0.55133  0.23799  1.0000
  C   C9        1.0  0.93924  0.52419  0.24258  1.0000
  N   N4        1.0  0.95625  0.50023  0.24619  1.0000
  C   C10       1.0  0.93893  0.47647  0.25206  1.0000
  C   C11       1.0  0.90877  0.48556  0.25247  1.0000
  C   C12       1.0  0.90904  0.51567  0.24691  1.0000
  C   C13       1.0  0.88374  0.53193  0.24521  1.0000
  C   C14       1.0  0.85852  0.51632  0.25101  1.0000
  C   C15       1.0  0.85817  0.48662  0.25880  1.0000
  C   C16       1.0  0.88303  0.47024  0.26025  1.0000
  C   C17       1.0  0.97475  0.44092  0.25679  1.0000
  C   C18       1.0  0.96752  0.38399  0.24295  1.0000
  C   C19       1.0  0.98383  0.35854  0.23692  1.0000
  N   N5        1.0  0.94726  0.44920  0.25488  1.0000
  O   O3        1.0  0.83040  0.52634  0.25103  1.0000
  B   B2        1.0  0.81294  0.50241  0.26146  1.0000
  O   O4        1.0  0.82982  0.47776  0.26666  1.0000
  H   H1        1.0  0.61517  0.44895  0.28000  1.0000
  H   H2        1.0  0.61533  0.55660  0.25384  1.0000
  H   H3        1.0  0.88279  0.44766  0.26970  1.0000
  H   H4        1.0  0.88413  0.55473  0.23824  1.0000
  C   C20       1.0  0.56136  0.02563  0.24297  1.0000
  C   C21       1.0  0.59167  0.01744  0.24777  1.0000
  C   C22       1.0  0.64232  0.01779  0.25014  1.0000
  C   C23       1.0  0.61725  0.03360  0.24569  1.0000
  H   H5        1.0  0.61728  0.05642  0.23892  1.0000
  N   N6        1.0  0.54439  0.00149  0.24727  1.0000
  N   N7        1.0  0.94996  0.05205  0.24696  1.0000
  C   C24       1.0  0.94127  0.02510  0.25294  1.0000
  N   N8        1.0  0.95816  0.00087  0.25488  1.0000
  C   C25       1.0  0.59182  0.98727  0.25267  1.0000
  O   O5        1.0  0.67059  0.97847  0.25840  1.0000
  B   B3        1.0  0.68775  0.00323  0.25489  1.0000
  O   O6        1.0  0.67060  0.02761  0.24926  1.0000
  C   C26       1.0  0.91103  0.01686  0.25973  1.0000
  C   C27       1.0  0.91069  0.98662  0.26374  1.0000
  C   C28       1.0  0.94074  0.97726  0.26146  1.0000
  C   C29       1.0  0.88502  0.97106  0.27009  1.0000
  C   C30       1.0  0.86052  0.01757  0.26614  1.0000
  C   C31       1.0  0.88569  0.03324  0.26009  1.0000
  C   C32       1.0  0.86016  0.98755  0.27044  1.0000
  O   O7        1.0  0.83246  0.02755  0.26623  1.0000
  B   B4        1.0  0.81494  0.00305  0.26966  1.0000
  O   O8        1.0  0.83179  0.97834  0.27449  1.0000
  H   H6        1.0  0.61719  0.94873  0.26378  1.0000
  H   H7        1.0  0.88490  0.94817  0.27615  1.0000
  H   H8        1.0  0.88593  0.05607  0.25341  1.0000
  N   N9        1.0  0.49937  0.45949  0.26980  1.0000
  N   N10       1.0  0.44753  0.44987  0.25900  1.0000
  C   C33       1.0  0.43930  0.47682  0.25241  1.0000
  C   C34       1.0  0.40916  0.48561  0.25122  1.0000
  C   C35       1.0  0.40922  0.51565  0.24506  1.0000
  C   C36       1.0  0.43941  0.52425  0.23957  1.0000
  C   C37       1.0  0.38370  0.53164  0.24381  1.0000
  C   C38       1.0  0.35865  0.51574  0.24976  1.0000
  C   C39       1.0  0.35861  0.48587  0.25579  1.0000
  C   C40       1.0  0.38366  0.46984  0.25781  1.0000
  O   O9        1.0  0.33037  0.47646  0.26096  1.0000
  B   B5        1.0  0.31320  0.50109  0.25773  1.0000
  O   O10       1.0  0.33043  0.52541  0.24999  1.0000
  N   N11       1.0  0.05096  0.44918  0.25095  1.0000
  C   C41       1.0  0.05952  0.47642  0.24764  1.0000
  N   N12       1.0  0.04244  0.50044  0.24493  1.0000
  C   C42       1.0  0.05970  0.52443  0.24132  1.0000
  C   C43       1.0  0.08986  0.51566  0.24303  1.0000
  C   C44       1.0  0.08975  0.48524  0.24509  1.0000
  C   C45       1.0  0.11524  0.46932  0.24773  1.0000
  C   C46       1.0  0.14035  0.48568  0.24743  1.0000
  C   C47       1.0  0.14045  0.51591  0.24552  1.0000
  C   C48       1.0  0.11544  0.53190  0.24243  1.0000
  C   C49       1.0  0.02390  0.55972  0.23433  1.0000
  C   C50       1.0  0.03119  0.61618  0.24366  1.0000
  C   C51       1.0  0.01486  0.64153  0.24874  1.0000
  N   N13       1.0  0.05139  0.55166  0.23802  1.0000
  O   O11       1.0  0.16857  0.47631  0.25136  1.0000
  B   B6        1.0  0.18585  0.50137  0.25202  1.0000
  O   O12       1.0  0.16874  0.52592  0.24745  1.0000
  H   H9        1.0  0.38379  0.55443  0.23674  1.0000
  H   H10       1.0  0.38382  0.44720  0.26656  1.0000
  H   H11       1.0  0.11544  0.55500  0.23862  1.0000
  H   H12       1.0  0.11509  0.44632  0.25259  1.0000
  C   C52       1.0  0.44129  0.97533  0.24589  1.0000
  C   C53       1.0  0.41101  0.98365  0.24432  1.0000
  C   C54       1.0  0.36043  0.98306  0.24738  1.0000
  C   C55       1.0  0.38571  0.96723  0.24752  1.0000
  H   H13       1.0  0.38616  0.94422  0.25235  1.0000
  N   N14       1.0  0.45820  0.99954  0.24197  1.0000
  N   N15       1.0  0.05238  0.94872  0.25544  1.0000
  C   C56       1.0  0.06107  0.97589  0.25167  1.0000
  N   N16       1.0  0.04421  0.00005  0.24887  1.0000
  C   C57       1.0  0.41066  0.01402  0.24169  1.0000
  O   O13       1.0  0.33179  0.02284  0.24803  1.0000
  B   B7        1.0  0.31485  0.99789  0.25145  1.0000
  O   O14       1.0  0.33228  0.97316  0.25125  1.0000
  C   C58       1.0  0.09136  0.98437  0.24875  1.0000
  C   C59       1.0  0.09178  0.01477  0.24634  1.0000
  C   C60       1.0  0.06168  0.02390  0.24499  1.0000
  C   C61       1.0  0.11761  0.03050  0.24446  1.0000
  C   C62       1.0  0.14192  0.98391  0.24940  1.0000
  C   C63       1.0  0.11660  0.96802  0.25092  1.0000
  C   C64       1.0  0.14237  0.01406  0.24668  1.0000
  O   O15       1.0  0.17002  0.97410  0.25230  1.0000
  B   B8        1.0  0.18758  0.99876  0.25100  1.0000
  O   O16       1.0  0.17076  0.02350  0.24632  1.0000
  H   H14       1.0  0.38466  0.05275  0.23684  1.0000
  H   H15       1.0  0.11809  0.05358  0.24044  1.0000
  H   H16       1.0  0.11610  0.94502  0.25591  1.0000
  Zn  Zn1       1.0  0.99933  0.50067  0.24935  1.0000
  Zn  Zn2       1.0  0.00105  0.00017  0.24959  1.0000
  N   N17       1.0  0.45654  0.50047  0.24489  1.0000
  N   N18       1.0  0.44779  0.55116  0.23200  1.0000
  C   C65       1.0  0.47529  0.55946  0.22846  1.0000
  C   C66       1.0  0.48438  0.58980  0.23017  1.0000
  C   C67       1.0  0.51505  0.59046  0.23811  1.0000
  C   C68       1.0  0.52393  0.56032  0.23787  1.0000
  C   C69       1.0  0.53139  0.61684  0.24879  1.0000
  C   C70       1.0  0.51528  0.64179  0.24744  1.0000
  C   C71       1.0  0.48483  0.64095  0.23632  1.0000
  C   C72       1.0  0.46837  0.61528  0.22893  1.0000
  O   O17       1.0  0.47539  0.66899  0.23344  1.0000
  B   B9        1.0  0.50059  0.68682  0.24274  1.0000
  O   O18       1.0  0.52531  0.67037  0.25308  1.0000
  N   N19       1.0  0.45000  0.94828  0.24964  1.0000
  C   C73       1.0  0.47759  0.94079  0.25542  1.0000
  N   N20       1.0  0.50173  0.95908  0.26377  1.0000
  C   C74       1.0  0.52625  0.94212  0.26198  1.0000
  C   C75       1.0  0.51758  0.91162  0.25925  1.0000
  C   C76       1.0  0.48691  0.91067  0.25351  1.0000
  C   C77       1.0  0.47096  0.88415  0.24419  1.0000
  C   C78       1.0  0.48751  0.85926  0.24284  1.0000
  C   C79       1.0  0.51799  0.86030  0.25023  1.0000
  C   C80       1.0  0.53404  0.88624  0.25802  1.0000
  C   C81       1.0  0.56174  0.97804  0.25401  1.0000
  C   C82       1.0  0.61733  0.97157  0.25716  1.0000
  C   C83       1.0  0.64236  0.98783  0.25506  1.0000
  N   N21       1.0  0.55363  0.95088  0.25983  1.0000
  O   O19       1.0  0.47795  0.83058  0.23791  1.0000
  B   B10       1.0  0.50308  0.81422  0.24403  1.0000
  O   O20       1.0  0.52798  0.83223  0.25012  1.0000
  H   H17       1.0  0.55481  0.61741  0.25637  1.0000
  H   H18       1.0  0.44494  0.61456  0.22078  1.0000
  H   H19       1.0  0.55745  0.88730  0.26503  1.0000
  H   H20       1.0  0.44752  0.88346  0.24030  1.0000
  C   C84       1.0  0.97525  0.55954  0.23423  1.0000
  C   C85       1.0  0.98430  0.58993  0.23722  1.0000
  C   C86       1.0  0.98439  0.64138  0.24830  1.0000
  C   C87       1.0  0.96808  0.61583  0.24307  1.0000
  H   H21       1.0  0.94465  0.61548  0.24146  1.0000
  N   N22       1.0  0.99953  0.54199  0.22915  1.0000
  N   N23       1.0  0.94879  0.94989  0.26400  1.0000
  C   C88       1.0  0.97620  0.94128  0.26442  1.0000
  N   N24       1.0  0.00070  0.95862  0.26741  1.0000
  C   C89       1.0  0.01496  0.59006  0.23735  1.0000
  O   O21       1.0  0.02463  0.66997  0.25174  1.0000
  B   B11       1.0  0.99970  0.68705  0.25172  1.0000
  O   O22       1.0  0.97465  0.66971  0.25074  1.0000
  C   C90       1.0  0.98489  0.91075  0.26018  1.0000
  C   C91       1.0  0.01555  0.91040  0.25751  1.0000
  C   C92       1.0  0.02483  0.94075  0.26047  1.0000
  C   C93       1.0  0.03150  0.88413  0.24928  1.0000
  C   C94       1.0  0.98448  0.85915  0.24769  1.0000
  C   C95       1.0  0.96842  0.88491  0.25567  1.0000
  C   C96       1.0  0.01494  0.85873  0.24393  1.0000
  O   O23       1.0  0.97442  0.83077  0.24478  1.0000
  B   B12       1.0  0.99930  0.81316  0.24034  1.0000
  O   O24       1.0  0.02444  0.83002  0.23777  1.0000
  H   H22       1.0  0.05463  0.61620  0.24295  1.0000
  H   H23       1.0  0.05494  0.88408  0.24922  1.0000
  H   H24       1.0  0.94500  0.88539  0.26006  1.0000
  N   N25       1.0  0.54249  0.50155  0.25568  1.0000
  N   N26       1.0  0.55114  0.45062  0.26589  1.0000
  C   C97       1.0  0.52363  0.44203  0.26625  1.0000
  C   C98       1.0  0.51450  0.41160  0.26312  1.0000
  C   C99       1.0  0.48382  0.41161  0.26321  1.0000
  C   C100      1.0  0.47498  0.44181  0.26424  1.0000
  C   C101      1.0  0.46741  0.38579  0.25920  1.0000
  C   C102      1.0  0.48353  0.36029  0.25406  1.0000
  C   C103      1.0  0.51401  0.36020  0.25337  1.0000
  C   C104      1.0  0.53051  0.38558  0.25783  1.0000
  O   O25       1.0  0.52361  0.33175  0.25020  1.0000
  B   B13       1.0  0.49850  0.31451  0.24949  1.0000
  O   O26       1.0  0.47357  0.33185  0.25084  1.0000
  N   N27       1.0  0.55261  0.05245  0.23639  1.0000
  C   C105      1.0  0.52500  0.05997  0.23048  1.0000
  N   N28       1.0  0.50086  0.04186  0.22494  1.0000
  C   C106      1.0  0.47632  0.05910  0.23093  1.0000
  C   C107      1.0  0.48490  0.08966  0.23437  1.0000
  C   C108      1.0  0.51558  0.09018  0.23292  1.0000
  C   C109      1.0  0.53127  0.11648  0.23723  1.0000
  C   C110      1.0  0.51449  0.14158  0.24261  1.0000
  C   C111      1.0  0.48402  0.14116  0.24597  1.0000
  C   C112      1.0  0.46821  0.11539  0.24193  1.0000
  C   C113      1.0  0.44075  0.02324  0.23865  1.0000
  C   C114      1.0  0.38492  0.02974  0.24158  1.0000
  C   C115      1.0  0.36010  0.01331  0.24557  1.0000
  N   N29       1.0  0.44890  0.05055  0.23495  1.0000
  O   O27       1.0  0.52369  0.17010  0.24376  1.0000
  B   B14       1.0  0.49836  0.18702  0.24775  1.0000
  O   O28       1.0  0.47369  0.16944  0.25010  1.0000
  H   H25       1.0  0.44398  0.38621  0.26244  1.0000
  H   H26       1.0  0.55394  0.38555  0.25873  1.0000
  H   H27       1.0  0.44478  0.11477  0.24292  1.0000
  H   H28       1.0  0.55470  0.11681  0.23444  1.0000
  C   C116      1.0  0.02345  0.44099  0.25534  1.0000
  C   C117      1.0  0.01438  0.41039  0.25002  1.0000
  C   C118      1.0  0.01432  0.35884  0.23825  1.0000
  C   C119      1.0  0.03059  0.38443  0.24354  1.0000
  H   H29       1.0  0.05403  0.38473  0.24478  1.0000
  N   N30       1.0  0.99914  0.45876  0.26346  1.0000
  N   N31       1.0  0.05359  0.05117  0.24119  1.0000
  C   C120      1.0  0.02619  0.05961  0.23785  1.0000
  N   N32       1.0  0.00169  0.04210  0.23368  1.0000
  C   C121      1.0  0.98370  0.41028  0.25056  1.0000
  O   O29       1.0  0.97413  0.32987  0.23220  1.0000
  B   B15       1.0  0.99916  0.31293  0.23321  1.0000
  O   O30       1.0  0.02415  0.33055  0.23578  1.0000
  C   C122      1.0  0.01740  0.09005  0.24028  1.0000
  C   C123      1.0  0.98672  0.09008  0.24128  1.0000
  C   C124      1.0  0.97751  0.05988  0.24023  1.0000
  C   C125      1.0  0.97056  0.11592  0.24586  1.0000
  C   C126      1.0  0.01732  0.14145  0.24839  1.0000
  C   C127      1.0  0.03359  0.11610  0.24470  1.0000
  C   C128      1.0  0.98685  0.14128  0.24868  1.0000
  O   O31       1.0  0.02702  0.16988  0.24964  1.0000
  B   B16       1.0  0.00192  0.18681  0.24894  1.0000
  O   O32       1.0  0.97700  0.16945  0.24984  1.0000
  H   H30       1.0  0.94409  0.38402  0.24427  1.0000
  H   H31       1.0  0.94712  0.11561  0.24519  1.0000
  H   H32       1.0  0.05703  0.11608  0.24342  1.0000
  Zn  Zn3       1.0  0.50134  0.00014  0.24183  1.0000
  Zn  Zn4       1.0  0.49964  0.50081  0.24924  1.0000
  N   N33       1.0  0.50007  0.54035  0.73192  1.0000
  N   N34       1.0  0.55190  0.55068  0.74909  1.0000
  C   C129      1.0  0.56021  0.52372  0.75546  1.0000
  C   C130      1.0  0.59036  0.51521  0.76230  1.0000
  C   C131      1.0  0.58999  0.48485  0.76505  1.0000
  C   C132      1.0  0.55980  0.47584  0.76354  1.0000
  C   C133      1.0  0.61517  0.46870  0.76966  1.0000
  C   C134      1.0  0.64046  0.48479  0.77061  1.0000
  C   C135      1.0  0.64099  0.51495  0.76790  1.0000
  C   C136      1.0  0.61620  0.53118  0.76301  1.0000
  O   O33       1.0  0.66946  0.52424  0.76756  1.0000
  B   B17       1.0  0.68615  0.49927  0.77042  1.0000
  O   O34       1.0  0.66846  0.47487  0.77397  1.0000
  N   N35       1.0  0.94687  0.54911  0.73743  1.0000
  C   C137      1.0  0.93905  0.52174  0.74158  1.0000
  N   N36       1.0  0.95670  0.49802  0.74321  1.0000
  C   C138      1.0  0.94006  0.47363  0.74742  1.0000
  C   C139      1.0  0.90970  0.48194  0.74822  1.0000
  C   C140      1.0  0.90910  0.51242  0.74681  1.0000
  C   C141      1.0  0.88327  0.52820  0.74907  1.0000
  C   C142      1.0  0.85858  0.51174  0.75450  1.0000
  C   C143      1.0  0.85913  0.48143  0.75542  1.0000
  C   C144      1.0  0.88449  0.46546  0.75252  1.0000
  C   C145      1.0  0.97671  0.43913  0.75409  1.0000
  C   C146      1.0  0.97147  0.38207  0.74310  1.0000
  C   C147      1.0  0.98880  0.35736  0.73796  1.0000
  N   N37       1.0  0.94903  0.44656  0.75039  1.0000
  O   O35       1.0  0.83021  0.52119  0.75828  1.0000
  B   B18       1.0  0.81344  0.49620  0.76177  1.0000
  O   O36       1.0  0.83104  0.47149  0.76061  1.0000
  H   H33       1.0  0.61467  0.44562  0.77354  1.0000
  H   H34       1.0  0.61655  0.55410  0.75714  1.0000
  H   H35       1.0  0.88504  0.44228  0.75534  1.0000
  H   H36       1.0  0.88279  0.55125  0.74481  1.0000
  C   C148      1.0  0.55883  0.02330  0.74422  1.0000
  C   C149      1.0  0.58905  0.01519  0.74878  1.0000
  C   C150      1.0  0.63962  0.01647  0.75166  1.0000
  C   C151      1.0  0.61430  0.03184  0.74735  1.0000
  H   H37       1.0  0.61380  0.05474  0.74147  1.0000
  N   N38       1.0  0.54185  0.99922  0.74887  1.0000
  N   N39       1.0  0.94904  0.05330  0.74679  1.0000
  C   C152      1.0  0.93973  0.02656  0.75301  1.0000
  N   N40       1.0  0.95619  0.00206  0.75559  1.0000
  C   C153      1.0  0.58940  0.98499  0.75322  1.0000
  O   O37       1.0  0.66844  0.97764  0.76016  1.0000
  B   B19       1.0  0.68530  0.00267  0.75664  1.0000
  O   O38       1.0  0.66771  0.02680  0.75133  1.0000
  C   C154      1.0  0.90925  0.01880  0.75871  1.0000
  C   C155      1.0  0.90846  0.98846  0.76153  1.0000
  C   C156      1.0  0.93832  0.97864  0.76053  1.0000
  C   C157      1.0  0.88263  0.97316  0.76719  1.0000
  C   C158      1.0  0.85863  0.02010  0.76497  1.0000
  C   C159      1.0  0.88406  0.03555  0.75965  1.0000
  C   C160      1.0  0.85799  0.99003  0.76859  1.0000
  O   O39       1.0  0.83053  0.03029  0.76552  1.0000
  B   B20       1.0  0.81285  0.00587  0.76933  1.0000
  O   O40       1.0  0.82964  0.98109  0.77363  1.0000
  H   H38       1.0  0.61559  0.94682  0.76339  1.0000
  H   H39       1.0  0.88222  0.95017  0.77212  1.0000
  H   H40       1.0  0.88461  0.05851  0.75437  1.0000
  N   N41       1.0  0.49963  0.45760  0.77356  1.0000
  N   N42       1.0  0.44783  0.44739  0.75917  1.0000
  C   C161      1.0  0.43954  0.47436  0.75280  1.0000
  C   C162      1.0  0.40939  0.48320  0.75121  1.0000
  C   C163      1.0  0.40956  0.51347  0.74747  1.0000
  C   C164      1.0  0.43977  0.52203  0.74240  1.0000
  C   C165      1.0  0.38415  0.52973  0.74771  1.0000
  C   C166      1.0  0.35903  0.51387  0.75270  1.0000
  C   C167      1.0  0.35878  0.48373  0.75562  1.0000
  C   C168      1.0  0.38374  0.46738  0.75556  1.0000
  O   O41       1.0  0.33043  0.47449  0.76025  1.0000
  B   B21       1.0  0.31347  0.49945  0.75910  1.0000
  O   O42       1.0  0.33090  0.52392  0.75463  1.0000
  N   N43       1.0  0.05251  0.44977  0.75029  1.0000
  C   C169      1.0  0.06020  0.47720  0.74674  1.0000
  N   N44       1.0  0.04271  0.50080  0.74324  1.0000
  C   C170      1.0  0.05959  0.52522  0.74062  1.0000
  C   C171      1.0  0.09000  0.51693  0.74358  1.0000
  C   C172      1.0  0.09016  0.48648  0.74527  1.0000
  C   C173      1.0  0.11550  0.47039  0.74761  1.0000
  C   C174      1.0  0.14060  0.48668  0.74783  1.0000
  C   C175      1.0  0.14070  0.51697  0.74656  1.0000
  C   C176      1.0  0.11571  0.53308  0.74358  1.0000
  C   C177      1.0  0.02285  0.55961  0.73278  1.0000
  C   C178      1.0  0.02830  0.61655  0.74292  1.0000
  C   C179      1.0  0.01117  0.64143  0.74825  1.0000
  N   N45       1.0  0.05058  0.55223  0.73711  1.0000
  O   O43       1.0  0.16872  0.47717  0.75137  1.0000
  B   B22       1.0  0.18610  0.50213  0.75214  1.0000
  O   O44       1.0  0.16906  0.52681  0.74828  1.0000
  H   H41       1.0  0.38431  0.55267  0.74218  1.0000
  H   H42       1.0  0.38371  0.44443  0.76092  1.0000
  H   H43       1.0  0.11596  0.55619  0.73995  1.0000
  H   H44       1.0  0.11518  0.44726  0.75110  1.0000
  C   C180      1.0  0.43875  0.97385  0.74568  1.0000
  C   C181      1.0  0.40854  0.98233  0.74427  1.0000
  C   C182      1.0  0.35806  0.98217  0.75057  1.0000
  C   C183      1.0  0.38324  0.96612  0.74929  1.0000
  H   H45       1.0  0.38357  0.94318  0.75469  1.0000
  N   N46       1.0  0.45573  0.99799  0.74182  1.0000
  N   N47       1.0  0.04926  0.94754  0.75607  1.0000
  C   C184      1.0  0.05855  0.97452  0.75271  1.0000
  N   N48       1.0  0.04212  0.99904  0.75033  1.0000
  C   C185      1.0  0.40826  0.01271  0.74175  1.0000
  O   O45       1.0  0.32933  0.02167  0.74884  1.0000
  B   B23       1.0  0.31251  0.99693  0.75483  1.0000
  O   O46       1.0  0.33001  0.97249  0.75733  1.0000
  C   C186      1.0  0.08899  0.98238  0.74873  1.0000
  C   C187      1.0  0.08985  0.01271  0.74585  1.0000
  C   C188      1.0  0.06002  0.02238  0.74491  1.0000
  C   C189      1.0  0.11572  0.02822  0.74336  1.0000
  C   C190      1.0  0.13955  0.98141  0.74817  1.0000
  C   C191      1.0  0.11410  0.96575  0.75014  1.0000
  C   C192      1.0  0.14031  0.01157  0.74542  1.0000
  O   O47       1.0  0.16756  0.97133  0.75065  1.0000
  B   B24       1.0  0.18532  0.99587  0.74883  1.0000
  O   O48       1.0  0.16873  0.02077  0.74481  1.0000
  H   H46       1.0  0.38230  0.05165  0.73824  1.0000
  H   H47       1.0  0.11618  0.05124  0.73873  1.0000
  H   H48       1.0  0.11346  0.94274  0.75495  1.0000
  Zn  Zn5       1.0  0.99958  0.49927  0.74165  1.0000
  Zn  Zn6       1.0  0.99923  0.00113  0.75726  1.0000
  N   N49       1.0  0.45683  0.49815  0.74693  1.0000
  N   N50       1.0  0.44824  0.54896  0.73538  1.0000
  C   C193      1.0  0.47572  0.55738  0.73202  1.0000
  C   C194      1.0  0.48472  0.58759  0.73219  1.0000
  C   C195      1.0  0.51540  0.58832  0.73868  1.0000
  C   C196      1.0  0.52443  0.55833  0.73998  1.0000
  C   C197      1.0  0.53156  0.61463  0.74636  1.0000
  C   C198      1.0  0.51525  0.63959  0.74624  1.0000
  C   C199      1.0  0.48478  0.63860  0.73701  1.0000
  C   C200      1.0  0.46852  0.61289  0.73053  1.0000
  O   O49       1.0  0.47496  0.66648  0.73437  1.0000
  B   B25       1.0  0.49993  0.68458  0.74252  1.0000
  O   O50       1.0  0.52497  0.66825  0.75074  1.0000
  N   N51       1.0  0.44730  0.94682  0.75020  1.0000
  C   C201      1.0  0.47481  0.93921  0.75745  1.0000
  N   N52       1.0  0.49911  0.95738  0.76689  1.0000
  C   C202      1.0  0.52351  0.94009  0.76408  1.0000
  C   C203      1.0  0.51448  0.90951  0.76006  1.0000
  C   C204      1.0  0.48380  0.90890  0.75449  1.0000
  C   C205      1.0  0.46746  0.88243  0.74308  1.0000
  C   C206      1.0  0.48361  0.85716  0.74037  1.0000
  C   C207      1.0  0.51408  0.85793  0.74880  1.0000
  C   C208      1.0  0.53052  0.88371  0.75731  1.0000
  C   C209      1.0  0.55925  0.97571  0.75523  1.0000
  C   C210      1.0  0.61523  0.96972  0.75736  1.0000
  C   C211      1.0  0.64004  0.98646  0.75607  1.0000
  N   N53       1.0  0.55098  0.94863  0.76142  1.0000
  O   O51       1.0  0.47372  0.82831  0.73283  1.0000
  B   B26       1.0  0.49864  0.81167  0.73879  1.0000
  O   O52       1.0  0.52371  0.82972  0.74845  1.0000
  H   H49       1.0  0.55500  0.61499  0.74977  1.0000
  H   H50       1.0  0.44510  0.61205  0.72264  1.0000
  H   H51       1.0  0.55395  0.88422  0.76338  1.0000
  H   H52       1.0  0.44402  0.88216  0.73797  1.0000
  C   C212      1.0  0.97413  0.55806  0.73277  1.0000
  C   C213      1.0  0.98230  0.58878  0.73677  1.0000
  C   C214      1.0  0.98071  0.64032  0.74849  1.0000
  C   C215      1.0  0.96528  0.61420  0.74296  1.0000
  H   H53       1.0  0.94185  0.61305  0.74130  1.0000
  N   N54       1.0  0.99891  0.54111  0.72624  1.0000
  N   N55       1.0  0.94575  0.95109  0.76296  1.0000
  C   C216      1.0  0.97292  0.94191  0.76476  1.0000
  N   N56       1.0  0.99781  0.95891  0.77040  1.0000
  C   C217      1.0  0.01298  0.58984  0.73684  1.0000
  O   O53       1.0  0.02000  0.67020  0.75098  1.0000
  B   B27       1.0  0.99443  0.68656  0.75212  1.0000
  O   O54       1.0  0.96999  0.66837  0.75160  1.0000
  C   C218      1.0  0.98087  0.91095  0.75830  1.0000
  C   C219      1.0  0.01151  0.90989  0.75508  1.0000
  C   C220      1.0  0.02151  0.94024  0.76085  1.0000
  C   C221      1.0  0.02691  0.88319  0.74552  1.0000
  C   C222      1.0  0.97940  0.85921  0.74467  1.0000
  C   C223      1.0  0.96389  0.88532  0.75239  1.0000
  C   C224      1.0  0.00986  0.85824  0.74185  1.0000
  O   O55       1.0  0.96884  0.83095  0.74156  1.0000
  B   B28       1.0  0.99336  0.81297  0.73917  1.0000
  O   O56       1.0  0.01878  0.82957  0.73827  1.0000
  H   H54       1.0  0.05172  0.61736  0.74108  1.0000
  H   H55       1.0  0.05034  0.88255  0.74339  1.0000
  H   H56       1.0  0.94048  0.88628  0.75618  1.0000
  N   N57       1.0  0.54284  0.49960  0.75731  1.0000
  N   N58       1.0  0.55139  0.44856  0.76663  1.0000
  C   C225      1.0  0.52393  0.44010  0.76871  1.0000
  C   C226      1.0  0.51501  0.40951  0.76376  1.0000
  C   C227      1.0  0.48434  0.40927  0.76335  1.0000
  C   C228      1.0  0.47531  0.43960  0.76596  1.0000
  C   C229      1.0  0.46825  0.38310  0.75762  1.0000
  C   C230      1.0  0.48464  0.35774  0.75202  1.0000
  C   C231      1.0  0.51511  0.35777  0.74943  1.0000
  C   C232      1.0  0.53132  0.38348  0.75561  1.0000
  O   O57       1.0  0.52499  0.32917  0.74334  1.0000
  B   B29       1.0  0.50005  0.31196  0.74540  1.0000
  O   O58       1.0  0.47497  0.32926  0.74960  1.0000
  N   N59       1.0  0.55028  0.05015  0.73768  1.0000
  C   C233      1.0  0.52277  0.05784  0.73175  1.0000
  N   N60       1.0  0.49848  0.04004  0.72640  1.0000
  C   C234      1.0  0.47412  0.05749  0.73139  1.0000
  C   C235      1.0  0.48308  0.08790  0.73399  1.0000
  C   C236      1.0  0.51374  0.08794  0.73278  1.0000
  C   C237      1.0  0.53005  0.11368  0.73567  1.0000
  C   C238      1.0  0.51383  0.13904  0.74034  1.0000
  C   C239      1.0  0.48336  0.13927  0.74399  1.0000
  C   C240      1.0  0.46696  0.11393  0.74063  1.0000
  C   C241      1.0  0.43839  0.02181  0.73866  1.0000
  C   C242      1.0  0.38255  0.02856  0.74216  1.0000
  C   C243      1.0  0.35770  0.01224  0.74686  1.0000
  N   N61       1.0  0.44666  0.04910  0.73509  1.0000
  O   O59       1.0  0.52371  0.16730  0.74161  1.0000
  B   B30       1.0  0.49880  0.18482  0.74590  1.0000
  O   O60       1.0  0.47371  0.16784  0.74861  1.0000
  H   H57       1.0  0.44482  0.38307  0.75932  1.0000
  H   H58       1.0  0.55476  0.38372  0.75543  1.0000
  H   H59       1.0  0.44352  0.11399  0.74163  1.0000
  H   H60       1.0  0.55348  0.11338  0.73279  1.0000
  C   C244      1.0  0.02529  0.44081  0.75436  1.0000
  C   C245      1.0  0.01726  0.41010  0.75025  1.0000
  C   C246      1.0  0.01925  0.35863  0.73791  1.0000
  C   C247      1.0  0.03452  0.38483  0.74351  1.0000
  H   H61       1.0  0.05792  0.38613  0.74423  1.0000
  N   N62       1.0  0.00055  0.45768  0.76033  1.0000
  N   N63       1.0  0.05259  0.04975  0.74040  1.0000
  C   C248      1.0  0.02543  0.05881  0.73724  1.0000
  N   N64       1.0  0.00052  0.04204  0.73366  1.0000
  C   C249      1.0  0.98662  0.40891  0.75002  1.0000
  O   O61       1.0  0.98010  0.32852  0.73455  1.0000
  B   B31       1.0  0.00576  0.31239  0.73426  1.0000
  O   O62       1.0  0.03011  0.33058  0.73414  1.0000
  C   C250      1.0  0.01751  0.08934  0.73926  1.0000
  C   C251      1.0  0.98686  0.09036  0.74054  1.0000
  C   C252      1.0  0.97679  0.06043  0.73975  1.0000
  C   C253      1.0  0.97162  0.11679  0.74522  1.0000
  C   C254      1.0  0.01932  0.14056  0.74749  1.0000
  C   C255      1.0  0.03468  0.11467  0.74338  1.0000
  C   C256      1.0  0.98886  0.14153  0.74797  1.0000
  O   O63       1.0  0.03011  0.16857  0.74909  1.0000
  B   B32       1.0  0.00574  0.18641  0.74812  1.0000
  O   O64       1.0  0.98011  0.17008  0.74916  1.0000
  H   H62       1.0  0.94806  0.38098  0.74371  1.0000
  H   H63       1.0  0.94820  0.11739  0.74434  1.0000
  H   H64       1.0  0.05809  0.11371  0.74190  1.0000
  Zn  Zn7       1.0  0.49871  0.99849  0.74257  1.0000
  Zn  Zn8       1.0  0.49991  0.49901  0.75105  1.0000
  C   C257      1.0  0.74099  0.47334  0.27177  1.0000
  C   C258      1.0  0.72209  0.49762  0.28266  1.0000
  C  Sn1       1.0  0.73271  0.52528  0.27593  1.0000
  C  Sn2       1.0  0.76282  0.52862  0.25790  1.0000
  C   C259      1.0  0.78154  0.50419  0.24697  1.0000
  C   C260      1.0  0.77069  0.47662  0.25391  1.0000
  H   H65       1.0  0.73259  0.45200  0.27702  1.0000
  O  Te1       1.0  0.71353  0.54930  0.28707  1.0000
  O  Te2       1.0  0.77401  0.55601  0.25076  1.0000
  H   H66       1.0  0.78532  0.45782  0.24534  1.0000
  Mg  Mg1       1.0  0.73919  0.58214  0.27125  1.0000
  C   C261      1.0  0.76008  0.03343  0.26102  1.0000
  C   C262      1.0  0.78385  0.01130  0.27750  1.0000
  C  Sn3       1.0  0.77280  0.98306  0.27585  1.0000
  C  Sn4       1.0  0.74259  0.97692  0.25728  1.0000
  C   C263      1.0  0.72419  0.99919  0.24075  1.0000
  C   C264      1.0  0.73028  0.02738  0.24263  1.0000
  H   H67       1.0  0.76882  0.05523  0.26237  1.0000
  O  Te3       1.0  0.79166  0.96122  0.29254  1.0000
  O  Te4       1.0  0.73097  0.94887  0.25515  1.0000
  H   H68       1.0  0.71590  0.04450  0.22974  1.0000
  Mg  Mg2       1.0  0.76547  0.92645  0.28224  1.0000
  C   C265      1.0  0.24174  0.53258  0.26562  1.0000
  C   C266      1.0  0.22236  0.50808  0.24942  1.0000
  C  Sn5       1.0  0.23247  0.47964  0.24823  1.0000
  C  Sn6       1.0  0.26255  0.47572  0.26362  1.0000
  C   C267      1.0  0.28176  0.50039  0.27991  1.0000
  C   C268      1.0  0.27141  0.52875  0.28089  1.0000
  H   H69       1.0  0.23373  0.55453  0.26649  1.0000
  O  Te5       1.0  0.21281  0.45539  0.23187  1.0000
  O  Te6       1.0  0.27324  0.44755  0.26288  1.0000
  H   H70       1.0  0.28642  0.54773  0.29356  1.0000
  Mg  Mg3       1.0  0.23788  0.42141  0.23752  1.0000
  C   C269      1.0  0.24350  0.02968  0.26497  1.0000
  C   C270      1.0  0.22928  0.00505  0.24661  1.0000
  C  Sn7       1.0  0.23937  0.97624  0.24109  1.0000
  C  Sn8       1.0  0.26946  0.97208  0.25428  1.0000
  C   C271      1.0  0.28870  0.99688  0.27277  1.0000
  C   C272      1.0  0.27318  0.02561  0.27808  1.0000
  H   H71       1.0  0.23552  0.05192  0.26919  1.0000
  O  Te7       1.0  0.21968  0.95187  0.22261  1.0000
  O  Te8       1.0  0.28012  0.94353  0.24922  1.0000
  H   H72       1.0  0.28822  0.04468  0.29243  1.0000
  Mg  Mg4       1.0  0.24473  0.91735  0.22236  1.0000
  C   C273      1.0  0.47238  0.75614  0.20736  1.0000
  C   C274      1.0  0.49555  0.77826  0.24897  1.0000
  C  Sn9       1.0  0.52324  0.76977  0.27900  1.0000
  C  Sn10      1.0  0.52774  0.73853  0.26699  1.0000
  C   C275      1.0  0.50442  0.71656  0.22513  1.0000
  C   C276      1.0  0.47681  0.72531  0.19541  1.0000
  H   H73       1.0  0.45102  0.76290  0.18425  1.0000
  O  Te9       1.0  0.54614  0.79218  0.32051  1.0000
  O  Te10      1.0  0.55518  0.72941  0.29628  1.0000
  H   H74       1.0  0.45887  0.70817  0.16306  1.0000
  Mg  Mg5       1.0  0.57954  0.76841  0.34905  1.0000
  C   C277      1.0  0.96926  0.74201  0.25061  1.0000
  C   C278      1.0  0.99269  0.72212  0.23712  1.0000
  C  Sn11      1.0  0.02085  0.73288  0.23564  1.0000
  C  Sn12      1.0  0.02558  0.76417  0.24796  1.0000
  C   C279      1.0  0.00199  0.78390  0.26155  1.0000
  C   C280      1.0  0.97390  0.77288  0.26285  1.0000
  H   H75       1.0  0.94752  0.73349  0.25173  1.0000
  O  Te11      1.0  0.04402  0.71269  0.22201  1.0000
  O  Te12      1.0  0.05350  0.77554  0.24686  1.0000
  H   H76       1.0  0.95576  0.78830  0.27343  1.0000
  Mg  Mg6       1.0  0.07806  0.73906  0.22594  1.0000
  C   C281      1.0  0.46799  0.26000  0.26162  1.0000
  C   C282      1.0  0.49147  0.27918  0.26318  1.0000
  C  Sn13      1.0  0.51955  0.26723  0.24603  1.0000
  C  Sn14      1.0  0.52415  0.23547  0.22692  1.0000
  C   C283      1.0  0.50052  0.21646  0.22538  1.0000
  C   C284      1.0  0.47251  0.22867  0.24270  1.0000
  H   H77       1.0  0.44632  0.26943  0.27491  1.0000
  O  Te13      1.0  0.54276  0.28673  0.24793  1.0000
  O  Te14      1.0  0.55199  0.22292  0.20946  1.0000
  H   H78       1.0  0.45434  0.21380  0.24136  1.0000
  Mg  Mg7       1.0  0.57665  0.25881  0.21983  1.0000
  C   C285      1.0  0.97030  0.24040  0.23667  1.0000
  C   C286      1.0  0.99416  0.22150  0.22946  1.0000
  C  Sn15      1.0  0.02211  0.23337  0.23447  1.0000
  C  Sn16      1.0  0.02619  0.26476  0.24699  1.0000
  C   C287      1.0  0.00219  0.28349  0.25427  1.0000
  C   C288      1.0  0.97431  0.27137  0.24910  1.0000
  H   H79       1.0  0.94873  0.23104  0.23278  1.0000
  O  Te15      1.0  0.04570  0.21416  0.22705  1.0000
  O  Te16      1.0  0.05389  0.27722  0.25231  1.0000
  H   H80       1.0  0.95584  0.28602  0.25482  1.0000
  Mg  Mg8       1.0  0.07921  0.24182  0.23843  1.0000
  C   C289      1.0  0.74256  0.52942  0.78375  1.0000
  C   C290      1.0  0.72275  0.50481  0.76090  1.0000
  C  Sn17      1.0  0.73236  0.47529  0.74854  1.0000
  C  Sn18      1.0  0.76236  0.47038  0.75936  1.0000
  C   C291      1.0  0.78200  0.49515  0.78237  1.0000
  C   C292      1.0  0.77215  0.52460  0.79452  1.0000
  H   H81       1.0  0.73494  0.55221  0.79326  1.0000
  O  Te17      1.0  0.71228  0.45096  0.72564  1.0000
  O  Te18      1.0  0.77255  0.44111  0.74748  1.0000
  H   H82       1.0  0.78749  0.54366  0.81234  1.0000
  Mg  Mg9       1.0  0.73675  0.41529  0.71657  1.0000
  C   C293      1.0  0.74132  0.97311  0.75071  1.0000
  C   C294      1.0  0.72191  0.99734  0.76680  1.0000
  C  Sn19      1.0  0.73200  0.02638  0.77373  1.0000
  C  Sn20      1.0  0.76208  0.03119  0.76427  1.0000
  C   C295      1.0  0.78132  0.00679  0.74804  1.0000
  C   C296      1.0  0.77100  0.97783  0.74130  1.0000
  H   H83       1.0  0.73334  0.95070  0.74538  1.0000
  O  Te19      1.0  0.71231  0.05034  0.78990  1.0000
  O  Te20      1.0  0.77274  0.05997  0.77081  1.0000
  H   H84       1.0  0.78603  0.95906  0.72871  1.0000
  Mg  Mg10      1.0  0.73216  0.08541  0.79343  1.0000
  C   C297      1.0  0.25687  0.47065  0.76100  1.0000
  C   C298      1.0  0.27679  0.49229  0.74925  1.0000
  C  Sn21      1.0  0.26735  0.52088  0.74933  1.0000
  C  Sn22      1.0  0.23742  0.52786  0.76147  1.0000
  C   C299      1.0  0.21767  0.50607  0.77332  1.0000
  C   C300      1.0  0.22734  0.47753  0.77306  1.0000
  H   H85       1.0  0.26435  0.44858  0.76091  1.0000
  O  Te21      1.0  0.28754  0.54223  0.73743  1.0000
  O  Te22      1.0  0.22740  0.55626  0.76191  1.0000
  H   H86       1.0  0.21192  0.46079  0.78229  1.0000
  Mg  Mg11      1.0  0.26330  0.57777  0.74305  1.0000
  C   C301      1.0  0.24599  0.02722  0.76027  1.0000
  C   C302      1.0  0.22690  0.00245  0.74367  1.0000
  C  Sn23      1.0  0.23737  0.97407  0.74172  1.0000
  C  Sn24      1.0  0.26752  0.97051  0.75674  1.0000
  C   C303      1.0  0.28643  0.99544  0.77343  1.0000
  C   C304      1.0  0.27572  0.02373  0.77517  1.0000
  H   H87       1.0  0.23770  0.04912  0.76172  1.0000
  O  Te23      1.0  0.21800  0.94956  0.72497  1.0000
  O  Te24      1.0  0.27856  0.94240  0.75524  1.0000
  H   H88       1.0  0.29051  0.04291  0.78815  1.0000
  Mg  Mg12      1.0  0.24351  0.91580  0.72959  1.0000
  C   C305      1.0  0.52947  0.74275  0.76590  1.0000
  C   C306      1.0  0.50636  0.72245  0.75627  1.0000
  C  Sn25      1.0  0.47823  0.72995  0.72754  1.0000
  C  Sn26      1.0  0.47320  0.75830  0.70809  1.0000
  C   C307      1.0  0.49646  0.77844  0.71779  1.0000
  C   C308      1.0  0.52453  0.77071  0.74665  1.0000
  H   H89       1.0  0.55118  0.73677  0.78812  1.0000
  O  Te25      1.0  0.45539  0.70941  0.71836  1.0000
  O  Te26      1.0  0.44530  0.76636  0.67918  1.0000
  H   H90       1.0  0.54241  0.78642  0.75397  1.0000
  Mg  Mg13      1.0  0.42126  0.73073  0.67698  1.0000
  C   C309      1.0  0.02377  0.74169  0.74186  1.0000
  C   C310      1.0  0.00068  0.72391  0.75948  1.0000
  C  Sn27      1.0  0.97233  0.73405  0.75966  1.0000
  C  Sn28      1.0  0.96707  0.76252  0.74180  1.0000
  C   C311      1.0  0.99032  0.78012  0.72411  1.0000
  C   C312      1.0  0.01860  0.76977  0.72416  1.0000
  H   H91       1.0  0.04565  0.73367  0.74179  1.0000
  O  Te27      1.0  0.94951  0.71600  0.77747  1.0000
  O  Te28      1.0  0.93896  0.77319  0.74149  1.0000
  H   H92       1.0  0.03648  0.78353  0.71039  1.0000
  Mg  Mg14      1.0  0.91502  0.74038  0.76956  1.0000
  C   C313      1.0  0.46940  0.24256  0.77041  1.0000
  C   C314      1.0  0.49214  0.22079  0.73978  1.0000
  C  Sn29      1.0  0.52033  0.22950  0.72047  1.0000
  C  Sn30      1.0  0.52579  0.26061  0.73215  1.0000
  C   C315      1.0  0.50290  0.28223  0.76296  1.0000
  C   C316      1.0  0.47477  0.27326  0.78202  1.0000
  H   H93       1.0  0.44764  0.23563  0.78526  1.0000
  O  Te29      1.0  0.54279  0.20744  0.68986  1.0000
  O  Te30      1.0  0.55375  0.26995  0.71343  1.0000
  H   H94       1.0  0.45717  0.29013  0.80586  1.0000
  Mg  Mg15      1.0  0.57719  0.23140  0.67331  1.0000
  C   C317      1.0  0.97613  0.24082  0.73763  1.0000
  C   C318      1.0  0.99947  0.22130  0.73085  1.0000
  C  Sn31      1.0  0.02772  0.23248  0.73686  1.0000
  C  Sn32      1.0  0.03263  0.26380  0.74996  1.0000
  C   C319      1.0  0.00913  0.28315  0.75679  1.0000
  C   C320      1.0  0.98095  0.27171  0.75062  1.0000
  H   H95       1.0  0.95432  0.23198  0.73297  1.0000
  O  Te31      1.0  0.05080  0.21266  0.72988  1.0000
  O  Te32      1.0  0.06065  0.27558  0.75627  1.0000
  H   H96       1.0  0.96288  0.28684  0.75600  1.0000
  Mg  Mg16      1.0  0.08502  0.23951  0.74264  1.0000
