data_image0
_chemical_formula_structural       N2C8OBONCNC10NOBC4OH8C4HN2CNCOBOC7OBC5OH7C3N2C8OBONCNC10NOBC4OH8C4HN2CNCOBOC7OBOH3C2Co2N2C8OBONCNC10NOBC4OH8C4HN2CNCOBOC7OBOH3C2N2C8OBONCNC10NOBOH4C4HN2CNCOBOC7OBOH3Co2N2C8OBONCNC10NOBC4OH8C4HN2CNCOBOC7OBC5OH7C3N2C8OBONCNC10NOBOH4C4HN2CNCOBOC7OBOH3Co2N2C8OBONCNC10NOBOH4C4HN2CNCOBOC7OBOH3N2C8OBONCNC10NOBC4OH8C4HN2CNCOBOC7OBC5OH7C3Co2SnCSn2CSnTe4Mg2SnCSn2CSnTe4Mg2SnCSn2CSnTe4Mg2SnCSn2CSnTe4Mg2SnCSn2CSnTe4Mg2SnCSn2CSnTe4Mg2SnCSn2CSnTe4Mg2SnCSn2CSnTe4Mg2
_chemical_formula_sum              "N64 C320 O64 B32 H96 Co8 Sn32 Te32 Mg16"
_cell_length_a       46.0989
_cell_length_b       46.112
_cell_length_c       7.82348
_cell_angle_alpha    122.445
_cell_angle_beta     90.2828
_cell_angle_gamma    90.3094

_symmetry_space_group_name_H-M    'P1'
_space_group_IT_number       1

loop_
  _space_group_symop_operation_xyz
  'x, y, z'

loop_
  _atom_site_type_symbol
  _atom_site_label
  _atom_site_symmetry_multiplicity
  _atom_site_fract_x
  _atom_site_fract_y
  _atom_site_fract_z
  _atom_site_occupancy
  N   N1        1.0  0.49948  0.54188  0.24231  1.0000
  N   N2        1.0  0.55140  0.55292  0.25120  1.0000
  C   C1        1.0  0.55896  0.52543  0.25460  1.0000
  C   C2        1.0  0.58899  0.51723  0.26101  1.0000
  C   C3        1.0  0.58892  0.48678  0.26306  1.0000
  C   C4        1.0  0.55875  0.47743  0.25921  1.0000
  C   C5        1.0  0.61461  0.47114  0.26910  1.0000
  C   C6        1.0  0.63976  0.48781  0.27006  1.0000
  C   C7        1.0  0.63974  0.51809  0.26672  1.0000
  C   C8        1.0  0.61460  0.53393  0.26218  1.0000
  O   O1        1.0  0.66814  0.52817  0.26735  1.0000
  B   B1        1.0  0.68544  0.50358  0.27167  1.0000
  O   O2        1.0  0.66819  0.47857  0.27381  1.0000
  N   N3        1.0  0.94731  0.55108  0.23742  1.0000
  C   C9        1.0  0.93995  0.52384  0.24167  1.0000
  N   N4        1.0  0.95799  0.49964  0.24450  1.0000
  C   C10       1.0  0.93963  0.47590  0.25163  1.0000
  C   C11       1.0  0.90966  0.48526  0.25318  1.0000
  C   C12       1.0  0.90995  0.51539  0.24790  1.0000
  C   C13       1.0  0.88460  0.53201  0.24737  1.0000
  C   C14       1.0  0.85929  0.51633  0.25339  1.0000
  C   C15       1.0  0.85888  0.48618  0.25878  1.0000
  C   C16       1.0  0.88383  0.46969  0.26001  1.0000
  C   C17       1.0  0.97466  0.44097  0.25525  1.0000
  C   C18       1.0  0.96728  0.38491  0.25081  1.0000
  C   C19       1.0  0.98374  0.35941  0.24533  1.0000
  N   N5        1.0  0.94684  0.44846  0.25373  1.0000
  O   O3        1.0  0.83109  0.52660  0.25603  1.0000
  B   B2        1.0  0.81341  0.50227  0.26263  1.0000
  C   C20       1.0  0.78016  0.50298  0.26687  1.0000
  C   C21       1.0  0.76428  0.47667  0.26562  1.0000
  C   C22       1.0  0.73461  0.53008  0.27367  1.0000
  C   C23       1.0  0.76482  0.52974  0.27138  1.0000
  O   O4        1.0  0.83039  0.47718  0.26440  1.0000
  H   H1        1.0  0.61450  0.44802  0.27370  1.0000
  H   H2        1.0  0.61450  0.55702  0.25722  1.0000
  H   H3        1.0  0.88371  0.44686  0.26769  1.0000
  H   H4        1.0  0.88509  0.55488  0.24002  1.0000
  H   H5        1.0  0.72309  0.55071  0.27465  1.0000
  H   H6        1.0  0.77679  0.55014  0.27116  1.0000
  H   H7        1.0  0.72214  0.45661  0.26835  1.0000
  H   H8        1.0  0.77580  0.45603  0.26454  1.0000
  C   C24       1.0  0.56032  0.02544  0.24467  1.0000
  C   C25       1.0  0.59052  0.01728  0.24902  1.0000
  C   C26       1.0  0.64136  0.01766  0.25122  1.0000
  C   C27       1.0  0.61621  0.03373  0.24830  1.0000
  H   H9        1.0  0.61620  0.05689  0.24398  1.0000
  N   N6        1.0  0.54254  0.00122  0.24720  1.0000
  N   N7        1.0  0.94937  0.05210  0.24501  1.0000
  C   C28       1.0  0.94173  0.02507  0.25091  1.0000
  N   N8        1.0  0.95967  0.00078  0.25320  1.0000
  C   C29       1.0  0.59062  0.98691  0.25195  1.0000
  O   O5        1.0  0.66970  0.97794  0.25739  1.0000
  B   B3        1.0  0.68705  0.00288  0.25552  1.0000
  O   O6        1.0  0.66981  0.02753  0.25100  1.0000
  C   C30       1.0  0.91163  0.01680  0.25840  1.0000
  C   C31       1.0  0.91134  0.98653  0.26219  1.0000
  C   C32       1.0  0.94121  0.97707  0.26013  1.0000
  C   C33       1.0  0.88565  0.97056  0.26693  1.0000
  C   C34       1.0  0.86090  0.01745  0.26445  1.0000
  C   C35       1.0  0.88614  0.03331  0.25871  1.0000
  C   C36       1.0  0.86067  0.98705  0.26740  1.0000
  O   O7        1.0  0.83262  0.02735  0.26570  1.0000
  B   B4        1.0  0.81512  0.00245  0.26752  1.0000
  C   C37       1.0  0.78185  0.00252  0.26527  1.0000
  C   C38       1.0  0.76570  0.97548  0.25389  1.0000
  C   C39       1.0  0.73549  0.97566  0.25104  1.0000
  C   C40       1.0  0.72038  0.00283  0.25878  1.0000
  C   C41       1.0  0.73652  0.02986  0.27024  1.0000
  O   O8        1.0  0.83227  0.97747  0.26942  1.0000
  H   H10       1.0  0.61607  0.94786  0.26060  1.0000
  H   H11       1.0  0.88566  0.94746  0.27175  1.0000
  H   H12       1.0  0.88647  0.05630  0.25251  1.0000
  H   H13       1.0  0.72338  0.95470  0.24392  1.0000
  H   H14       1.0  0.77704  0.95435  0.24843  1.0000
  H   H15       1.0  0.72520  0.05092  0.27477  1.0000
  H   H16       1.0  0.77888  0.05070  0.28109  1.0000
  C   C42       1.0  0.71874  0.50368  0.27170  1.0000
  C   C43       1.0  0.73409  0.47702  0.26801  1.0000
  C   C44       1.0  0.76673  0.02973  0.27364  1.0000
  N   N9        1.0  0.49909  0.46006  0.25769  1.0000
  N   N10       1.0  0.44716  0.44985  0.25845  1.0000
  C   C45       1.0  0.43960  0.47737  0.25517  1.0000
  C   C46       1.0  0.40955  0.48626  0.25506  1.0000
  C   C47       1.0  0.40971  0.51660  0.25198  1.0000
  C   C48       1.0  0.43986  0.52501  0.24677  1.0000
  C   C49       1.0  0.38413  0.53298  0.25228  1.0000
  C   C50       1.0  0.35891  0.51688  0.25597  1.0000
  C   C51       1.0  0.35876  0.48654  0.25862  1.0000
  C   C52       1.0  0.38385  0.47024  0.25919  1.0000
  O   O9        1.0  0.33033  0.47697  0.26187  1.0000
  B   B5        1.0  0.31315  0.50194  0.26060  1.0000
  O   O10       1.0  0.33052  0.52676  0.25748  1.0000
  N   N11       1.0  0.05131  0.44849  0.25039  1.0000
  C   C53       1.0  0.05869  0.47586  0.24760  1.0000
  N   N12       1.0  0.04054  0.49986  0.24301  1.0000
  C   C54       1.0  0.05883  0.52392  0.23899  1.0000
  C   C55       1.0  0.08878  0.51510  0.24153  1.0000
  C   C56       1.0  0.08870  0.48489  0.24585  1.0000
  C   C57       1.0  0.11428  0.46888  0.24953  1.0000
  C   C58       1.0  0.13941  0.48524  0.24758  1.0000
  C   C59       1.0  0.13946  0.51540  0.24224  1.0000
  C   C60       1.0  0.11437  0.53139  0.23859  1.0000
  C   C61       1.0  0.02392  0.55857  0.23223  1.0000
  C   C62       1.0  0.03131  0.61457  0.23692  1.0000
  C   C63       1.0  0.01486  0.63996  0.24141  1.0000
  N   N13       1.0  0.05171  0.55131  0.23622  1.0000
  O   O11       1.0  0.16775  0.47595  0.25117  1.0000
  B   B6        1.0  0.18511  0.50091  0.24895  1.0000
  C   C64       1.0  0.21838  0.50142  0.25403  1.0000
  C   C65       1.0  0.23414  0.52842  0.26230  1.0000
  C   C66       1.0  0.26406  0.47515  0.25387  1.0000
  C   C67       1.0  0.23386  0.47487  0.25077  1.0000
  O   O12       1.0  0.16781  0.52529  0.24202  1.0000
  H   H17       1.0  0.38432  0.55612  0.24791  1.0000
  H   H18       1.0  0.38386  0.44718  0.26449  1.0000
  H   H19       1.0  0.11424  0.55432  0.23196  1.0000
  H   H20       1.0  0.11410  0.44589  0.25554  1.0000
  H   H21       1.0  0.27569  0.45454  0.25239  1.0000
  H   H22       1.0  0.22202  0.45410  0.24762  1.0000
  H   H23       1.0  0.27622  0.54959  0.27024  1.0000
  H   H24       1.0  0.22252  0.54909  0.26442  1.0000
  C   C68       1.0  0.44162  0.97505  0.24486  1.0000
  C   C69       1.0  0.41141  0.98337  0.24393  1.0000
  C   C70       1.0  0.36061  0.98274  0.24622  1.0000
  C   C71       1.0  0.38594  0.96664  0.24498  1.0000
  H   H25       1.0  0.38629  0.94331  0.24728  1.0000
  N   N14       1.0  0.45930  0.99945  0.24414  1.0000
  N   N15       1.0  0.05250  0.94837  0.25454  1.0000
  C   C72       1.0  0.06010  0.97580  0.25272  1.0000
  N   N16       1.0  0.04227  0.99995  0.24815  1.0000
  C   C73       1.0  0.41111  0.01403  0.24425  1.0000
  O   O13       1.0  0.33187  0.02299  0.24901  1.0000
  B   B7        1.0  0.31481  0.99780  0.25058  1.0000
  O   O14       1.0  0.33225  0.97275  0.24890  1.0000
  C   C74       1.0  0.09021  0.98455  0.25183  1.0000
  C   C75       1.0  0.09073  0.01477  0.24752  1.0000
  C   C76       1.0  0.06085  0.02392  0.24434  1.0000
  C   C77       1.0  0.11669  0.03050  0.24441  1.0000
  C   C78       1.0  0.14094  0.98395  0.25381  1.0000
  C   C79       1.0  0.11549  0.96813  0.25591  1.0000
  C   C80       1.0  0.14151  0.01410  0.24845  1.0000
  O   O15       1.0  0.16907  0.97403  0.25692  1.0000
  B   B8        1.0  0.18686  0.99854  0.25316  1.0000
  O   O16       1.0  0.17006  0.02341  0.24795  1.0000
  H   H26       1.0  0.38510  0.05335  0.24196  1.0000
  H   H27       1.0  0.11710  0.05336  0.23701  1.0000
  H   H28       1.0  0.11484  0.94515  0.26187  1.0000
  C   C81       1.0  0.27984  0.50201  0.26070  1.0000
  C   C82       1.0  0.26435  0.52872  0.26579  1.0000
  Co  Co1       1.0  0.99926  0.49971  0.24313  1.0000
  Co  Co2       1.0  0.00099  0.00032  0.25004  1.0000
  N   N17       1.0  0.45765  0.50103  0.24981  1.0000
  N   N18       1.0  0.44775  0.55220  0.24004  1.0000
  C   C83       1.0  0.47530  0.55951  0.23665  1.0000
  C   C84       1.0  0.48466  0.58917  0.23120  1.0000
  C   C85       1.0  0.51529  0.58961  0.23868  1.0000
  C   C86       1.0  0.52395  0.55997  0.24456  1.0000
  C   C87       1.0  0.53216  0.61533  0.24354  1.0000
  C   C88       1.0  0.51620  0.64047  0.24097  1.0000
  C   C89       1.0  0.48559  0.63981  0.23023  1.0000
  C   C90       1.0  0.46871  0.61429  0.22450  1.0000
  O   O17       1.0  0.47629  0.66792  0.22711  1.0000
  B   B9        1.0  0.50172  0.68582  0.23726  1.0000
  O   O18       1.0  0.52653  0.66904  0.24583  1.0000
  N   N19       1.0  0.44963  0.94739  0.24517  1.0000
  C   C91       1.0  0.47722  0.94064  0.24934  1.0000
  N   N20       1.0  0.50132  0.95932  0.25191  1.0000
  C   C92       1.0  0.52581  0.94212  0.25681  1.0000
  C   C93       1.0  0.51719  0.91209  0.26011  1.0000
  C   C94       1.0  0.48658  0.91099  0.25337  1.0000
  C   C95       1.0  0.47048  0.88478  0.24883  1.0000
  C   C96       1.0  0.48722  0.86004  0.25032  1.0000
  C   C97       1.0  0.51784  0.86128  0.25887  1.0000
  C   C98       1.0  0.53394  0.88733  0.26514  1.0000
  C   C99       1.0  0.56061  0.97775  0.25248  1.0000
  C   C100      1.0  0.61621  0.97096  0.25563  1.0000
  C   C101      1.0  0.64135  0.98738  0.25459  1.0000
  N   N21       1.0  0.55321  0.95015  0.25633  1.0000
  O   O19       1.0  0.47769  0.83120  0.24537  1.0000
  B   B10       1.0  0.50294  0.81483  0.25141  1.0000
  C   C102      1.0  0.50285  0.78138  0.24918  1.0000
  C   C103      1.0  0.52881  0.76747  0.26954  1.0000
  C   C104      1.0  0.47629  0.73294  0.21650  1.0000
  C   C105      1.0  0.47657  0.76365  0.22303  1.0000
  O   O20       1.0  0.52795  0.83319  0.25963  1.0000
  H   H29       1.0  0.55569  0.61542  0.24926  1.0000
  H   H30       1.0  0.44518  0.61368  0.21538  1.0000
  H   H31       1.0  0.55747  0.88870  0.27377  1.0000
  H   H32       1.0  0.44694  0.88397  0.24372  1.0000
  H   H33       1.0  0.45592  0.71930  0.19487  1.0000
  H   H34       1.0  0.45646  0.77409  0.20542  1.0000
  H   H35       1.0  0.54863  0.72627  0.28024  1.0000
  H   H36       1.0  0.54919  0.78108  0.29077  1.0000
  C   C106      1.0  0.97512  0.55844  0.23266  1.0000
  C   C107      1.0  0.98412  0.58826  0.23319  1.0000
  C   C108      1.0  0.98406  0.63969  0.24049  1.0000
  C   C109      1.0  0.96769  0.61410  0.23622  1.0000
  H   H37       1.0  0.94414  0.61361  0.23408  1.0000
  N   N22       1.0  0.99948  0.53998  0.22957  1.0000
  N   N23       1.0  0.94815  0.94962  0.26258  1.0000
  C   C110      1.0  0.97586  0.94178  0.26317  1.0000
  N   N24       1.0  0.00048  0.96004  0.26415  1.0000
  C   C111      1.0  0.01498  0.58841  0.23313  1.0000
  O   O21       1.0  0.02453  0.66865  0.24485  1.0000
  B   B11       1.0  0.99939  0.68574  0.24425  1.0000
  O   O22       1.0  0.97425  0.66809  0.24205  1.0000
  C   C112      1.0  0.98452  0.91168  0.26056  1.0000
  C   C113      1.0  0.01536  0.91125  0.25672  1.0000
  C   C114      1.0  0.02464  0.94115  0.25826  1.0000
  C   C115      1.0  0.03153  0.88500  0.25085  1.0000
  C   C116      1.0  0.98420  0.86015  0.25323  1.0000
  C   C117      1.0  0.96798  0.88587  0.25958  1.0000
  C   C118      1.0  0.01497  0.85972  0.24864  1.0000
  O   O23       1.0  0.97429  0.83168  0.25187  1.0000
  B   B12       1.0  0.99935  0.81394  0.24664  1.0000
  O   O24       1.0  0.02455  0.83098  0.24381  1.0000
  H   H38       1.0  0.05486  0.61454  0.23532  1.0000
  H   H39       1.0  0.05507  0.88483  0.24845  1.0000
  H   H40       1.0  0.94443  0.88642  0.26475  1.0000
  C   C119      1.0  0.50222  0.71909  0.23754  1.0000
  C   C120      1.0  0.52852  0.73676  0.26301  1.0000
  N   N25       1.0  0.54093  0.50115  0.25404  1.0000
  N   N26       1.0  0.55084  0.44956  0.25894  1.0000
  C   C121      1.0  0.52325  0.44199  0.25870  1.0000
  C   C122      1.0  0.51389  0.41204  0.26110  1.0000
  C   C123      1.0  0.48329  0.41248  0.26344  1.0000
  C   C124      1.0  0.47461  0.44236  0.26001  1.0000
  C   C125      1.0  0.46645  0.38726  0.26452  1.0000
  C   C126      1.0  0.48240  0.36151  0.26042  1.0000
  C   C127      1.0  0.51300  0.36084  0.25611  1.0000
  C   C128      1.0  0.52984  0.38603  0.25790  1.0000
  O   O25       1.0  0.52236  0.33206  0.25146  1.0000
  B   B13       1.0  0.49701  0.31527  0.25464  1.0000
  O   O26       1.0  0.47212  0.33322  0.25941  1.0000
  N   N27       1.0  0.55232  0.05269  0.23962  1.0000
  C   C129      1.0  0.52470  0.05960  0.23627  1.0000
  N   N28       1.0  0.50059  0.04138  0.23884  1.0000
  C   C130      1.0  0.47602  0.05893  0.23893  1.0000
  C   C131      1.0  0.48461  0.08892  0.23529  1.0000
  C   C132      1.0  0.51525  0.08927  0.23231  1.0000
  C   C133      1.0  0.53118  0.11495  0.22961  1.0000
  C   C134      1.0  0.51436  0.14015  0.23326  1.0000
  C   C135      1.0  0.48375  0.13993  0.23836  1.0000
  C   C136      1.0  0.46779  0.11428  0.23761  1.0000
  C   C137      1.0  0.44112  0.02328  0.24296  1.0000
  C   C138      1.0  0.38529  0.03003  0.24451  1.0000
  C   C139      1.0  0.36035  0.01335  0.24637  1.0000
  N   N29       1.0  0.44860  0.05107  0.24174  1.0000
  O   O27       1.0  0.52369  0.16861  0.23266  1.0000
  B   B14       1.0  0.49826  0.18586  0.23850  1.0000
  O   O28       1.0  0.47345  0.16831  0.24208  1.0000
  H   H41       1.0  0.44293  0.38798  0.26718  1.0000
  H   H42       1.0  0.55338  0.38569  0.25652  1.0000
  H   H43       1.0  0.44425  0.11367  0.23857  1.0000
  H   H44       1.0  0.55471  0.11493  0.22467  1.0000
  C   C140      1.0  0.02348  0.44093  0.25292  1.0000
  C   C141      1.0  0.01444  0.41102  0.25163  1.0000
  C   C142      1.0  0.01453  0.35959  0.24494  1.0000
  C   C143      1.0  0.03085  0.38508  0.24780  1.0000
  H   H45       1.0  0.05439  0.38538  0.24797  1.0000
  N   N30       1.0  0.99910  0.45945  0.25673  1.0000
  N   N31       1.0  0.05387  0.05125  0.24074  1.0000
  C   C144      1.0  0.02614  0.05884  0.23724  1.0000
  N   N32       1.0  0.00151  0.04046  0.23542  1.0000
  C   C145      1.0  0.98359  0.41101  0.25344  1.0000
  O   O29       1.0  0.97409  0.33063  0.24152  1.0000
  B   B15       1.0  0.99928  0.31349  0.24096  1.0000
  O   O30       1.0  0.02438  0.33118  0.24301  1.0000
  C   C146      1.0  0.01736  0.08861  0.23666  1.0000
  C   C147      1.0  0.98648  0.08857  0.23630  1.0000
  C   C148      1.0  0.97726  0.05899  0.23796  1.0000
  C   C149      1.0  0.97019  0.11436  0.23783  1.0000
  C   C150      1.0  0.01744  0.13992  0.24119  1.0000
  C   C151      1.0  0.03377  0.11465  0.23911  1.0000
  C   C152      1.0  0.98665  0.13973  0.24049  1.0000
  O   O31       1.0  0.02718  0.16843  0.24197  1.0000
  B   B16       1.0  0.00199  0.18556  0.24192  1.0000
  O   O32       1.0  0.97690  0.16803  0.24139  1.0000
  H   H46       1.0  0.94372  0.38512  0.25444  1.0000
  H   H47       1.0  0.94663  0.11408  0.23622  1.0000
  H   H48       1.0  0.05733  0.11465  0.23860  1.0000
  Co  Co3       1.0  0.50094  0.00029  0.24452  1.0000
  Co  Co4       1.0  0.49929  0.50092  0.24942  1.0000
  N   N33       1.0  0.49984  0.53923  0.73713  1.0000
  N   N34       1.0  0.55221  0.55087  0.74926  1.0000
  C   C153      1.0  0.55939  0.52366  0.75381  1.0000
  C   C154      1.0  0.58934  0.51476  0.75954  1.0000
  C   C155      1.0  0.58878  0.48454  0.76392  1.0000
  C   C156      1.0  0.55869  0.47555  0.76220  1.0000
  C   C157      1.0  0.61392  0.46807  0.76960  1.0000
  C   C158      1.0  0.63945  0.48394  0.76945  1.0000
  C   C159      1.0  0.64020  0.51413  0.76446  1.0000
  C   C160      1.0  0.61546  0.53050  0.75821  1.0000
  O   O33       1.0  0.66883  0.52336  0.76519  1.0000
  B   B17       1.0  0.68546  0.49822  0.76919  1.0000
  O   O34       1.0  0.66752  0.47386  0.77298  1.0000
  N   N35       1.0  0.94656  0.54998  0.74299  1.0000
  C   C161      1.0  0.93937  0.52224  0.74580  1.0000
  N   N36       1.0  0.95784  0.49852  0.74629  1.0000
  C   C162      1.0  0.94047  0.47408  0.74890  1.0000
  C   C163      1.0  0.91017  0.48226  0.75001  1.0000
  C   C164      1.0  0.90949  0.51290  0.75001  1.0000
  C   C165      1.0  0.88344  0.52866  0.75162  1.0000
  C   C166      1.0  0.85872  0.51186  0.75548  1.0000
  C   C167      1.0  0.85939  0.48125  0.75521  1.0000
  C   C168      1.0  0.88492  0.46533  0.75240  1.0000
  C   C169      1.0  0.97641  0.43956  0.74898  1.0000
  C   C170      1.0  0.97105  0.38344  0.75035  1.0000
  C   C171      1.0  0.98854  0.35871  0.74703  1.0000
  N   N37       1.0  0.94870  0.44640  0.74882  1.0000
  O   O35       1.0  0.83013  0.52120  0.75898  1.0000
  B   B18       1.0  0.81341  0.49580  0.76036  1.0000
  C   C172      1.0  0.78012  0.49590  0.76326  1.0000
  C   C173      1.0  0.76396  0.46909  0.75407  1.0000
  C   C174      1.0  0.73489  0.52407  0.77727  1.0000
  C   C175      1.0  0.76506  0.52340  0.77513  1.0000
  O   O36       1.0  0.83117  0.47094  0.75843  1.0000
  H   H49       1.0  0.61306  0.44509  0.77566  1.0000
  H   H50       1.0  0.61607  0.55330  0.75009  1.0000
  H   H51       1.0  0.88562  0.44197  0.75438  1.0000
  H   H52       1.0  0.88287  0.55195  0.74869  1.0000
  H   H53       1.0  0.72360  0.54536  0.78444  1.0000
  H   H54       1.0  0.77726  0.54414  0.78052  1.0000
  H   H55       1.0  0.72158  0.44899  0.75096  1.0000
  H   H56       1.0  0.77526  0.44773  0.74587  1.0000
  C   C176      1.0  0.55894  0.02357  0.74335  1.0000
  C   C177      1.0  0.58900  0.01542  0.74796  1.0000
  C   C178      1.0  0.63968  0.01701  0.75117  1.0000
  C   C179      1.0  0.61426  0.03236  0.74643  1.0000
  H   H57       1.0  0.61362  0.05532  0.74009  1.0000
  N   N38       1.0  0.54100  0.99934  0.74816  1.0000
  N   N39       1.0  0.94951  0.05394  0.74836  1.0000
  C   C180      1.0  0.94085  0.02683  0.75377  1.0000
  N   N40       1.0  0.95798  0.00214  0.75399  1.0000
  C   C181      1.0  0.58943  0.98527  0.75298  1.0000
  O   O37       1.0  0.66877  0.97805  0.75913  1.0000
  B   B19       1.0  0.68561  0.00335  0.75667  1.0000
  O   O38       1.0  0.66784  0.02752  0.75138  1.0000
  C   C182      1.0  0.91047  0.01941  0.76073  1.0000
  C   C183      1.0  0.90952  0.98893  0.76247  1.0000
  C   C184      1.0  0.93930  0.97893  0.75949  1.0000
  C   C185      1.0  0.88339  0.97364  0.76701  1.0000
  C   C186      1.0  0.85964  0.02113  0.76552  1.0000
  C   C187      1.0  0.88531  0.03661  0.76230  1.0000
  C   C188      1.0  0.85877  0.99073  0.76757  1.0000
  O   O39       1.0  0.83143  0.03161  0.76610  1.0000
  B   B20       1.0  0.81355  0.00702  0.76806  1.0000
  C   C189      1.0  0.78026  0.00674  0.76655  1.0000
  C   C190      1.0  0.76518  0.97894  0.75344  1.0000
  C   C191      1.0  0.73499  0.97782  0.75022  1.0000
  C   C192      1.0  0.71886  0.00452  0.76009  1.0000
  C   C193      1.0  0.73394  0.03232  0.77310  1.0000
  O   O40       1.0  0.83014  0.98175  0.76991  1.0000
  H   H58       1.0  0.61566  0.94693  0.76399  1.0000
  H   H59       1.0  0.88273  0.95039  0.77033  1.0000
  H   H60       1.0  0.88608  0.05986  0.75904  1.0000
  H   H61       1.0  0.72369  0.95621  0.74091  1.0000
  H   H62       1.0  0.77741  0.95824  0.74682  1.0000
  H   H63       1.0  0.72175  0.05297  0.77882  1.0000
  H   H64       1.0  0.77546  0.05494  0.78443  1.0000
  C   C194      1.0  0.71870  0.49729  0.76798  1.0000
  C   C195      1.0  0.73375  0.46979  0.75667  1.0000
  C   C196      1.0  0.76414  0.03344  0.77627  1.0000
  N   N41       1.0  0.49907  0.45915  0.76914  1.0000
  N   N42       1.0  0.44679  0.44814  0.76353  1.0000
  C   C197      1.0  0.43972  0.47530  0.75830  1.0000
  C   C198      1.0  0.40977  0.48427  0.75603  1.0000
  C   C199      1.0  0.40998  0.51435  0.75019  1.0000
  C   C200      1.0  0.44006  0.52299  0.74543  1.0000
  C   C201      1.0  0.38441  0.53049  0.74746  1.0000
  C   C202      1.0  0.35920  0.51453  0.75239  1.0000
  C   C203      1.0  0.35899  0.48444  0.75829  1.0000
  C   C204      1.0  0.38406  0.46823  0.76021  1.0000
  O   O41       1.0  0.33055  0.47501  0.76161  1.0000
  B   B21       1.0  0.31343  0.49982  0.75803  1.0000
  O   O42       1.0  0.33092  0.52426  0.75139  1.0000
  N   N43       1.0  0.05218  0.44932  0.74513  1.0000
  C   C205      1.0  0.05924  0.47731  0.74514  1.0000
  N   N44       1.0  0.04103  0.50100  0.74360  1.0000
  C   C206      1.0  0.05868  0.52547  0.74234  1.0000
  C   C207      1.0  0.08902  0.51723  0.74474  1.0000
  C   C208      1.0  0.08911  0.48663  0.74520  1.0000
  C   C209      1.0  0.11451  0.47036  0.74791  1.0000
  C   C210      1.0  0.13973  0.48667  0.74815  1.0000
  C   C211      1.0  0.13998  0.51722  0.74757  1.0000
  C   C212      1.0  0.11492  0.53357  0.74541  1.0000
  C   C213      1.0  0.02256  0.55961  0.73895  1.0000
  C   C214      1.0  0.02831  0.61553  0.73689  1.0000
  C   C215      1.0  0.01114  0.64039  0.73932  1.0000
  N   N45       1.0  0.05032  0.55293  0.74076  1.0000
  O   O43       1.0  0.16794  0.47681  0.75022  1.0000
  B   B22       1.0  0.18553  0.50187  0.75149  1.0000
  O   O44       1.0  0.16860  0.52695  0.74962  1.0000
  H   H65       1.0  0.38452  0.55333  0.73984  1.0000
  H   H66       1.0  0.38415  0.44527  0.76649  1.0000
  H   H67       1.0  0.11514  0.55693  0.74309  1.0000
  H   H68       1.0  0.11412  0.44718  0.75200  1.0000
  C   C216      1.0  0.44030  0.97387  0.74771  1.0000
  C   C217      1.0  0.41020  0.98228  0.74519  1.0000
  C   C218      1.0  0.35947  0.98145  0.74763  1.0000
  C   C219      1.0  0.38484  0.96553  0.74741  1.0000
  H   H69       1.0  0.38535  0.94232  0.75100  1.0000
  N   N46       1.0  0.45824  0.99835  0.74559  1.0000
  N   N47       1.0  0.04965  0.94704  0.74989  1.0000
  C   C220      1.0  0.05831  0.97463  0.75013  1.0000
  N   N48       1.0  0.04115  0.99911  0.74827  1.0000
  C   C221      1.0  0.40985  0.01275  0.74344  1.0000
  O   O45       1.0  0.33057  0.02135  0.74807  1.0000
  B   B23       1.0  0.31359  0.99613  0.75037  1.0000
  O   O46       1.0  0.33126  0.97138  0.75068  1.0000
  C   C222      1.0  0.08870  0.98270  0.74992  1.0000
  C   C223      1.0  0.08961  0.01323  0.74905  1.0000
  C   C224      1.0  0.05987  0.02270  0.74708  1.0000
  C   C225      1.0  0.11562  0.02907  0.74857  1.0000
  C   C226      1.0  0.13948  0.98176  0.75093  1.0000
  C   C227      1.0  0.11391  0.96593  0.75171  1.0000
  C   C228      1.0  0.14029  0.01226  0.74990  1.0000
  O   O47       1.0  0.16766  0.97145  0.75152  1.0000
  B   B24       1.0  0.18555  0.99614  0.75046  1.0000
  O   O48       1.0  0.16891  0.02150  0.74966  1.0000
  H   H70       1.0  0.38370  0.05180  0.73912  1.0000
  H   H71       1.0  0.11604  0.05234  0.74546  1.0000
  H   H72       1.0  0.11322  0.94277  0.75582  1.0000
  Co  Co5       1.0  0.99940  0.49975  0.74458  1.0000
  Co  Co6       1.0  0.99955  0.00052  0.74984  1.0000
  N   N49       1.0  0.45810  0.49910  0.75176  1.0000
  N   N50       1.0  0.44762  0.54987  0.73791  1.0000
  C   C229      1.0  0.47550  0.55714  0.73364  1.0000
  C   C230      1.0  0.48464  0.58660  0.73018  1.0000
  C   C231      1.0  0.51551  0.58732  0.73752  1.0000
  C   C232      1.0  0.52441  0.55790  0.74154  1.0000
  C   C233      1.0  0.53185  0.61366  0.74311  1.0000
  C   C234      1.0  0.51549  0.63845  0.74040  1.0000
  C   C235      1.0  0.48473  0.63743  0.73009  1.0000
  C   C236      1.0  0.46833  0.61176  0.72458  1.0000
  O   O49       1.0  0.47505  0.66544  0.72667  1.0000
  B   B25       1.0  0.50025  0.68368  0.73593  1.0000
  O   O50       1.0  0.52528  0.66717  0.74437  1.0000
  N   N51       1.0  0.44785  0.94658  0.75012  1.0000
  C   C237      1.0  0.47572  0.93977  0.75636  1.0000
  N   N52       1.0  0.50004  0.95880  0.76271  1.0000
  C   C238      1.0  0.52458  0.94081  0.76325  1.0000
  C   C239      1.0  0.51566  0.91086  0.76262  1.0000
  C   C240      1.0  0.48480  0.91012  0.75662  1.0000
  C   C241      1.0  0.46837  0.88373  0.74933  1.0000
  C   C242      1.0  0.48468  0.85861  0.74870  1.0000
  C   C243      1.0  0.51545  0.85953  0.75752  1.0000
  C   C244      1.0  0.53193  0.88533  0.76464  1.0000
  C   C245      1.0  0.55949  0.97578  0.75491  1.0000
  C   C246      1.0  0.61538  0.96987  0.75733  1.0000
  C   C247      1.0  0.64022  0.98678  0.75587  1.0000
  N   N53       1.0  0.55238  0.94861  0.76083  1.0000
  O   O51       1.0  0.47486  0.82970  0.74241  1.0000
  B   B26       1.0  0.49994  0.81303  0.74858  1.0000
  O   O52       1.0  0.52512  0.83127  0.75813  1.0000
  H   H73       1.0  0.55540  0.61428  0.74852  1.0000
  H   H74       1.0  0.44480  0.61078  0.71533  1.0000
  H   H75       1.0  0.55548  0.88607  0.77222  1.0000
  H   H76       1.0  0.44482  0.88350  0.74525  1.0000
  C   C248      1.0  0.97387  0.55819  0.73970  1.0000
  C   C249      1.0  0.98208  0.58834  0.73654  1.0000
  C   C250      1.0  0.98052  0.63942  0.74034  1.0000
  C   C251      1.0  0.96492  0.61337  0.73759  1.0000
  H   H77       1.0  0.94138  0.61219  0.73562  1.0000
  N   N54       1.0  0.99868  0.54098  0.74027  1.0000
  N   N55       1.0  0.94608  0.95090  0.75969  1.0000
  C   C252      1.0  0.97329  0.94221  0.75747  1.0000
  N   N56       1.0  0.99819  0.95931  0.75412  1.0000
  C   C253      1.0  0.01272  0.58932  0.73636  1.0000
  O   O53       1.0  0.02008  0.66912  0.74036  1.0000
  B   B27       1.0  0.99444  0.68573  0.74228  1.0000
  O   O54       1.0  0.96984  0.66758  0.74274  1.0000
  C   C254      1.0  0.98135  0.91182  0.75804  1.0000
  C   C255      1.0  0.01195  0.91075  0.75394  1.0000
  C   C256      1.0  0.02187  0.94046  0.75191  1.0000
  C   C257      1.0  0.02777  0.88468  0.75089  1.0000
  C   C258      1.0  0.98015  0.86063  0.75332  1.0000
  C   C259      1.0  0.96435  0.88664  0.75890  1.0000
  C   C260      1.0  0.01077  0.85975  0.75033  1.0000
  O   O55       1.0  0.96969  0.83233  0.75134  1.0000
  B   B28       1.0  0.99439  0.81433  0.74873  1.0000
  O   O56       1.0  0.01993  0.83113  0.74827  1.0000
  H   H78       1.0  0.05187  0.61622  0.73539  1.0000
  H   H79       1.0  0.05133  0.88427  0.74901  1.0000
  H   H80       1.0  0.94082  0.88756  0.76390  1.0000
  N   N57       1.0  0.54083  0.49954  0.75631  1.0000
  N   N58       1.0  0.55119  0.44805  0.76336  1.0000
  C   C261      1.0  0.52334  0.44053  0.76509  1.0000
  C   C262      1.0  0.51422  0.41060  0.76353  1.0000
  C   C263      1.0  0.48337  0.41081  0.76647  1.0000
  C   C264      1.0  0.47455  0.44071  0.76737  1.0000
  C   C265      1.0  0.46692  0.38500  0.76600  1.0000
  C   C266      1.0  0.48326  0.35945  0.76070  1.0000
  C   C267      1.0  0.51404  0.35913  0.75587  1.0000
  C   C268      1.0  0.53052  0.38447  0.75805  1.0000
  O   O57       1.0  0.52375  0.33041  0.75068  1.0000
  B   B29       1.0  0.49863  0.31323  0.75338  1.0000
  O   O58       1.0  0.47349  0.33094  0.75956  1.0000
  N   N59       1.0  0.55144  0.05055  0.73755  1.0000
  C   C269      1.0  0.52357  0.05742  0.73282  1.0000
  N   N60       1.0  0.49923  0.03899  0.73285  1.0000
  C   C270      1.0  0.47473  0.05731  0.73528  1.0000
  C   C271      1.0  0.48371  0.08698  0.73331  1.0000
  C   C272      1.0  0.51457  0.08687  0.73056  1.0000
  C   C273      1.0  0.53118  0.11239  0.72947  1.0000
  C   C274      1.0  0.51500  0.13785  0.73336  1.0000
  C   C275      1.0  0.48421  0.13816  0.73707  1.0000
  C   C276      1.0  0.46758  0.11302  0.73616  1.0000
  C   C277      1.0  0.43979  0.02222  0.74187  1.0000
  C   C278      1.0  0.38396  0.02857  0.74265  1.0000
  C   C279      1.0  0.35907  0.01193  0.74582  1.0000
  N   N61       1.0  0.44695  0.04969  0.73929  1.0000
  O   O59       1.0  0.52494  0.16619  0.73369  1.0000
  B   B30       1.0  0.49987  0.18386  0.73790  1.0000
  C   C280      1.0  0.49968  0.21731  0.73958  1.0000
  C   C281      1.0  0.47338  0.23438  0.76145  1.0000
  C   C282      1.0  0.52522  0.26265  0.72932  1.0000
  C   C283      1.0  0.52558  0.23192  0.72275  1.0000
  O   O60       1.0  0.47468  0.16676  0.74008  1.0000
  H   H81       1.0  0.44337  0.38551  0.77108  1.0000
  H   H82       1.0  0.55408  0.38442  0.75602  1.0000
  H   H83       1.0  0.44403  0.11323  0.73733  1.0000
  H   H84       1.0  0.55472  0.11175  0.72537  1.0000
  H   H85       1.0  0.54530  0.27367  0.71506  1.0000
  H   H86       1.0  0.54603  0.21892  0.70442  1.0000
  H   H87       1.0  0.45260  0.27812  0.78620  1.0000
  H   H88       1.0  0.45328  0.22344  0.77624  1.0000
  C   C284      1.0  0.02492  0.44103  0.74686  1.0000
  C   C285      1.0  0.01694  0.41082  0.74888  1.0000
  C   C286      1.0  0.01915  0.35993  0.74524  1.0000
  C   C287      1.0  0.03446  0.38600  0.74692  1.0000
  H   H89       1.0  0.05798  0.38724  0.74639  1.0000
  N   N62       1.0  0.00016  0.45832  0.74764  1.0000
  N   N63       1.0  0.05311  0.05054  0.74548  1.0000
  C   C288      1.0  0.02589  0.05874  0.74359  1.0000
  N   N64       1.0  0.00092  0.04162  0.74512  1.0000
  C   C289      1.0  0.98634  0.40976  0.75038  1.0000
  O   O61       1.0  0.97993  0.32990  0.74597  1.0000
  B   B31       1.0  0.00580  0.31356  0.74328  1.0000
  O   O62       1.0  0.03017  0.33191  0.74236  1.0000
  C   C290      1.0  0.01810  0.08879  0.73993  1.0000
  C   C291      1.0  0.98750  0.08968  0.73835  1.0000
  C   C292      1.0  0.97730  0.06026  0.74333  1.0000
  C   C293      1.0  0.97229  0.11564  0.73627  1.0000
  C   C294      1.0  0.02045  0.13960  0.74205  1.0000
  C   C295      1.0  0.03571  0.11369  0.74112  1.0000
  C   C296      1.0  0.98984  0.14044  0.73916  1.0000
  O   O63       1.0  0.03149  0.16771  0.74431  1.0000
  B   B32       1.0  0.00707  0.18563  0.74165  1.0000
  C   C297      1.0  0.00754  0.21871  0.73973  1.0000
  C   C298      1.0  0.98111  0.23327  0.73319  1.0000
  C   C299      1.0  0.98079  0.26364  0.73588  1.0000
  C   C300      1.0  0.00687  0.28036  0.74380  1.0000
  C   C301      1.0  0.03334  0.26574  0.74997  1.0000
  O   O64       1.0  0.98125  0.16898  0.73878  1.0000
  H   H90       1.0  0.94752  0.38253  0.75312  1.0000
  H   H91       1.0  0.94876  0.11607  0.73176  1.0000
  H   H92       1.0  0.05923  0.11259  0.74160  1.0000
  H   H93       1.0  0.96025  0.27461  0.72987  1.0000
  H   H94       1.0  0.96084  0.22049  0.72650  1.0000
  H   H95       1.0  0.05365  0.27845  0.75637  1.0000
  H   H96       1.0  0.05420  0.22416  0.75124  1.0000
  C   C302      1.0  0.49892  0.27974  0.75133  1.0000
  C   C303      1.0  0.47303  0.26510  0.76786  1.0000
  C   C304      1.0  0.03368  0.23532  0.74677  1.0000
  Co  Co7       1.0  0.49963  0.99897  0.74821  1.0000
  Co  Co8       1.0  0.49946  0.49935  0.75407  1.0000
  C  Sn1       1.0  0.02220  0.75344  0.68483  1.0000
  C   C305      1.0  0.99839  0.77258  0.69080  1.0000
  C  Sn2       1.0  0.97099  0.76667  0.74229  1.0000
  C  Sn3       1.0  0.96731  0.74110  0.78892  1.0000
  C   C306      1.0  0.99111  0.72198  0.78297  1.0000
  C  Sn4       1.0  0.01852  0.72787  0.73146  1.0000
  O  Te1       1.0  0.04939  0.75978  0.63297  1.0000
  O  Te2       1.0  0.94751  0.78613  0.74716  1.0000
  O  Te3       1.0  0.94009  0.73477  0.84079  1.0000
  O  Te4       1.0  0.04199  0.70843  0.72660  1.0000
  Mg  Mg1       1.0  0.91477  0.76796  0.82658  1.0000
  Mg  Mg2       1.0  0.07474  0.72659  0.64731  1.0000
  C  Sn5       1.0  0.25908  0.96379  0.18401  1.0000
  C   C307      1.0  0.27811  0.98848  0.19544  1.0000
  C  Sn6       1.0  0.26814  0.02119  0.25626  1.0000
  C  Sn7       1.0  0.23314  0.02939  0.30684  1.0000
  C   C308      1.0  0.21954  0.00471  0.29543  1.0000
  C  Sn8       1.0  0.22948  0.97199  0.23459  1.0000
  O  Te5       1.0  0.26952  0.93126  0.12284  1.0000
  O  Te6       1.0  0.28217  0.04544  0.26645  1.0000
  O  Te7       1.0  0.22271  0.06195  0.36803  1.0000
  O  Te8       1.0  0.21007  0.94775  0.22442  1.0000
  Mg  Mg3       1.0  0.25758  0.08623  0.35823  1.0000
  Mg  Mg4       1.0  0.23464  0.90696  0.13277  1.0000
  C  Sn9       1.0  0.02776  0.75330  0.18495  1.0000
  C   C309      1.0  0.00392  0.77247  0.19167  1.0000
  C  Sn10      1.0  0.97657  0.76655  0.24365  1.0000
  C  Sn11      1.0  0.97296  0.74094  0.29003  1.0000
  C   C310      1.0  0.99679  0.72179  0.28333  1.0000
  C  Sn12      1.0  0.02416  0.72770  0.23132  1.0000
  O  Te9       1.0  0.05491  0.75967  0.13260  1.0000
  O  Te10      1.0  0.95306  0.78603  0.24928  1.0000
  O  Te11      1.0  0.94578  0.73459  0.34239  1.0000
  O  Te12      1.0  0.04765  0.70823  0.22572  1.0000
  Mg  Mg5       1.0  0.92040  0.76783  0.32915  1.0000
  Mg  Mg6       1.0  0.08032  0.72642  0.14598  1.0000
  C  Sn13      1.0  0.47078  0.75980  0.77768  1.0000
  C   C311      1.0  0.49436  0.78066  0.79834  1.0000
  C  Sn14      1.0  0.52262  0.76819  0.77030  1.0000
  C  Sn15      1.0  0.52741  0.73416  0.72044  1.0000
  C   C312      1.0  0.50384  0.71332  0.69977  1.0000
  C  Sn16      1.0  0.47557  0.72577  0.72782  1.0000
  O  Te13      1.0  0.44271  0.77280  0.80639  1.0000
  O  Te14      1.0  0.54585  0.78953  0.79183  1.0000
  O  Te15      1.0  0.55550  0.72117  0.69174  1.0000
  O  Te16      1.0  0.45235  0.70445  0.70628  1.0000
  Mg  Mg7       1.0  0.58006  0.76011  0.73756  1.0000
  Mg  Mg8       1.0  0.41813  0.73383  0.76040  1.0000
  C  Sn17      1.0  0.23990  0.47733  0.80952  1.0000
  C   C313      1.0  0.22187  0.50147  0.80816  1.0000
  C  Sn18      1.0  0.23311  0.52479  0.76311  1.0000
  C  Sn19      1.0  0.26298  0.52395  0.71836  1.0000
  C   C314      1.0  0.28099  0.49981  0.71970  1.0000
  C  Sn20      1.0  0.26978  0.47648  0.76476  1.0000
  O  Te17      1.0  0.22820  0.45426  0.85496  1.0000
  O  Te18      1.0  0.21466  0.54870  0.76276  1.0000
  O  Te19      1.0  0.27467  0.54705  0.67290  1.0000
  O  Te20      1.0  0.28821  0.45258  0.76510  1.0000
  Mg  Mg9       1.0  0.24081  0.57478  0.69150  1.0000
  Mg  Mg10      1.0  0.26208  0.42648  0.83623  1.0000
  C  Sn21      1.0  0.25805  0.96162  0.68290  1.0000
  C   C315      1.0  0.27698  0.98635  0.69384  1.0000
  C  Sn22      1.0  0.26686  0.01888  0.75231  1.0000
  C  Sn23      1.0  0.23719  0.02688  0.80098  1.0000
  C   C316      1.0  0.21827  0.00217  0.79007  1.0000
  C  Sn24      1.0  0.22838  0.96962  0.73158  1.0000
  O  Te21      1.0  0.26865  0.92927  0.62410  1.0000
  O  Te22      1.0  0.28620  0.04318  0.76206  1.0000
  O  Te23      1.0  0.22660  0.05927  0.85981  1.0000
  O  Te24      1.0  0.20906  0.94534  0.72185  1.0000
  Mg  Mg11      1.0  0.25600  0.08368  0.85030  1.0000
  Mg  Mg12      1.0  0.23383  0.90484  0.63373  1.0000
  C  Sn25      1.0  0.97169  0.26206  0.29428  1.0000
  C   C317      1.0  0.99502  0.28174  0.29651  1.0000
  C  Sn26      1.0  0.02294  0.26812  0.25090  1.0000
  C  Sn27      1.0  0.02764  0.23412  0.20192  1.0000
  C   C318      1.0  0.00431  0.21446  0.19967  1.0000
  C  Sn28      1.0  0.97638  0.22806  0.24529  1.0000
  O  Te25      1.0  0.94396  0.27620  0.34036  1.0000
  O  Te26      1.0  0.04593  0.28829  0.25418  1.0000
  O  Te27      1.0  0.05540  0.21999  0.15582  1.0000
  O  Te28      1.0  0.95340  0.20791  0.24200  1.0000
  Mg  Mg13      1.0  0.07972  0.25758  0.18038  1.0000
  Mg  Mg14      1.0  0.91960  0.23859  0.31566  1.0000
  C  Sn29      1.0  0.52443  0.25283  0.16697  1.0000
  C   C319      1.0  0.50063  0.27351  0.19438  1.0000
  C  Sn30      1.0  0.47442  0.26881  0.26566  1.0000
  C  Sn31      1.0  0.47195  0.24292  0.31062  1.0000
  C   C320      1.0  0.49574  0.22226  0.28325  1.0000
  C  Sn32      1.0  0.52196  0.22694  0.21193  1.0000
  O  Te29      1.0  0.55043  0.25798  0.09556  1.0000
  O  Te30      1.0  0.45093  0.28979  0.29178  1.0000
  O  Te31      1.0  0.44593  0.23778  0.38208  1.0000
  O  Te32      1.0  0.54545  0.20598  0.18585  1.0000
  Mg  Mg15      1.0  0.42008  0.27285  0.39290  1.0000
  Mg  Mg16      1.0  0.57631  0.22290  0.08484  1.0000
