data_image0
_chemical_formula_structural       N2C8OBONCNC10NOBOH4C4HN2CNCOBOC7OBOH3N2C8OBONCNC10NOBOH4C4HN2CNCOBOC7OBOH3Cu2N2C8OBONCNC10NOBOH4C4HN2CNCOBOC7OBOH3N2C8OBONCNC10NOBOH4C4HN2CNCOBOC7OBOH3Cu2N2C8OBONCNC10NOBOH4C4HN2CNCOBOC7OBOH3N2C8OBONCNC10NOBOH4C4HN2CNCOBOC7OBOH3Cu2N2C8OBONCNC10NOBOH4C4HN2CNCOBOC7OBOH3N2C8OBONCNC10NOBOH4C4HN2CNCOBOC7OBOH3Cu2SnCSn2CSnTe4Mg2SnCSn2CSnTe4Mg2SnCSn2CSnTe4Mg2SnCSn2CSnTe4Mg2SnCSn2CSnTe4Mg2SnCSn2CSnTe4Mg2SnCSn2CSnTe4Mg2SnCSn2CSnTe4Mg2SnCSn2CSnTe4Mg2SnCSn2CSnTe4Mg2SnCSn2CSnTe4Mg2SnCSn2CSnTe4Mg2SnCSn2CSnTe4Mg2SnCSn2CSnTe4Mg2SnCSn2CSnTe4Mg2SnCSn2CSnTe4Mg2
_chemical_formula_sum              "N64 C288 O64 B32 H64 Cu8 Sn64 Te64 Mg32"
_cell_length_a       46.2441
_cell_length_b       46.2491
_cell_length_c       7.87287
_cell_angle_alpha    120.818
_cell_angle_beta     91.3218
_cell_angle_gamma    90.2962

_symmetry_space_group_name_H-M    'P1'
_space_group_IT_number       1

loop_
  _space_group_symop_operation_xyz
  'x, y, z'

loop_
  _atom_site_type_symbol
  _atom_site_label
  _atom_site_symmetry_multiplicity
  _atom_site_fract_x
  _atom_site_fract_y
  _atom_site_fract_z
  _atom_site_occupancy
  N   N1        1.0  0.49934  0.54240  0.23647  1.0000
  N   N2        1.0  0.55121  0.55298  0.25085  1.0000
  C   C1        1.0  0.55918  0.52589  0.25613  1.0000
  C   C2        1.0  0.58936  0.51760  0.26257  1.0000
  C   C3        1.0  0.58930  0.48737  0.26647  1.0000
  C   C4        1.0  0.55909  0.47806  0.26323  1.0000
  C   C5        1.0  0.61483  0.47169  0.27273  1.0000
  C   C6        1.0  0.63993  0.48810  0.27210  1.0000
  C   C7        1.0  0.63996  0.51813  0.26696  1.0000
  C   C8        1.0  0.61491  0.53399  0.26218  1.0000
  O   O1        1.0  0.66824  0.52796  0.26613  1.0000
  B   B1        1.0  0.68548  0.50351  0.27189  1.0000
  O   O2        1.0  0.66822  0.47882  0.27628  1.0000
  N   N3        1.0  0.94757  0.55127  0.23837  1.0000
  C   C9        1.0  0.93941  0.52399  0.24174  1.0000
  N   N4        1.0  0.95668  0.49996  0.24404  1.0000
  C   C10       1.0  0.93911  0.47617  0.24902  1.0000
  C   C11       1.0  0.90893  0.48532  0.25056  1.0000
  C   C12       1.0  0.90920  0.51550  0.24585  1.0000
  C   C13       1.0  0.88391  0.53196  0.24480  1.0000
  C   C14       1.0  0.85864  0.51630  0.25020  1.0000
  C   C15       1.0  0.85828  0.48646  0.25739  1.0000
  C   C16       1.0  0.88316  0.46993  0.25801  1.0000
  C   C17       1.0  0.97472  0.44077  0.25124  1.0000
  C   C18       1.0  0.96741  0.38419  0.24243  1.0000
  C   C19       1.0  0.98381  0.35876  0.23716  1.0000
  N   N5        1.0  0.94715  0.44876  0.25060  1.0000
  O   O3        1.0  0.83048  0.52643  0.25103  1.0000
  B   B2        1.0  0.81298  0.50249  0.26161  1.0000
  O   O4        1.0  0.82989  0.47770  0.26600  1.0000
  H   H1        1.0  0.61473  0.44877  0.27916  1.0000
  H   H2        1.0  0.61485  0.55692  0.25605  1.0000
  H   H3        1.0  0.88289  0.44719  0.26645  1.0000
  H   H4        1.0  0.88434  0.55491  0.23883  1.0000
  C   C20       1.0  0.56073  0.02557  0.24352  1.0000
  C   C21       1.0  0.59105  0.01739  0.24819  1.0000
  C   C22       1.0  0.64171  0.01784  0.25125  1.0000
  C   C23       1.0  0.61661  0.03376  0.24737  1.0000
  H   H5        1.0  0.61655  0.05676  0.24185  1.0000
  N   N6        1.0  0.54350  0.00135  0.24637  1.0000
  N   N7        1.0  0.94984  0.05246  0.24864  1.0000
  C   C24       1.0  0.94149  0.02542  0.25408  1.0000
  N   N8        1.0  0.95867  0.00115  0.25472  1.0000
  C   C25       1.0  0.59119  0.98715  0.25214  1.0000
  O   O5        1.0  0.66999  0.97832  0.25838  1.0000
  B   B3        1.0  0.68727  0.00310  0.25512  1.0000
  O   O6        1.0  0.67003  0.02761  0.25023  1.0000
  C   C26       1.0  0.91125  0.01718  0.26049  1.0000
  C   C27       1.0  0.91096  0.98680  0.26282  1.0000
  C   C28       1.0  0.94103  0.97746  0.25973  1.0000
  C   C29       1.0  0.88532  0.97097  0.26770  1.0000
  C   C30       1.0  0.86066  0.01774  0.26594  1.0000
  C   C31       1.0  0.88584  0.03365  0.26137  1.0000
  C   C32       1.0  0.86039  0.98753  0.26902  1.0000
  O   O7        1.0  0.83247  0.02764  0.26612  1.0000
  B   B4        1.0  0.81498  0.00301  0.26933  1.0000
  O   O8        1.0  0.83201  0.97825  0.27327  1.0000
  H   H6        1.0  0.61658  0.94833  0.26203  1.0000
  H   H7        1.0  0.88525  0.94783  0.27157  1.0000
  H   H8        1.0  0.88606  0.05667  0.25611  1.0000
  N   N9        1.0  0.49922  0.45977  0.26438  1.0000
  N   N10       1.0  0.44737  0.44987  0.25804  1.0000
  C   C33       1.0  0.43938  0.47702  0.25318  1.0000
  C   C34       1.0  0.40924  0.48580  0.25237  1.0000
  C   C35       1.0  0.40927  0.51592  0.24708  1.0000
  C   C36       1.0  0.43947  0.52456  0.24258  1.0000
  C   C37       1.0  0.38371  0.53198  0.24570  1.0000
  C   C38       1.0  0.35867  0.51586  0.25050  1.0000
  C   C39       1.0  0.35867  0.48587  0.25605  1.0000
  C   C40       1.0  0.38376  0.46981  0.25793  1.0000
  O   O9        1.0  0.33041  0.47638  0.26096  1.0000
  B   B5        1.0  0.31318  0.50100  0.25738  1.0000
  O   O10       1.0  0.33038  0.52546  0.25032  1.0000
  N   N11       1.0  0.05083  0.44901  0.24854  1.0000
  C   C41       1.0  0.05905  0.47632  0.24566  1.0000
  N   N12       1.0  0.04170  0.50023  0.24223  1.0000
  C   C42       1.0  0.05920  0.52427  0.23955  1.0000
  C   C43       1.0  0.08938  0.51550  0.24115  1.0000
  C   C44       1.0  0.08927  0.48520  0.24443  1.0000
  C   C45       1.0  0.11477  0.46926  0.24821  1.0000
  C   C46       1.0  0.13993  0.48554  0.24719  1.0000
  C   C47       1.0  0.14008  0.51562  0.24281  1.0000
  C   C48       1.0  0.11503  0.53163  0.23922  1.0000
  C   C49       1.0  0.02361  0.55953  0.23556  1.0000
  C   C50       1.0  0.03086  0.61611  0.24416  1.0000
  C   C51       1.0  0.01441  0.64144  0.24903  1.0000
  N   N13       1.0  0.05117  0.55167  0.23771  1.0000
  O   O11       1.0  0.16819  0.47611  0.25138  1.0000
  B   B6        1.0  0.18555  0.50089  0.24886  1.0000
  O   O12       1.0  0.16846  0.52535  0.24230  1.0000
  H   H9        1.0  0.38369  0.55487  0.23912  1.0000
  H   H10       1.0  0.38393  0.44705  0.26599  1.0000
  H   H11       1.0  0.11507  0.55460  0.23349  1.0000
  H   H12       1.0  0.11459  0.44628  0.25377  1.0000
  C   C52       1.0  0.44142  0.97514  0.24448  1.0000
  C   C53       1.0  0.41113  0.98352  0.24417  1.0000
  C   C54       1.0  0.36050  0.98292  0.24716  1.0000
  C   C55       1.0  0.38579  0.96692  0.24619  1.0000
  H   H13       1.0  0.38616  0.94369  0.24911  1.0000
  N   N14       1.0  0.45858  0.99948  0.24255  1.0000
  N   N15       1.0  0.05229  0.94869  0.25168  1.0000
  C   C56       1.0  0.06061  0.97609  0.25000  1.0000
  N   N16       1.0  0.04349  0.00029  0.24813  1.0000
  C   C57       1.0  0.41079  0.01407  0.24384  1.0000
  O   O13       1.0  0.33180  0.02296  0.24969  1.0000
  B   B7        1.0  0.31485  0.99786  0.25215  1.0000
  O   O14       1.0  0.33230  0.97295  0.25065  1.0000
  C   C58       1.0  0.09087  0.98468  0.24876  1.0000
  C   C59       1.0  0.09133  0.01512  0.24723  1.0000
  C   C60       1.0  0.06122  0.02424  0.24609  1.0000
  C   C61       1.0  0.11720  0.03093  0.24571  1.0000
  C   C62       1.0  0.14145  0.98409  0.24968  1.0000
  C   C63       1.0  0.11608  0.96815  0.25041  1.0000
  C   C64       1.0  0.14199  0.01438  0.24767  1.0000
  O   O15       1.0  0.16954  0.97406  0.25174  1.0000
  B   B8        1.0  0.18724  0.99873  0.25067  1.0000
  O   O16       1.0  0.17047  0.02370  0.24697  1.0000
  H   H14       1.0  0.38477  0.05325  0.24216  1.0000
  H   H15       1.0  0.11760  0.05401  0.24129  1.0000
  H   H16       1.0  0.11553  0.94498  0.25388  1.0000
  Cu  Cu1       1.0  0.99921  0.50005  0.24271  1.0000
  Cu  Cu2       1.0  0.00108  0.00064  0.25059  1.0000
  N   N17       1.0  0.45685  0.50077  0.24729  1.0000
  N   N18       1.0  0.44759  0.55155  0.23556  1.0000
  C   C65       1.0  0.47514  0.55958  0.23322  1.0000
  C   C66       1.0  0.48426  0.58969  0.23210  1.0000
  C   C67       1.0  0.51492  0.59028  0.24001  1.0000
  C   C68       1.0  0.52368  0.56037  0.24256  1.0000
  C   C69       1.0  0.53148  0.61648  0.24887  1.0000
  C   C70       1.0  0.51538  0.64148  0.24727  1.0000
  C   C71       1.0  0.48484  0.64078  0.23660  1.0000
  C   C72       1.0  0.46821  0.61513  0.22964  1.0000
  O   O17       1.0  0.47552  0.66888  0.23350  1.0000
  B   B9        1.0  0.50084  0.68668  0.24302  1.0000
  O   O18       1.0  0.52553  0.67000  0.25213  1.0000
  N   N19       1.0  0.44984  0.94788  0.24640  1.0000
  C   C73       1.0  0.47750  0.94068  0.25122  1.0000
  N   N20       1.0  0.50156  0.95902  0.25666  1.0000
  C   C74       1.0  0.52598  0.94212  0.25851  1.0000
  C   C75       1.0  0.51744  0.91178  0.25810  1.0000
  C   C76       1.0  0.48680  0.91074  0.25178  1.0000
  C   C77       1.0  0.47077  0.88423  0.24320  1.0000
  C   C78       1.0  0.48742  0.85939  0.24251  1.0000
  C   C79       1.0  0.51799  0.86054  0.25048  1.0000
  C   C80       1.0  0.53408  0.88654  0.25818  1.0000
  C   C81       1.0  0.56112  0.97790  0.25245  1.0000
  C   C82       1.0  0.61670  0.97132  0.25644  1.0000
  C   C83       1.0  0.64174  0.98772  0.25527  1.0000
  N   N21       1.0  0.55342  0.95065  0.25758  1.0000
  O   O19       1.0  0.47788  0.83057  0.23698  1.0000
  B   B10       1.0  0.50308  0.81421  0.24300  1.0000
  O   O20       1.0  0.52802  0.83243  0.25055  1.0000
  H   H17       1.0  0.55496  0.61692  0.25561  1.0000
  H   H18       1.0  0.44472  0.61441  0.22115  1.0000
  H   H19       1.0  0.55758  0.88766  0.26537  1.0000
  H   H20       1.0  0.44728  0.88345  0.23864  1.0000
  C   C84       1.0  0.97511  0.55926  0.23571  1.0000
  C   C85       1.0  0.98403  0.58966  0.23815  1.0000
  C   C86       1.0  0.98386  0.64110  0.24822  1.0000
  C   C87       1.0  0.96761  0.61546  0.24348  1.0000
  H   H21       1.0  0.94413  0.61495  0.24215  1.0000
  N   N22       1.0  0.99934  0.54165  0.23233  1.0000
  N   N23       1.0  0.94880  0.94990  0.26052  1.0000
  C   C88       1.0  0.97625  0.94154  0.25957  1.0000
  N   N24       1.0  0.00068  0.95896  0.26034  1.0000
  C   C89       1.0  0.01467  0.58988  0.23814  1.0000
  O   O21       1.0  0.02411  0.67006  0.25241  1.0000
  B   B11       1.0  0.99895  0.68697  0.25157  1.0000
  O   O22       1.0  0.97399  0.66940  0.24997  1.0000
  C   C90       1.0  0.98488  0.91103  0.25615  1.0000
  C   C91       1.0  0.01549  0.91061  0.25277  1.0000
  C   C92       1.0  0.02470  0.94093  0.25499  1.0000
  C   C93       1.0  0.03151  0.88434  0.24504  1.0000
  C   C94       1.0  0.98438  0.85945  0.24499  1.0000
  C   C95       1.0  0.96831  0.88526  0.25250  1.0000
  C   C96       1.0  0.01491  0.85901  0.24140  1.0000
  O   O23       1.0  0.97429  0.83106  0.24258  1.0000
  B   B12       1.0  0.99918  0.81343  0.23919  1.0000
  O   O24       1.0  0.02439  0.83034  0.23693  1.0000
  H   H22       1.0  0.05434  0.61629  0.24352  1.0000
  H   H23       1.0  0.05499  0.88417  0.24352  1.0000
  H   H24       1.0  0.94486  0.88582  0.25721  1.0000
  N   N25       1.0  0.54169  0.50168  0.25680  1.0000
  N   N26       1.0  0.55097  0.45056  0.26444  1.0000
  C   C97       1.0  0.52339  0.44225  0.26336  1.0000
  C   C98       1.0  0.51432  0.41191  0.26147  1.0000
  C   C99       1.0  0.48369  0.41192  0.26187  1.0000
  C   C100      1.0  0.47488  0.44207  0.26171  1.0000
  C   C101      1.0  0.46727  0.38602  0.25796  1.0000
  C   C102      1.0  0.48347  0.36051  0.25304  1.0000
  C   C103      1.0  0.51402  0.36039  0.25143  1.0000
  C   C104      1.0  0.53048  0.38586  0.25558  1.0000
  O   O25       1.0  0.52367  0.33186  0.24805  1.0000
  B   B13       1.0  0.49854  0.31459  0.24793  1.0000
  O   O26       1.0  0.47353  0.33201  0.25035  1.0000
  N   N27       1.0  0.55234  0.05250  0.23770  1.0000
  C   C105      1.0  0.52466  0.05978  0.23286  1.0000
  N   N28       1.0  0.50060  0.04177  0.23141  1.0000
  C   C106      1.0  0.47612  0.05909  0.23531  1.0000
  C   C107      1.0  0.48468  0.08948  0.23617  1.0000
  C   C108      1.0  0.51531  0.08983  0.23308  1.0000
  C   C109      1.0  0.53117  0.11595  0.23544  1.0000
  C   C110      1.0  0.51443  0.14117  0.24110  1.0000
  C   C111      1.0  0.48391  0.14093  0.24588  1.0000
  C   C112      1.0  0.46800  0.11529  0.24364  1.0000
  C   C113      1.0  0.44087  0.02332  0.24138  1.0000
  C   C114      1.0  0.38504  0.03000  0.24476  1.0000
  C   C115      1.0  0.36017  0.01340  0.24713  1.0000
  N   N29       1.0  0.44868  0.05082  0.23909  1.0000
  O   O27       1.0  0.52370  0.16972  0.24199  1.0000
  B   B14       1.0  0.49836  0.18680  0.24701  1.0000
  O   O28       1.0  0.47362  0.16931  0.25015  1.0000
  H   H25       1.0  0.44380  0.38627  0.26030  1.0000
  H   H26       1.0  0.55396  0.38593  0.25524  1.0000
  H   H27       1.0  0.44455  0.11493  0.24662  1.0000
  H   H28       1.0  0.55463  0.11605  0.23143  1.0000
  C   C116      1.0  0.02325  0.44097  0.25060  1.0000
  C   C117      1.0  0.01430  0.41059  0.24843  1.0000
  C   C118      1.0  0.01435  0.35909  0.23821  1.0000
  C   C119      1.0  0.03065  0.38474  0.24337  1.0000
  H   H29       1.0  0.05414  0.38514  0.24529  1.0000
  N   N30       1.0  0.99902  0.45856  0.25384  1.0000
  N   N31       1.0  0.05344  0.05168  0.24379  1.0000
  C   C120      1.0  0.02596  0.05980  0.24143  1.0000
  N   N32       1.0  0.00154  0.04229  0.24024  1.0000
  C   C121      1.0  0.98366  0.41040  0.24846  1.0000
  O   O29       1.0  0.97412  0.33007  0.23307  1.0000
  B   B15       1.0  0.99923  0.31311  0.23369  1.0000
  O   O30       1.0  0.02425  0.33073  0.23560  1.0000
  C   C122      1.0  0.01723  0.09005  0.24161  1.0000
  C   C123      1.0  0.98658  0.09002  0.24160  1.0000
  C   C124      1.0  0.97743  0.06000  0.24288  1.0000
  C   C125      1.0  0.97035  0.11571  0.24425  1.0000
  C   C126      1.0  0.01730  0.14137  0.24847  1.0000
  C   C127      1.0  0.03358  0.11604  0.24550  1.0000
  C   C128      1.0  0.98676  0.14111  0.24736  1.0000
  O   O31       1.0  0.02707  0.16984  0.24977  1.0000
  B   B16       1.0  0.00193  0.18670  0.24783  1.0000
  O   O32       1.0  0.97695  0.16926  0.24753  1.0000
  H   H30       1.0  0.94394  0.38416  0.24354  1.0000
  H   H31       1.0  0.94687  0.11538  0.24221  1.0000
  H   H32       1.0  0.05707  0.11598  0.24451  1.0000
  Cu  Cu3       1.0  0.50106  0.00030  0.24322  1.0000
  Cu  Cu4       1.0  0.49926  0.50104  0.25036  1.0000
  N   N33       1.0  0.49987  0.54026  0.73941  1.0000
  N   N34       1.0  0.55176  0.55101  0.75345  1.0000
  C   C129      1.0  0.55983  0.52384  0.75773  1.0000
  C   C130      1.0  0.59004  0.51526  0.76293  1.0000
  C   C131      1.0  0.58966  0.48482  0.76465  1.0000
  C   C132      1.0  0.55944  0.47578  0.76224  1.0000
  C   C133      1.0  0.61488  0.46858  0.76899  1.0000
  C   C134      1.0  0.64021  0.48474  0.77033  1.0000
  C   C135      1.0  0.64078  0.51501  0.76786  1.0000
  C   C136      1.0  0.61593  0.53130  0.76354  1.0000
  O   O33       1.0  0.66934  0.52427  0.76757  1.0000
  B   B17       1.0  0.68601  0.49919  0.77021  1.0000
  O   O34       1.0  0.66826  0.47477  0.77366  1.0000
  N   N35       1.0  0.94672  0.54926  0.74231  1.0000
  C   C137      1.0  0.93924  0.52168  0.74474  1.0000
  N   N36       1.0  0.95717  0.49792  0.74483  1.0000
  C   C138      1.0  0.94027  0.47339  0.74691  1.0000
  C   C139      1.0  0.90988  0.48167  0.74832  1.0000
  C   C140      1.0  0.90929  0.51227  0.74862  1.0000
  C   C141      1.0  0.88346  0.52819  0.75131  1.0000
  C   C142      1.0  0.85872  0.51152  0.75472  1.0000
  C   C143      1.0  0.85925  0.48101  0.75436  1.0000
  C   C144      1.0  0.88464  0.46502  0.75164  1.0000
  C   C145      1.0  0.97667  0.43890  0.74993  1.0000
  C   C146      1.0  0.97130  0.38221  0.74413  1.0000
  C   C147      1.0  0.98867  0.35747  0.73950  1.0000
  N   N37       1.0  0.94893  0.44610  0.74796  1.0000
  O   O35       1.0  0.83033  0.52102  0.75845  1.0000
  B   B18       1.0  0.81351  0.49590  0.76106  1.0000
  O   O36       1.0  0.83110  0.47101  0.75894  1.0000
  H   H33       1.0  0.61437  0.44541  0.77243  1.0000
  H   H34       1.0  0.61628  0.55429  0.75787  1.0000
  H   H35       1.0  0.88517  0.44178  0.75434  1.0000
  H   H36       1.0  0.88308  0.55149  0.74924  1.0000
  C   C148      1.0  0.55865  0.02334  0.74357  1.0000
  C   C149      1.0  0.58892  0.01533  0.74770  1.0000
  C   C150      1.0  0.63953  0.01669  0.75084  1.0000
  C   C151      1.0  0.61417  0.03216  0.74703  1.0000
  H   H37       1.0  0.61365  0.05517  0.74162  1.0000
  N   N38       1.0  0.54149  0.99918  0.74711  1.0000
  N   N39       1.0  0.94919  0.05325  0.74819  1.0000
  C   C152      1.0  0.94019  0.02642  0.75400  1.0000
  N   N40       1.0  0.95686  0.00175  0.75464  1.0000
  C   C153      1.0  0.58932  0.98506  0.75127  1.0000
  O   O37       1.0  0.66845  0.97744  0.75551  1.0000
  B   B19       1.0  0.68531  0.00268  0.75378  1.0000
  O   O38       1.0  0.66768  0.02704  0.75049  1.0000
  C   C154      1.0  0.90972  0.01883  0.76104  1.0000
  C   C155      1.0  0.90888  0.98847  0.76366  1.0000
  C   C156      1.0  0.93876  0.97845  0.76019  1.0000
  C   C157      1.0  0.88298  0.97315  0.76909  1.0000
  C   C158      1.0  0.85905  0.02026  0.76701  1.0000
  C   C159      1.0  0.88454  0.03574  0.76251  1.0000
  C   C160      1.0  0.85830  0.99005  0.76989  1.0000
  O   O39       1.0  0.83094  0.03054  0.76701  1.0000
  B   B20       1.0  0.81311  0.00610  0.76997  1.0000
  O   O40       1.0  0.82982  0.98112  0.77372  1.0000
  H   H38       1.0  0.61550  0.94644  0.75827  1.0000
  H   H39       1.0  0.88252  0.95009  0.77382  1.0000
  H   H40       1.0  0.88511  0.05880  0.75772  1.0000
  N   N41       1.0  0.49950  0.45764  0.76663  1.0000
  N   N42       1.0  0.44765  0.44746  0.75909  1.0000
  C   C161      1.0  0.43966  0.47457  0.75382  1.0000
  C   C162      1.0  0.40949  0.48335  0.75175  1.0000
  C   C163      1.0  0.40966  0.51358  0.74777  1.0000
  C   C164      1.0  0.43989  0.52219  0.74400  1.0000
  C   C165      1.0  0.38421  0.52987  0.74718  1.0000
  C   C166      1.0  0.35904  0.51394  0.75165  1.0000
  C   C167      1.0  0.35884  0.48375  0.75492  1.0000
  C   C168      1.0  0.38383  0.46739  0.75550  1.0000
  O   O41       1.0  0.33045  0.47446  0.75916  1.0000
  B   B21       1.0  0.31343  0.49937  0.75717  1.0000
  O   O42       1.0  0.33084  0.52389  0.75226  1.0000
  N   N43       1.0  0.05239  0.44927  0.74670  1.0000
  C   C169      1.0  0.05979  0.47684  0.74426  1.0000
  N   N44       1.0  0.04202  0.50046  0.74182  1.0000
  C   C170      1.0  0.05912  0.52498  0.74064  1.0000
  C   C171      1.0  0.08956  0.51674  0.74304  1.0000
  C   C172      1.0  0.08975  0.48623  0.74384  1.0000
  C   C173      1.0  0.11516  0.47017  0.74695  1.0000
  C   C174      1.0  0.14028  0.48662  0.74825  1.0000
  C   C175      1.0  0.14036  0.51701  0.74717  1.0000
  C   C176      1.0  0.11529  0.53313  0.74420  1.0000
  C   C177      1.0  0.02258  0.55930  0.73619  1.0000
  C   C178      1.0  0.02819  0.61588  0.74174  1.0000
  C   C179      1.0  0.01108  0.64080  0.74665  1.0000
  N   N45       1.0  0.05037  0.55215  0.73859  1.0000
  O   O43       1.0  0.16848  0.47710  0.75199  1.0000
  B   B22       1.0  0.18586  0.50205  0.75181  1.0000
  O   O44       1.0  0.16879  0.52686  0.74880  1.0000
  H   H41       1.0  0.38434  0.55286  0.74172  1.0000
  H   H42       1.0  0.38378  0.44438  0.76090  1.0000
  H   H43       1.0  0.11546  0.55638  0.74155  1.0000
  H   H44       1.0  0.11484  0.44701  0.75066  1.0000
  C   C180      1.0  0.43937  0.97357  0.74572  1.0000
  C   C181      1.0  0.40911  0.98212  0.74565  1.0000
  C   C182      1.0  0.35853  0.98200  0.75116  1.0000
  C   C183      1.0  0.38372  0.96582  0.74966  1.0000
  H   H45       1.0  0.38402  0.94270  0.75376  1.0000
  N   N46       1.0  0.45659  0.99787  0.74384  1.0000
  N   N47       1.0  0.04946  0.94709  0.75273  1.0000
  C   C184      1.0  0.05846  0.97427  0.75108  1.0000
  N   N48       1.0  0.04171  0.99871  0.74873  1.0000
  C   C185      1.0  0.40887  0.01260  0.74466  1.0000
  O   O45       1.0  0.32997  0.02181  0.74997  1.0000
  B   B23       1.0  0.31294  0.99703  0.75492  1.0000
  O   O46       1.0  0.33035  0.97241  0.75708  1.0000
  C   C186      1.0  0.08891  0.98238  0.74990  1.0000
  C   C187      1.0  0.08971  0.01278  0.74797  1.0000
  C   C188      1.0  0.05984  0.02225  0.74627  1.0000
  C   C189      1.0  0.11556  0.02854  0.74635  1.0000
  C   C190      1.0  0.13953  0.98161  0.75035  1.0000
  C   C191      1.0  0.11410  0.96577  0.75170  1.0000
  C   C192      1.0  0.14024  0.01190  0.74818  1.0000
  O   O47       1.0  0.16763  0.97146  0.75172  1.0000
  B   B24       1.0  0.18538  0.99608  0.75000  1.0000
  O   O48       1.0  0.16871  0.02115  0.74724  1.0000
  H   H46       1.0  0.38305  0.05188  0.74236  1.0000
  H   H47       1.0  0.11596  0.05163  0.74192  1.0000
  H   H48       1.0  0.11357  0.94266  0.75589  1.0000
  Cu  Cu5       1.0  0.99958  0.49919  0.74300  1.0000
  Cu  Cu6       1.0  0.99928  0.00015  0.75101  1.0000
  N   N49       1.0  0.45721  0.49843  0.74937  1.0000
  N   N50       1.0  0.44806  0.54913  0.73684  1.0000
  C   C193      1.0  0.47563  0.55723  0.73510  1.0000
  C   C194      1.0  0.48459  0.58727  0.73308  1.0000
  C   C195      1.0  0.51524  0.58814  0.74157  1.0000
  C   C196      1.0  0.52418  0.55833  0.74533  1.0000
  C   C197      1.0  0.53155  0.61443  0.74918  1.0000
  C   C198      1.0  0.51524  0.63923  0.74629  1.0000
  C   C199      1.0  0.48469  0.63813  0.73533  1.0000
  C   C200      1.0  0.46832  0.61241  0.72892  1.0000
  O   O49       1.0  0.47493  0.66603  0.73161  1.0000
  B   B25       1.0  0.50003  0.68414  0.74042  1.0000
  O   O50       1.0  0.52507  0.66787  0.75035  1.0000
  N   N51       1.0  0.44768  0.94629  0.74774  1.0000
  C   C201      1.0  0.47532  0.93895  0.75294  1.0000
  N   N52       1.0  0.49947  0.95716  0.75858  1.0000
  C   C202      1.0  0.52389  0.94011  0.75978  1.0000
  C   C203      1.0  0.51510  0.90975  0.75894  1.0000
  C   C204      1.0  0.48444  0.90888  0.75275  1.0000
  C   C205      1.0  0.46824  0.88235  0.74299  1.0000
  C   C206      1.0  0.48468  0.85727  0.74135  1.0000
  C   C207      1.0  0.51523  0.85835  0.75069  1.0000
  C   C208      1.0  0.53149  0.88433  0.75895  1.0000
  C   C209      1.0  0.55921  0.97571  0.75262  1.0000
  C   C210      1.0  0.61516  0.96956  0.75414  1.0000
  C   C211      1.0  0.63998  0.98642  0.75333  1.0000
  N   N53       1.0  0.55136  0.94851  0.75818  1.0000
  O   O51       1.0  0.47496  0.82830  0.73370  1.0000
  B   B26       1.0  0.50005  0.81189  0.74076  1.0000
  O   O52       1.0  0.52509  0.83017  0.75086  1.0000
  H   H49       1.0  0.55503  0.61505  0.75572  1.0000
  H   H50       1.0  0.44483  0.61145  0.71955  1.0000
  H   H51       1.0  0.55498  0.88534  0.76667  1.0000
  H   H52       1.0  0.44474  0.88175  0.73796  1.0000
  C   C212      1.0  0.97402  0.55793  0.73829  1.0000
  C   C213      1.0  0.98213  0.58845  0.73919  1.0000
  C   C214      1.0  0.98056  0.63984  0.74779  1.0000
  C   C215      1.0  0.96506  0.61385  0.74450  1.0000
  H   H53       1.0  0.94160  0.61288  0.74487  1.0000
  N   N54       1.0  0.99873  0.54095  0.73435  1.0000
  N   N55       1.0  0.94593  0.95071  0.76110  1.0000
  C   C216      1.0  0.97316  0.94164  0.76032  1.0000
  N   N56       1.0  0.99797  0.95855  0.76128  1.0000
  C   C217      1.0  0.01277  0.58935  0.73776  1.0000
  O   O53       1.0  0.02002  0.66956  0.74892  1.0000
  B   B27       1.0  0.99447  0.68602  0.74967  1.0000
  O   O54       1.0  0.96992  0.66795  0.75002  1.0000
  C   C218      1.0  0.98117  0.91089  0.75668  1.0000
  C   C219      1.0  0.01178  0.90990  0.75300  1.0000
  C   C220      1.0  0.02164  0.94002  0.75561  1.0000
  C   C221      1.0  0.02744  0.88340  0.74498  1.0000
  C   C222      1.0  0.98000  0.85920  0.74492  1.0000
  C   C223      1.0  0.96426  0.88525  0.75249  1.0000
  C   C224      1.0  0.01051  0.85835  0.74195  1.0000
  O   O55       1.0  0.96961  0.83084  0.74193  1.0000
  B   B28       1.0  0.99422  0.81294  0.73946  1.0000
  O   O56       1.0  0.01965  0.82968  0.73872  1.0000
  H   H54       1.0  0.05166  0.61654  0.73908  1.0000
  H   H55       1.0  0.05090  0.88293  0.74292  1.0000
  H   H56       1.0  0.94082  0.88605  0.75667  1.0000
  N   N57       1.0  0.54221  0.49966  0.75812  1.0000
  N   N58       1.0  0.55128  0.44828  0.76318  1.0000
  C   C225      1.0  0.52374  0.44010  0.76410  1.0000
  C   C226      1.0  0.51485  0.40972  0.76191  1.0000
  C   C227      1.0  0.48421  0.40966  0.76366  1.0000
  C   C228      1.0  0.47522  0.43982  0.76386  1.0000
  C   C229      1.0  0.46803  0.38370  0.76076  1.0000
  C   C230      1.0  0.48448  0.35828  0.75504  1.0000
  C   C231      1.0  0.51501  0.35815  0.75063  1.0000
  C   C232      1.0  0.53125  0.38371  0.75425  1.0000
  O   O57       1.0  0.52491  0.32953  0.74508  1.0000
  B   B29       1.0  0.49992  0.31235  0.74793  1.0000
  O   O58       1.0  0.47483  0.32981  0.75344  1.0000
  N   N59       1.0  0.55031  0.05031  0.73801  1.0000
  C   C233      1.0  0.52270  0.05771  0.73415  1.0000
  N   N60       1.0  0.49855  0.03993  0.73336  1.0000
  C   C234      1.0  0.47424  0.05743  0.73658  1.0000
  C   C235      1.0  0.48302  0.08772  0.73670  1.0000
  C   C236      1.0  0.51363  0.08769  0.73367  1.0000
  C   C237      1.0  0.52998  0.11338  0.73505  1.0000
  C   C238      1.0  0.51370  0.13884  0.74053  1.0000
  C   C239      1.0  0.48318  0.13911  0.74537  1.0000
  C   C240      1.0  0.46678  0.11377  0.74326  1.0000
  C   C241      1.0  0.43897  0.02175  0.74234  1.0000
  C   C242      1.0  0.38322  0.02865  0.74524  1.0000
  C   C243      1.0  0.35830  0.01224  0.74850  1.0000
  N   N61       1.0  0.44677  0.04924  0.74001  1.0000
  O   O59       1.0  0.52357  0.16716  0.74128  1.0000
  B   B30       1.0  0.49854  0.18466  0.74584  1.0000
  O   O60       1.0  0.47347  0.16768  0.74960  1.0000
  H   H57       1.0  0.44456  0.38387  0.76436  1.0000
  H   H58       1.0  0.55472  0.38384  0.75192  1.0000
  H   H59       1.0  0.44331  0.11381  0.74524  1.0000
  H   H60       1.0  0.55343  0.11300  0.73071  1.0000
  C   C244      1.0  0.02510  0.44055  0.74932  1.0000
  C   C245      1.0  0.01715  0.41006  0.74825  1.0000
  C   C246      1.0  0.01919  0.35872  0.73867  1.0000
  C   C247      1.0  0.03450  0.38490  0.74306  1.0000
  H   H61       1.0  0.05795  0.38619  0.74357  1.0000
  N   N62       1.0  0.00042  0.45739  0.75203  1.0000
  N   N63       1.0  0.05270  0.04979  0.74362  1.0000
  C   C248      1.0  0.02544  0.05846  0.74101  1.0000
  N   N64       1.0  0.00057  0.04161  0.73901  1.0000
  C   C249      1.0  0.98654  0.40889  0.74862  1.0000
  O   O61       1.0  0.98002  0.32861  0.73707  1.0000
  B   B31       1.0  0.00575  0.31237  0.73532  1.0000
  O   O62       1.0  0.03011  0.33065  0.73510  1.0000
  C   C250      1.0  0.01771  0.08894  0.74201  1.0000
  C   C251      1.0  0.98710  0.08997  0.74161  1.0000
  C   C252      1.0  0.97698  0.06010  0.74206  1.0000
  C   C253      1.0  0.97206  0.11647  0.74482  1.0000
  C   C254      1.0  0.02013  0.14033  0.75189  1.0000
  C   C255      1.0  0.03525  0.11426  0.74794  1.0000
  C   C256      1.0  0.98961  0.14122  0.74893  1.0000
  O   O63       1.0  0.03119  0.16851  0.75564  1.0000
  B   B32       1.0  0.00689  0.18630  0.75163  1.0000
  O   O64       1.0  0.98114  0.16978  0.74885  1.0000
  H   H62       1.0  0.94785  0.38122  0.74562  1.0000
  H   H63       1.0  0.94860  0.11727  0.74225  1.0000
  H   H64       1.0  0.05870  0.11316  0.74816  1.0000
  Cu  Cu7       1.0  0.49903  0.99854  0.74580  1.0000
  Cu  Cu8       1.0  0.49971  0.49906  0.75411  1.0000
  C  Sn1       1.0  0.74084  0.48130  0.33637  1.0000
  C   C257      1.0  0.72219  0.50414  0.32687  1.0000
  C  Sn2       1.0  0.73228  0.52605  0.26768  1.0000
  C  Sn3       1.0  0.76163  0.52510  0.21680  1.0000
  C   C258      1.0  0.78026  0.50227  0.22627  1.0000
  C  Sn4       1.0  0.77018  0.48035  0.28549  1.0000
  O  Te1       1.0  0.73028  0.45962  0.39594  1.0000
  O  Te2       1.0  0.71323  0.54868  0.25940  1.0000
  O  Te3       1.0  0.77217  0.54681  0.15721  1.0000
  O  Te4       1.0  0.78922  0.45773  0.29375  1.0000
  Mg  Mg1       1.0  0.73784  0.57311  0.16933  1.0000
  Mg  Mg2       1.0  0.76463  0.43328  0.38369  1.0000
  C  Sn5       1.0  0.74203  0.97949  0.31590  1.0000
  C   C259      1.0  0.72377  0.00317  0.31227  1.0000
  C  Sn6       1.0  0.72936  0.02651  0.26605  1.0000
  C  Sn7       1.0  0.75898  0.02618  0.22241  1.0000
  C   C260      1.0  0.78239  0.00251  0.22601  1.0000
  C  Sn8       1.0  0.77165  0.97915  0.27226  1.0000
  O  Te5       1.0  0.73080  0.95639  0.36248  1.0000
  O  Te6       1.0  0.71069  0.04994  0.26343  1.0000
  O  Te7       1.0  0.77020  0.04931  0.17581  1.0000
  O  Te8       1.0  0.79030  0.95573  0.27485  1.0000
  Mg  Mg3       1.0  0.73619  0.07628  0.19133  1.0000
  Mg  Mg4       1.0  0.76483  0.92938  0.34683  1.0000
  C  Sn9       1.0  0.24089  0.52426  0.19635  1.0000
  C   C261      1.0  0.22191  0.50104  0.20050  1.0000
  C  Sn10      1.0  0.23203  0.47829  0.25388  1.0000
  C  Sn11      1.0  0.26174  0.47878  0.30428  1.0000
  C   C262      1.0  0.28071  0.50200  0.30014  1.0000
  C  Sn12      1.0  0.27061  0.52475  0.24675  1.0000
  O  Te9       1.0  0.23030  0.54677  0.14255  1.0000
  O  Te10      1.0  0.21264  0.45530  0.25688  1.0000
  O  Te11      1.0  0.27233  0.45625  0.35809  1.0000
  O  Te12      1.0  0.28998  0.54773  0.24376  1.0000
  Mg  Mg5       1.0  0.23745  0.42972  0.34013  1.0000
  Mg  Mg6       1.0  0.26519  0.57334  0.16064  1.0000
  C  Sn13      1.0  0.26039  0.03195  0.31960  1.0000
  C   C263      1.0  0.28387  0.00734  0.31128  1.0000
  C  Sn14      1.0  0.27291  0.97538  0.25549  1.0000
  C  Sn15      1.0  0.24302  0.96786  0.20687  1.0000
  C   C264      1.0  0.22473  0.99246  0.21516  1.0000
  C  Sn16      1.0  0.23051  0.02443  0.27098  1.0000
  O  Te13      1.0  0.27182  0.06373  0.37576  1.0000
  O  Te14      1.0  0.29163  0.95119  0.24833  1.0000
  O  Te15      1.0  0.23160  0.93605  0.15069  1.0000
  O  Te16      1.0  0.21180  0.04860  0.27812  1.0000
  Mg  Mg7       1.0  0.26579  0.91155  0.16313  1.0000
  Mg  Mg8       1.0  0.23762  0.08825  0.36319  1.0000
  C  Sn17      1.0  0.47518  0.73426  0.15133  1.0000
  C   C265      1.0  0.49829  0.71789  0.18162  1.0000
  C  Sn18      1.0  0.52459  0.73497  0.26359  1.0000
  C  Sn19      1.0  0.52786  0.76912  0.31652  1.0000
  C   C266      1.0  0.50477  0.78547  0.28626  1.0000
  C  Sn20      1.0  0.47846  0.76841  0.20426  1.0000
  O  Te17      1.0  0.44908  0.71670  0.06918  1.0000
  O  Te18      1.0  0.54738  0.71807  0.29240  1.0000
  O  Te19      1.0  0.55399  0.78667  0.39872  1.0000
  O  Te20      1.0  0.45567  0.78529  0.17548  1.0000
  Mg  Mg9       1.0  0.57869  0.75276  0.40922  1.0000
  Mg  Mg10      1.0  0.42435  0.75063  0.05877  1.0000
  C  Sn21      1.0  0.97039  0.73605  0.18461  1.0000
  C   C267      1.0  0.99411  0.71813  0.19247  1.0000
  C  Sn22      1.0  0.02167  0.73320  0.24469  1.0000
  C  Sn23      1.0  0.02559  0.76688  0.29013  1.0000
  C   C268      1.0  0.00188  0.78479  0.28229  1.0000
  C  Sn24      1.0  0.97432  0.76974  0.23004  1.0000
  O  Te21      1.0  0.94304  0.72048  0.13205  1.0000
  O  Te22      1.0  0.04505  0.71477  0.25147  1.0000
  O  Te23      1.0  0.05297  0.78244  0.34271  1.0000
  O  Te24      1.0  0.95094  0.78815  0.22329  1.0000
  Mg  Mg11      1.0  0.07808  0.74698  0.33118  1.0000
  Mg  Mg12      1.0  0.91790  0.75597  0.14370  1.0000
  C  Sn25      1.0  0.46901  0.23834  0.20485  1.0000
  C   C269      1.0  0.49257  0.21862  0.19260  1.0000
  C  Sn26      1.0  0.52074  0.23183  0.22576  1.0000
  C  Sn27      1.0  0.52547  0.26547  0.27226  1.0000
  C   C270      1.0  0.50192  0.28518  0.28453  1.0000
  C  Sn28      1.0  0.47374  0.27198  0.25136  1.0000
  O  Te25      1.0  0.44104  0.22461  0.17114  1.0000
  O  Te26      1.0  0.54394  0.21162  0.21261  1.0000
  O  Te27      1.0  0.55347  0.27919  0.30597  1.0000
  O  Te28      1.0  0.45055  0.29218  0.26452  1.0000
  Mg  Mg13      1.0  0.57802  0.24171  0.27118  1.0000
  Mg  Mg14      1.0  0.41646  0.26212  0.20609  1.0000
  C  Sn29      1.0  0.02864  0.25467  0.18757  1.0000
  C   C271      1.0  0.00438  0.27220  0.18325  1.0000
  C  Sn30      1.0  0.97718  0.26490  0.22714  1.0000
  C  Sn31      1.0  0.97416  0.23956  0.27651  1.0000
  C   C272      1.0  0.99840  0.22205  0.28086  1.0000
  C  Sn32      1.0  0.02562  0.22933  0.23695  1.0000
  O  Te29      1.0  0.05562  0.26239  0.14318  1.0000
  O  Te30      1.0  0.95324  0.28276  0.22177  1.0000
  O  Te31      1.0  0.94714  0.23185  0.32091  1.0000
  O  Te32      1.0  0.04954  0.21149  0.24233  1.0000
  Mg  Mg15      1.0  0.92102  0.26311  0.29380  1.0000
  Mg  Mg16      1.0  0.08178  0.23112  0.17043  1.0000
  C  Sn33      1.0  0.75965  0.53092  0.83631  1.0000
  C   C273      1.0  0.77752  0.50553  0.82202  1.0000
  C  Sn34      1.0  0.76602  0.47359  0.76157  1.0000
  C  Sn35      1.0  0.73603  0.46688  0.71428  1.0000
  C   C274      1.0  0.71817  0.49225  0.72854  1.0000
  C  Sn36      1.0  0.72966  0.52420  0.78902  1.0000
  O  Te33      1.0  0.77161  0.56266  0.89705  1.0000
  O  Te34      1.0  0.78432  0.44863  0.74848  1.0000
  O  Te35      1.0  0.72407  0.43510  0.65351  1.0000
  O  Te36      1.0  0.71138  0.54915  0.80208  1.0000
  Mg  Mg17      1.0  0.75781  0.40937  0.65860  1.0000
  Mg  Mg18      1.0  0.73786  0.58841  0.89184  1.0000
  C  Sn37      1.0  0.75821  0.97127  0.69642  1.0000
  C   C275      1.0  0.77660  0.99648  0.70988  1.0000
  C  Sn38      1.0  0.76592  0.02824  0.76554  1.0000
  C  Sn39      1.0  0.73626  0.03495  0.80878  1.0000
  C   C276      1.0  0.71789  0.00975  0.79535  1.0000
  C  Sn40      1.0  0.72855  0.97798  0.73967  1.0000
  O  Te37      1.0  0.76935  0.93970  0.64050  1.0000
  O  Te38      1.0  0.78472  0.05304  0.77789  1.0000
  O  Te39      1.0  0.72513  0.06655  0.86473  1.0000
  O  Te40      1.0  0.70977  0.95319  0.72734  1.0000
  Mg  Mg19      1.0  0.75414  0.09210  0.86052  1.0000
  Mg  Mg20      1.0  0.73516  0.91413  0.64483  1.0000
  C  Sn41      1.0  0.24179  0.52455  0.69937  1.0000
  C   C277      1.0  0.22225  0.50160  0.70149  1.0000
  C  Sn42      1.0  0.23174  0.47819  0.75141  1.0000
  C  Sn43      1.0  0.26138  0.47774  0.80036  1.0000
  C   C278      1.0  0.28090  0.50069  0.79826  1.0000
  C  Sn44      1.0  0.27143  0.52410  0.74832  1.0000
  O  Te41      1.0  0.23182  0.54773  0.64903  1.0000
  O  Te42      1.0  0.21180  0.45549  0.75244  1.0000
  O  Te43      1.0  0.27134  0.45454  0.85073  1.0000
  O  Te44      1.0  0.29135  0.54680  0.74732  1.0000
  Mg  Mg21      1.0  0.23587  0.42874  0.83111  1.0000
  Mg  Mg22      1.0  0.26730  0.57357  0.66877  1.0000
  C  Sn45      1.0  0.25763  0.96298  0.69266  1.0000
  C   C279      1.0  0.27636  0.98743  0.69997  1.0000
  C  Sn46      1.0  0.26619  0.01923  0.75194  1.0000
  C  Sn47      1.0  0.23668  0.02676  0.79769  1.0000
  C   C280      1.0  0.21797  0.00233  0.79040  1.0000
  C  Sn48      1.0  0.22813  0.97051  0.73840  1.0000
  O  Te45      1.0  0.26827  0.93136  0.64034  1.0000
  O  Te46      1.0  0.28532  0.04326  0.75816  1.0000
  O  Te47      1.0  0.22605  0.05842  0.85002  1.0000
  O  Te48      1.0  0.20901  0.94650  0.73220  1.0000
  Mg  Mg23      1.0  0.25538  0.08273  0.83773  1.0000
  Mg  Mg24      1.0  0.23376  0.90703  0.65276  1.0000
  C  Sn49      1.0  0.47076  0.75886  0.76762  1.0000
  C   C281      1.0  0.49441  0.77965  0.79081  1.0000
  C  Sn50      1.0  0.52255  0.76771  0.77083  1.0000
  C  Sn51      1.0  0.52716  0.73428  0.72662  1.0000
  C   C282      1.0  0.50353  0.71351  0.70342  1.0000
  C  Sn52      1.0  0.47538  0.72543  0.72341  1.0000
  O  Te49      1.0  0.44282  0.77132  0.78824  1.0000
  O  Te50      1.0  0.54584  0.78896  0.79475  1.0000
  O  Te51      1.0  0.55514  0.72183  0.70602  1.0000
  O  Te52      1.0  0.45209  0.70419  0.69948  1.0000
  Mg  Mg25      1.0  0.57984  0.76042  0.75217  1.0000
  Mg  Mg26      1.0  0.41808  0.73271  0.74192  1.0000
  C  Sn53      1.0  0.96533  0.73530  0.68344  1.0000
  C   C283      1.0  0.98912  0.71734  0.69001  1.0000
  C  Sn54      1.0  0.01665  0.73247  0.74240  1.0000
  C  Sn55      1.0  0.02049  0.76625  0.78933  1.0000
  C   C284      1.0  0.99671  0.78419  0.78278  1.0000
  C  Sn56      1.0  0.96917  0.76908  0.73037  1.0000
  O  Te53      1.0  0.93800  0.71968  0.63069  1.0000
  O  Te54      1.0  0.04010  0.71400  0.74786  1.0000
  O  Te55      1.0  0.04785  0.78186  0.84210  1.0000
  O  Te56      1.0  0.94573  0.78753  0.72493  1.0000
  Mg  Mg27      1.0  0.07306  0.74632  0.82843  1.0000
  Mg  Mg28      1.0  0.91276  0.75524  0.64448  1.0000
  C  Sn57      1.0  0.52636  0.25025  0.66925  1.0000
  C   C285      1.0  0.50319  0.27112  0.69221  1.0000
  C  Sn58      1.0  0.47689  0.26695  0.76163  1.0000
  C  Sn59      1.0  0.47368  0.24141  0.80922  1.0000
  C   C286      1.0  0.49685  0.22057  0.78629  1.0000
  C  Sn60      1.0  0.52316  0.22471  0.71684  1.0000
  O  Te57      1.0  0.55246  0.25487  0.59962  1.0000
  O  Te58      1.0  0.45403  0.28811  0.78330  1.0000
  O  Te59      1.0  0.44756  0.23681  0.87888  1.0000
  O  Te60      1.0  0.54601  0.20357  0.69519  1.0000
  Mg  Mg29      1.0  0.42275  0.27194  0.88349  1.0000
  Mg  Mg30      1.0  0.57730  0.21973  0.59512  1.0000
  C  Sn61      1.0  0.03536  0.24718  0.81120  1.0000
  C   C287      1.0  0.01183  0.22711  0.79987  1.0000
  C  Sn62      1.0  0.98450  0.23154  0.73823  1.0000
  C  Sn63      1.0  0.98060  0.25652  0.68671  1.0000
  C   C288      1.0  0.00412  0.27657  0.69801  1.0000
  C  Sn64      1.0  0.03146  0.27216  0.75967  1.0000
  O  Te61      1.0  0.06249  0.24231  0.87320  1.0000
  O  Te62      1.0  0.96131  0.21118  0.72815  1.0000
  O  Te63      1.0  0.95344  0.26137  0.62468  1.0000
  O  Te64      1.0  0.05464  0.29250  0.76973  1.0000
  Mg  Mg31      1.0  0.92854  0.22740  0.63502  1.0000
  Mg  Mg32      1.0  0.08742  0.27629  0.86274  1.0000
