data_image0
_chemical_formula_structural       C7OH3C7OH3C7OH3C7OH3C7OH3C7OH3C7OH3C7OH3C7OH3C7OH3C7OH3C7OH3B6C7OH3C7OH3C7OH3C7OH3C7OH3C7OH3C7OH3C7OH3C7OH3C7OH3C7OH3C7OH3B6SnCSn2CSnTe4Mg2SnCSn2CSnTe4Mg2SnCSn2CSnTe4Mg2SnCSn2CSnTe4Mg2SnCSn2CSnTe4Mg2SnCSn2CSnTe4Mg2
_chemical_formula_sum              "C180 O24 H72 B12 Sn24 Te24 Mg12"
_cell_length_a       38.8305
_cell_length_b       38.9024
_cell_length_c       8.13167
_cell_angle_alpha    106.792
_cell_angle_beta     55.6878
_cell_angle_gamma    120.118

_symmetry_space_group_name_H-M    'P1'
_space_group_IT_number       1

loop_
  _space_group_symop_operation_xyz
  'x, y, z'

loop_
  _atom_site_type_symbol
  _atom_site_label
  _atom_site_symmetry_multiplicity
  _atom_site_fract_x
  _atom_site_fract_y
  _atom_site_fract_z
  _atom_site_occupancy
  C   C1        1.0  0.15048  0.58786  0.25229  1.0000
  C   C2        1.0  0.18592  0.62575  0.24661  1.0000
  C   C3        1.0  0.18636  0.66171  0.23827  1.0000
  C   C4        1.0  0.22213  0.69775  0.23243  1.0000
  C   C5        1.0  0.25935  0.69987  0.23505  1.0000
  C   C6        1.0  0.25895  0.66394  0.23925  1.0000
  C   C7        1.0  0.22337  0.62650  0.24522  1.0000
  O   O1        1.0  0.11167  0.57976  0.25090  1.0000
  H   H1        1.0  0.15828  0.66049  0.23411  1.0000
  H   H2        1.0  0.22151  0.72471  0.22333  1.0000
  H   H3        1.0  0.28689  0.66479  0.24248  1.0000
  C   C8        1.0  0.41177  0.56036  0.25507  1.0000
  C   C9        1.0  0.37375  0.55702  0.25526  1.0000
  C   C10       1.0  0.33794  0.52045  0.25287  1.0000
  C   C11       1.0  0.30186  0.51944  0.25325  1.0000
  C   C12       1.0  0.29955  0.55486  0.25559  1.0000
  C   C13       1.0  0.33538  0.59087  0.25734  1.0000
  C   C14       1.0  0.37283  0.59354  0.25739  1.0000
  O   O2        1.0  0.41917  0.52955  0.25996  1.0000
  H   H4        1.0  0.33941  0.49312  0.25047  1.0000
  H   H5        1.0  0.27503  0.49072  0.25041  1.0000
  H   H6        1.0  0.33471  0.61838  0.25739  1.0000
  C   C15       1.0  0.43895  0.84937  0.26071  1.0000
  C   C16       1.0  0.44252  0.81479  0.25847  1.0000
  C   C17       1.0  0.47832  0.81533  0.26504  1.0000
  C   C18       1.0  0.47932  0.78028  0.26427  1.0000
  C   C19       1.0  0.44499  0.74277  0.25401  1.0000
  C   C20       1.0  0.41006  0.74276  0.24494  1.0000
  C   C21       1.0  0.40695  0.77752  0.24962  1.0000
  O   O3        1.0  0.46917  0.88847  0.26640  1.0000
  H   H7        1.0  0.50466  0.84379  0.27486  1.0000
  H   H8        1.0  0.50635  0.78187  0.27798  1.0000
  H   H9        1.0  0.38400  0.71457  0.23248  1.0000
  C   C22       1.0  0.85030  0.40245  0.24470  1.0000
  C   C23       1.0  0.81445  0.36542  0.24451  1.0000
  C   C24       1.0  0.81331  0.32835  0.24056  1.0000
  C   C25       1.0  0.77729  0.29327  0.23987  1.0000
  C   C26       1.0  0.74016  0.29322  0.24470  1.0000
  C   C27       1.0  0.74118  0.33013  0.25329  1.0000
  C   C28       1.0  0.77732  0.36670  0.25184  1.0000
  O   O4        1.0  0.88918  0.40883  0.24132  1.0000
  H   H10       1.0  0.84120  0.32794  0.23962  1.0000
  H   H11       1.0  0.77780  0.26542  0.23671  1.0000
  H   H12       1.0  0.71296  0.33075  0.25858  1.0000
  C   C29       1.0  0.59529  0.44425  0.26024  1.0000
  C   C30       1.0  0.63209  0.44569  0.26343  1.0000
  C   C31       1.0  0.66784  0.48124  0.27421  1.0000
  C   C32       1.0  0.70305  0.48045  0.27367  1.0000
  C   C33       1.0  0.70458  0.44415  0.26250  1.0000
  C   C34       1.0  0.66868  0.40909  0.25351  1.0000
  C   C35       1.0  0.63199  0.40824  0.25410  1.0000
  O   O5        1.0  0.58866  0.47613  0.26153  1.0000
  H   H13       1.0  0.66707  0.50927  0.28284  1.0000
  H   H14       1.0  0.72980  0.50847  0.28324  1.0000
  H   H15       1.0  0.66908  0.38095  0.24474  1.0000
  C   C36       1.0  0.55485  0.14960  0.24055  1.0000
  C   C37       1.0  0.55376  0.18521  0.23769  1.0000
  C   C38       1.0  0.51781  0.18656  0.24049  1.0000
  C   C39       1.0  0.51889  0.22251  0.23892  1.0000
  C   C40       1.0  0.55627  0.25905  0.23230  1.0000
  C   C41       1.0  0.59160  0.25721  0.22972  1.0000
  C   C42       1.0  0.59193  0.22149  0.23296  1.0000
  O   O6        1.0  0.52198  0.11107  0.24744  1.0000
  H   H16       1.0  0.48929  0.15879  0.24253  1.0000
  H   H17       1.0  0.49077  0.22231  0.23939  1.0000
  H   H18       1.0  0.62051  0.28473  0.22416  1.0000
  C   C43       1.0  0.58996  0.14887  0.23895  1.0000
  C   C44       1.0  0.62819  0.18357  0.23651  1.0000
  C   C45       1.0  0.66388  0.18315  0.23992  1.0000
  C   C46       1.0  0.69978  0.21823  0.24137  1.0000
  C   C47       1.0  0.70212  0.25566  0.23854  1.0000
  C   C48       1.0  0.66686  0.25558  0.23182  1.0000
  C   C49       1.0  0.62930  0.22072  0.23252  1.0000
  O   O7        1.0  0.58141  0.10994  0.24357  1.0000
  H   H19       1.0  0.66223  0.15473  0.24526  1.0000
  H   H20       1.0  0.72584  0.21669  0.25027  1.0000
  H   H21       1.0  0.66833  0.28383  0.22627  1.0000
  C   C50       1.0  0.56027  0.40937  0.25405  1.0000
  C   C51       1.0  0.55816  0.37158  0.24503  1.0000
  C   C52       1.0  0.52274  0.33555  0.23446  1.0000
  C   C53       1.0  0.52265  0.29958  0.22643  1.0000
  C   C54       1.0  0.55776  0.29766  0.22977  1.0000
  C   C55       1.0  0.59314  0.33364  0.23653  1.0000
  C   C56       1.0  0.59499  0.37106  0.24372  1.0000
  O   O8        1.0  0.52928  0.41726  0.25403  1.0000
  H   H22       1.0  0.49583  0.33669  0.23027  1.0000
  H   H23       1.0  0.49517  0.27252  0.21552  1.0000
  H   H24       1.0  0.61994  0.33279  0.24222  1.0000
  C   C57       1.0  0.85052  0.43815  0.25121  1.0000
  C   C58       1.0  0.81555  0.44137  0.25326  1.0000
  C   C59       1.0  0.81583  0.47786  0.25494  1.0000
  C   C60       1.0  0.78035  0.47875  0.25841  1.0000
  C   C61       1.0  0.74262  0.44328  0.25955  1.0000
  C   C62       1.0  0.74286  0.40734  0.25745  1.0000
  C   C63       1.0  0.77806  0.40480  0.25435  1.0000
  O   O9        1.0  0.88906  0.46898  0.25533  1.0000
  H   H25       1.0  0.84448  0.50526  0.25449  1.0000
  H   H26       1.0  0.78188  0.50742  0.25893  1.0000
  H   H27       1.0  0.71445  0.37982  0.25819  1.0000
  C   C64       1.0  0.40343  0.84832  0.25836  1.0000
  C   C65       1.0  0.36723  0.81257  0.25117  1.0000
  C   C66       1.0  0.33041  0.81104  0.24934  1.0000
  C   C67       1.0  0.29591  0.77503  0.24390  1.0000
  C   C68       1.0  0.29646  0.73855  0.23920  1.0000
  C   C69       1.0  0.33315  0.74054  0.24140  1.0000
  C   C70       1.0  0.36903  0.77640  0.24691  1.0000
  O   O10       1.0  0.40898  0.88670  0.26437  1.0000
  H   H28       1.0  0.32991  0.83881  0.25091  1.0000
  H   H29       1.0  0.26851  0.77516  0.23990  1.0000
  H   H30       1.0  0.33404  0.71304  0.23967  1.0000
  C   C71       1.0  0.44734  0.59607  0.24913  1.0000
  C   C72       1.0  0.44858  0.63306  0.24907  1.0000
  C   C73       1.0  0.48478  0.67017  0.24339  1.0000
  C   C74       1.0  0.48362  0.70516  0.24480  1.0000
  C   C75       1.0  0.44595  0.70522  0.25490  1.0000
  C   C76       1.0  0.41000  0.66824  0.26311  1.0000
  C   C77       1.0  0.40998  0.63172  0.25768  1.0000
  O   O11       1.0  0.47961  0.58967  0.24747  1.0000
  H   H31       1.0  0.51361  0.67061  0.23814  1.0000
  H   H32       1.0  0.51239  0.73305  0.23822  1.0000
  H   H33       1.0  0.38070  0.66759  0.27245  1.0000
  C   C78       1.0  0.15097  0.55306  0.25530  1.0000
  C   C79       1.0  0.18661  0.55184  0.25689  1.0000
  C   C80       1.0  0.18748  0.51633  0.26152  1.0000
  C   C81       1.0  0.22373  0.51729  0.25956  1.0000
  C   C82       1.0  0.26080  0.55374  0.25597  1.0000
  C   C83       1.0  0.25927  0.58875  0.25321  1.0000
  C   C84       1.0  0.22353  0.58940  0.25219  1.0000
  O   O12       1.0  0.11269  0.52102  0.25370  1.0000
  H   H34       1.0  0.15910  0.48821  0.26562  1.0000
  H   H35       1.0  0.22315  0.48927  0.26272  1.0000
  H   H36       1.0  0.28707  0.61697  0.25191  1.0000
  B   B1        1.0  0.08848  0.53798  0.25073  1.0000
  B   B2        1.0  0.46146  0.54808  0.25555  1.0000
  B   B3        1.0  0.45019  0.91140  0.26813  1.0000
  B   B4        1.0  0.91288  0.45041  0.24936  1.0000
  B   B5        1.0  0.54756  0.45901  0.25682  1.0000
  B   B6        1.0  0.53894  0.08671  0.24946  1.0000
  C   C85       1.0  0.14995  0.59512  0.75225  1.0000
  C   C86       1.0  0.18617  0.63239  0.74631  1.0000
  C   C87       1.0  0.18814  0.66913  0.73817  1.0000
  C   C88       1.0  0.22462  0.70445  0.73255  1.0000
  C   C89       1.0  0.26115  0.70510  0.73553  1.0000
  C   C90       1.0  0.25926  0.66847  0.73927  1.0000
  C   C91       1.0  0.22290  0.63170  0.74496  1.0000
  O   O13       1.0  0.11123  0.58821  0.75282  1.0000
  H   H37       1.0  0.16057  0.66900  0.73409  1.0000
  H   H38       1.0  0.22511  0.73199  0.72323  1.0000
  H   H39       1.0  0.28665  0.66825  0.74282  1.0000
  C   C92       1.0  0.40544  0.55761  0.75330  1.0000
  C   C93       1.0  0.36800  0.55573  0.75398  1.0000
  C   C94       1.0  0.33157  0.51986  0.75124  1.0000
  C   C95       1.0  0.29587  0.52015  0.75394  1.0000
  C   C96       1.0  0.29473  0.55624  0.75763  1.0000
  C   C97       1.0  0.33120  0.59161  0.75966  1.0000
  C   C98       1.0  0.36825  0.59298  0.75819  1.0000
  O   O14       1.0  0.41178  0.52594  0.75706  1.0000
  H   H40       1.0  0.33216  0.49201  0.74790  1.0000
  H   H41       1.0  0.26839  0.49191  0.75217  1.0000
  H   H42       1.0  0.33125  0.61962  0.76193  1.0000
  C   C99       1.0  0.44281  0.85071  0.76223  1.0000
  C   C100      1.0  0.44529  0.81542  0.75852  1.0000
  C   C101      1.0  0.48048  0.81471  0.76479  1.0000
  C   C102      1.0  0.48036  0.77909  0.76381  1.0000
  C   C103      1.0  0.44534  0.74218  0.75375  1.0000
  C   C104      1.0  0.41117  0.74336  0.74368  1.0000
  C   C105      1.0  0.40915  0.77876  0.74914  1.0000
  O   O15       1.0  0.47379  0.88951  0.76759  1.0000
  H   H43       1.0  0.50709  0.84277  0.77562  1.0000
  H   H44       1.0  0.50685  0.77973  0.77801  1.0000
  H   H45       1.0  0.38477  0.71563  0.73022  1.0000
  C   C106      1.0  0.84929  0.40940  0.74888  1.0000
  C   C107      1.0  0.81414  0.37174  0.74926  1.0000
  C   C108      1.0  0.81405  0.33541  0.74913  1.0000
  C   C109      1.0  0.77880  0.29962  0.74767  1.0000
  C   C110      1.0  0.74183  0.29821  0.74554  1.0000
  C   C111      1.0  0.74193  0.33447  0.74953  1.0000
  C   C112      1.0  0.77685  0.37167  0.75207  1.0000
  O   O16       1.0  0.88826  0.41694  0.74754  1.0000
  H   H46       1.0  0.84196  0.33609  0.75274  1.0000
  H   H47       1.0  0.77973  0.27231  0.74972  1.0000
  H   H48       1.0  0.71415  0.33413  0.74698  1.0000
  C   C113      1.0  0.58931  0.44214  0.76092  1.0000
  C   C114      1.0  0.62661  0.44474  0.76412  1.0000
  C   C115      1.0  0.66175  0.48090  0.77507  1.0000
  C   C116      1.0  0.69742  0.48118  0.77509  1.0000
  C   C117      1.0  0.70013  0.44546  0.76373  1.0000
  C   C118      1.0  0.66483  0.40985  0.75486  1.0000
  C   C119      1.0  0.62764  0.40789  0.75541  1.0000
  O   O17       1.0  0.58185  0.47341  0.76155  1.0000
  H   H49       1.0  0.66011  0.50852  0.78399  1.0000
  H   H50       1.0  0.72361  0.50954  0.78589  1.0000
  H   H51       1.0  0.66606  0.38211  0.74601  1.0000
  C   C120      1.0  0.55825  0.15106  0.74260  1.0000
  C   C121      1.0  0.55599  0.18603  0.73961  1.0000
  C   C122      1.0  0.51974  0.18623  0.73982  1.0000
  C   C123      1.0  0.51982  0.22161  0.73727  1.0000
  C   C124      1.0  0.55624  0.25876  0.73342  1.0000
  C   C125      1.0  0.59195  0.25808  0.73333  1.0000
  C   C126      1.0  0.59341  0.22292  0.73653  1.0000
  O   O18       1.0  0.52611  0.11224  0.74882  1.0000
  H   H52       1.0  0.49180  0.15801  0.74058  1.0000
  H   H53       1.0  0.49165  0.22051  0.73434  1.0000
  H   H54       1.0  0.62024  0.28610  0.72944  1.0000
  C   C127      1.0  0.59396  0.15136  0.74036  1.0000
  C   C128      1.0  0.63188  0.18667  0.73650  1.0000
  C   C129      1.0  0.66886  0.18740  0.73411  1.0000
  C   C130      1.0  0.70444  0.22306  0.73372  1.0000
  C   C131      1.0  0.70473  0.25992  0.73777  1.0000
  C   C132      1.0  0.66826  0.25867  0.73632  1.0000
  C   C133      1.0  0.63144  0.22323  0.73537  1.0000
  O   O19       1.0  0.58647  0.11272  0.74386  1.0000
  H   H55       1.0  0.66846  0.15936  0.73578  1.0000
  H   H56       1.0  0.73180  0.22238  0.73588  1.0000
  H   H57       1.0  0.66809  0.28649  0.73717  1.0000
  C   C134      1.0  0.55472  0.40671  0.75572  1.0000
  C   C135      1.0  0.55386  0.36943  0.74646  1.0000
  C   C136      1.0  0.51930  0.33270  0.73447  1.0000
  C   C137      1.0  0.52069  0.29738  0.72542  1.0000
  C   C138      1.0  0.55624  0.29668  0.73079  1.0000
  C   C139      1.0  0.59061  0.33331  0.73953  1.0000
  C   C140      1.0  0.59124  0.37012  0.74568  1.0000
  O   O20       1.0  0.52292  0.41367  0.75668  1.0000
  H   H58       1.0  0.49200  0.33280  0.72904  1.0000
  H   H59       1.0  0.49411  0.26981  0.71152  1.0000
  H   H60       1.0  0.61773  0.33358  0.74722  1.0000
  C   C141      1.0  0.84870  0.44450  0.75165  1.0000
  C   C142      1.0  0.81303  0.44639  0.75331  1.0000
  C   C143      1.0  0.81207  0.48225  0.75503  1.0000
  C   C144      1.0  0.77591  0.48193  0.75922  1.0000
  C   C145      1.0  0.73880  0.44581  0.76055  1.0000
  C   C146      1.0  0.74023  0.41045  0.75847  1.0000
  C   C147      1.0  0.77622  0.40914  0.75434  1.0000
  O   O21       1.0  0.88703  0.47615  0.75436  1.0000
  H   H61       1.0  0.84030  0.51013  0.75432  1.0000
  H   H62       1.0  0.77639  0.51017  0.76061  1.0000
  H   H63       1.0  0.71205  0.38246  0.76103  1.0000
  C   C148      1.0  0.40776  0.85072  0.76053  1.0000
  C   C149      1.0  0.37101  0.81564  0.75334  1.0000
  C   C150      1.0  0.33486  0.81550  0.75168  1.0000
  C   C151      1.0  0.29979  0.78011  0.74576  1.0000
  C   C152      1.0  0.29902  0.74296  0.74053  1.0000
  C   C153      1.0  0.33522  0.74363  0.74190  1.0000
  C   C154      1.0  0.37169  0.77883  0.74762  1.0000
  O   O22       1.0  0.41434  0.88940  0.76611  1.0000
  H   H64       1.0  0.33533  0.84380  0.75383  1.0000
  H   H65       1.0  0.27289  0.78120  0.74180  1.0000
  H   H66       1.0  0.33539  0.71567  0.73860  1.0000
  C   C155      1.0  0.44140  0.59266  0.74969  1.0000
  C   C156      1.0  0.44400  0.63033  0.75095  1.0000
  C   C157      1.0  0.48088  0.66665  0.74706  1.0000
  C   C158      1.0  0.48133  0.70243  0.74804  1.0000
  C   C159      1.0  0.44463  0.70392  0.75616  1.0000
  C   C160      1.0  0.40777  0.66768  0.76480  1.0000
  C   C161      1.0  0.40616  0.63043  0.75919  1.0000
  O   O23       1.0  0.47275  0.58509  0.74853  1.0000
  H   H67       1.0  0.50892  0.66593  0.74364  1.0000
  H   H68       1.0  0.51055  0.72973  0.74301  1.0000
  H   H69       1.0  0.37898  0.66818  0.77471  1.0000
  C   C162      1.0  0.14934  0.55966  0.75350  1.0000
  C   C163      1.0  0.18410  0.55707  0.75604  1.0000
  C   C164      1.0  0.18369  0.52093  0.76093  1.0000
  C   C165      1.0  0.21903  0.52067  0.76123  1.0000
  C   C166      1.0  0.25667  0.55649  0.75822  1.0000
  C   C167      1.0  0.25649  0.59210  0.75478  1.0000
  C   C168      1.0  0.22158  0.59395  0.75232  1.0000
  O   O24       1.0  0.11070  0.52844  0.75168  1.0000
  H   H70       1.0  0.15501  0.49330  0.76353  1.0000
  H   H71       1.0  0.21753  0.49225  0.76493  1.0000
  H   H72       1.0  0.28466  0.61986  0.75408  1.0000
  B   B7        1.0  0.08731  0.54657  0.75048  1.0000
  B   B8        1.0  0.45375  0.54337  0.75452  1.0000
  B   B9        1.0  0.45571  0.91328  0.76916  1.0000
  B   B10       1.0  0.91146  0.45867  0.75165  1.0000
  B   B11       1.0  0.54047  0.45533  0.75838  1.0000
  B   B12       1.0  0.54402  0.08866  0.75008  1.0000
  C  Sn1       1.0  0.99592  0.52140  0.18992  1.0000
  C   C169      1.0  0.96952  0.48031  0.19538  1.0000
  C  Sn2       1.0  0.97771  0.45499  0.24701  1.0000
  C  Sn3       1.0  0.01299  0.47107  0.29430  1.0000
  C   C170      1.0  0.03936  0.51214  0.28887  1.0000
  C  Sn4       1.0  0.03120  0.53748  0.23722  1.0000
  O  Te1       1.0  0.98713  0.54615  0.13792  1.0000
  O  Te2       1.0  0.95087  0.41401  0.25136  1.0000
  O  Te3       1.0  0.02176  0.44628  0.34633  1.0000
  O  Te4       1.0  0.05801  0.57844  0.23288  1.0000
  Mg  Mg1       1.0  0.97598  0.39250  0.33123  1.0000
  Mg  Mg2       1.0  0.03292  0.59998  0.15314  1.0000
  C  Sn5       1.0  0.48371  0.46428  0.19574  1.0000
  C   C171      1.0  0.52424  0.47925  0.20050  1.0000
  C  Sn6       1.0  0.54393  0.51885  0.25372  1.0000
  C  Sn7       1.0  0.52266  0.54402  0.30336  1.0000
  C   C172      1.0  0.48215  0.52906  0.29862  1.0000
  C  Sn8       1.0  0.46244  0.48945  0.24538  1.0000
  O  Te5       1.0  0.46463  0.42459  0.14211  1.0000
  O  Te6       1.0  0.58447  0.53314  0.25734  1.0000
  O  Te7       1.0  0.54178  0.58374  0.35701  1.0000
  O  Te8       1.0  0.42192  0.47517  0.24178  1.0000
  Mg  Mg3       1.0  0.59726  0.58936  0.34007  1.0000
  Mg  Mg4       1.0  0.40909  0.41894  0.15918  1.0000
  C  Sn9       1.0  0.54062  0.01096  0.19853  1.0000
  C   C173      1.0  0.52438  0.03630  0.20246  1.0000
  C  Sn10      1.0  0.47821  0.02208  0.25951  1.0000
  C  Sn11      1.0  0.95032  0.98169  0.31389  1.0000
  C   C174      1.0  0.96655  0.95637  0.30997  1.0000
  C  Sn12      1.0  0.01273  0.97057  0.25290  1.0000
  O  Te9       1.0  0.58692  0.02581  0.14102  1.0000
  O  Te10      1.0  0.46279  0.04798  0.26222  1.0000
  O  Te11      1.0  0.90399  0.96684  0.37141  1.0000
  O  Te12      1.0  0.02815  0.94469  0.25021  1.0000
  Mg  Mg5       1.0  0.39666  0.01373  0.35141  1.0000
  Mg  Mg6       1.0  0.09426  0.97892  0.16115  1.0000
  C  Sn13      1.0  0.01872  0.47508  0.68750  1.0000
  C   C175      1.0  0.04379  0.51621  0.69235  1.0000
  C  Sn14      1.0  0.02329  0.54160  0.74534  1.0000
  C  Sn15      1.0  0.97675  0.52555  0.79464  1.0000
  C   C176      1.0  0.95171  0.48444  0.78982  1.0000
  C  Sn16      1.0  0.97218  0.45903  0.73681  1.0000
  O  Te13      1.0  0.03991  0.45026  0.63411  1.0000
  O  Te14      1.0  0.04905  0.58262  0.74905  1.0000
  O  Te15      1.0  0.95557  0.55041  0.84805  1.0000
  O  Te16      1.0  0.94644  0.41804  0.73312  1.0000
  Mg  Mg7       1.0  0.00491  0.60423  0.83137  1.0000
  Mg  Mg8       1.0  0.99053  0.39640  0.65093  1.0000
  C  Sn17      1.0  0.53199  0.53855  0.69482  1.0000
  C   C177      1.0  0.49010  0.52328  0.70135  1.0000
  C  Sn18      1.0  0.45822  0.48381  0.75501  1.0000
  C  Sn19      1.0  0.46842  0.45908  0.80327  1.0000
  C   C178      1.0  0.51029  0.47435  0.79675  1.0000
  C  Sn20      1.0  0.54219  0.51383  0.74307  1.0000
  O  Te17      1.0  0.56334  0.57810  0.64078  1.0000
  O  Te18      1.0  0.41658  0.46921  0.76041  1.0000
  O  Te19      1.0  0.43703  0.41950  0.85732  1.0000
  O  Te20      1.0  0.58381  0.52842  0.73769  1.0000
  Mg  Mg9       1.0  0.38498  0.41334  0.84302  1.0000
  Mg  Mg10      1.0  0.61542  0.58430  0.65521  1.0000
  C  Sn21      1.0  0.46423  0.01273  0.82733  1.0000
  C   C179      1.0  0.50664  0.03891  0.81548  1.0000
  C  Sn22      1.0  0.53861  0.02497  0.76150  1.0000
  C  Sn23      1.0  0.03070  0.98402  0.71833  1.0000
  C   C180      1.0  0.98832  0.95788  0.73015  1.0000
  C  Sn24      1.0  0.95632  0.97179  0.78416  1.0000
  O  Te21      1.0  0.43279  0.02732  0.88158  1.0000
  O  Te22      1.0  0.58078  0.05171  0.75074  1.0000
  O  Te23      1.0  0.06218  0.96945  0.66405  1.0000
  O  Te24      1.0  0.91418  0.94508  0.79489  1.0000
  Mg  Mg11      1.0  0.61230  0.01753  0.67005  1.0000
  Mg  Mg12      1.0  0.88265  0.97923  0.87546  1.0000
