data_image0
_chemical_formula_structural       B6C7OH3C7OH3C7OH3C7OH3C7OH3C7OH3C7OH3C7OH3C7OH3C7OH3C7OH3C7OH3B6C7OH3C7OH3C7OH3C7OH3C7OH3C7OH3C7OH3C7OH3C7OH3C7OH3C7OH3C7OH3C2Sn2C2HTe2HMgC2Sn2C2HTe2HMgC2Sn2C2HTe2HMgC2Sn2C2HTe2HMgC2Sn2C2HTe2HMgC2Sn2C2HTe2HMgC2Sn2C2HTe2HMgC2Sn2C2HTe2HMgC2Sn2C2HTe2HMgC2Sn2C2HTe2HMgC2Sn2C2HTe2HMgC2Sn2C2HTe2HMg
_chemical_formula_sum              "B12 C216 O24 H96 Sn24 Te24 Mg12"
_cell_length_a       46.3629
_cell_length_b       46.2781
_cell_length_c       7.99625
_cell_angle_alpha    104.78
_cell_angle_beta     107.16
_cell_angle_gamma    119.931

_symmetry_space_group_name_H-M    'P1'
_space_group_IT_number       1

loop_
  _space_group_symop_operation_xyz
  'x, y, z'

loop_
  _atom_site_type_symbol
  _atom_site_label
  _atom_site_symmetry_multiplicity
  _atom_site_fract_x
  _atom_site_fract_y
  _atom_site_fract_z
  _atom_site_occupancy
  B   B1        1.0  0.14160  0.57565  0.26420  1.0000
  B   B2        1.0  0.44579  0.56859  0.25721  1.0000
  B   B3        1.0  0.45075  0.87990  0.24245  1.0000
  B   B4        1.0  0.88410  0.44534  0.23548  1.0000
  B   B5        1.0  0.57464  0.44208  0.25673  1.0000
  B   B6        1.0  0.57898  0.13553  0.24806  1.0000
  C   C1        1.0  0.19368  0.61571  0.25869  1.0000
  C   C2        1.0  0.22329  0.64679  0.25665  1.0000
  C   C3        1.0  0.22282  0.67623  0.24090  1.0000
  C   C4        1.0  0.25258  0.70549  0.23812  1.0000
  C   C5        1.0  0.28483  0.70737  0.25467  1.0000
  C   C6        1.0  0.28523  0.67832  0.27347  1.0000
  C   C7        1.0  0.25524  0.64742  0.27177  1.0000
  O   O1        1.0  0.16052  0.60917  0.24948  1.0000
  H   H1        1.0  0.19836  0.67530  0.22911  1.0000
  H   H2        1.0  0.25072  0.72708  0.21990  1.0000
  H   H3        1.0  0.31033  0.68003  0.29396  1.0000
  C   C8        1.0  0.40613  0.58178  0.26098  1.0000
  C   C9        1.0  0.37550  0.58096  0.26565  1.0000
  C   C10       1.0  0.34666  0.55283  0.28415  1.0000
  C   C11       1.0  0.31818  0.55442  0.29429  1.0000
  C   C12       1.0  0.31649  0.58350  0.28028  1.0000
  C   C13       1.0  0.34497  0.61081  0.25799  1.0000
  C   C14       1.0  0.37539  0.61141  0.25517  1.0000
  O   O2        1.0  0.41189  0.55529  0.26579  1.0000
  H   H4        1.0  0.34767  0.53038  0.29488  1.0000
  H   H5        1.0  0.29739  0.53320  0.31721  1.0000
  H   H6        1.0  0.34381  0.63293  0.24399  1.0000
  C   C15       1.0  0.43761  0.82633  0.23305  1.0000
  C   C16       1.0  0.43820  0.79578  0.22600  1.0000
  C   C17       1.0  0.46749  0.79419  0.21944  1.0000
  C   C18       1.0  0.46706  0.76415  0.22015  1.0000
  C   C19       1.0  0.43738  0.73407  0.22751  1.0000
  C   C20       1.0  0.40800  0.73552  0.22834  1.0000
  C   C21       1.0  0.40697  0.76534  0.22681  1.0000
  O   O3        1.0  0.46488  0.85910  0.23856  1.0000
  H   H7        1.0  0.49042  0.81713  0.21411  1.0000
  H   H8        1.0  0.49014  0.76401  0.21509  1.0000
  H   H9        1.0  0.38495  0.71287  0.23358  1.0000
  C   C22       1.0  0.83207  0.40436  0.23800  1.0000
  C   C23       1.0  0.80349  0.37352  0.24587  1.0000
  C   C24       1.0  0.80567  0.34530  0.26886  1.0000
  C   C25       1.0  0.77647  0.31566  0.27225  1.0000
  C   C26       1.0  0.74286  0.31183  0.24635  1.0000
  C   C27       1.0  0.74112  0.34003  0.22443  1.0000
  C   C28       1.0  0.77097  0.37181  0.22957  1.0000
  O   O4        1.0  0.86539  0.41151  0.24736  1.0000
  H   H10       1.0  0.83103  0.34772  0.28547  1.0000
  H   H11       1.0  0.77963  0.29515  0.29705  1.0000
  H   H12       1.0  0.71523  0.33704  0.19907  1.0000
  C   C29       1.0  0.61616  0.43161  0.25061  1.0000
  C   C30       1.0  0.64729  0.43365  0.24453  1.0000
  C   C31       1.0  0.67738  0.46390  0.24161  1.0000
  C   C32       1.0  0.70649  0.46359  0.23171  1.0000
  C   C33       1.0  0.70662  0.43249  0.21942  1.0000
  C   C34       1.0  0.67684  0.40288  0.22437  1.0000
  C   C35       1.0  0.64717  0.40235  0.23994  1.0000
  O   O5        1.0  0.60971  0.45803  0.25707  1.0000
  H   H13       1.0  0.67705  0.48739  0.24550  1.0000
  H   H14       1.0  0.72925  0.48749  0.23101  1.0000
  H   H15       1.0  0.67602  0.37858  0.21222  1.0000
  C   C36       1.0  0.59181  0.18958  0.26790  1.0000
  C   C37       1.0  0.59102  0.22026  0.28262  1.0000
  C   C38       1.0  0.56245  0.22202  0.30037  1.0000
  C   C39       1.0  0.56227  0.25186  0.30216  1.0000
  C   C40       1.0  0.59062  0.28158  0.28657  1.0000
  C   C41       1.0  0.61976  0.28039  0.27852  1.0000
  C   C42       1.0  0.62119  0.25063  0.27591  1.0000
  O   O6        1.0  0.56560  0.15693  0.26689  1.0000
  H   H16       1.0  0.54041  0.19936  0.31136  1.0000
  H   H17       1.0  0.53984  0.25219  0.31625  1.0000
  H   H18       1.0  0.64194  0.30296  0.26859  1.0000
  C   C43       1.0  0.61945  0.18812  0.24721  1.0000
  C   C44       1.0  0.65019  0.21742  0.24210  1.0000
  C   C45       1.0  0.67895  0.21648  0.22141  1.0000
  C   C46       1.0  0.70834  0.24645  0.22032  1.0000
  C   C47       1.0  0.71094  0.27922  0.24242  1.0000
  C   C48       1.0  0.68216  0.27965  0.26175  1.0000
  C   C49       1.0  0.65118  0.24953  0.25911  1.0000
  O   O7        1.0  0.61226  0.15447  0.23263  1.0000
  H   H19       1.0  0.67729  0.19154  0.20429  1.0000
  H   H20       1.0  0.72954  0.24450  0.19937  1.0000
  H   H21       1.0  0.68427  0.30490  0.28423  1.0000
  C   C50       1.0  0.58688  0.40148  0.24895  1.0000
  C   C51       1.0  0.58576  0.37055  0.25088  1.0000
  C   C52       1.0  0.55681  0.34079  0.26141  1.0000
  C   C53       1.0  0.55840  0.31233  0.27305  1.0000
  C   C54       1.0  0.58882  0.31199  0.27276  1.0000
  C   C55       1.0  0.61687  0.34130  0.25795  1.0000
  C   C56       1.0  0.61672  0.37108  0.24732  1.0000
  O   O8        1.0  0.56006  0.40674  0.25071  1.0000
  H   H22       1.0  0.53379  0.34121  0.26546  1.0000
  H   H23       1.0  0.53615  0.29039  0.28607  1.0000
  H   H24       1.0  0.64049  0.34169  0.25855  1.0000
  C   C57       1.0  0.82976  0.43175  0.21687  1.0000
  C   C58       1.0  0.79891  0.43218  0.20521  1.0000
  C   C59       1.0  0.79615  0.46038  0.18625  1.0000
  C   C60       1.0  0.76600  0.45985  0.18476  1.0000
  C   C61       1.0  0.73739  0.43164  0.20616  1.0000
  C   C62       1.0  0.73998  0.40338  0.22003  1.0000
  C   C63       1.0  0.76937  0.40193  0.21584  1.0000
  O   O9        1.0  0.86191  0.45806  0.21445  1.0000
  H   H25       1.0  0.81804  0.48238  0.17151  1.0000
  H   H26       1.0  0.76443  0.48154  0.16593  1.0000
  H   H27       1.0  0.71898  0.38198  0.24095  1.0000
  C   C64       1.0  0.40877  0.82730  0.23739  1.0000
  C   C65       1.0  0.37753  0.79843  0.24154  1.0000
  C   C66       1.0  0.34896  0.80020  0.25834  1.0000
  C   C67       1.0  0.31986  0.77152  0.26733  1.0000
  C   C68       1.0  0.31688  0.73884  0.25301  1.0000
  C   C69       1.0  0.34535  0.73740  0.23589  1.0000
  C   C70       1.0  0.37643  0.76656  0.23415  1.0000
  O   O10       1.0  0.41574  0.86028  0.24144  1.0000
  H   H28       1.0  0.35066  0.82485  0.26624  1.0000
  H   H29       1.0  0.29921  0.77457  0.28795  1.0000
  H   H30       1.0  0.34327  0.71243  0.22225  1.0000
  C   C71       1.0  0.43496  0.61001  0.25075  1.0000
  C   C72       1.0  0.43718  0.64146  0.24646  1.0000
  C   C73       1.0  0.46719  0.67130  0.24137  1.0000
  C   C74       1.0  0.46740  0.70102  0.23627  1.0000
  C   C75       1.0  0.43762  0.70258  0.23647  1.0000
  C   C76       1.0  0.40834  0.67306  0.24443  1.0000
  C   C77       1.0  0.40664  0.64205  0.24835  1.0000
  O   O11       1.0  0.46050  0.60278  0.24749  1.0000
  H   H31       1.0  0.48994  0.67023  0.23849  1.0000
  H   H32       1.0  0.49067  0.72311  0.22909  1.0000
  H   H33       1.0  0.38551  0.67383  0.24725  1.0000
  C   C78       1.0  0.19466  0.58734  0.27377  1.0000
  C   C79       1.0  0.22517  0.58623  0.28728  1.0000
  C   C80       1.0  0.22628  0.55693  0.30066  1.0000
  C   C81       1.0  0.25579  0.55634  0.30078  1.0000
  C   C82       1.0  0.28616  0.58534  0.29180  1.0000
  C   C83       1.0  0.28586  0.61539  0.29052  1.0000
  C   C84       1.0  0.25605  0.61687  0.28563  1.0000
  O   O12       1.0  0.16220  0.56126  0.27415  1.0000
  H   H34       1.0  0.20322  0.53456  0.30790  1.0000
  H   H35       1.0  0.25524  0.53293  0.30695  1.0000
  H   H36       1.0  0.30938  0.63845  0.28966  1.0000
  B   B7        1.0  0.11548  0.55550  0.76243  1.0000
  B   B8        1.0  0.42524  0.55777  0.75779  1.0000
  B   B9        1.0  0.42091  0.86291  0.73428  1.0000
  B   B10       1.0  0.85862  0.42481  0.73930  1.0000
  B   B11       1.0  0.55460  0.43152  0.75085  1.0000
  B   B12       1.0  0.55015  0.11985  0.75766  1.0000
  C   C85       1.0  0.16732  0.59644  0.75855  1.0000
  C   C86       1.0  0.19617  0.62743  0.75261  1.0000
  C   C87       1.0  0.19478  0.65639  0.73557  1.0000
  C   C88       1.0  0.22408  0.68596  0.73222  1.0000
  C   C89       1.0  0.25707  0.68897  0.75177  1.0000
  C   C90       1.0  0.25803  0.66008  0.76832  1.0000
  C   C91       1.0  0.22810  0.62839  0.76307  1.0000
  O   O13       1.0  0.13470  0.58999  0.75700  1.0000
  H   H37       1.0  0.16986  0.65458  0.72299  1.0000
  H   H38       1.0  0.22144  0.70707  0.71252  1.0000
  H   H39       1.0  0.28336  0.66230  0.78849  1.0000
  C   C92       1.0  0.38379  0.56848  0.76147  1.0000
  C   C93       1.0  0.35261  0.56656  0.76545  1.0000
  C   C94       1.0  0.32257  0.53670  0.77065  1.0000
  C   C95       1.0  0.29307  0.53686  0.77485  1.0000
  C   C96       1.0  0.29222  0.56722  0.77701  1.0000
  C   C97       1.0  0.32196  0.59641  0.77006  1.0000
  C   C98       1.0  0.35231  0.59733  0.76276  1.0000
  O   O14       1.0  0.39050  0.54237  0.76064  1.0000
  H   H40       1.0  0.32315  0.51357  0.77238  1.0000
  H   H41       1.0  0.27053  0.51338  0.77882  1.0000
  H   H42       1.0  0.32196  0.61988  0.77142  1.0000
  C   C99       1.0  0.40901  0.81023  0.73199  1.0000
  C   C100      1.0  0.40982  0.77972  0.72177  1.0000
  C   C101      1.0  0.43826  0.77773  0.70409  1.0000
  C   C102      1.0  0.43816  0.74776  0.70222  1.0000
  C   C103      1.0  0.40975  0.71824  0.71851  1.0000
  C   C104      1.0  0.38080  0.71976  0.72736  1.0000
  C   C105      1.0  0.37950  0.74955  0.72855  1.0000
  O   O15       1.0  0.43524  0.84235  0.72957  1.0000
  H   H43       1.0  0.46021  0.80023  0.69195  1.0000
  H   H44       1.0  0.46037  0.74709  0.68718  1.0000
  H   H45       1.0  0.35850  0.69729  0.73728  1.0000
  C   C106      1.0  0.80605  0.38410  0.73898  1.0000
  C   C107      1.0  0.77664  0.35308  0.74213  1.0000
  C   C108      1.0  0.77747  0.32397  0.76059  1.0000
  C   C109      1.0  0.74757  0.29448  0.76148  1.0000
  C   C110      1.0  0.71504  0.29225  0.74184  1.0000
  C   C111      1.0  0.71445  0.32115  0.72230  1.0000
  C   C112      1.0  0.74446  0.35214  0.72487  1.0000
  O   O16       1.0  0.84007  0.39166  0.75745  1.0000
  H   H46       1.0  0.80228  0.32534  0.77579  1.0000
  H   H47       1.0  0.74950  0.27300  0.78070  1.0000
  H   H48       1.0  0.68907  0.31906  0.69877  1.0000
  C   C113      1.0  0.59443  0.41851  0.74769  1.0000
  C   C114      1.0  0.62511  0.41940  0.74296  1.0000
  C   C115      1.0  0.65468  0.44824  0.73141  1.0000
  C   C116      1.0  0.68297  0.44651  0.71917  1.0000
  C   C117      1.0  0.68330  0.41608  0.71964  1.0000
  C   C118      1.0  0.65408  0.38801  0.73502  1.0000
  C   C119      1.0  0.62452  0.38823  0.74578  1.0000
  O   O17       1.0  0.58895  0.44530  0.74649  1.0000
  H   H49       1.0  0.65462  0.47167  0.73051  1.0000
  H   H50       1.0  0.70488  0.46886  0.70650  1.0000
  H   H51       1.0  0.65358  0.36432  0.73417  1.0000
  C   C120      1.0  0.56373  0.17411  0.77513  1.0000
  C   C121      1.0  0.56314  0.20477  0.78410  1.0000
  C   C122      1.0  0.53452  0.20701  0.79709  1.0000
  C   C123      1.0  0.53472  0.23684  0.79407  1.0000
  C   C124      1.0  0.56315  0.26584  0.77566  1.0000
  C   C125      1.0  0.59194  0.26383  0.76867  1.0000
  C   C126      1.0  0.59355  0.23455  0.77551  1.0000
  O   O18       1.0  0.53714  0.14164  0.77460  1.0000
  H   H52       1.0  0.51232  0.18489  0.80979  1.0000
  H   H53       1.0  0.51258  0.23788  0.80759  1.0000
  H   H54       1.0  0.61378  0.28531  0.75196  1.0000
  C   C127      1.0  0.59141  0.17225  0.75841  1.0000
  C   C128      1.0  0.62215  0.20080  0.75025  1.0000
  C   C129      1.0  0.64992  0.19842  0.72580  1.0000
  C   C130      1.0  0.67906  0.22725  0.71782  1.0000
  C   C131      1.0  0.68281  0.26058  0.74093  1.0000
  C   C132      1.0  0.65494  0.26248  0.76367  1.0000
  C   C133      1.0  0.62371  0.23310  0.76368  1.0000
  O   O19       1.0  0.58412  0.13885  0.74846  1.0000
  H   H55       1.0  0.64765  0.17327  0.71142  1.0000
  H   H56       1.0  0.69922  0.22399  0.69167  1.0000
  H   H57       1.0  0.65784  0.28809  0.78508  1.0000
  C   C134      1.0  0.56506  0.38967  0.75222  1.0000
  C   C135      1.0  0.56246  0.35780  0.75177  1.0000
  C   C136      1.0  0.53195  0.32732  0.75098  1.0000
  C   C137      1.0  0.53179  0.29757  0.75522  1.0000
  C   C138      1.0  0.56237  0.29683  0.76240  1.0000
  C   C139      1.0  0.59196  0.32678  0.75828  1.0000
  C   C140      1.0  0.59321  0.35744  0.75142  1.0000
  O   O20       1.0  0.53951  0.39688  0.75600  1.0000
  H   H58       1.0  0.50871  0.32791  0.74914  1.0000
  H   H59       1.0  0.50790  0.27477  0.75568  1.0000
  H   H60       1.0  0.61568  0.32692  0.76385  1.0000
  C   C141      1.0  0.80418  0.41154  0.71532  1.0000
  C   C142      1.0  0.77337  0.41228  0.69931  1.0000
  C   C143      1.0  0.77148  0.44085  0.67971  1.0000
  C   C144      1.0  0.74213  0.44157  0.68176  1.0000
  C   C145      1.0  0.71301  0.41371  0.70218  1.0000
  C   C146      1.0  0.71400  0.38430  0.70964  1.0000
  C   C147      1.0  0.74326  0.38232  0.70827  1.0000
  O   O21       1.0  0.83679  0.43785  0.71668  1.0000
  H   H61       1.0  0.79377  0.46251  0.66538  1.0000
  H   H62       1.0  0.74184  0.46416  0.66795  1.0000
  H   H63       1.0  0.69196  0.36256  0.72421  1.0000
  C   C148      1.0  0.38071  0.81145  0.74404  1.0000
  C   C149      1.0  0.34984  0.78239  0.74972  1.0000
  C   C150      1.0  0.32061  0.78316  0.76455  1.0000
  C   C151      1.0  0.29133  0.75364  0.76857  1.0000
  C   C152      1.0  0.28907  0.72128  0.75402  1.0000
  C   C153      1.0  0.31830  0.72101  0.74028  1.0000
  C   C154      1.0  0.34926  0.75074  0.74085  1.0000
  O   O22       1.0  0.38734  0.84440  0.74803  1.0000
  H   H64       1.0  0.32181  0.80764  0.77454  1.0000
  H   H65       1.0  0.26997  0.75573  0.78613  1.0000
  H   H66       1.0  0.31685  0.69630  0.72542  1.0000
  C   C155      1.0  0.41268  0.59799  0.75752  1.0000
  C   C156      1.0  0.41370  0.62869  0.75175  1.0000
  C   C157      1.0  0.44258  0.65810  0.73906  1.0000
  C   C158      1.0  0.44123  0.68668  0.72725  1.0000
  C   C159      1.0  0.41118  0.68752  0.73002  1.0000
  C   C160      1.0  0.38304  0.65836  0.74487  1.0000
  C   C161      1.0  0.38285  0.62840  0.75491  1.0000
  O   O23       1.0  0.43942  0.59255  0.75695  1.0000
  H   H67       1.0  0.46543  0.65738  0.73448  1.0000
  H   H68       1.0  0.46346  0.70837  0.71296  1.0000
  H   H69       1.0  0.35986  0.65852  0.74695  1.0000
  C   C162      1.0  0.16864  0.56799  0.76920  1.0000
  C   C163      1.0  0.19924  0.56729  0.77937  1.0000
  C   C164      1.0  0.20171  0.53899  0.79869  1.0000
  C   C165      1.0  0.23206  0.53964  0.80373  1.0000
  C   C166      1.0  0.26099  0.56788  0.78404  1.0000
  C   C167      1.0  0.25852  0.59613  0.76858  1.0000
  C   C168      1.0  0.22916  0.59773  0.77184  1.0000
  O   O24       1.0  0.13642  0.54149  0.76990  1.0000
  H   H70       1.0  0.17962  0.51702  0.81257  1.0000
  H   H71       1.0  0.23359  0.51805  0.82429  1.0000
  H   H72       1.0  0.27982  0.61765  0.74958  1.0000
  C   C169      1.0  0.08162  0.57778  0.30508  1.0000
  C   C170      1.0  0.10196  0.56392  0.28829  1.0000
  C  Sn1       1.0  0.08739  0.52752  0.26393  1.0000
  C  Sn2       1.0  0.05179  0.50462  0.25624  1.0000
  C   C171      1.0  0.03164  0.51873  0.27304  1.0000
  C   C172      1.0  0.04649  0.55521  0.29743  1.0000
  H   H73       1.0  0.09310  0.60599  0.32385  1.0000
  O  Te1       1.0  0.10810  0.51412  0.24747  1.0000
  O  Te2       1.0  0.03656  0.46812  0.23193  1.0000
  H   H74       1.0  0.03072  0.56592  0.31030  1.0000
  Mg  Mg1       1.0  0.07547  0.46252  0.21637  1.0000
  C   C173      1.0  0.46033  0.49997  0.29506  1.0000
  C   C174      1.0  0.49065  0.50810  0.26019  1.0000
  C  Sn3       1.0  0.50969  0.53906  0.22847  1.0000
  C  Sn4       1.0  0.49810  0.56228  0.23187  1.0000
  C   C175      1.0  0.46775  0.55392  0.26703  1.0000
  C   C176      1.0  0.44889  0.52286  0.29852  1.0000
  H   H75       1.0  0.44575  0.47596  0.31954  1.0000
  O  Te3       1.0  0.53992  0.54677  0.19377  1.0000
  O  Te4       1.0  0.51664  0.59341  0.20070  1.0000
  H   H76       1.0  0.42543  0.51659  0.32564  1.0000
  Mg  Mg2       1.0  0.55624  0.59236  0.15942  1.0000
  C   C177      1.0  0.44941  0.93999  0.19515  1.0000
  C   C178      1.0  0.46395  0.92041  0.22401  1.0000
  C  Sn5       1.0  0.50168  0.93630  0.26688  1.0000
  C  Sn6       1.0  0.52522  0.97248  0.28109  1.0000
  C   C179      1.0  0.51042  0.99185  0.25211  1.0000
  C   C180      1.0  0.47262  0.97568  0.20922  1.0000
  H   H77       1.0  0.42017  0.92749  0.16207  1.0000
  O  Te5       1.0  0.51574  0.91635  0.29521  1.0000
  O  Te6       1.0  0.56304  0.98902  0.32384  1.0000
  H   H78       1.0  0.46138  0.99086  0.18701  1.0000
  Mg  Mg3       1.0  0.56914  0.95073  0.35023  1.0000
  C   C181      1.0  0.96629  0.51644  0.22648  1.0000
  C   C182      1.0  0.99319  0.50996  0.28011  1.0000
  C  Sn7       1.0  0.98426  0.47910  0.31351  1.0000
  C  Sn8       1.0  0.94769  0.45431  0.29266  1.0000
  C   C183      1.0  0.92096  0.46102  0.23881  1.0000
  C   C184      1.0  0.93021  0.49200  0.20581  1.0000
  H   H79       1.0  0.97343  0.54039  0.20084  1.0000
  O  Te7       1.0  0.01148  0.47304  0.36706  1.0000
  O  Te8       1.0  0.93800  0.42324  0.32508  1.0000
  H   H80       1.0  0.90936  0.49699  0.16416  1.0000
  Mg  Mg4       1.0  0.98479  0.42686  0.39542  1.0000
  C   C185      1.0  0.50856  0.43979  0.22439  1.0000
  C   C186      1.0  0.54505  0.45449  0.24864  1.0000
  C  Sn9       1.0  0.57034  0.49216  0.29116  1.0000
  C  Sn10      1.0  0.55881  0.51548  0.30971  1.0000
  C   C187      1.0  0.52226  0.50051  0.28532  1.0000
  C   C188      1.0  0.49717  0.46278  0.24274  1.0000
  H   H81       1.0  0.48916  0.41060  0.19155  1.0000
  O  Te9       1.0  0.60669  0.50639  0.31486  1.0000
  O  Te10      1.0  0.58352  0.55323  0.35220  1.0000
  H   H82       1.0  0.46893  0.45141  0.22410  1.0000
  Mg  Mg5       1.0  0.63011  0.55961  0.37144  1.0000
  C   C189      1.0  0.51111  0.05504  0.27780  1.0000
  C   C190      1.0  0.51830  0.02893  0.23187  1.0000
  C  Sn11      1.0  0.54864  0.03787  0.19585  1.0000
  C  Sn12      1.0  0.57218  0.07365  0.20616  1.0000
  C   C191      1.0  0.56478  0.09958  0.25236  1.0000
  C   C192      1.0  0.53433  0.09033  0.28808  1.0000
  H   H83       1.0  0.48757  0.04789  0.30555  1.0000
  O  Te11      1.0  0.05345  0.01145  0.15009  1.0000
  O  Te12      1.0  0.60271  0.08333  0.17090  1.0000
  H   H84       1.0  0.52879  0.11057  0.32376  1.0000
  Mg  Mg6       1.0  0.60043  0.03779  0.11399  1.0000
  C   C193      1.0  0.05450  0.55569  0.79874  1.0000
  C   C194      1.0  0.07508  0.54217  0.78085  1.0000
  C  Sn13      1.0  0.06046  0.50549  0.75164  1.0000
  C  Sn14      1.0  0.02457  0.48197  0.74013  1.0000
  C   C195      1.0  0.00420  0.49575  0.75807  1.0000
  C   C196      1.0  0.01909  0.53251  0.78733  1.0000
  H   H85       1.0  0.06601  0.58412  0.82127  1.0000
  O  Te13      1.0  0.08140  0.49243  0.73414  1.0000
  O  Te14      1.0  0.00930  0.44519  0.71095  1.0000
  H   H86       1.0  0.00314  0.54296  0.80104  1.0000
  Mg  Mg7       1.0  0.04860  0.44023  0.69583  1.0000
  C   C197      1.0  0.49080  0.55955  0.78732  1.0000
  C   C198      1.0  0.45318  0.54377  0.74640  1.0000
  C  Sn15      1.0  0.42860  0.50677  0.71428  1.0000
  C  Sn16      1.0  0.44202  0.48525  0.72343  1.0000
  C   C199      1.0  0.47972  0.50131  0.76460  1.0000
  C   C200      1.0  0.50407  0.53835  0.79645  1.0000
  H   H87       1.0  0.50965  0.58822  0.81207  1.0000
  O  Te15      1.0  0.39109  0.49143  0.67350  1.0000
  O  Te16      1.0  0.41807  0.44821  0.69199  1.0000
  H   H88       1.0  0.53320  0.55057  0.82825  1.0000
  Mg  Mg8       1.0  0.36934  0.43978  0.64129  1.0000
  C   C201      1.0  0.49495  0.94877  0.76503  1.0000
  C   C202      1.0  0.47842  0.96551  0.70931  1.0000
  C  Sn17      1.0  0.44045  0.94905  0.66326  1.0000
  C  Sn18      1.0  0.41869  0.91520  0.67336  1.0000
  C   C203      1.0  0.43549  0.89869  0.72940  1.0000
  C   C204      1.0  0.47351  0.91540  0.77511  1.0000
  H   H89       1.0  0.52438  0.96170  0.80050  1.0000
  O  Te17      1.0  0.42437  0.96614  0.60780  1.0000
  O  Te18      1.0  0.38067  0.89816  0.62819  1.0000
  H   H90       1.0  0.48631  0.90244  0.81837  1.0000
  Mg  Mg9       1.0  0.37151  0.93217  0.56024  1.0000
  C   C205      1.0  0.92813  0.43247  0.79898  1.0000
  C   C206      1.0  0.90275  0.44108  0.76268  1.0000
  C  Sn19      1.0  0.91078  0.47062  0.71826  1.0000
  C  Sn20      1.0  0.94488  0.49189  0.71008  1.0000
  C   C207      1.0  0.97008  0.48304  0.74648  1.0000
  C   C208      1.0  0.96176  0.45343  0.79086  1.0000
  H   H91       1.0  0.92169  0.40955  0.83321  1.0000
  O  Te19      1.0  0.88512  0.47885  0.68246  1.0000
  O  Te20      1.0  0.95361  0.52156  0.66594  1.0000
  H   H92       1.0  0.98141  0.44675  0.81883  1.0000
  Mg  Mg10      1.0  0.90966  0.52194  0.62842  1.0000
  C   C209      1.0  0.48551  0.44524  0.77319  1.0000
  C   C210      1.0  0.49658  0.47876  0.76483  1.0000
  C  Sn21      1.0  0.52765  0.49832  0.73572  1.0000
  C  Sn22      1.0  0.54793  0.48398  0.71458  1.0000
  C   C211      1.0  0.53661  0.45041  0.72302  1.0000
  C   C212      1.0  0.50549  0.43107  0.75227  1.0000
  H   H93       1.0  0.46142  0.43027  0.79571  1.0000
  O  Te21      1.0  0.53834  0.53178  0.72781  1.0000
  O  Te22      1.0  0.57908  0.50296  0.68526  1.0000
  H   H94       1.0  0.49691  0.40510  0.75861  1.0000
  Mg  Mg11      1.0  0.58271  0.54744  0.68524  1.0000
  C   C213      1.0  0.02974  0.03081  0.68493  1.0000
  C   C214      1.0  0.99954  0.01140  0.72010  1.0000
  C  Sn23      1.0  0.98190  0.02702  0.76527  1.0000
  C  Sn24      1.0  0.99480  0.06273  0.77524  1.0000
  C   C215      1.0  0.52698  0.08191  0.73967  1.0000
  C   C216      1.0  0.54443  0.06602  0.69466  1.0000
  H   H95       1.0  0.04323  0.01851  0.65000  1.0000
  O  Te23      1.0  0.95177  0.00726  0.80007  1.0000
  O  Te24      1.0  0.47964  0.07899  0.82000  1.0000
  H   H96       1.0  0.56780  0.08104  0.66730  1.0000
  Mg  Mg12      1.0  0.93764  0.04112  0.85571  1.0000
