data_image0
_chemical_formula_structural       C4NCHNCHNCHNCHNCHNCHNCHNCHNCHNCHNCHNCHNCHNCHNCHNCHC2Sn2C2HTe2HMgC2Sn2C2HTe2HMgC2Sn2C2HTe2HMgC2Sn2C2HTe2HMgC2Sn2C2HTe2HMgC2Sn2C2HTe2HMgC2Sn2C2HTe2HMgC2Sn2C2HTe2HMgC2Sn2C2HTe2HMgC2Sn2C2HTe2HMgC2Sn2C2HTe2HMgC2Sn2C2HTe2HMgC2Sn2C2HTe2HMgC2Sn2C2HTe2HMgC2Sn2C2HTe2HMgC2Sn2C2HTe2HMgC2Sn2C2HTe2HMgC2Sn2C2HTe2HMgC2Sn2C2HTe2HMgC2Sn2C2HTe2HMgC2Sn2C2HTe2HMgC2Sn2C2HTe2HMgC2Sn2C2HTe2HMgC2Sn2C2HTe2HMgC2Sn2C2HTe2HMgC2Sn2C2HTe2HMgC2Sn2C2HTe2HMgC2Sn2C2HTe2HMgC2Sn2C2HTe2HMgC2Sn2C2HTe2HMgC2Sn2C2HTe2HMgC2Sn2C2HTe2HMg
_chemical_formula_sum              "C148 N16 H80 Sn64 Te64 Mg32"
_cell_length_a       23.449
_cell_length_b       23.5026
_cell_length_c       8.68327
_cell_angle_alpha    89.437
_cell_angle_beta     89.895
_cell_angle_gamma    87.642

_symmetry_space_group_name_H-M    'P1'
_space_group_IT_number       1

loop_
  _space_group_symop_operation_xyz
  'x, y, z'

loop_
  _atom_site_type_symbol
  _atom_site_label
  _atom_site_symmetry_multiplicity
  _atom_site_fract_x
  _atom_site_fract_y
  _atom_site_fract_z
  _atom_site_occupancy
  C   C1        1.0  0.99724  0.25368  0.12503  1.0000
  C   C2        1.0  0.50358  0.75124  0.62476  1.0000
  C   C3        1.0  0.00127  0.75992  0.87439  1.0000
  C   C4        1.0  0.50026  0.25755  0.37500  1.0000
  N   N1        1.0  0.01829  0.40853  0.61306  1.0000
  C   C5        1.0  0.97607  0.42216  0.52264  1.0000
  H   H1        1.0  0.93195  0.41177  0.55037  1.0000
  N   N2        1.0  0.48528  0.90786  0.11571  1.0000
  C   C6        1.0  0.52867  0.91602  0.02710  1.0000
  H   H2        1.0  0.57217  0.90109  0.05876  1.0000
  N   N3        1.0  0.02032  0.09195  0.63870  1.0000
  C   C7        1.0  0.97804  0.08713  0.54476  1.0000
  H   H3        1.0  0.93555  0.10617  0.57037  1.0000
  N   N4        1.0  0.51755  0.59731  0.11835  1.0000
  C   C8        1.0  0.47364  0.58377  0.03870  1.0000
  H   H4        1.0  0.42942  0.59204  0.07743  1.0000
  N   N5        1.0  0.01577  0.90652  0.39683  1.0000
  C   C9        1.0  0.97244  0.92776  0.47216  1.0000
  H   H5        1.0  0.92880  0.92851  0.42584  1.0000
  N   N6        1.0  0.47708  0.41085  0.88345  1.0000
  C   C10       1.0  0.51875  0.42775  0.96649  1.0000
  H   H6        1.0  0.56357  0.42313  0.92990  1.0000
  N   N7        1.0  0.02535  0.59537  0.36071  1.0000
  C   C11       1.0  0.98286  0.59011  0.45459  1.0000
  H   H7        1.0  0.94016  0.60844  0.42717  1.0000
  N   N8        1.0  0.48243  0.09383  0.86397  1.0000
  C   C12       1.0  0.52458  0.08652  0.95914  1.0000
  H   H8        1.0  0.56689  0.10272  0.93322  1.0000
  N   N9        1.0  0.83796  0.27174  0.62067  1.0000
  C   C13       1.0  0.82801  0.22820  0.70778  1.0000
  H   H9        1.0  0.66449  0.18243  0.82845  1.0000
  N   N10       1.0  0.34582  0.76839  0.12983  1.0000
  C   C14       1.0  0.33632  0.72418  0.21467  1.0000
  H   H10       1.0  0.17929  0.68130  0.34681  1.0000
  N   N11       1.0  0.15048  0.26633  0.63836  1.0000
  C   C15       1.0  0.16997  0.22279  0.71664  1.0000
  H   H11       1.0  0.32639  0.18849  0.84802  1.0000
  N   N12       1.0  0.66119  0.73072  0.12652  1.0000
  C   C16       1.0  0.67131  0.77371  0.21284  1.0000
  H   H12       1.0  0.83543  0.69558  0.33000  1.0000
  N   N13       1.0  0.15195  0.76742  0.35382  1.0000
  C   C17       1.0  0.17665  0.72342  0.29054  1.0000
  H   H13       1.0  0.34976  0.68088  0.17982  1.0000
  N   N14       1.0  0.65697  0.27002  0.87459  1.0000
  C   C18       1.0  0.67060  0.22646  0.78990  1.0000
  H   H14       1.0  0.83820  0.18433  0.67139  1.0000
  N   N15       1.0  0.84503  0.78244  0.37391  1.0000
  C   C19       1.0  0.83038  0.74007  0.29046  1.0000
  H   H15       1.0  0.65846  0.81767  0.18013  1.0000
  N   N16       1.0  0.34987  0.27363  0.85326  1.0000
  C   C20       1.0  0.32717  0.23035  0.79084  1.0000
  H   H16       1.0  0.16624  0.17883  0.67746  1.0000
  C   C21       1.0  0.94594  0.35088  0.82710  1.0000
  C   C22       1.0  0.99368  0.37661  0.76543  1.0000
  C  Sn1       1.0  0.04812  0.36267  0.82309  1.0000
  C  Sn2       1.0  0.05474  0.32219  0.94472  1.0000
  C   C23       1.0  0.00724  0.30027  0.00555  1.0000
  C   C24       1.0  0.95243  0.31094  0.94702  1.0000
  H   H17       1.0  0.90394  0.36190  0.78176  1.0000
  O  Te1       1.0  0.09536  0.38879  0.76019  1.0000
  O  Te2       1.0  0.10918  0.31107  0.00448  1.0000
  H   H18       1.0  0.91548  0.29099  0.99473  1.0000
  Mg  Mg1       1.0  0.16001  0.35466  0.88057  1.0000
  C   C25       1.0  0.89387  0.20148  0.39127  1.0000
  C   C26       1.0  0.87024  0.24920  0.46647  1.0000
  C  Sn3       1.0  0.88165  0.30395  0.41393  1.0000
  C  Sn4       1.0  0.91739  0.31093  0.28363  1.0000
  C   C27       1.0  0.94079  0.26292  0.20914  1.0000
  C   C28       1.0  0.92910  0.20832  0.26271  1.0000
  H   H19       1.0  0.88481  0.15924  0.43266  1.0000
  O  Te3       1.0  0.85771  0.35116  0.49044  1.0000
  O  Te4       1.0  0.92947  0.36516  0.22865  1.0000
  H   H20       1.0  0.94738  0.17139  0.20441  1.0000
  Mg  Mg2       1.0  0.88681  0.41633  0.37192  1.0000
  C   C29       1.0  0.92481  0.46390  0.24892  1.0000
  C   C30       1.0  0.96915  0.44986  0.35153  1.0000
  C  Sn5       1.0  0.02553  0.46047  0.31199  1.0000
  C  Sn6       1.0  0.03762  0.48562  0.16698  1.0000
  C   C31       1.0  0.99296  0.49954  0.06518  1.0000
  C   C32       1.0  0.93670  0.48873  0.10589  1.0000
  H   H21       1.0  0.88127  0.45556  0.28044  1.0000
  O  Te5       1.0  0.06932  0.44616  0.41585  1.0000
  O  Te6       1.0  0.09359  0.49670  0.12456  1.0000
  H   H22       1.0  0.90238  0.49964  0.02646  1.0000
  Mg  Mg3       1.0  0.13866  0.46957  0.30541  1.0000
  C   C33       1.0  0.78849  0.17319  0.97568  1.0000
  C   C34       1.0  0.79934  0.21876  0.87678  1.0000
  C  Sn7       1.0  0.79272  0.27474  0.92861  1.0000
  C  Sn8       1.0  0.77545  0.28876  0.08239  1.0000
  C   C35       1.0  0.76474  0.24288  0.18047  1.0000
  C   C36       1.0  0.77148  0.18703  0.12739  1.0000
  H   H23       1.0  0.79373  0.12998  0.93465  1.0000
  O  Te7       1.0  0.80373  0.31977  0.82826  1.0000
  O  Te8       1.0  0.76852  0.34428  0.13720  1.0000
  H   H24       1.0  0.76311  0.15176  0.20402  1.0000
  Mg  Mg4       1.0  0.78818  0.38788  0.95661  1.0000
  C   C37       1.0  0.55437  0.85881  0.36068  1.0000
  C   C38       1.0  0.50698  0.87573  0.27154  1.0000
  C  Sn9       1.0  0.45311  0.85602  0.30755  1.0000
  C  Sn10      1.0  0.44669  0.81870  0.43526  1.0000
  C   C39       1.0  0.49436  0.80205  0.52379  1.0000
  C   C40       1.0  0.54807  0.82201  0.48670  1.0000
  H   H25       1.0  0.59592  0.87428  0.33205  1.0000
  O  Te9       1.0  0.40621  0.87333  0.21724  1.0000
  O  Te10      1.0  0.39333  0.79837  0.47385  1.0000
  H   H26       1.0  0.58475  0.80894  0.55580  1.0000
  Mg  Mg5       1.0  0.34229  0.83411  0.31588  1.0000
  C   C41       1.0  0.39717  0.69993  0.88982  1.0000
  C   C42       1.0  0.37900  0.74719  0.97609  1.0000
  C  Sn11      1.0  0.39770  0.80127  0.93838  1.0000
  C  Sn12      1.0  0.43528  0.80802  0.81186  1.0000
  C   C43       1.0  0.45318  0.76047  0.72621  1.0000
  C   C44       1.0  0.43422  0.70655  0.76498  1.0000
  H   H27       1.0  0.38247  0.65821  0.91976  1.0000
  O  Te11      1.0  0.37968  0.85164  0.02581  1.0000
  O  Te12      1.0  0.45462  0.86158  0.77161  1.0000
  H   H28       1.0  0.44827  0.66997  0.69811  1.0000
  Mg  Mg6       1.0  0.41735  0.91233  0.92579  1.0000
  C   C45       1.0  0.58160  0.95060  0.75073  1.0000
  C   C46       1.0  0.53788  0.94700  0.85957  1.0000
  C  Sn13      1.0  0.48167  0.96265  0.81969  1.0000
  C  Sn14      1.0  0.46912  0.98225  0.66795  1.0000
  C   C47       1.0  0.51315  0.98566  0.55989  1.0000
  C   C48       1.0  0.56925  0.96990  0.60103  1.0000
  H   H29       1.0  0.62500  0.93838  0.78253  1.0000
  O  Te13      1.0  0.43851  0.95881  0.92986  1.0000
  O  Te14      1.0  0.45454  0.99815  0.62500  1.0000
  H   H30       1.0  0.60308  0.97266  0.51671  1.0000
  Mg  Mg7       1.0  0.36916  0.98541  0.81598  1.0000
  C   C49       1.0  0.28339  0.66773  0.55928  1.0000
  C   C50       1.0  0.27024  0.71373  0.65559  1.0000
  C  Sn15      1.0  0.27498  0.76951  0.60140  1.0000
  C  Sn16      1.0  0.29322  0.77928  0.44786  1.0000
  C   C51       1.0  0.30624  0.73297  0.35238  1.0000
  C   C52       1.0  0.30137  0.67733  0.40781  1.0000
  H   H31       1.0  0.27960  0.62468  0.60212  1.0000
  O  Te15      1.0  0.26168  0.81498  0.69918  1.0000
  O  Te16      1.0  0.29831  0.83459  0.39071  1.0000
  H   H32       1.0  0.31152  0.64172  0.33318  1.0000
  Mg  Mg8       1.0  0.27530  0.88258  0.56825  1.0000
  C   C53       1.0  0.06697  0.15192  0.87519  1.0000
  C   C54       1.0  0.02399  0.12331  0.80069  1.0000
  C  Sn17      1.0  0.96670  0.13526  0.83694  1.0000
  C  Sn18      1.0  0.95230  0.17667  0.94989  1.0000
  C   C55       1.0  0.99614  0.20869  0.02369  1.0000
  C   C56       1.0  0.05280  0.19277  0.98656  1.0000
  H   H33       1.0  0.11122  0.14242  0.84641  1.0000
  O  Te17      1.0  0.92429  0.10627  0.76145  1.0000
  O  Te18      1.0  0.89538  0.18946  0.98830  1.0000
  H   H34       1.0  0.08660  0.21857  0.04419  1.0000
  Mg  Mg9       1.0  0.85289  0.13857  0.85365  1.0000
  C   C57       1.0  0.07504  0.19668  0.34764  1.0000
  C   C58       1.0  0.04756  0.24161  0.26689  1.0000
  C  Sn19      1.0  0.05841  0.29794  0.30298  1.0000
  C  Sn20      1.0  0.09751  0.30938  0.42215  1.0000
  C   C59       1.0  0.12481  0.26413  0.50218  1.0000
  C   C60       1.0  0.11363  0.20792  0.46516  1.0000
  H   H35       1.0  0.06641  0.15319  0.31895  1.0000
  O  Te19      1.0  0.03057  0.34233  0.22119  1.0000
  O  Te20      1.0  0.10915  0.36528  0.46055  1.0000
  H   H36       1.0  0.13494  0.17314  0.52764  1.0000
  Mg  Mg10      1.0  0.06057  0.41131  0.31601  1.0000
  C   C61       1.0  0.92275  0.04073  0.19631  1.0000
  C   C62       1.0  0.96900  0.02271  0.10477  1.0000
  C  Sn21      1.0  0.02422  0.02019  0.16529  1.0000
  C  Sn22      1.0  0.03317  0.03601  0.32038  1.0000
  C   C63       1.0  0.98661  0.05394  0.41104  1.0000
  C   C64       1.0  0.93154  0.05632  0.34931  1.0000
  H   H37       1.0  0.88013  0.04254  0.14859  1.0000
  O  Te21      1.0  0.06995  0.00211  0.07222  1.0000
  O  Te22      1.0  0.08791  0.03388  0.38380  1.0000
  H   H38       1.0  0.89573  0.07024  0.42024  1.0000
  Mg  Mg11      1.0  0.13655  0.00642  0.21100  1.0000
  C   C65       1.0  0.22940  0.17069  0.06245  1.0000
  C   C66       1.0  0.24222  0.21791  0.15059  1.0000
  C  Sn23      1.0  0.22873  0.27295  0.09611  1.0000
  C  Sn24      1.0  0.20137  0.27711  0.95066  1.0000
  C   C67       1.0  0.18869  0.22959  0.86340  1.0000
  C   C68       1.0  0.20239  0.17470  0.91900  1.0000
  H   H39       1.0  0.23997  0.12822  0.10549  1.0000
  O  Te23      1.0  0.24185  0.31966  0.18564  1.0000
  O  Te24      1.0  0.18740  0.33165  0.89348  1.0000
  H   H40       1.0  0.19243  0.13815  0.85077  1.0000
  Mg  Mg12      1.0  0.21441  0.38551  0.05807  1.0000
  C   C69       1.0  0.44883  0.66682  0.43010  1.0000
  C   C70       1.0  0.49283  0.69391  0.50460  1.0000
  C  Sn25      1.0  0.54894  0.68732  0.45126  1.0000
  C  Sn26      1.0  0.56109  0.65296  0.32087  1.0000
  C   C71       1.0  0.51676  0.62607  0.24708  1.0000
  C   C72       1.0  0.46077  0.63294  0.30145  1.0000
  H   H41       1.0  0.40550  0.67216  0.47211  1.0000
  O  Te25      1.0  0.59239  0.71467  0.52709  1.0000
  O  Te26      1.0  0.61678  0.64566  0.26510  1.0000
  H   H42       1.0  0.42670  0.61199  0.24369  1.0000
  Mg  Mg13      1.0  0.66144  0.69165  0.40761  1.0000
  C   C73       1.0  0.61107  0.80093  0.88527  1.0000
  C   C74       1.0  0.62899  0.75309  0.97194  1.0000
  C  Sn27      1.0  0.61013  0.69931  0.93470  1.0000
  C  Sn28      1.0  0.57265  0.69346  0.80827  1.0000
  C   C75       1.0  0.55501  0.74158  0.72221  1.0000
  C   C76       1.0  0.57412  0.79519  0.76051  1.0000
  H   H43       1.0  0.62589  0.84241  0.91483  1.0000
  O  Te27      1.0  0.62897  0.65557  0.02254  1.0000
  O  Te28      1.0  0.55317  0.64021  0.76850  1.0000
  H   H44       1.0  0.56027  0.83222  0.69332  1.0000
  Mg  Mg14      1.0  0.59011  0.58841  0.92310  1.0000
  C   C77       1.0  0.54583  0.53767  0.70226  1.0000
  C   C78       1.0  0.50460  0.51544  0.60645  1.0000
  C  Sn29      1.0  0.44742  0.51618  0.65222  1.0000
  C  Sn30      1.0  0.43136  0.53965  0.79662  1.0000
  C   C79       1.0  0.47293  0.56181  0.89159  1.0000
  C   C80       1.0  0.53002  0.56084  0.84468  1.0000
  H   H45       1.0  0.59001  0.53695  0.66595  1.0000
  O  Te29      1.0  0.40678  0.49378  0.55511  1.0000
  O  Te30      1.0  0.37451  0.54095  0.84518  1.0000
  H   H46       1.0  0.56193  0.57809  0.91885  1.0000
  Mg  Mg15      1.0  0.33474  0.50525  0.67233  1.0000
  C   C81       1.0  0.71398  0.70484  0.46812  1.0000
  C   C82       1.0  0.69780  0.75322  0.38138  1.0000
  C  Sn31      1.0  0.70595  0.80753  0.43938  1.0000
  C  Sn32      1.0  0.73079  0.81336  0.58697  1.0000
  C   C83       1.0  0.74687  0.76470  0.67280  1.0000
  C   C84       1.0  0.73850  0.71056  0.61367  1.0000
  H   H47       1.0  0.70754  0.66296  0.42235  1.0000
  O  Te31      1.0  0.68952  0.85541  0.35122  1.0000
  O  Te32      1.0  0.73944  0.86713  0.64769  1.0000
  H   H48       1.0  0.75107  0.67311  0.68082  1.0000
  Mg  Mg16      1.0  0.71001  0.91956  0.48374  1.0000
  C   C85       1.0  0.94612  0.83035  0.10954  1.0000
  C   C86       1.0  0.98969  0.81465  0.00650  1.0000
  C  Sn33      1.0  0.04577  0.82949  0.03482  1.0000
  C  Sn34      1.0  0.05833  0.86061  0.16891  1.0000
  C   C87       1.0  0.01444  0.87608  0.27134  1.0000
  C   C88       1.0  0.95847  0.86103  0.24186  1.0000
  H   H49       1.0  0.90281  0.81867  0.08679  1.0000
  O  Te33      1.0  0.08826  0.80988  0.93064  1.0000
  O  Te34      1.0  0.11401  0.87598  0.20005  1.0000
  H   H50       1.0  0.92475  0.87315  0.32171  1.0000
  Mg  Mg17      1.0  0.15799  0.84438  0.02344  1.0000
  C   C89       1.0  0.07307  0.70143  0.64607  1.0000
  C   C90       1.0  0.05628  0.74626  0.74282  1.0000
  C  Sn35      1.0  0.07033  0.80198  0.70616  1.0000
  C  Sn36      1.0  0.10176  0.81290  0.57000  1.0000
  C   C91       1.0  0.11832  0.76776  0.47391  1.0000
  C   C92       1.0  0.10405  0.71216  0.51173  1.0000
  H   H51       1.0  0.06200  0.65841  0.67527  1.0000
  O  Te35      1.0  0.05324  0.84627  0.80413  1.0000
  O  Te36      1.0  0.11636  0.86819  0.53057  1.0000
  H   H52       1.0  0.11703  0.67747  0.43674  1.0000
  Mg  Mg18      1.0  0.08338  0.91432  0.70093  1.0000
  C   C93       1.0  0.91917  0.97036  0.74269  1.0000
  C   C94       1.0  0.96392  0.95878  0.63969  1.0000
  C  Sn37      1.0  0.02052  0.96122  0.68834  1.0000
  C  Sn38      1.0  0.03241  0.97551  0.84305  1.0000
  C   C95       1.0  0.98734  0.98698  0.94523  1.0000
  C   C96       1.0  0.93086  0.98443  0.89532  1.0000
  H   H53       1.0  0.87547  0.96835  0.70411  1.0000
  O  Te37      1.0  0.06472  0.94956  0.58391  1.0000
  O  Te38      1.0  0.08858  0.97824  0.89473  1.0000
  H   H54       1.0  0.89622  0.99336  0.97512  1.0000
  Mg  Mg19      1.0  0.13421  0.95879  0.70908  1.0000
  C   C97       1.0  0.20807  0.78612  0.01911  1.0000
  C   C98       1.0  0.19976  0.73987  0.11783  1.0000
  C  Sn39      1.0  0.21709  0.68483  0.07361  1.0000
  C  Sn40      1.0  0.24271  0.67246  0.92781  1.0000
  C   C99       1.0  0.25087  0.71901  0.82993  1.0000
  C   C100      1.0  0.23335  0.77391  0.87531  1.0000
  H   H55       1.0  0.19454  0.82860  0.05424  1.0000
  O  Te39      1.0  0.20844  0.63909  0.17362  1.0000
  O  Te40      1.0  0.26046  0.61790  0.88075  1.0000
  H   H56       1.0  0.23983  0.80971  0.79889  1.0000
  Mg  Mg20      1.0  0.23993  0.57279  0.05752  1.0000
  C   C101      1.0  0.55225  0.32754  0.60762  1.0000
  C   C102      1.0  0.50908  0.30800  0.51344  1.0000
  C  Sn41      1.0  0.45247  0.32709  0.53559  1.0000
  C  Sn42      1.0  0.43896  0.36648  0.65429  1.0000
  C   C103      1.0  0.48246  0.38580  0.74781  1.0000
  C   C104      1.0  0.53896  0.36641  0.72468  1.0000
  H   H57       1.0  0.59597  0.31257  0.58968  1.0000
  O  Te41      1.0  0.40986  0.30712  0.44050  1.0000
  O  Te42      1.0  0.38274  0.38627  0.67890  1.0000
  H   H58       1.0  0.57238  0.38158  0.79755  1.0000
  Mg  Mg21      1.0  0.33963  0.34658  0.51932  1.0000
  C   C105      1.0  0.58003  0.20056  0.16484  1.0000
  C   C106      1.0  0.56059  0.24458  0.26103  1.0000
  C  Sn43      1.0  0.57584  0.30051  0.23173  1.0000
  C  Sn44      1.0  0.61121  0.31245  0.10364  1.0000
  C   C107      1.0  0.63040  0.26811  0.00804  1.0000
  C   C108      1.0  0.61489  0.21230  0.03844  1.0000
  H   H59       1.0  0.56801  0.15738  0.18831  1.0000
  O  Te43      1.0  0.55606  0.34399  0.32903  1.0000
  O  Te44      1.0  0.62708  0.36796  0.07166  1.0000
  H   H60       1.0  0.62939  0.17462  0.96389  1.0000
  Mg  Mg22      1.0  0.58934  0.41273  0.23782  1.0000
  C   C109      1.0  0.44567  0.46590  0.21651  1.0000
  C   C110      1.0  0.49539  0.45627  0.13002  1.0000
  C  Sn45      1.0  0.54887  0.46220  0.19729  1.0000
  C  Sn46      1.0  0.55250  0.47807  0.35409  1.0000
  C   C111      1.0  0.50251  0.48757  0.43966  1.0000
  C   C112      1.0  0.44922  0.48153  0.37119  1.0000
  H   H61       1.0  0.40443  0.46120  0.16356  1.0000
  O  Te45      1.0  0.59811  0.45244  0.10921  1.0000
  O  Te46      1.0  0.60540  0.48429  0.42422  1.0000
  H   H62       1.0  0.41073  0.48896  0.43821  1.0000
  Mg  Mg23      1.0  0.66033  0.46634  0.25641  1.0000
  C   C113      1.0  0.72620  0.17272  0.44270  1.0000
  C   C114      1.0  0.73264  0.21911  0.34319  1.0000
  C  Sn47      1.0  0.72111  0.27454  0.39465  1.0000
  C  Sn48      1.0  0.70282  0.28356  0.54866  1.0000
  C   C115      1.0  0.69655  0.23686  0.64734  1.0000
  C   C116      1.0  0.70819  0.18157  0.59464  1.0000
  H   H63       1.0  0.73523  0.12994  0.40196  1.0000
  O  Te47      1.0  0.72774  0.32041  0.29370  1.0000
  O  Te48      1.0  0.69103  0.33851  0.60311  1.0000
  H   H64       1.0  0.70324  0.14566  0.67174  1.0000
  Mg  Mg24      1.0  0.70641  0.38728  0.42173  1.0000
  C   C117      1.0  0.95271  0.65208  0.13680  1.0000
  C   C118      1.0  0.00184  0.62531  0.19928  1.0000
  C  Sn49      1.0  0.05580  0.64201  0.15309  1.0000
  C  Sn50      1.0  0.06053  0.68635  0.04230  1.0000
  C   C119      1.0  0.01060  0.70928  0.98056  1.0000
  C   C120      1.0  0.95734  0.69583  0.02757  1.0000
  H   H65       1.0  0.91109  0.63890  0.17323  1.0000
  O  Te49      1.0  0.10444  0.61481  0.21663  1.0000
  O  Te50      1.0  0.11340  0.70029  0.99412  1.0000
  H   H66       1.0  0.91878  0.71298  0.97925  1.0000
  Mg  Mg25      1.0  0.16770  0.65381  0.11415  1.0000
  C   C121      1.0  0.90352  0.70995  0.59511  1.0000
  C   C122      1.0  0.87357  0.75774  0.53489  1.0000
  C  Sn51      1.0  0.88255  0.81178  0.59351  1.0000
  C  Sn52      1.0  0.92228  0.81797  0.71462  1.0000
  C   C123      1.0  0.95206  0.76990  0.77400  1.0000
  C   C124      1.0  0.94273  0.71601  0.71452  1.0000
  H   H67       1.0  0.89633  0.66826  0.54905  1.0000
  O  Te51      1.0  0.85225  0.85907  0.53206  1.0000
  O  Te52      1.0  0.93210  0.87149  0.77531  1.0000
  H   H68       1.0  0.96596  0.67903  0.76110  1.0000
  Mg  Mg26      1.0  0.88042  0.92309  0.65328  1.0000
  C   C125      1.0  0.04643  0.53467  0.70408  1.0000
  C   C126      1.0  0.00032  0.55654  0.61714  1.0000
  C  Sn53      1.0  0.94574  0.56097  0.68186  1.0000
  C  Sn54      1.0  0.93731  0.54315  0.83653  1.0000
  C   C127      1.0  0.98372  0.52136  0.92259  1.0000
  C   C128      1.0  0.03815  0.51710  0.85667  1.0000
  H   H69       1.0  0.08855  0.53140  0.65312  1.0000
  O  Te53      1.0  0.90014  0.58291  0.59335  1.0000
  O  Te54      1.0  0.88322  0.54713  0.90410  1.0000
  H   H70       1.0  0.07385  0.50020  0.92404  1.0000
  Mg  Mg27      1.0  0.83451  0.57986  0.73671  1.0000
  C   C129      1.0  0.77740  0.69303  0.93771  1.0000
  C   C130      1.0  0.76293  0.74160  0.84977  1.0000
  C  Sn55      1.0  0.77372  0.79566  0.90556  1.0000
  C  Sn56      1.0  0.80001  0.80467  0.05213  1.0000
  C   C131      1.0  0.81436  0.75582  0.13917  1.0000
  C   C132      1.0  0.80336  0.70193  0.08226  1.0000
  H   H71       1.0  0.76892  0.65133  0.89366  1.0000
  O  Te55      1.0  0.75898  0.84374  0.81623  1.0000
  O  Te56      1.0  0.81129  0.85819  0.11063  1.0000
  H   H72       1.0  0.81460  0.66434  0.15033  1.0000
  Mg  Mg28      1.0  0.78287  0.90741  0.94578  1.0000
  C   C133      1.0  0.43525  0.17888  0.56160  1.0000
  C   C134      1.0  0.48319  0.20254  0.49476  1.0000
  C  Sn57      1.0  0.53799  0.18315  0.53829  1.0000
  C  Sn58      1.0  0.54478  0.13923  0.65084  1.0000
  C   C135      1.0  0.49654  0.11580  0.71695  1.0000
  C   C136      1.0  0.44191  0.13554  0.67257  1.0000
  H   H73       1.0  0.39297  0.19413  0.52722  1.0000
  O  Te57      1.0  0.58543  0.20728  0.47039  1.0000
  O  Te58      1.0  0.59905  0.11903  0.69643  1.0000
  H   H74       1.0  0.40479  0.11718  0.72428  1.0000
  Mg  Mg29      1.0  0.65056  0.16541  0.57066  1.0000
  C   C137      1.0  0.40675  0.20473  0.08560  1.0000
  C   C138      1.0  0.38236  0.25209  0.00813  1.0000
  C  Sn59      1.0  0.39527  0.30706  0.05254  1.0000
  C  Sn60      1.0  0.43333  0.31463  0.17682  1.0000
  C   C139      1.0  0.45754  0.26697  0.25351  1.0000
  C   C140      1.0  0.44432  0.21215  0.20815  1.0000
  H   H75       1.0  0.39655  0.16231  0.05046  1.0000
  O  Te59      1.0  0.36997  0.35030  0.97393  1.0000
  O  Te60      1.0  0.44698  0.36909  0.22356  1.0000
  H   H76       1.0  0.46324  0.17549  0.26809  1.0000
  Mg  Mg30      1.0  0.40236  0.41960  0.08050  1.0000
  C   C141      1.0  0.57794  0.03995  0.31716  1.0000
  C   C142      1.0  0.53150  0.02258  0.40432  1.0000
  C  Sn61      1.0  0.47741  0.02093  0.33772  1.0000
  C  Sn62      1.0  0.46981  0.03697  0.18091  1.0000
  C   C143      1.0  0.51655  0.05424  0.09466  1.0000
  C   C144      1.0  0.57049  0.05575  0.16247  1.0000
  H   H77       1.0  0.61968  0.04109  0.36958  1.0000
  O  Te61      1.0  0.43146  0.00350  0.42647  1.0000
  O  Te62      1.0  0.41621  0.03570  0.11145  1.0000
  H   H78       1.0  0.60645  0.06917  0.09492  1.0000
  Mg  Mg31      1.0  0.36676  0.00888  0.28003  1.0000
  C   C145      1.0  0.26972  0.17369  0.45546  1.0000
  C   C146      1.0  0.25728  0.21964  0.35605  1.0000
  C  Sn63      1.0  0.27052  0.27478  0.39812  1.0000
  C  Sn64      1.0  0.29671  0.28395  0.54243  1.0000
  C   C147      1.0  0.30903  0.23770  0.64101  1.0000
  C   C148      1.0  0.29558  0.18270  0.59779  1.0000
  H   H79       1.0  0.25935  0.13113  0.42199  1.0000
  O  Te63      1.0  0.25777  0.32020  0.29745  1.0000
  O  Te64      1.0  0.31042  0.33862  0.58733  1.0000
  H   H80       1.0  0.30526  0.14713  0.67474  1.0000
  Mg  Mg32      1.0  0.28464  0.38681  0.41044  1.0000
