data_image0
_chemical_formula_structural       C3N4C3N4SnCSn2CSnTe4Mg2SnCSn2CSnTe4Mg2SnCSn2CSnTe4Mg2SnCSn2CSnTe4Mg2SnCSn2CSnTe4Mg2SnCSn2CSnTe4Mg2SnCSn2CSnTe4Mg2SnCSn2CSnTe4Mg2SnCSn2CSnTe4Mg2SnCSn2CSnTe4Mg2SnCSn2CSnTe4Mg2SnCSn2CSnTe4Mg2
_chemical_formula_sum              "C30 N8 Sn48 Te48 Mg24"
_cell_length_a       19.7351
_cell_length_b       19.7462
_cell_length_c       8.22997
_cell_angle_alpha    91.1259
_cell_angle_beta     92.6282
_cell_angle_gamma    120.544

_symmetry_space_group_name_H-M    'P1'
_space_group_IT_number       1

loop_
  _space_group_symop_operation_xyz
  'x, y, z'

loop_
  _atom_site_type_symbol
  _atom_site_label
  _atom_site_symmetry_multiplicity
  _atom_site_fract_x
  _atom_site_fract_y
  _atom_site_fract_z
  _atom_site_occupancy
  C   C1        1.0  0.25780  0.62872  0.26482  1.0000
  C   C2        1.0  0.37424  0.63090  0.25676  1.0000
  C   C3        1.0  0.37308  0.74564  0.25536  1.0000
  N   N1        1.0  0.29524  0.58762  0.26428  1.0000
  N   N2        1.0  0.41581  0.70997  0.25008  1.0000
  N   N3        1.0  0.29423  0.70782  0.26302  1.0000
  N   N4        1.0  0.66571  0.33660  0.24566  1.0000
  C   C4        1.0  0.25642  0.62407  0.75099  1.0000
  C   C5        1.0  0.37296  0.62633  0.74556  1.0000
  C   C6        1.0  0.37169  0.74098  0.74159  1.0000
  N   N5        1.0  0.29403  0.58318  0.75322  1.0000
  N   N6        1.0  0.41443  0.70531  0.73620  1.0000
  N   N7        1.0  0.29276  0.70320  0.74880  1.0000
  N   N8        1.0  0.66531  0.33177  0.74709  1.0000
  C  Sn1       1.0  0.11011  0.48530  0.24249  1.0000
  C   C7        1.0  0.16115  0.56560  0.22376  1.0000
  C  Sn2       1.0  0.13400  0.61838  0.23581  1.0000
  C  Sn3       1.0  0.05418  0.59032  0.26733  1.0000
  C   C8        1.0  0.00320  0.51007  0.28607  1.0000
  C  Sn4       1.0  0.03029  0.45724  0.27401  1.0000
  O  Te1       1.0  0.13852  0.43360  0.22997  1.0000
  O  Te2       1.0  0.18613  0.69839  0.21658  1.0000
  O  Te3       1.0  0.02579  0.64210  0.27984  1.0000
  O  Te4       1.0  0.97821  0.37728  0.29325  1.0000
  Mg  Mg1       1.0  0.11953  0.74569  0.24445  1.0000
  Mg  Mg2       1.0  0.04476  0.32994  0.26549  1.0000
  C  Sn5       1.0  0.51494  0.62756  0.21564  1.0000
  C   C9        1.0  0.43334  0.59580  0.20755  1.0000
  C  Sn6       1.0  0.38284  0.51648  0.23614  1.0000
  C  Sn7       1.0  0.41455  0.46790  0.27370  1.0000
  C   C10       1.0  0.49610  0.49967  0.28180  1.0000
  C  Sn8       1.0  0.54665  0.57898  0.25320  1.0000
  O  Te5       1.0  0.56432  0.70702  0.18662  1.0000
  O  Te6       1.0  0.30146  0.48605  0.22732  1.0000
  O  Te7       1.0  0.36509  0.38839  0.30272  1.0000
  O  Te8       1.0  0.62798  0.60941  0.26204  1.0000
  Mg  Mg3       1.0  0.25838  0.37426  0.27667  1.0000
  Mg  Mg4       1.0  0.67111  0.72120  0.21279  1.0000
  C  Sn9       1.0  0.52067  0.93712  0.15237  1.0000
  C   C11       1.0  0.49380  0.98754  0.19794  1.0000
  C  Sn10      1.0  0.42758  0.96040  0.28908  1.0000
  C  Sn11      1.0  0.38741  0.88124  0.33575  1.0000
  C   C12       1.0  0.41429  0.83087  0.29022  1.0000
  C  Sn12      1.0  0.48049  0.85795  0.19905  1.0000
  O  Te9       1.0  0.58699  0.96551  0.06126  1.0000
  O  Te10      1.0  0.89333  0.01190  0.33314  1.0000
  O  Te11      1.0  0.32104  0.85287  0.42693  1.0000
  O  Te12      1.0  0.50627  0.80651  0.15502  1.0000
  Mg  Mg5       1.0  0.30868  0.94561  0.45754  1.0000
  Mg  Mg6       1.0  0.59941  0.87274  0.03069  1.0000
  C  Sn13      1.0  0.61965  0.14912  0.36789  1.0000
  C   C13       1.0  0.54487  0.09583  0.29593  1.0000
  C  Sn14      1.0  0.50903  0.12031  0.17979  1.0000
  C  Sn15      1.0  0.54878  0.19970  0.13454  1.0000
  C   C14       1.0  0.62351  0.25294  0.20646  1.0000
  C  Sn16      1.0  0.65940  0.22852  0.32265  1.0000
  O  Te13      1.0  0.65436  0.12336  0.48372  1.0000
  O  Te14      1.0  0.43422  0.06595  0.10957  1.0000
  O  Te15      1.0  0.51399  0.22544  0.01861  1.0000
  O  Te16      1.0  0.73416  0.28282  0.39282  1.0000
  Mg  Mg7       1.0  0.44279  0.15347  0.95744  1.0000
  Mg  Mg8       1.0  0.75706  0.21949  0.54489  1.0000
  C  Sn17      1.0  0.85282  0.38541  0.12236  1.0000
  C   C15       1.0  0.90692  0.45622  0.20666  1.0000
  C  Sn18      1.0  0.88293  0.48682  0.33122  1.0000
  C  Sn19      1.0  0.80319  0.44577  0.37246  1.0000
  C   C16       1.0  0.74914  0.37500  0.28820  1.0000
  C  Sn20      1.0  0.77308  0.34436  0.16360  1.0000
  O  Te17      1.0  0.90951  0.38005  0.99828  1.0000
  O  Te18      1.0  0.93809  0.55773  0.41373  1.0000
  O  Te19      1.0  0.77793  0.47534  0.49665  1.0000
  O  Te20      1.0  0.71797  0.27349  0.08114  1.0000
  Mg  Mg9       1.0  0.87510  0.57402  0.57360  1.0000
  Mg  Mg10      1.0  0.81230  0.28126  0.92131  1.0000
  C  Sn21      1.0  0.53194  0.39137  0.37317  1.0000
  C   C17       1.0  0.55099  0.46118  0.29792  1.0000
  C  Sn22      1.0  0.60586  0.48891  0.17867  1.0000
  C  Sn23      1.0  0.64241  0.44595  0.13361  1.0000
  C   C18       1.0  0.62334  0.37618  0.20882  1.0000
  C  Sn24      1.0  0.56849  0.34841  0.32811  1.0000
  O  Te21      1.0  0.47692  0.36475  0.49207  1.0000
  O  Te22      1.0  0.62397  0.55886  0.10519  1.0000
  O  Te23      1.0  0.69746  0.47263  0.01460  1.0000
  O  Te24      1.0  0.55037  0.27850  0.40154  1.0000
  Mg  Mg11      1.0  0.73399  0.59517  0.94963  1.0000
  Mg  Mg12      1.0  0.47173  0.26625  0.55705  1.0000
  C  Sn25      1.0  0.06157  0.58517  0.66759  1.0000
  C   C19       1.0  0.01148  0.50541  0.69346  1.0000
  C  Sn26      1.0  0.04126  0.46153  0.76524  1.0000
  C  Sn27      1.0  0.12281  0.49813  0.81225  1.0000
  C   C20       1.0  0.17285  0.57785  0.78640  1.0000
  C  Sn28      1.0  0.14312  0.62178  0.71460  1.0000
  O  Te25      1.0  0.03052  0.62791  0.59563  1.0000
  O  Te26      1.0  0.99003  0.38187  0.78981  1.0000
  O  Te27      1.0  0.15384  0.45532  0.88425  1.0000
  O  Te28      1.0  0.19430  0.70139  0.69005  1.0000
  Mg  Mg13      1.0  0.06039  0.34850  0.89241  1.0000
  Mg  Mg14      1.0  0.12399  0.73482  0.58755  1.0000
  C  Sn29      1.0  0.53901  0.60118  0.78211  1.0000
  C   C21       1.0  0.50881  0.52069  0.79877  1.0000
  C  Sn30      1.0  0.42785  0.46752  0.77522  1.0000
  C  Sn31      1.0  0.37599  0.49536  0.73405  1.0000
  C   C22       1.0  0.40619  0.57579  0.71738  1.0000
  C  Sn32      1.0  0.48715  0.62901  0.74094  1.0000
  O  Te29      1.0  0.62015  0.65327  0.80620  1.0000
  O  Te30      1.0  0.39904  0.38733  0.79261  1.0000
  O  Te31      1.0  0.29480  0.44318  0.70996  1.0000
  O  Te32      1.0  0.51596  0.70915  0.72354  1.0000
  Mg  Mg15      1.0  0.28392  0.33948  0.74736  1.0000
  Mg  Mg16      1.0  0.63107  0.75705  0.76868  1.0000
  C  Sn33      1.0  0.51662  0.93353  0.63635  1.0000
  C   C23       1.0  0.49083  0.98347  0.69172  1.0000
  C  Sn34      1.0  0.42688  0.95540  0.78979  1.0000
  C  Sn35      1.0  0.38793  0.87578  0.83352  1.0000
  C   C24       1.0  0.41373  0.82590  0.77818  1.0000
  C  Sn36      1.0  0.47767  0.85390  0.68007  1.0000
  O  Te33      1.0  0.58068  0.96284  0.53844  1.0000
  O  Te34      1.0  0.40215  0.00644  0.84362  1.0000
  O  Te35      1.0  0.32383  0.84649  0.93150  1.0000
  O  Te36      1.0  0.50241  0.80292  0.62628  1.0000
  Mg  Mg17      1.0  0.31214  0.93889  0.97456  1.0000
  Mg  Mg18      1.0  0.59244  0.87042  0.49541  1.0000
  C  Sn37      1.0  0.52117  0.13825  0.61538  1.0000
  C   C25       1.0  0.54194  0.08900  0.69542  1.0000
  C  Sn38      1.0  0.60190  0.11960  0.81979  1.0000
  C  Sn39      1.0  0.64193  0.20112  0.86520  1.0000
  C   C26       1.0  0.62116  0.25032  0.78520  1.0000
  C  Sn40      1.0  0.56120  0.21977  0.66078  1.0000
  O  Te37      1.0  0.46103  0.10638  0.49140  1.0000
  O  Te38      1.0  0.62164  0.06920  0.89800  1.0000
  O  Te39      1.0  0.70211  0.23296  0.98929  1.0000
  O  Te40      1.0  0.54145  0.27011  0.58262  1.0000
  Mg  Mg19      1.0  0.67622  0.11635  0.05953  1.0000
  Mg  Mg20      1.0  0.45546  0.19889  0.42114  1.0000
  C  Sn41      1.0  0.80540  0.33149  0.70861  1.0000
  C   C27       1.0  0.75857  0.35813  0.77441  1.0000
  C  Sn42      1.0  0.79039  0.43796  0.81645  1.0000
  C  Sn43      1.0  0.87068  0.49230  0.79215  1.0000
  C   C28       1.0  0.91746  0.46566  0.72637  1.0000
  C  Sn44      1.0  0.88570  0.38584  0.68431  1.0000
  O  Te41      1.0  0.77236  0.25142  0.66745  1.0000
  O  Te42      1.0  0.74241  0.46318  0.88209  1.0000
  O  Te43      1.0  0.90370  0.57242  0.83338  1.0000
  O  Te44      1.0  0.93362  0.36061  0.61869  1.0000
  Mg  Mg21      1.0  0.81452  0.57814  0.91884  1.0000
  Mg  Mg22      1.0  0.86157  0.24567  0.58182  1.0000
  C  Sn45      1.0  0.53009  0.33943  0.80351  1.0000
  C   C29       1.0  0.59825  0.35783  0.72483  1.0000
  C  Sn46      1.0  0.64642  0.43352  0.67133  1.0000
  C  Sn47      1.0  0.62608  0.49204  0.69709  1.0000
  C   C30       1.0  0.55796  0.47363  0.77575  1.0000
  C  Sn48      1.0  0.50974  0.39795  0.82927  1.0000
  O  Te45      1.0  0.48280  0.26338  0.85597  1.0000
  O  Te46      1.0  0.71426  0.45051  0.59292  1.0000
  O  Te47      1.0  0.67344  0.56813  0.64454  1.0000
  O  Te48      1.0  0.44196  0.38095  0.90766  1.0000
  Mg  Mg23      1.0  0.75981  0.56265  0.54383  1.0000
  Mg  Mg24      1.0  0.39639  0.26885  0.95687  1.0000
