data_image0
_chemical_formula_structural       C6N6C21H4C18H12C4H4N2C2H6C3H6C6N6C33H12C8H8C12H8N2C4H6C3H6C2Sn2C2HTe2HMgC2Sn2C2HTe2HMgC2Sn2C2HTe2HMgC2Sn2C2HTe2HMgC2Sn2C2HTe2HMgC2Sn2C2HTe2HMgC2Sn2C2HTe2HMgC2Sn2C2HTe2HMgC2Sn2C2HTe2HMgC2Sn2C2HTe2HMgC2Sn2C2HTe2HMgC2Sn2C2HTe2HMgC2Sn2C2HTe2HMgC2Sn2C2HTe2HMgC2Sn2C2HTe2HMgC2Sn2C2HTe2HMgC2Sn2C2HTe2HMgC2Sn2C2HTe2HMg
_chemical_formula_sum              "C192 N16 H108 Sn36 Te36 Mg18"
_cell_length_a       27.1265
_cell_length_b       47.2399
_cell_length_c       8.34426
_cell_angle_alpha    109.647
_cell_angle_beta     77.6535
_cell_angle_gamma    89.4384

_symmetry_space_group_name_H-M    'P1'
_space_group_IT_number       1

loop_
  _space_group_symop_operation_xyz
  'x, y, z'

loop_
  _atom_site_type_symbol
  _atom_site_label
  _atom_site_symmetry_multiplicity
  _atom_site_fract_x
  _atom_site_fract_y
  _atom_site_fract_z
  _atom_site_occupancy
  C   C1        1.0  0.53979  0.69220  0.26452  1.0000
  C   C2        1.0  0.04126  0.19265  0.27386  1.0000
  C   C3        1.0  0.45861  0.69023  0.23023  1.0000
  C   C4        1.0  0.95891  0.19091  0.25306  1.0000
  C   C5        1.0  0.49943  0.73250  0.23913  1.0000
  C   C6        1.0  0.99959  0.23292  0.25271  1.0000
  N   N1        1.0  0.54161  0.72054  0.26197  1.0000
  N   N2        1.0  0.04295  0.22065  0.26575  1.0000
  N   N3        1.0  0.45724  0.71809  0.21951  1.0000
  N   N4        1.0  0.95684  0.21878  0.24306  1.0000
  N   N5        1.0  0.49901  0.67625  0.25187  1.0000
  N   N6        1.0  0.00001  0.17697  0.27085  1.0000
  C   C7        1.0  0.58594  0.67744  0.27896  1.0000
  C   C8        1.0  0.41254  0.67400  0.22086  1.0000
  C   C9        1.0  0.99919  0.26393  0.25071  1.0000
  C   C10       1.0  0.63309  0.68861  0.23941  1.0000
  C   C11       1.0  0.36860  0.68718  0.20059  1.0000
  C   C12       1.0  0.95906  0.27653  0.20733  1.0000
  C   C13       1.0  0.03831  0.28190  0.29803  1.0000
  C   C14       1.0  0.41121  0.64532  0.23731  1.0000
  C   C15       1.0  0.58403  0.65146  0.32493  1.0000
  C   C16       1.0  0.62806  0.63697  0.33120  1.0000
  C   C17       1.0  0.36721  0.63048  0.23519  1.0000
  C   C18       1.0  0.03701  0.31154  0.30279  1.0000
  C   C19       1.0  0.95831  0.30613  0.21073  1.0000
  C   C20       1.0  0.32466  0.67222  0.19908  1.0000
  C   C21       1.0  0.67715  0.67365  0.24155  1.0000
  C   C22       1.0  0.95467  0.55306  0.25233  1.0000
  C   C23       1.0  0.90744  0.54578  0.32979  1.0000
  C   C24       1.0  0.86255  0.56098  0.33504  1.0000
  C   C25       1.0  0.86263  0.58496  0.27117  1.0000
  C   C26       1.0  0.91001  0.59257  0.19697  1.0000
  C   C27       1.0  0.95482  0.57648  0.18418  1.0000
  H   H1        1.0  0.90588  0.52854  0.38927  1.0000
  H   H2        1.0  0.82657  0.55523  0.39853  1.0000
  H   H3        1.0  0.91118  0.61016  0.13906  1.0000
  H   H4        1.0  0.99057  0.58181  0.11842  1.0000
  C   C28       1.0  0.81493  0.60088  0.27714  1.0000
  C   C29       1.0  0.18405  0.59814  0.22898  1.0000
  C   C30       1.0  0.68730  0.09706  0.22378  1.0000
  C   C31       1.0  0.77276  0.58503  0.23859  1.0000
  C   C32       1.0  0.22770  0.58590  0.25598  1.0000
  C   C33       1.0  0.73075  0.08464  0.25042  1.0000
  C   C34       1.0  0.72795  0.60000  0.24202  1.0000
  C   C35       1.0  0.27196  0.60057  0.25296  1.0000
  C   C36       1.0  0.77503  0.09928  0.24893  1.0000
  C   C37       1.0  0.72280  0.63154  0.28533  1.0000
  C   C38       1.0  0.27523  0.62795  0.22006  1.0000
  C   C39       1.0  0.77857  0.12658  0.21643  1.0000
  C   C40       1.0  0.76483  0.64735  0.32571  1.0000
  C   C41       1.0  0.23145  0.63975  0.19042  1.0000
  C   C42       1.0  0.73531  0.13839  0.18446  1.0000
  C   C43       1.0  0.80984  0.63241  0.32078  1.0000
  C   C44       1.0  0.18685  0.62543  0.19667  1.0000
  C   C45       1.0  0.69056  0.12425  0.19099  1.0000
  H   H5        1.0  0.77627  0.56049  0.19968  1.0000
  H   H6        1.0  0.22613  0.56523  0.28630  1.0000
  H   H7        1.0  0.72887  0.06408  0.28120  1.0000
  H   H8        1.0  0.69680  0.58699  0.20490  1.0000
  H   H9        1.0  0.30390  0.59082  0.28227  1.0000
  H   H10       1.0  0.80692  0.08982  0.27960  1.0000
  H   H11       1.0  0.76140  0.67182  0.36449  1.0000
  H   H12       1.0  0.23240  0.66014  0.15762  1.0000
  H   H13       1.0  0.73696  0.15846  0.14886  1.0000
  H   H14       1.0  0.84140  0.64533  0.35548  1.0000
  H   H15       1.0  0.15449  0.63475  0.16722  1.0000
  H   H16       1.0  0.65800  0.13374  0.16379  1.0000
  C   C46       1.0  0.54257  0.90158  0.27036  1.0000
  C   C47       1.0  0.46101  0.89855  0.20103  1.0000
  C   C48       1.0  0.54186  0.87207  0.26879  1.0000
  C   C49       1.0  0.46036  0.86899  0.19909  1.0000
  H   H17       1.0  0.57545  0.91370  0.29827  1.0000
  H   H18       1.0  0.42860  0.90841  0.17499  1.0000
  H   H19       1.0  0.57420  0.86241  0.29643  1.0000
  H   H20       1.0  0.42740  0.85691  0.17205  1.0000
  N   N7        1.0  0.00100  0.53750  0.24407  1.0000
  N   N8        1.0  0.50263  0.03815  0.24805  1.0000
  C   C50       1.0  0.50233  0.91571  0.23493  1.0000
  C   C51       1.0  0.50087  0.85476  0.23258  1.0000
  H   H21       1.0  0.63439  0.70850  0.20158  1.0000
  H   H22       1.0  0.36929  0.70933  0.18715  1.0000
  H   H23       1.0  0.92896  0.26256  0.16943  1.0000
  H   H24       1.0  0.06899  0.27216  0.33373  1.0000
  H   H25       1.0  0.44528  0.63514  0.25309  1.0000
  H   H26       1.0  0.54737  0.64323  0.35869  1.0000
  C   C52       1.0  0.67570  0.64748  0.28657  1.0000
  C   C53       1.0  0.32246  0.64355  0.21746  1.0000
  C   C54       1.0  0.99727  0.32451  0.25801  1.0000
  H   H27       1.0  0.71370  0.68160  0.20213  1.0000
  H   H28       1.0  0.62580  0.61773  0.37515  1.0000
  H   H29       1.0  0.29127  0.68334  0.18569  1.0000
  H   H30       1.0  0.36800  0.60842  0.24923  1.0000
  H   H31       1.0  0.92719  0.31491  0.17296  1.0000
  H   H32       1.0  0.06765  0.32477  0.34251  1.0000
  C   C55       1.0  0.53940  0.69175  0.75547  1.0000
  C   C56       1.0  0.03889  0.19239  0.77851  1.0000
  C   C57       1.0  0.45788  0.68968  0.72412  1.0000
  C   C58       1.0  0.95705  0.19140  0.75222  1.0000
  C   C59       1.0  0.49901  0.73167  0.72661  1.0000
  C   C60       1.0  0.99863  0.23334  0.75893  1.0000
  N   N9        1.0  0.54148  0.71977  0.74790  1.0000
  N   N10       1.0  0.04116  0.22070  0.77536  1.0000
  N   N11       1.0  0.45640  0.71746  0.71215  1.0000
  N   N12       1.0  0.95557  0.21956  0.74639  1.0000
  N   N13       1.0  0.49849  0.67587  0.74538  1.0000
  N   N14       1.0  0.99775  0.17679  0.76789  1.0000
  C   C61       1.0  0.58521  0.67705  0.77226  1.0000
  C   C62       1.0  0.08485  0.17700  0.78974  1.0000
  C   C63       1.0  0.99915  0.26430  0.75502  1.0000
  C   C64       1.0  0.63252  0.68808  0.73306  1.0000
  C   C65       1.0  0.13217  0.18790  0.74962  1.0000
  C   C66       1.0  0.96073  0.27643  0.70149  1.0000
  C   C67       1.0  0.03737  0.28258  0.80823  1.0000
  C   C68       1.0  0.58258  0.65117  0.81990  1.0000
  C   C69       1.0  0.08252  0.15051  0.83127  1.0000
  C   C70       1.0  0.62632  0.63663  0.82858  1.0000
  C   C71       1.0  0.12653  0.13533  0.83343  1.0000
  C   C72       1.0  0.03665  0.31210  0.80990  1.0000
  C   C73       1.0  0.96064  0.30582  0.70080  1.0000
  C   C74       1.0  0.67614  0.67329  0.73978  1.0000
  C   C75       1.0  0.17613  0.17232  0.74769  1.0000
  C   C76       1.0  0.95202  0.55319  0.75762  1.0000
  C   C77       1.0  0.45506  0.05384  0.75461  1.0000
  C   C78       1.0  0.04380  0.55311  0.74388  1.0000
  C   C79       1.0  0.90517  0.54544  0.83454  1.0000
  C   C80       1.0  0.40881  0.04647  0.83831  1.0000
  C   C81       1.0  0.09127  0.53726  0.65215  1.0000
  C   C82       1.0  0.86018  0.56052  0.84044  1.0000
  C   C83       1.0  0.36328  0.06141  0.84785  1.0000
  C   C84       1.0  0.13536  0.55207  0.64562  1.0000
  C   C85       1.0  0.85980  0.58489  0.77995  1.0000
  C   C86       1.0  0.36187  0.08531  0.78417  1.0000
  C   C87       1.0  0.13475  0.58343  0.72752  1.0000
  C   C88       1.0  0.90686  0.59276  0.70590  1.0000
  C   C89       1.0  0.40840  0.09331  0.70680  1.0000
  C   C90       1.0  0.08727  0.59917  0.81839  1.0000
  C   C91       1.0  0.95190  0.57672  0.69066  1.0000
  C   C92       1.0  0.45389  0.07743  0.68841  1.0000
  C   C93       1.0  0.04306  0.58448  0.82871  1.0000
  H   H33       1.0  0.90407  0.52809  0.89337  1.0000
  H   H34       1.0  0.40860  0.02926  0.89780  1.0000
  H   H35       1.0  0.09335  0.51301  0.58624  1.0000
  H   H36       1.0  0.82432  0.55445  0.90202  1.0000
  H   H37       1.0  0.32798  0.05553  0.91426  1.0000
  H   H38       1.0  0.17125  0.53910  0.57145  1.0000
  H   H39       1.0  0.90774  0.61058  0.65010  1.0000
  H   H40       1.0  0.40845  0.11095  0.64996  1.0000
  H   H41       1.0  0.08521  0.62341  0.88624  1.0000
  H   H42       1.0  0.98744  0.58220  0.62456  1.0000
  H   H43       1.0  0.48900  0.08310  0.62039  1.0000
  H   H44       1.0  0.00731  0.59758  0.90157  1.0000
  C   C94       1.0  0.96753  0.48746  0.65989  1.0000
  C   C95       1.0  0.46690  0.98810  0.66103  1.0000
  C   C96       1.0  0.03424  0.49658  0.81607  1.0000
  C   C97       1.0  0.53821  0.99522  0.79333  1.0000
  C   C98       1.0  0.96856  0.45800  0.65880  1.0000
  C   C99       1.0  0.46687  0.95872  0.66080  1.0000
  C   C100      1.0  0.03562  0.46690  0.81108  1.0000
  C   C101      1.0  0.53903  0.96542  0.78646  1.0000
  H   H45       1.0  0.94245  0.49481  0.59288  1.0000
  H   H46       1.0  0.43987  0.99608  0.60367  1.0000
  H   H47       1.0  0.05902  0.51180  0.88270  1.0000
  H   H48       1.0  0.56554  0.00951  0.85037  1.0000
  H   H49       1.0  0.94411  0.44301  0.58874  1.0000
  H   H50       1.0  0.43858  0.94502  0.60545  1.0000
  H   H51       1.0  0.06118  0.45987  0.87774  1.0000
  H   H52       1.0  0.56737  0.95739  0.83915  1.0000
  C   C102      1.0  0.81195  0.60088  0.78767  1.0000
  C   C103      1.0  0.31348  0.10067  0.79140  1.0000
  C   C104      1.0  0.77049  0.58476  0.74334  1.0000
  C   C105      1.0  0.27217  0.08413  0.74965  1.0000
  C   C106      1.0  0.72614  0.59973  0.74249  1.0000
  C   C107      1.0  0.22714  0.09848  0.74893  1.0000
  C   C108      1.0  0.72102  0.63146  0.78885  1.0000
  C   C109      1.0  0.22138  0.13007  0.79164  1.0000
  C   C110      1.0  0.76234  0.64758  0.83533  1.0000
  C   C111      1.0  0.26243  0.14658  0.83681  1.0000
  C   C112      1.0  0.80690  0.63255  0.83432  1.0000
  C   C113      1.0  0.30749  0.13224  0.83607  1.0000
  H   H53       1.0  0.77414  0.56012  0.70343  1.0000
  H   H54       1.0  0.27640  0.05960  0.71228  1.0000
  H   H55       1.0  0.69546  0.58677  0.69943  1.0000
  H   H56       1.0  0.19659  0.08496  0.70885  1.0000
  H   H57       1.0  0.75899  0.67223  0.87593  1.0000
  H   H58       1.0  0.25814  0.17115  0.87633  1.0000
  H   H59       1.0  0.83806  0.64545  0.87420  1.0000
  H   H60       1.0  0.33828  0.14551  0.87554  1.0000
  N   N15       1.0  0.99854  0.53803  0.74902  1.0000
  N   N16       1.0  0.50180  0.03780  0.73691  1.0000
  C   C114      1.0  0.99987  0.50756  0.74220  1.0000
  C   C115      1.0  0.50231  0.00733  0.73022  1.0000
  C   C116      1.0  0.00198  0.44680  0.73613  1.0000
  C   C117      1.0  0.50281  0.94617  0.72296  1.0000
  H   H61       1.0  0.63421  0.70770  0.69213  1.0000
  H   H62       1.0  0.13369  0.20814  0.71465  1.0000
  H   H63       1.0  0.93133  0.26230  0.65849  1.0000
  H   H64       1.0  0.06664  0.27338  0.85268  1.0000
  H   H65       1.0  0.54575  0.64300  0.85224  1.0000
  H   H66       1.0  0.04563  0.14246  0.86459  1.0000
  C   C118      1.0  0.67414  0.64720  0.78644  1.0000
  C   C119      1.0  0.17432  0.14580  0.79004  1.0000
  C   C120      1.0  0.99858  0.32454  0.75490  1.0000
  H   H67       1.0  0.71290  0.68116  0.70142  1.0000
  H   H68       1.0  0.62361  0.61723  0.87175  1.0000
  H   H69       1.0  0.21282  0.18008  0.70758  1.0000
  H   H70       1.0  0.12393  0.11557  0.87340  1.0000
  H   H71       1.0  0.93097  0.31417  0.65437  1.0000
  H   H72       1.0  0.06615  0.32567  0.85705  1.0000
  C   C121      1.0  0.54077  0.88153  0.81270  1.0000
  C   C122      1.0  0.50667  0.86002  0.76420  1.0000
  C  Sn1       1.0  0.46899  0.86557  0.68489  1.0000
  C  Sn2       1.0  0.46548  0.89316  0.65368  1.0000
  C   C123      1.0  0.49979  0.91452  0.70256  1.0000
  C   C124      1.0  0.53734  0.90875  0.78189  1.0000
  H   H73       1.0  0.56984  0.87705  0.87399  1.0000
  O  Te1       1.0  0.43522  0.84384  0.63733  1.0000
  O  Te2       1.0  0.42819  0.89928  0.57456  1.0000
  H   H74       1.0  0.56375  0.92539  0.81932  1.0000
  Mg  Mg1       1.0  0.39096  0.86262  0.53334  1.0000
  C   C125      1.0  0.42603  0.09409  0.20643  1.0000
  C   C126      1.0  0.37598  0.08918  0.26882  1.0000
  C  Sn3       1.0  0.36567  0.06641  0.33994  1.0000
  C  Sn4       1.0  0.40630  0.04825  0.34864  1.0000
  C   C127      1.0  0.45623  0.05335  0.28598  1.0000
  C   C128      1.0  0.46612  0.07620  0.21501  1.0000
  H   H75       1.0  0.43368  0.11177  0.15160  1.0000
  O  Te3       1.0  0.31544  0.06181  0.40162  1.0000
  O  Te4       1.0  0.39707  0.02535  0.41914  1.0000
  H   H76       1.0  0.50488  0.08000  0.16682  1.0000
  Mg  Mg2       1.0  0.30509  0.02780  0.48613  1.0000
  C   C129      1.0  0.54141  0.78983  0.31289  1.0000
  C   C130      1.0  0.50849  0.76795  0.25747  1.0000
  C  Sn5       1.0  0.47032  0.77387  0.18114  1.0000
  C  Sn6       1.0  0.46512  0.80225  0.16005  1.0000
  C   C131      1.0  0.49827  0.82398  0.21581  1.0000
  C   C132      1.0  0.53632  0.81781  0.29207  1.0000
  H   H77       1.0  0.57087  0.78505  0.37180  1.0000
  O  Te5       1.0  0.43774  0.75176  0.12656  1.0000
  O  Te6       1.0  0.42732  0.80876  0.08412  1.0000
  H   H78       1.0  0.56182  0.83475  0.33486  1.0000
  Mg  Mg3       1.0  0.39217  0.77132  0.03054  1.0000
  C   C133      1.0  0.46535  0.98038  0.14324  1.0000
  C   C134      1.0  0.49257  0.00368  0.22550  1.0000
  C  Sn7       1.0  0.52894  0.99807  0.30958  1.0000
  C  Sn8       1.0  0.53815  0.96855  0.31107  1.0000
  C   C135      1.0  0.51074  0.94539  0.22829  1.0000
  C   C136      1.0  0.47442  0.95126  0.14459  1.0000
  H   H79       1.0  0.43726  0.98492  0.07840  1.0000
  O  Te7       1.0  0.55578  0.02161  0.39118  1.0000
  O  Te8       1.0  0.57430  0.96231  0.39408  1.0000
  H   H80       1.0  0.45338  0.93321  0.08081  1.0000
  Mg  Mg4       1.0  0.60115  0.00188  0.48706  1.0000
  C   C137      1.0  0.96170  0.46446  0.15566  1.0000
  C   C138      1.0  0.99503  0.44857  0.20830  1.0000
  C  Sn9       1.0  0.03296  0.46310  0.28620  1.0000
  C  Sn10      1.0  0.03750  0.49412  0.31174  1.0000
  C   C139      1.0  0.00394  0.50983  0.25872  1.0000
  C   C140      1.0  0.96614  0.49507  0.18085  1.0000
  H   H81       1.0  0.93243  0.45305  0.09549  1.0000
  O  Te9       1.0  0.06596  0.44688  0.33797  1.0000
  O  Te10      1.0  0.07505  0.50920  0.38932  1.0000
  H   H82       1.0  0.94031  0.50739  0.14021  1.0000
  Mg  Mg5       1.0  0.11097  0.47738  0.43778  1.0000
  C   C141      1.0  0.23856  0.58618  0.75464  1.0000
  C   C142      1.0  0.19187  0.59548  0.73480  1.0000
  C  Sn11      1.0  0.18632  0.62171  0.69575  1.0000
  C  Sn12      1.0  0.22837  0.63888  0.67624  1.0000
  C   C143      1.0  0.27494  0.62936  0.69623  1.0000
  C   C144      1.0  0.28006  0.60309  0.73535  1.0000
  H   H83       1.0  0.24254  0.56584  0.78482  1.0000
  O  Te11      1.0  0.13940  0.63069  0.67643  1.0000
  O  Te12      1.0  0.22389  0.66517  0.63715  1.0000
  H   H84       1.0  0.31623  0.59588  0.75060  1.0000
  Mg  Mg6       1.0  0.15216  0.66816  0.62334  1.0000
  C   C145      1.0  0.57909  0.09867  0.34354  1.0000
  C   C146      1.0  0.62885  0.08609  0.26363  1.0000
  C  Sn13      1.0  0.63855  0.05551  0.16129  1.0000
  C  Sn14      1.0  0.59759  0.03725  0.13874  1.0000
  C   C147      1.0  0.54794  0.05005  0.21914  1.0000
  C   C148      1.0  0.53867  0.08068  0.32132  1.0000
  H   H85       1.0  0.57191  0.12236  0.42253  1.0000
  O  Te13      1.0  0.68850  0.04330  0.08243  1.0000
  O  Te14      1.0  0.60621  0.00662  0.03709  1.0000
  H   H86       1.0  0.50013  0.09041  0.38308  1.0000
  Mg  Mg7       1.0  0.61414  0.06017  0.95629  1.0000
  C   C149      1.0  0.69393  0.13376  0.69820  1.0000
  C   C150      1.0  0.68451  0.10575  0.71517  1.0000
  C  Sn15      1.0  0.72212  0.08874  0.74305  1.0000
  C  Sn16      1.0  0.77001  0.10004  0.75413  1.0000
  C   C151      1.0  0.77905  0.12810  0.73710  1.0000
  C   C152      1.0  0.74115  0.14493  0.70918  1.0000
  H   H87       1.0  0.66460  0.14679  0.67670  1.0000
  O  Te15      1.0  0.71208  0.06080  0.75965  1.0000
  O  Te16      1.0  0.80828  0.08351  0.78198  1.0000
  H   H88       1.0  0.74845  0.16662  0.69616  1.0000
  Mg  Mg8       1.0  0.75930  0.04665  0.79626  1.0000
  C   C153      1.0  0.40377  0.63777  0.73240  1.0000
  C   C154      1.0  0.41344  0.66553  0.71231  1.0000
  C  Sn17      1.0  0.37453  0.68379  0.70040  1.0000
  C  Sn18      1.0  0.32505  0.67400  0.70884  1.0000
  C   C155      1.0  0.31576  0.64620  0.72908  1.0000
  C   C156      1.0  0.35498  0.62811  0.74081  1.0000
  H   H89       1.0  0.43410  0.62378  0.74158  1.0000
  O  Te17      1.0  0.38485  0.71145  0.68029  1.0000
  O  Te18      1.0  0.28546  0.69180  0.69734  1.0000
  H   H90       1.0  0.34747  0.60662  0.75648  1.0000
  Mg  Mg9       1.0  0.31837  0.72770  0.67064  1.0000
  C   C157      1.0  0.95362  0.37528  0.69917  1.0000
  C   C158      1.0  0.99023  0.35788  0.72914  1.0000
  C  Sn19      1.0  0.03326  0.37058  0.77938  1.0000
  C  Sn20      1.0  0.03964  0.40128  0.79994  1.0000
  C   C159      1.0  0.00278  0.41851  0.76976  1.0000
  C   C160      1.0  0.95988  0.40557  0.71948  1.0000
  H   H91       1.0  0.92041  0.36527  0.66036  1.0000
  O  Te19      1.0  0.06947  0.35287  0.80874  1.0000
  O  Te20      1.0  0.08227  0.41455  0.85010  1.0000
  H   H92       1.0  0.93152  0.41905  0.69639  1.0000
  Mg  Mg10      1.0  0.12109  0.38116  0.87497  1.0000
  C   C161      1.0  0.59199  0.03696  0.62494  1.0000
  C   C162      1.0  0.55932  0.04797  0.71643  1.0000
  C  Sn21      1.0  0.54753  0.07867  0.81352  1.0000
  C  Sn22      1.0  0.58634  0.09866  0.81883  1.0000
  C   C163      1.0  0.63598  0.08742  0.72674  1.0000
  C   C164      1.0  0.64736  0.05666  0.63004  1.0000
  H   H93       1.0  0.60080  0.01316  0.55004  1.0000
  O  Te21      1.0  0.49764  0.08930  0.90422  1.0000
  O  Te22      1.0  0.57561  0.12945  0.91478  1.0000
  H   H94       1.0  0.68587  0.04814  0.55913  1.0000
  Mg  Mg11      1.0  0.56866  0.07336  0.01656  1.0000
  C   C165      1.0  0.05166  0.59069  0.34741  1.0000
  C   C166      1.0  0.04507  0.56054  0.26029  1.0000
  C  Sn23      1.0  0.08699  0.54008  0.16069  1.0000
  C  Sn24      1.0  0.13638  0.55006  0.14837  1.0000
  C   C167      1.0  0.14257  0.58026  0.23612  1.0000
  C   C168      1.0  0.10036  0.60054  0.33538  1.0000
  H   H95       1.0  0.01900  0.60638  0.42429  1.0000
  O  Te23      1.0  0.07973  0.51005  0.07443  1.0000
  O  Te24      1.0  0.17894  0.53009  0.04978  1.0000
  H   H96       1.0  0.10547  0.62388  0.40292  1.0000
  Mg  Mg12      1.0  0.08278  0.55116  0.95607  1.0000
  C   C169      1.0  0.09306  0.14594  0.34137  1.0000
  C   C170      1.0  0.08623  0.17201  0.30196  1.0000
  C  Sn25      1.0  0.12808  0.18628  0.24730  1.0000
  C  Sn26      1.0  0.17765  0.17417  0.23191  1.0000
  C   C171      1.0  0.18408  0.14807  0.27153  1.0000
  C   C172      1.0  0.14194  0.13398  0.32616  1.0000
  H   H97       1.0  0.06046  0.13502  0.38355  1.0000
  O  Te25      1.0  0.12058  0.21231  0.20851  1.0000
  O  Te26      1.0  0.22015  0.18798  0.17751  1.0000
  H   H98       1.0  0.14724  0.11378  0.35656  1.0000
  Mg  Mg13      1.0  0.19043  0.22299  0.13961  1.0000
  C   C173      1.0  0.90740  0.13662  0.69833  1.0000
  C   C174      1.0  0.91309  0.16722  0.72884  1.0000
  C  Sn27      1.0  0.87087  0.18739  0.76409  1.0000
  C  Sn28      1.0  0.82211  0.17666  0.76884  1.0000
  C   C175      1.0  0.81681  0.14600  0.73827  1.0000
  C   C176      1.0  0.85931  0.12601  0.70306  1.0000
  H   H99       1.0  0.94028  0.12115  0.67119  1.0000
  O  Te27      1.0  0.87723  0.21790  0.79421  1.0000
  O  Te28      1.0  0.77927  0.19633  0.80382  1.0000
  H   H100      1.0  0.85489  0.10231  0.67956  1.0000
  Mg  Mg14      1.0  0.80733  0.23588  0.83630  1.0000
  C   C177      1.0  0.82919  0.18111  0.25260  1.0000
  C   C178      1.0  0.82412  0.15040  0.22019  1.0000
  C  Sn29      1.0  0.86562  0.13102  0.20361  1.0000
  C  Sn30      1.0  0.91302  0.14268  0.21989  1.0000
  C   C179      1.0  0.91769  0.17345  0.25243  1.0000
  C   C180      1.0  0.87592  0.19263  0.26874  1.0000
  H   H101      1.0  0.79687  0.19596  0.26531  1.0000
  O  Te29      1.0  0.85990  0.10040  0.17118  1.0000
  O  Te30      1.0  0.95511  0.12383  0.20396  1.0000
  H   H102      1.0  0.87984  0.21641  0.29394  1.0000
  Mg  Mg15      1.0  0.92837  0.08374  0.15979  1.0000
  C   C181      1.0  0.28048  0.14974  0.34415  1.0000
  C   C182      1.0  0.23729  0.13753  0.29253  1.0000
  C  Sn31      1.0  0.23291  0.10653  0.24737  1.0000
  C  Sn32      1.0  0.27257  0.08746  0.25417  1.0000
  C   C183      1.0  0.31561  0.09991  0.30609  1.0000
  C   C184      1.0  0.31960  0.13095  0.35095  1.0000
  H   H103      1.0  0.28356  0.17377  0.37895  1.0000
  O  Te31      1.0  0.18951  0.09470  0.19603  1.0000
  O  Te32      1.0  0.26917  0.05640  0.20978  1.0000
  H   H104      1.0  0.35303  0.14041  0.39102  1.0000
  Mg  Mg16      1.0  0.20251  0.05096  0.14797  1.0000
  C   C185      1.0  0.45036  0.78319  0.69410  1.0000
  C   C186      1.0  0.48905  0.76511  0.70873  1.0000
  C  Sn33      1.0  0.53352  0.77734  0.74800  1.0000
  C  Sn34      1.0  0.53926  0.80825  0.77307  1.0000
  C   C187      1.0  0.50032  0.82616  0.75827  1.0000
  C   C188      1.0  0.45598  0.81369  0.71888  1.0000
  H   H105      1.0  0.41604  0.77355  0.66372  1.0000
  O  Te33      1.0  0.57181  0.75896  0.76208  1.0000
  O  Te34      1.0  0.58331  0.82106  0.81250  1.0000
  H   H106      1.0  0.42602  0.82769  0.70767  1.0000
  Mg  Mg17      1.0  0.62477  0.78681  0.81793  1.0000
  C   C189      1.0  0.04159  0.38152  0.31948  1.0000
  C   C190      1.0  0.00563  0.36078  0.28200  1.0000
  C  Sn35      1.0  0.96626  0.36684  0.21098  1.0000
  C  Sn36      1.0  0.96295  0.39419  0.17696  1.0000
  C   C191      1.0  0.99913  0.41478  0.21481  1.0000
  C   C192      1.0  0.03836  0.40850  0.28591  1.0000
  H   H107      1.0  0.07196  0.37666  0.37440  1.0000
  O  Te35      1.0  0.93064  0.34587  0.17438  1.0000
  O  Te36      1.0  0.92401  0.40081  0.10597  1.0000
  H   H108      1.0  0.06622  0.42456  0.31481  1.0000
  Mg  Mg18      1.0  0.88456  0.36511  0.07852  1.0000
