data_image0
_chemical_formula_structural       C6N8C6N8SnCSn2CSnTe4Mg2SnCSn2CSnTe4Mg2SnCSn2CSnTe4Mg2SnCSn2CSnTe4Mg2SnCSn2CSnTe4Mg2SnCSn2CSnTe4Mg2SnCSn2CSnTe4Mg2SnCSn2CSnTe4Mg2SnCSn2CSnTe4Mg2SnCSn2CSnTe4Mg2SnCSn2CSnTe4Mg2SnCSn2CSnTe4Mg2SnCSn2CSnTe4Mg2SnCSn2CSnTe4Mg2SnCSn2CSnTe4Mg2SnCSn2CSnTe4Mg2SnCSn2CSnTe4Mg2SnCSn2CSnTe4Mg2SnCSn2CSnTe4Mg2SnCSn2CSnTe4Mg2SnCSn2CSnTe4Mg2SnCSn2CSnTe4Mg2SnCSn2CSnTe4Mg2SnCSn2CSnTe4Mg2SnCSn2CSnTe4Mg2SnCSn2CSnTe4Mg2SnCSn2CSnTe4Mg2SnCSn2CSnTe4Mg2SnCSn2CSnTe4Mg2SnCSn2CSnTe4Mg2SnCSn2CSnTe4Mg2SnCSn2CSnTe4Mg2SnCSn2CSnTe4Mg2SnCSn2CSnTe4Mg2SnCSn2CSnTe4Mg2SnCSn2CSnTe4Mg2
_chemical_formula_sum              "C84 N16 Sn144 Te144 Mg72"
_cell_length_a       27.1265
_cell_length_b       47.2399
_cell_length_c       8.34426
_cell_angle_alpha    109.647
_cell_angle_beta     77.6535
_cell_angle_gamma    89.4384

_symmetry_space_group_name_H-M    'P1'
_space_group_IT_number       1

loop_
  _space_group_symop_operation_xyz
  'x, y, z'

loop_
  _atom_site_type_symbol
  _atom_site_label
  _atom_site_symmetry_multiplicity
  _atom_site_fract_x
  _atom_site_fract_y
  _atom_site_fract_z
  _atom_site_occupancy
  C   C1        1.0  0.53979  0.69220  0.26452  1.0000
  C   C2        1.0  0.04126  0.19265  0.27386  1.0000
  C   C3        1.0  0.45861  0.69023  0.23023  1.0000
  C   C4        1.0  0.95891  0.19091  0.25306  1.0000
  C   C5        1.0  0.49943  0.73250  0.23913  1.0000
  C   C6        1.0  0.99959  0.23292  0.25271  1.0000
  N   N1        1.0  0.54161  0.72054  0.26197  1.0000
  N   N2        1.0  0.04295  0.22065  0.26575  1.0000
  N   N3        1.0  0.45724  0.71809  0.21951  1.0000
  N   N4        1.0  0.95684  0.21878  0.24306  1.0000
  N   N5        1.0  0.49901  0.67625  0.25187  1.0000
  N   N6        1.0  0.00001  0.17697  0.27085  1.0000
  N   N7        1.0  0.00100  0.53750  0.24407  1.0000
  N   N8        1.0  0.50263  0.03815  0.24805  1.0000
  C   C7        1.0  0.53940  0.69175  0.75547  1.0000
  C   C8        1.0  0.03889  0.19239  0.77851  1.0000
  C   C9        1.0  0.45788  0.68968  0.72412  1.0000
  C   C10       1.0  0.95705  0.19140  0.75222  1.0000
  C   C11       1.0  0.49901  0.73167  0.72661  1.0000
  C   C12       1.0  0.99863  0.23334  0.75893  1.0000
  N   N9        1.0  0.54148  0.71977  0.74790  1.0000
  N   N10       1.0  0.04116  0.22070  0.77536  1.0000
  N   N11       1.0  0.45640  0.71746  0.71215  1.0000
  N   N12       1.0  0.95557  0.21956  0.74639  1.0000
  N   N13       1.0  0.49849  0.67587  0.74538  1.0000
  N   N14       1.0  0.99775  0.17679  0.76789  1.0000
  N   N15       1.0  0.99854  0.53803  0.74902  1.0000
  N   N16       1.0  0.50180  0.03780  0.73691  1.0000
  C  Sn1       1.0  0.64553  0.68157  0.18516  1.0000
  C   C13       1.0  0.59558  0.67501  0.23365  1.0000
  C  Sn2       1.0  0.58419  0.65557  0.32826  1.0000
  C  Sn3       1.0  0.62352  0.64242  0.37549  1.0000
  C   C14       1.0  0.67343  0.64897  0.32704  1.0000
  C  Sn4       1.0  0.68486  0.66841  0.23239  1.0000
  O  Te1       1.0  0.65605  0.70107  0.09061  1.0000
  O  Te2       1.0  0.53397  0.64935  0.37520  1.0000
  O  Te3       1.0  0.61296  0.62290  0.47011  1.0000
  O  Te4       1.0  0.73504  0.67464  0.18549  1.0000
  Mg  Mg1       1.0  0.53868  0.62140  0.50380  1.0000
  Mg  Mg2       1.0  0.73037  0.70260  0.05698  1.0000
  C  Sn5       1.0  0.12146  0.13423  0.29217  1.0000
  C   C15       1.0  0.17089  0.14227  0.25384  1.0000
  C  Sn6       1.0  0.17954  0.17064  0.24134  1.0000
  C  Sn7       1.0  0.13792  0.19141  0.26782  1.0000
  C   C16       1.0  0.08853  0.18336  0.30616  1.0000
  C  Sn8       1.0  0.07984  0.15499  0.31865  1.0000
  O  Te5       1.0  0.11370  0.10575  0.30404  1.0000
  O  Te6       1.0  0.22930  0.17817  0.20281  1.0000
  O  Te7       1.0  0.14573  0.21990  0.25592  1.0000
  O  Te8       1.0  0.03012  0.14746  0.35718  1.0000
  Mg  Mg3       1.0  0.22045  0.21967  0.20058  1.0000
  Mg  Mg4       1.0  0.03893  0.10597  0.35954  1.0000
  C  Sn9       1.0  0.37364  0.63598  0.28978  1.0000
  C   C17       1.0  0.32729  0.64516  0.26686  1.0000
  C  Sn10      1.0  0.32379  0.66870  0.20273  1.0000
  C  Sn11      1.0  0.36752  0.68335  0.16050  1.0000
  C   C18       1.0  0.41383  0.67416  0.18339  1.0000
  C  Sn12      1.0  0.41737  0.65063  0.24755  1.0000
  O  Te9       1.0  0.37627  0.61240  0.35407  1.0000
  O  Te10      1.0  0.27704  0.67748  0.18099  1.0000
  O  Te11      1.0  0.36485  0.70694  0.09617  1.0000
  O  Te12      1.0  0.46409  0.64183  0.26926  1.0000
  Mg  Mg5       1.0  0.29267  0.71075  0.08921  1.0000
  Mg  Mg6       1.0  0.44850  0.60856  0.36094  1.0000
  C  Sn13      1.0  0.83396  0.17659  0.19385  1.0000
  C   C19       1.0  0.82877  0.14648  0.17937  1.0000
  C  Sn14      1.0  0.86624  0.12985  0.21044  1.0000
  C  Sn15      1.0  0.90980  0.14361  0.25707  1.0000
  C   C20       1.0  0.91497  0.17370  0.27156  1.0000
  C  Sn16      1.0  0.87752  0.19034  0.24049  1.0000
  O  Te13      1.0  0.79603  0.19278  0.16221  1.0000
  O  Te14      1.0  0.86021  0.09978  0.19509  1.0000
  O  Te15      1.0  0.94775  0.12739  0.28871  1.0000
  O  Te16      1.0  0.88353  0.22040  0.25584  1.0000
  Mg  Mg7       1.0  0.92226  0.08709  0.25132  1.0000
  Mg  Mg8       1.0  0.82150  0.23311  0.19973  1.0000
  C  Sn17      1.0  0.45139  0.80097  0.21113  1.0000
  C   C21       1.0  0.48519  0.82231  0.26572  1.0000
  C  Sn18      1.0  0.53045  0.81364  0.29785  1.0000
  C  Sn19      1.0  0.54218  0.78300  0.27483  1.0000
  C   C22       1.0  0.50838  0.76167  0.22025  1.0000
  C  Sn20      1.0  0.46311  0.77032  0.18812  1.0000
  O  Te17      1.0  0.40636  0.81014  0.17977  1.0000
  O  Te18      1.0  0.56364  0.83539  0.35238  1.0000
  O  Te19      1.0  0.58724  0.77384  0.30626  1.0000
  O  Te20      1.0  0.42994  0.74859  0.13359  1.0000
  Mg  Mg9       1.0  0.62026  0.81180  0.37845  1.0000
  Mg  Mg10      1.0  0.37332  0.77215  0.10740  1.0000
  C  Sn21      1.0  0.04813  0.30264  0.25483  1.0000
  C   C23       1.0  0.01096  0.31895  0.22018  1.0000
  C  Sn22      1.0  0.96324  0.30838  0.21385  1.0000
  C  Sn23      1.0  0.95244  0.28095  0.24287  1.0000
  C   C24       1.0  0.98959  0.26466  0.27752  1.0000
  C  Sn24      1.0  0.03732  0.27521  0.28385  1.0000
  O  Te21      1.0  0.09556  0.31363  0.26055  1.0000
  O  Te22      1.0  0.92670  0.32508  0.17891  1.0000
  O  Te23      1.0  0.90496  0.26997  0.23712  1.0000
  O  Te24      1.0  0.07385  0.25854  0.31879  1.0000
  Mg  Mg11      1.0  0.86771  0.30079  0.18481  1.0000
  Mg  Mg12      1.0  0.13284  0.28281  0.31301  1.0000
  C  Sn25      1.0  0.92008  0.58432  0.14211  1.0000
  C   C25       1.0  0.87073  0.58117  0.22272  1.0000
  C  Sn26      1.0  0.86229  0.56523  0.33852  1.0000
  C  Sn27      1.0  0.90406  0.55218  0.37461  1.0000
  C   C26       1.0  0.95338  0.55533  0.29406  1.0000
  C  Sn28      1.0  0.96185  0.57126  0.17821  1.0000
  O  Te25      1.0  0.92763  0.60035  0.02679  1.0000
  O  Te26      1.0  0.81261  0.56238  0.41746  1.0000
  O  Te27      1.0  0.89648  0.53613  0.49003  1.0000
  O  Te28      1.0  0.01150  0.57412  0.09931  1.0000
  Mg  Mg13      1.0  0.82177  0.53844  0.56510  1.0000
  Mg  Mg14      1.0  0.93559  0.65783  0.95173  1.0000
  C  Sn29      1.0  0.39734  0.04268  0.29697  1.0000
  C   C27       1.0  0.44703  0.04808  0.23381  1.0000
  C  Sn30      1.0  0.45722  0.07523  0.20645  1.0000
  C  Sn31      1.0  0.41691  0.09747  0.24309  1.0000
  C   C28       1.0  0.36725  0.09207  0.30624  1.0000
  C  Sn32      1.0  0.35703  0.06492  0.33361  1.0000
  O  Te29      1.0  0.37097  0.01537  0.32336  1.0000
  O  Te30      1.0  0.50721  0.08011  0.14316  1.0000
  O  Te31      1.0  0.42625  0.12480  0.21664  1.0000
  O  Te32      1.0  0.30708  0.06004  0.39689  1.0000
  Mg  Mg15      1.0  0.50068  0.12091  0.12861  1.0000
  Mg  Mg16      1.0  0.29649  0.01926  0.41157  1.0000
  C  Sn33      1.0  0.08008  0.59561  0.37599  1.0000
  C   C29       1.0  0.12960  0.58360  0.28692  1.0000
  C  Sn34      1.0  0.13864  0.55512  0.15633  1.0000
  C  Sn35      1.0  0.09733  0.53829  0.11378  1.0000
  C   C30       1.0  0.04785  0.55030  0.20280  1.0000
  C  Sn36      1.0  0.03877  0.57878  0.33344  1.0000
  O  Te33      1.0  0.07192  0.62413  0.50606  1.0000
  O  Te34      1.0  0.18848  0.54359  0.06914  1.0000
  O  Te35      1.0  0.03873  0.56952  0.98359  1.0000
  O  Te36      1.0  0.98896  0.59032  0.42058  1.0000
  Mg  Mg17      1.0  0.11341  0.56349  0.90183  1.0000
  Mg  Mg18      1.0  0.99719  0.63018  0.58784  1.0000
  C  Sn37      1.0  0.55404  0.09063  0.30334  1.0000
  C   C31       1.0  0.54749  0.06028  0.22145  1.0000
  C  Sn38      1.0  0.58909  0.03867  0.15245  1.0000
  C  Sn39      1.0  0.63827  0.04759  0.16566  1.0000
  C   C32       1.0  0.64480  0.07793  0.24753  1.0000
  C  Sn40      1.0  0.60321  0.09955  0.31655  1.0000
  O  Te37      1.0  0.51191  0.11185  0.37139  1.0000
  O  Te38      1.0  0.58160  0.00846  0.07113  1.0000
  O  Te39      1.0  0.68041  0.02634  0.09752  1.0000
  O  Te40      1.0  0.61069  0.12975  0.39786  1.0000
  Mg  Mg19      1.0  0.56700  0.04770  0.99882  1.0000
  Mg  Mg20      1.0  0.54145  0.15028  0.47028  1.0000
  C  Sn41      1.0  0.95503  0.48384  0.20616  1.0000
  C   C33       1.0  0.98770  0.50568  0.26482  1.0000
  C  Sn42      1.0  0.03328  0.49749  0.29687  1.0000
  C  Sn43      1.0  0.04650  0.46683  0.26963  1.0000
  C   C34       1.0  0.01385  0.44501  0.21098  1.0000
  C  Sn44      1.0  0.96826  0.45318  0.17892  1.0000
  O  Te41      1.0  0.90967  0.49253  0.17495  1.0000
  O  Te42      1.0  0.06531  0.51973  0.35552  1.0000
  O  Te43      1.0  0.09191  0.45815  0.30091  1.0000
  O  Te44      1.0  0.93624  0.43096  0.12029  1.0000
  Mg  Mg21      1.0  0.12297  0.49669  0.37960  1.0000
  Mg  Mg22      1.0  0.87859  0.45397  0.09607  1.0000
  C  Sn45      1.0  0.55124  0.98727  0.26746  1.0000
  C   C35       1.0  0.51975  0.00231  0.20381  1.0000
  C  Sn46      1.0  0.47544  0.99026  0.16179  1.0000
  C  Sn47      1.0  0.46231  0.96260  0.18396  1.0000
  C   C36       1.0  0.49379  0.94757  0.24760  1.0000
  C  Sn48      1.0  0.53811  0.95961  0.28962  1.0000
  O  Te45      1.0  0.59536  0.99973  0.30863  1.0000
  O  Te46      1.0  0.44456  0.00571  0.09832  1.0000
  O  Te47      1.0  0.41815  0.95014  0.14272  1.0000
  O  Te48      1.0  0.56897  0.94418  0.35309  1.0000
  Mg  Mg23      1.0  0.38839  0.97963  0.06065  1.0000
  Mg  Mg24      1.0  0.62514  0.97024  0.39088  1.0000
  C  Sn49      1.0  0.78092  0.64521  0.27720  1.0000
  C   C37       1.0  0.73583  0.63294  0.24516  1.0000
  C  Sn50      1.0  0.72776  0.60360  0.24157  1.0000
  C  Sn51      1.0  0.76552  0.58616  0.27072  1.0000
  C   C38       1.0  0.81057  0.59843  0.30277  1.0000
  C  Sn52      1.0  0.81868  0.62778  0.30636  1.0000
  O  Te49      1.0  0.78818  0.67460  0.28021  1.0000
  O  Te50      1.0  0.68238  0.59181  0.20921  1.0000
  O  Te51      1.0  0.75822  0.55675  0.26769  1.0000
  O  Te52      1.0  0.86402  0.63956  0.33872  1.0000
  Mg  Mg25      1.0  0.69015  0.55070  0.21828  1.0000
  Mg  Mg26      1.0  0.85628  0.68068  0.32977  1.0000
  C  Sn53      1.0  0.26975  0.08688  0.20176  1.0000
  C   C39       1.0  0.31336  0.09952  0.24717  1.0000
  C  Sn54      1.0  0.31251  0.13055  0.33374  1.0000
  C  Sn55      1.0  0.26711  0.14934  0.37591  1.0000
  C   C40       1.0  0.22353  0.13670  0.33054  1.0000
  C  Sn56      1.0  0.22435  0.10567  0.24394  1.0000
  O  Te53      1.0  0.27147  0.05580  0.11527  1.0000
  O  Te54      1.0  0.35659  0.14267  0.37773  1.0000
  O  Te55      1.0  0.26542  0.18044  0.46247  1.0000
  O  Te56      1.0  0.18030  0.09356  0.19998  1.0000
  Mg  Mg27      1.0  0.33526  0.18630  0.49493  1.0000
  Mg  Mg28      1.0  0.20158  0.04992  0.08286  1.0000
  C  Sn57      1.0  0.23369  0.59228  0.30988  1.0000
  C   C41       1.0  0.18835  0.60023  0.27525  1.0000
  C  Sn58      1.0  0.18661  0.62145  0.19310  1.0000
  C  Sn59      1.0  0.23111  0.63498  0.14443  1.0000
  C   C42       1.0  0.27642  0.62703  0.17903  1.0000
  C  Sn60      1.0  0.27820  0.60582  0.26121  1.0000
  O  Te57      1.0  0.23456  0.57102  0.39213  1.0000
  O  Te58      1.0  0.14083  0.62904  0.15990  1.0000
  O  Te59      1.0  0.23021  0.65626  0.06212  1.0000
  O  Te60      1.0  0.32394  0.59823  0.29437  1.0000
  Mg  Mg29      1.0  0.15882  0.65917  0.04479  1.0000
  Mg  Mg30      1.0  0.30600  0.56808  0.40939  1.0000
  C  Sn61      1.0  0.73655  0.09106  0.30465  1.0000
  C   C43       1.0  0.69162  0.09898  0.26739  1.0000
  C  Sn62      1.0  0.69055  0.12006  0.18394  1.0000
  C  Sn63      1.0  0.73532  0.13349  0.13663  1.0000
  C   C44       1.0  0.78022  0.12556  0.17385  1.0000
  C  Sn64      1.0  0.78132  0.10449  0.25734  1.0000
  O  Te61      1.0  0.73674  0.06994  0.38816  1.0000
  O  Te62      1.0  0.64518  0.12763  0.14811  1.0000
  O  Te63      1.0  0.73509  0.15462  0.05306  1.0000
  O  Te64      1.0  0.82666  0.09692  0.29313  1.0000
  Mg  Mg31      1.0  0.66406  0.15755  0.03213  1.0000
  Mg  Mg32      1.0  0.80783  0.06699  0.40902  1.0000
  C  Sn65      1.0  0.96868  0.37060  0.13698  1.0000
  C   C45       1.0  0.99997  0.35566  0.20187  1.0000
  C  Sn66      1.0  0.03082  0.37179  0.30875  1.0000
  C  Sn67      1.0  0.03038  0.40352  0.35177  1.0000
  C   C46       1.0  0.99911  0.41845  0.28692  1.0000
  C  Sn68      1.0  0.96824  0.40233  0.18000  1.0000
  O  Te65      1.0  0.93815  0.35402  0.03036  1.0000
  O  Te66      1.0  0.06179  0.35636  0.37201  1.0000
  O  Te67      1.0  0.06095  0.42010  0.45847  1.0000
  O  Te68      1.0  0.93728  0.41775  0.11678  1.0000
  Mg  Mg33      1.0  0.09658  0.38890  0.51263  1.0000
  Mg  Mg34      1.0  0.83566  0.44500  0.97623  1.0000
  C  Sn69      1.0  0.45098  0.89521  0.24971  1.0000
  C   C47       1.0  0.48894  0.91487  0.27747  1.0000
  C  Sn70      1.0  0.53781  0.90392  0.26888  1.0000
  C  Sn71      1.0  0.54898  0.87266  0.23166  1.0000
  C   C48       1.0  0.51103  0.85301  0.20390  1.0000
  C  Sn72      1.0  0.46214  0.86395  0.21249  1.0000
  O  Te69      1.0  0.40239  0.90666  0.25892  1.0000
  O  Te70      1.0  0.57514  0.92401  0.29716  1.0000
  O  Te71      1.0  0.59762  0.86122  0.22247  1.0000
  O  Te72      1.0  0.42484  0.84387  0.18420  1.0000
  Mg  Mg35      1.0  0.63560  0.89756  0.27065  1.0000
  Mg  Mg36      1.0  0.36437  0.87030  0.21059  1.0000
  C  Sn73      1.0  0.61704  0.63280  0.77926  1.0000
  C   C49       1.0  0.66660  0.64103  0.74927  1.0000
  C  Sn74      1.0  0.67584  0.66968  0.74228  1.0000
  C  Sn75      1.0  0.63467  0.69055  0.76586  1.0000
  C   C50       1.0  0.58515  0.68232  0.79585  1.0000
  C  Sn76      1.0  0.57588  0.65367  0.80284  1.0000
  O  Te73      1.0  0.60869  0.60404  0.78574  1.0000
  O  Te74      1.0  0.72572  0.67738  0.71207  1.0000
  O  Te75      1.0  0.64306  0.71933  0.75935  1.0000
  O  Te76      1.0  0.52603  0.64597  0.83305  1.0000
  Mg  Mg37      1.0  0.71773  0.71926  0.71478  1.0000
  Mg  Mg38      1.0  0.53397  0.60411  0.83046  1.0000
  C  Sn77      1.0  0.14437  0.18094  0.69443  1.0000
  C   C51       1.0  0.09430  0.17466  0.74362  1.0000
  C  Sn78      1.0  0.08278  0.15469  0.83469  1.0000
  C  Sn79      1.0  0.12213  0.14072  0.87760  1.0000
  C   C52       1.0  0.17217  0.14701  0.82845  1.0000
  C  Sn80      1.0  0.18372  0.16697  0.73734  1.0000
  O  Te77      1.0  0.15501  0.20098  0.60346  1.0000
  O  Te78      1.0  0.03244  0.14875  0.88241  1.0000
  O  Te79      1.0  0.11146  0.12067  0.96864  1.0000
  O  Te80      1.0  0.23403  0.17291  0.68965  1.0000
  Mg  Mg39      1.0  0.10382  0.06007  0.00506  1.0000
  Mg  Mg40      1.0  0.22949  0.20183  0.56709  1.0000
  C  Sn81      1.0  0.33459  0.67363  0.65226  1.0000
  C   C53       1.0  0.32621  0.64549  0.66862  1.0000
  C  Sn82      1.0  0.36076  0.63115  0.72513  1.0000
  C  Sn83      1.0  0.40460  0.64524  0.76627  1.0000
  C   C54       1.0  0.41297  0.67337  0.74993  1.0000
  C  Sn84      1.0  0.37843  0.68773  0.69340  1.0000
  O  Te81      1.0  0.29954  0.68756  0.59554  1.0000
  O  Te82      1.0  0.35157  0.60301  0.74041  1.0000
  O  Te83      1.0  0.43966  0.63129  0.82302  1.0000
  O  Te84      1.0  0.38760  0.71585  0.67814  1.0000
  Mg  Mg41      1.0  0.41044  0.59306  0.82305  1.0000
  Mg  Mg42      1.0  0.32875  0.72582  0.59561  1.0000
  C  Sn85      1.0  0.87835  0.13110  0.74356  1.0000
  C   C55       1.0  0.82926  0.14277  0.75989  1.0000
  C  Sn86      1.0  0.82068  0.17162  0.75462  1.0000
  C  Sn87      1.0  0.86202  0.18916  0.73246  1.0000
  C   C56       1.0  0.91108  0.17749  0.71611  1.0000
  C  Sn88      1.0  0.91970  0.14865  0.72140  1.0000
  O  Te85      1.0  0.88605  0.10221  0.74918  1.0000
  O  Te86      1.0  0.77126  0.18280  0.77129  1.0000
  O  Te87      1.0  0.85429  0.21807  0.72685  1.0000
  O  Te88      1.0  0.96908  0.13746  0.70471  1.0000
  Mg  Mg43      1.0  0.78007  0.22339  0.75531  1.0000
  Mg  Mg44      1.0  0.96031  0.09687  0.72058  1.0000
  C  Sn89      1.0  0.54937  0.80071  0.72140  1.0000
  C   C57       1.0  0.51138  0.81780  0.69586  1.0000
  C  Sn90      1.0  0.46272  0.80820  0.70071  1.0000
  C  Sn91      1.0  0.45178  0.78095  0.73184  1.0000
  C   C58       1.0  0.48976  0.76388  0.75739  1.0000
  C  Sn92      1.0  0.53844  0.77346  0.75254  1.0000
  O  Te89      1.0  0.59775  0.81074  0.71601  1.0000
  O  Te90      1.0  0.42536  0.82567  0.67474  1.0000
  O  Te91      1.0  0.40335  0.77093  0.73721  1.0000
  O  Te92      1.0  0.57578  0.75601  0.77851  1.0000
  Mg  Mg45      1.0  0.36524  0.80255  0.69427  1.0000
  Mg  Mg46      1.0  0.63591  0.77911  0.75910  1.0000
  C  Sn93      1.0  0.03158  0.29199  0.86263  1.0000
  C   C59       1.0  0.99843  0.27036  0.80557  1.0000
  C  Sn94      1.0  0.96613  0.27458  0.70413  1.0000
  C  Sn95      1.0  0.96700  0.30096  0.65868  1.0000
  C   C60       1.0  0.00014  0.32256  0.71570  1.0000
  C  Sn96      1.0  0.03245  0.31836  0.81717  1.0000
  O  Te93      1.0  0.06354  0.28730  0.96390  1.0000
  O  Te94      1.0  0.93330  0.25265  0.64867  1.0000
  O  Te95      1.0  0.93500  0.30564  0.55732  1.0000
  O  Te96      1.0  0.06527  0.34027  0.87260  1.0000
  Mg  Mg47      1.0  0.89705  0.26927  0.51313  1.0000
  Mg  Mg48      1.0  0.16834  0.26391  0.00806  1.0000
  C  Sn97      1.0  0.89329  0.54126  0.79395  1.0000
  C   C61       1.0  0.94280  0.54690  0.73053  1.0000
  C  Sn98      1.0  0.95234  0.57378  0.69890  1.0000
  C  Sn99      1.0  0.91154  0.59548  0.73143  1.0000
  C   C62       1.0  0.86206  0.58984  0.79484  1.0000
  C  Sn100     1.0  0.85249  0.56296  0.82648  1.0000
  O  Te97      1.0  0.88464  0.51424  0.82464  1.0000
  O  Te98      1.0  0.00216  0.57891  0.63544  1.0000
  O  Te99      1.0  0.92023  0.62252  0.70068  1.0000
  O  Te100     1.0  0.80270  0.55783  0.88993  1.0000
  Mg  Mg49      1.0  0.99467  0.61915  0.61421  1.0000
  Mg  Mg50      1.0  0.81014  0.51761  0.91129  1.0000
  C  Sn101     1.0  0.44747  0.08795  0.73255  1.0000
  C   C63       1.0  0.45510  0.06347  0.78553  1.0000
  C  Sn102     1.0  0.39745  0.04739  0.82901  1.0000
  C  Sn103     1.0  0.36528  0.05594  0.81923  1.0000
  C   C64       1.0  0.35767  0.08040  0.76624  1.0000
  C  Sn104     1.0  0.39823  0.09649  0.72277  1.0000
  O  Te101     1.0  0.48859  0.10370  0.68969  1.0000
  O  Te102     1.0  0.40601  0.02301  0.88168  1.0000
  O  Te103     1.0  0.30708  0.04017  0.86215  1.0000
  O  Te104     1.0  0.38969  0.12085  0.67010  1.0000
  Mg  Mg51      1.0  0.33788  0.00860  0.92656  1.0000
  Mg  Mg52      1.0  0.45779  0.13528  0.62511  1.0000
  C  Sn105     1.0  0.12592  0.54841  0.59665  1.0000
  C   C65       1.0  0.13164  0.57899  0.67555  1.0000
  C  Sn106     1.0  0.09285  0.59773  0.80931  1.0000
  C  Sn107     1.0  0.04741  0.58564  0.86547  1.0000
  C   C66       1.0  0.04171  0.55508  0.78662  1.0000
  C  Sn108     1.0  0.08047  0.53632  0.65282  1.0000
  O  Te105     1.0  0.16518  0.53009  0.46317  1.0000
  O  Te106     1.0  0.09945  0.62823  0.88616  1.0000
  O  Te107     1.0  0.00813  0.60399  0.99906  1.0000
  O  Te108     1.0  0.07390  0.50584  0.57601  1.0000
  Mg  Mg53      1.0  0.10186  0.58430  0.06317  1.0000
  Mg  Mg54      1.0  0.13827  0.48998  0.39906  1.0000
  C  Sn109     1.0  0.59095  0.03701  0.67987  1.0000
  C   C67       1.0  0.55793  0.04912  0.75774  1.0000
  C  Sn110     1.0  0.54542  0.08019  0.81237  1.0000
  C  Sn111     1.0  0.58378  0.09956  0.78857  1.0000
  C   C68       1.0  0.63383  0.08745  0.71072  1.0000
  C  Sn112     1.0  0.64637  0.05638  0.65608  1.0000
  O  Te109     1.0  0.60258  0.00588  0.62625  1.0000
  O  Te110     1.0  0.49508  0.09177  0.88994  1.0000
  O  Te111     1.0  0.57210  0.13071  0.84228  1.0000
  O  Te112     1.0  0.69667  0.04479  0.57852  1.0000
  Mg  Mg55      1.0  0.49810  0.13571  0.94119  1.0000
  Mg  Mg56      1.0  0.67663  0.00086  0.52715  1.0000
  C  Sn113     1.0  0.95446  0.48340  0.69853  1.0000
  C   C69       1.0  0.98450  0.50601  0.76926  1.0000
  C  Sn114     1.0  0.02851  0.49877  0.81415  1.0000
  C  Sn115     1.0  0.04279  0.46829  0.78769  1.0000
  C   C70       1.0  0.01276  0.44569  0.71697  1.0000
  C  Sn116     1.0  0.96875  0.45291  0.67206  1.0000
  O  Te113     1.0  0.91063  0.49115  0.65460  1.0000
  O  Te114     1.0  0.05792  0.52178  0.88472  1.0000
  O  Te115     1.0  0.08666  0.46055  0.83169  1.0000
  O  Te116     1.0  0.93934  0.42993  0.60151  1.0000
  Mg  Mg57      1.0  0.11427  0.49988  0.92372  1.0000
  Mg  Mg58      1.0  0.88300  0.45179  0.56238  1.0000
  C  Sn117     1.0  0.45454  0.98459  0.70441  1.0000
  C   C71       1.0  0.48838  0.00593  0.75854  1.0000
  C  Sn118     1.0  0.53427  0.99715  0.78614  1.0000
  C  Sn119     1.0  0.54660  0.96639  0.75898  1.0000
  C   C72       1.0  0.51277  0.94506  0.70486  1.0000
  C  Sn120     1.0  0.46686  0.95383  0.67725  1.0000
  O  Te117     1.0  0.40888  0.99388  0.67760  1.0000
  O  Te118     1.0  0.56749  0.01890  0.84030  1.0000
  O  Te119     1.0  0.59230  0.95711  0.78584  1.0000
  O  Te120     1.0  0.43366  0.93209  0.62310  1.0000
  Mg  Mg59      1.0  0.62510  0.99513  0.85937  1.0000
  Mg  Mg60      1.0  0.37606  0.95583  0.60390  1.0000
  C  Sn121     1.0  0.79323  0.63830  0.88875  1.0000
  C   C73       1.0  0.80530  0.60726  0.83901  1.0000
  C  Sn122     1.0  0.77627  0.58676  0.74405  1.0000
  C  Sn123     1.0  0.73431  0.59752  0.69771  1.0000
  C   C74       1.0  0.72227  0.62854  0.74741  1.0000
  C  Sn124     1.0  0.75128  0.64905  0.84242  1.0000
  O  Te121     1.0  0.82278  0.65838  0.98364  1.0000
  O  Te122     1.0  0.78906  0.55583  0.69585  1.0000
  O  Te123     1.0  0.70476  0.57741  0.60275  1.0000
  O  Te124     1.0  0.73851  0.67997  0.89057  1.0000
  Mg  Mg61      1.0  0.73731  0.53741  0.56725  1.0000
  Mg  Mg62      1.0  0.85703  0.63865  0.01909  1.0000
  C  Sn125     1.0  0.22967  0.09442  0.79639  1.0000
  C   C75       1.0  0.21805  0.12514  0.83235  1.0000
  C  Sn126     1.0  0.25644  0.14470  0.83710  1.0000
  C  Sn127     1.0  0.30752  0.13331  0.80514  1.0000
  C   C76       1.0  0.31913  0.10261  0.76917  1.0000
  C  Sn128     1.0  0.28075  0.08304  0.76442  1.0000
  O  Te125     1.0  0.19068  0.07529  0.79229  1.0000
  O  Te126     1.0  0.24389  0.17532  0.87340  1.0000
  O  Te127     1.0  0.34652  0.15247  0.80926  1.0000
  O  Te128     1.0  0.29329  0.05243  0.72812  1.0000
  Mg  Mg63      1.0  0.31037  0.19240  0.86438  1.0000
  Mg  Mg64      1.0  0.20977  0.03533  0.73702  1.0000
  C  Sn129     1.0  0.21484  0.64341  0.73606  1.0000
  C   C77       1.0  0.26076  0.63400  0.76087  1.0000
  C  Sn130     1.0  0.26991  0.60446  0.75472  1.0000
  C  Sn131     1.0  0.23240  0.58388  0.72300  1.0000
  C   C78       1.0  0.18652  0.59329  0.69818  1.0000
  C  Sn132     1.0  0.17733  0.62283  0.70434  1.0000
  O  Te129     1.0  0.20651  0.67304  0.74275  1.0000
  O  Te130     1.0  0.31610  0.59558  0.77997  1.0000
  O  Te131     1.0  0.24077  0.55423  0.71632  1.0000
  O  Te132     1.0  0.13118  0.63171  0.67907  1.0000
  Mg  Mg65      1.0  0.30966  0.55283  0.75869  1.0000
  Mg  Mg66      1.0  0.13759  0.67445  0.70023  1.0000
  C  Sn133     1.0  0.73465  0.09196  0.79948  1.0000
  C   C79       1.0  0.68915  0.10063  0.76872  1.0000
  C  Sn134     1.0  0.68727  0.12274  0.69289  1.0000
  C  Sn135     1.0  0.73179  0.13646  0.64675  1.0000
  C   C80       1.0  0.77725  0.12779  0.67748  1.0000
  C  Sn136     1.0  0.77918  0.10568  0.75334  1.0000
  O  Te133     1.0  0.73566  0.06980  0.87542  1.0000
  O  Te134     1.0  0.64134  0.13104  0.66347  1.0000
  O  Te135     1.0  0.73075  0.15863  0.57076  1.0000
  O  Te136     1.0  0.82507  0.09738  0.78273  1.0000
  Mg  Mg67      1.0  0.65917  0.16227  0.55667  1.0000
  Mg  Mg68      1.0  0.80728  0.06613  0.88943  1.0000
  C  Sn137     1.0  0.96540  0.37163  0.64811  1.0000
  C   C81       1.0  0.99994  0.35572  0.69619  1.0000
  C  Sn138     1.0  0.03445  0.37094  0.78981  1.0000
  C  Sn139     1.0  0.03441  0.40271  0.83645  1.0000
  C   C82       1.0  0.99988  0.41860  0.78840  1.0000
  C  Sn140     1.0  0.96536  0.40340  0.69475  1.0000
  O  Te137     1.0  0.93124  0.35595  0.55455  1.0000
  O  Te138     1.0  0.06863  0.35455  0.83636  1.0000
  O  Te139     1.0  0.06861  0.41838  0.93008  1.0000
  O  Te140     1.0  0.93119  0.41977  0.64824  1.0000
  Mg  Mg69      1.0  0.10775  0.38606  0.96357  1.0000
  Mg  Mg70      1.0  0.89203  0.38828  0.52112  1.0000
  C  Sn141     1.0  0.52706  0.88413  0.85812  1.0000
  C   C83       1.0  0.49584  0.86187  0.79222  1.0000
  C  Sn142     1.0  0.46837  0.86459  0.67355  1.0000
  C  Sn143     1.0  0.47221  0.89008  0.61954  1.0000
  C   C84       1.0  0.50342  0.91232  0.68541  1.0000
  C  Sn144     1.0  0.53089  0.90962  0.80411  1.0000
  O  Te141     1.0  0.55417  0.88094  0.97662  1.0000
  O  Te142     1.0  0.43740  0.84205  0.60951  1.0000
  O  Te143     1.0  0.44506  0.89326  0.50095  1.0000
  O  Te144     1.0  0.56185  0.93214  0.86811  1.0000
  Mg  Mg71      1.0  0.40797  0.85657  0.45059  1.0000
  Mg  Mg72      1.0  0.65811  0.85788  0.02696  1.0000
