data_image0
_chemical_formula_structural       C3N3C11H4C12H4C4H2NC2H2CH2NSN2SN2SNC3N3C16H4C4H4C12H4C4H2NC4H4C2H4NSN2SN2SNSnCSn2CSnTe4Mg2SnCSn2CSnTe4Mg2SnCSn2CSnTe4Mg2SnCSn2CSnTe4Mg2SnCSn2CSnTe4Mg2SnCSn2CSnTe4Mg2
_chemical_formula_sum              "C90 N20 H36 S6 Sn24 Te24 Mg12"
_cell_length_a       27.246
_cell_length_b       27.3547
_cell_length_c       7.93162
_cell_angle_alpha    87.2967
_cell_angle_beta     87.8137
_cell_angle_gamma    60.1327

_symmetry_space_group_name_H-M    'P1'
_space_group_IT_number       1

loop_
  _space_group_symop_operation_xyz
  'x, y, z'

loop_
  _atom_site_type_symbol
  _atom_site_label
  _atom_site_symmetry_multiplicity
  _atom_site_fract_x
  _atom_site_fract_y
  _atom_site_fract_z
  _atom_site_occupancy
  C   C1        1.0  0.23147  0.61892  0.74710  1.0000
  C   C2        1.0  0.14788  0.61949  0.73510  1.0000
  C   C3        1.0  0.23098  0.53589  0.74208  1.0000
  N   N1        1.0  0.26151  0.56218  0.75169  1.0000
  N   N2        1.0  0.17400  0.56276  0.73143  1.0000
  N   N3        1.0  0.17463  0.64957  0.74057  1.0000
  C   C4        1.0  0.26266  0.65004  0.74968  1.0000
  C   C5        1.0  0.31881  0.62297  0.80432  1.0000
  C   C6        1.0  0.23635  0.70718  0.69773  1.0000
  C   C7        1.0  0.26548  0.73679  0.70091  1.0000
  C   C8        1.0  0.34765  0.65285  0.80954  1.0000
  C   C9        1.0  0.50657  0.89370  0.76062  1.0000
  C   C10       1.0  0.45310  0.91709  0.68626  1.0000
  C   C11       1.0  0.42392  0.88743  0.68793  1.0000
  C   C12       1.0  0.44754  0.83253  0.75924  1.0000
  C   C13       1.0  0.50090  0.80916  0.83296  1.0000
  C   C14       1.0  0.52935  0.83950  0.83702  1.0000
  H   H1        1.0  0.43430  0.95892  0.62680  1.0000
  H   H2        1.0  0.38318  0.90584  0.62667  1.0000
  H   H3        1.0  0.51922  0.76762  0.89506  1.0000
  H   H4        1.0  0.56954  0.82107  0.90079  1.0000
  C   C15       1.0  0.41643  0.80142  0.75917  1.0000
  C   C16       1.0  0.77983  0.80485  0.77027  1.0000
  C   C17       1.0  0.35948  0.82652  0.82213  1.0000
  C   C18       1.0  0.81203  0.82966  0.71953  1.0000
  C   C19       1.0  0.32780  0.79677  0.82265  1.0000
  C   C20       1.0  0.87205  0.79983  0.71717  1.0000
  C   C21       1.0  0.35278  0.74106  0.76012  1.0000
  C   C22       1.0  0.90398  0.74322  0.76543  1.0000
  C   C23       1.0  0.40877  0.71759  0.70493  1.0000
  C   C24       1.0  0.87252  0.71675  0.82622  1.0000
  C   C25       1.0  0.43967  0.74668  0.70439  1.0000
  C   C26       1.0  0.81104  0.74725  0.82857  1.0000
  H   H5        1.0  0.79032  0.87332  0.67257  1.0000
  H   H6        1.0  0.89439  0.82149  0.66934  1.0000
  H   H7        1.0  0.42916  0.67544  0.65472  1.0000
  H   H8        1.0  0.48283  0.72586  0.65403  1.0000
  C   C27       1.0  0.44121  0.20062  0.65617  1.0000
  C   C28       1.0  0.36484  0.19894  0.80701  1.0000
  C   C29       1.0  0.40953  0.26216  0.65753  1.0000
  C   C30       1.0  0.33456  0.25834  0.80947  1.0000
  H   H9        1.0  0.34478  0.17688  0.86838  1.0000
  H   H10       1.0  0.29376  0.27833  0.87520  1.0000
  N   N4        1.0  0.53661  0.92393  0.75822  1.0000
  C   C31       1.0  0.41872  0.16722  0.73473  1.0000
  C   C32       1.0  0.35504  0.29228  0.73795  1.0000
  H   H11       1.0  0.33851  0.57885  0.84541  1.0000
  H   H12       1.0  0.19314  0.72755  0.65307  1.0000
  C   C33       1.0  0.32152  0.71010  0.75763  1.0000
  H   H13       1.0  0.39045  0.63230  0.85791  1.0000
  H   H14       1.0  0.24552  0.78054  0.65643  1.0000
  N   N5        1.0  0.49170  0.18082  0.57377  1.0000
  S   S1        1.0  0.49632  0.23532  0.50463  1.0000
  N   N6        1.0  0.43660  0.28639  0.57365  1.0000
  N   N7        1.0  0.33078  0.87741  0.89473  1.0000
  S   S2        1.0  0.26968  0.88485  0.95508  1.0000
  N   N8        1.0  0.27569  0.82594  0.89543  1.0000
  N   N9        1.0  0.89490  0.66357  0.89316  1.0000
  S   S3        1.0  0.84149  0.65532  0.95164  1.0000
  N   N10       1.0  0.78824  0.71656  0.89728  1.0000
  C   C34       1.0  0.23256  0.61774  0.24017  1.0000
  C   C35       1.0  0.14947  0.61703  0.23012  1.0000
  C   C36       1.0  0.23307  0.53415  0.24317  1.0000
  N   N11       1.0  0.26304  0.56104  0.25118  1.0000
  N   N12       1.0  0.17620  0.56027  0.23322  1.0000
  N   N13       1.0  0.17574  0.64779  0.22875  1.0000
  C   C37       1.0  0.26359  0.64916  0.24146  1.0000
  C   C38       1.0  0.08702  0.64776  0.23257  1.0000
  C   C39       1.0  0.31865  0.62321  0.30466  1.0000
  C   C40       1.0  0.05668  0.62032  0.19858  1.0000
  C   C41       1.0  0.05721  0.70478  0.27479  1.0000
  C   C42       1.0  0.23852  0.70521  0.17934  1.0000
  C   C43       1.0  0.26740  0.73511  0.18330  1.0000
  C   C44       1.0  0.99845  0.73339  0.28508  1.0000
  C   C45       1.0  0.99789  0.64910  0.20781  1.0000
  C   C46       1.0  0.34746  0.65321  0.30891  1.0000
  C   C47       1.0  0.50785  0.89311  0.26079  1.0000
  C   C48       1.0  0.45694  0.91476  0.17323  1.0000
  C   C49       1.0  0.42704  0.88584  0.17287  1.0000
  C   C50       1.0  0.44791  0.83294  0.25607  1.0000
  C   C51       1.0  0.49889  0.81109  0.34277  1.0000
  C   C52       1.0  0.52780  0.84098  0.34816  1.0000
  H   H15       1.0  0.44060  0.95482  0.10433  1.0000
  H   H16       1.0  0.38840  0.90302  0.10069  1.0000
  H   H17       1.0  0.51495  0.77115  0.41330  1.0000
  H   H18       1.0  0.56610  0.82376  0.42112  1.0000
  C   C53       1.0  0.45477  0.01488  0.32034  1.0000
  C   C54       1.0  0.53350  0.01260  0.16808  1.0000
  C   C55       1.0  0.42672  0.07341  0.31113  1.0000
  C   C56       1.0  0.50569  0.07115  0.16175  1.0000
  H   H19       1.0  0.43422  0.99367  0.38375  1.0000
  H   H20       1.0  0.57512  0.98964  0.10942  1.0000
  H   H21       1.0  0.38489  0.09539  0.36973  1.0000
  H   H22       1.0  0.52642  0.09212  0.09834  1.0000
  C   C57       1.0  0.41666  0.80183  0.25493  1.0000
  C   C58       1.0  0.78166  0.79852  0.26654  1.0000
  C   C59       1.0  0.35935  0.82699  0.31426  1.0000
  C   C60       1.0  0.81384  0.82177  0.20178  1.0000
  C   C61       1.0  0.32794  0.79691  0.31387  1.0000
  C   C62       1.0  0.87374  0.79183  0.19817  1.0000
  C   C63       1.0  0.35344  0.74085  0.25339  1.0000
  C   C64       1.0  0.90568  0.73681  0.26107  1.0000
  C   C65       1.0  0.40983  0.71737  0.20200  1.0000
  C   C66       1.0  0.87422  0.71199  0.33510  1.0000
  C   C67       1.0  0.44044  0.74679  0.20298  1.0000
  C   C68       1.0  0.81273  0.74247  0.33703  1.0000
  H   H23       1.0  0.79192  0.86407  0.14460  1.0000
  H   H24       1.0  0.89586  0.81200  0.13733  1.0000
  H   H25       1.0  0.43097  0.67494  0.15382  1.0000
  H   H26       1.0  0.48397  0.72599  0.15562  1.0000
  C   C69       1.0  0.44351  0.19950  0.14873  1.0000
  C   C70       1.0  0.36792  0.19789  0.30420  1.0000
  C   C71       1.0  0.41210  0.26103  0.15115  1.0000
  C   C72       1.0  0.33772  0.25728  0.30672  1.0000
  H   H27       1.0  0.34814  0.17616  0.36933  1.0000
  H   H28       1.0  0.29740  0.27742  0.37500  1.0000
  N   N14       1.0  0.53859  0.92282  0.25912  1.0000
  C   C73       1.0  0.50926  0.98273  0.24880  1.0000
  C   C74       1.0  0.45118  0.10394  0.23326  1.0000
  C   C75       1.0  0.42121  0.16608  0.22854  1.0000
  C   C76       1.0  0.35800  0.29107  0.23303  1.0000
  H   H29       1.0  0.33756  0.57980  0.35238  1.0000
  H   H30       1.0  0.07990  0.57628  0.16499  1.0000
  H   H31       1.0  0.08116  0.72541  0.30237  1.0000
  H   H32       1.0  0.19651  0.72446  0.12596  1.0000
  C   C77       1.0  0.32226  0.70968  0.24915  1.0000
  C   C78       1.0  0.96786  0.70606  0.25180  1.0000
  H   H33       1.0  0.38951  0.63333  0.36243  1.0000
  H   H34       1.0  0.97452  0.62807  0.17847  1.0000
  H   H35       1.0  0.24841  0.77783  0.13010  1.0000
  H   H36       1.0  0.97574  0.77696  0.32393  1.0000
  N   N15       1.0  0.49360  0.17978  0.06411  1.0000
  S   S4        1.0  0.49833  0.23430  0.99561  1.0000
  N   N16       1.0  0.43895  0.28539  0.06679  1.0000
  N   N17       1.0  0.32992  0.87836  0.38353  1.0000
  S   S5        1.0  0.26852  0.88580  0.44030  1.0000
  N   N18       1.0  0.27530  0.82631  0.38307  1.0000
  N   N19       1.0  0.89651  0.66058  0.41456  1.0000
  S   S6        1.0  0.84309  0.65363  0.48230  1.0000
  N   N20       1.0  0.78993  0.71341  0.41742  1.0000
  C  Sn1       1.0  0.50171  0.06036  0.60758  1.0000
  C   C79       1.0  0.45092  0.09798  0.68760  1.0000
  C  Sn2       1.0  0.42797  0.07894  0.81770  1.0000
  C  Sn3       1.0  0.45640  0.02110  0.86897  1.0000
  C   C80       1.0  0.00718  0.98352  0.78899  1.0000
  C  Sn4       1.0  0.53013  0.00252  0.65885  1.0000
  O  Te1       1.0  0.52387  0.08033  0.47782  1.0000
  O  Te2       1.0  0.37713  0.11735  0.89576  1.0000
  O  Te3       1.0  0.43418  0.00115  0.99884  1.0000
  O  Te4       1.0  0.08096  0.96415  0.58083  1.0000
  Mg  Mg1       1.0  0.36953  0.08066  0.06642  1.0000
  Mg  Mg2       1.0  0.59427  0.01165  0.41023  1.0000
  C  Sn5       1.0  0.67230  0.89115  0.88256  1.0000
  C   C81       1.0  0.71043  0.83905  0.81491  1.0000
  C  Sn6       1.0  0.69241  0.81490  0.69810  1.0000
  C  Sn7       1.0  0.63509  0.84342  0.64777  1.0000
  C   C82       1.0  0.59700  0.89549  0.71538  1.0000
  C  Sn8       1.0  0.61498  0.91967  0.83223  1.0000
  O  Te5       1.0  0.69124  0.91450  0.99915  1.0000
  O  Te6       1.0  0.73131  0.76277  0.63227  1.0000
  O  Te7       1.0  0.61617  0.82002  0.53109  1.0000
  O  Te8       1.0  0.57612  0.97177  0.89803  1.0000
  Mg  Mg3       1.0  0.68516  0.74817  0.47710  1.0000
  Mg  Mg4       1.0  0.62790  0.99728  0.05312  1.0000
  C  Sn9       1.0  0.67659  0.81863  0.14344  1.0000
  C   C83       1.0  0.71346  0.83303  0.21583  1.0000
  C  Sn10      1.0  0.69302  0.87651  0.33018  1.0000
  C  Sn11      1.0  0.63452  0.90621  0.37317  1.0000
  C   C84       1.0  0.59769  0.89180  0.30083  1.0000
  C  Sn12      1.0  0.61809  0.84833  0.18643  1.0000
  O  Te9       1.0  0.69795  0.77501  0.02942  1.0000
  O  Te10      1.0  0.73069  0.89016  0.40086  1.0000
  O  Te11      1.0  0.61318  0.94986  0.48729  1.0000
  O  Te12      1.0  0.58045  0.83468  0.11580  1.0000
  Mg  Mg5       1.0  0.68127  0.95281  0.54995  1.0000
  Mg  Mg6       1.0  0.62416  0.76116  0.96677  1.0000
  C  Sn13      1.0  0.34751  0.39733  0.80561  1.0000
  C   C85       1.0  0.32601  0.36070  0.79390  1.0000
  C  Sn14      1.0  0.27071  0.38101  0.74045  1.0000
  C  Sn15      1.0  0.23618  0.43913  0.69771  1.0000
  C   C86       1.0  0.25768  0.47572  0.70940  1.0000
  C  Sn16      1.0  0.31298  0.45546  0.76287  1.0000
  O  Te13      1.0  0.40291  0.37611  0.85933  1.0000
  O  Te14      1.0  0.25016  0.34357  0.72980  1.0000
  O  Te15      1.0  0.18074  0.46033  0.64397  1.0000
  O  Te16      1.0  0.33354  0.49285  0.77350  1.0000
  Mg  Mg7       1.0  0.17193  0.39268  0.64992  1.0000
  Mg  Mg8       1.0  0.41176  0.44379  0.85328  1.0000
  C  Sn17      1.0  0.25914  0.39632  0.16936  1.0000
  C   C87       1.0  0.31725  0.36046  0.18974  1.0000
  C  Sn18      1.0  0.35040  0.38036  0.25707  1.0000
  C  Sn19      1.0  0.32493  0.43729  0.30515  1.0000
  C   C88       1.0  0.26685  0.47312  0.28479  1.0000
  C  Sn20      1.0  0.23367  0.45325  0.21743  1.0000
  O  Te17      1.0  0.22681  0.37553  0.10178  1.0000
  O  Te18      1.0  0.40841  0.34371  0.27619  1.0000
  O  Te19      1.0  0.35731  0.45807  0.37276  1.0000
  O  Te20      1.0  0.17569  0.48987  0.19834  1.0000
  Mg  Mg9       1.0  0.43460  0.39182  0.37423  1.0000
  Mg  Mg10      1.0  0.14946  0.44179  0.10040  1.0000
  C  Sn21      1.0  0.00781  0.64156  0.72751  1.0000
  C   C89       1.0  0.97271  0.69587  0.78598  1.0000
  C  Sn22      1.0  0.99443  0.73173  0.80967  1.0000
  C  Sn23      1.0  0.05243  0.71292  0.77407  1.0000
  C   C90       1.0  0.08749  0.65865  0.71561  1.0000
  C  Sn24      1.0  0.06581  0.62275  0.69191  1.0000
  O  Te21      1.0  0.98519  0.60643  0.70475  1.0000
  O  Te22      1.0  0.95852  0.78584  0.86830  1.0000
  O  Te23      1.0  0.07503  0.74811  0.79689  1.0000
  O  Te24      1.0  0.10169  0.56868  0.63330  1.0000
  Mg  Mg11      1.0  0.00917  0.81810  0.87914  1.0000
  Mg  Mg12      1.0  0.05107  0.53640  0.62233  1.0000
