data_image0
_chemical_formula_structural       C3N3C12H2C2H2C2H2C2H2NC4H4C2H4C3N3C2H2C2H2C2H2C2H2NC4SnCSn2CSnTe4Mg2SnCSn2CSnTe4Mg2SnCSn2CSnTe4Mg2SnCSn2CSnTe4Mg2SnCSn2CSnTe4Mg2SnCSn2CSnTe4Mg2
_chemical_formula_sum              "C54 N8 H24 Sn24 Te24 Mg12"
_cell_length_a       19.7351
_cell_length_b       19.7462
_cell_length_c       8.22997
_cell_angle_alpha    91.1259
_cell_angle_beta     92.6282
_cell_angle_gamma    120.544

_symmetry_space_group_name_H-M    'P1'
_space_group_IT_number       1

loop_
  _space_group_symop_operation_xyz
  'x, y, z'

loop_
  _atom_site_type_symbol
  _atom_site_label
  _atom_site_symmetry_multiplicity
  _atom_site_fract_x
  _atom_site_fract_y
  _atom_site_fract_z
  _atom_site_occupancy
  C   C1        1.0  0.25780  0.62872  0.26482  1.0000
  C   C2        1.0  0.37424  0.63090  0.25676  1.0000
  C   C3        1.0  0.37308  0.74564  0.25536  1.0000
  N   N1        1.0  0.29524  0.58762  0.26428  1.0000
  N   N2        1.0  0.41581  0.70997  0.25008  1.0000
  N   N3        1.0  0.29423  0.70782  0.26302  1.0000
  C   C4        1.0  0.17093  0.58473  0.26520  1.0000
  C   C5        1.0  0.41547  0.83234  0.25227  1.0000
  C   C6        1.0  0.12862  0.50358  0.28944  1.0000
  C   C7        1.0  0.37830  0.87390  0.29707  1.0000
  C   C8        1.0  0.49320  0.87439  0.20436  1.0000
  C   C9        1.0  0.12911  0.62393  0.23708  1.0000
  C   C10       1.0  0.04729  0.58326  0.23430  1.0000
  C   C11       1.0  0.53284  0.95615  0.20226  1.0000
  C   C12       1.0  0.41829  0.95568  0.29564  1.0000
  C   C13       1.0  0.04661  0.46297  0.28584  1.0000
  C   C14       1.0  0.54640  0.20758  0.17153  1.0000
  C   C15       1.0  0.50514  0.12570  0.17417  1.0000
  H   H1        1.0  0.51890  0.23680  0.11133  1.0000
  H   H2        1.0  0.44650  0.09239  0.11306  1.0000
  C   C16       1.0  0.78913  0.34726  0.16492  1.0000
  C   C17       1.0  0.87105  0.38649  0.16968  1.0000
  H   H3        1.0  0.75480  0.29169  0.09555  1.0000
  H   H4        1.0  0.89968  0.36188  0.09988  1.0000
  C   C18       1.0  0.79568  0.45064  0.33634  1.0000
  C   C19       1.0  0.87765  0.49078  0.33727  1.0000
  H   H5        1.0  0.76672  0.47529  0.40426  1.0000
  H   H6        1.0  0.91163  0.54623  0.40833  1.0000
  C   C20       1.0  0.65653  0.21239  0.32101  1.0000
  C   C21       1.0  0.61582  0.13056  0.31972  1.0000
  H   H7        1.0  0.71527  0.24587  0.38043  1.0000
  H   H8        1.0  0.64279  0.10110  0.38181  1.0000
  N   N4        1.0  0.66571  0.33660  0.24566  1.0000
  C   C22       1.0  0.62298  0.25281  0.24601  1.0000
  C   C23       1.0  0.53900  0.08511  0.24705  1.0000
  C   C24       1.0  0.74971  0.37806  0.24902  1.0000
  C   C25       1.0  0.91741  0.45950  0.25537  1.0000
  H   H9        1.0  0.16119  0.47354  0.31252  1.0000
  H   H10       1.0  0.31834  0.84084  0.33509  1.0000
  H   H11       1.0  0.52098  0.84170  0.16648  1.0000
  H   H12       1.0  0.16234  0.68639  0.21546  1.0000
  C   C26       1.0  0.00434  0.50200  0.25863  1.0000
  C   C27       1.0  0.49628  0.99836  0.24832  1.0000
  H   H13       1.0  0.01440  0.40032  0.30683  1.0000
  H   H14       1.0  0.01556  0.61400  0.20902  1.0000
  H   H15       1.0  0.38970  0.98746  0.33477  1.0000
  H   H16       1.0  0.59228  0.98807  0.16059  1.0000
  C   C28       1.0  0.25642  0.62407  0.75099  1.0000
  C   C29       1.0  0.37296  0.62633  0.74556  1.0000
  C   C30       1.0  0.37169  0.74098  0.74159  1.0000
  N   N5        1.0  0.29403  0.58318  0.75322  1.0000
  N   N6        1.0  0.41443  0.70531  0.73620  1.0000
  N   N7        1.0  0.29276  0.70320  0.74880  1.0000
  C   C31       1.0  0.78728  0.33716  0.67260  1.0000
  C   C32       1.0  0.86908  0.37607  0.67322  1.0000
  H   H17       1.0  0.75224  0.27863  0.61481  1.0000
  H   H18       1.0  0.89668  0.34790  0.61173  1.0000
  C   C33       1.0  0.65240  0.44515  0.67229  1.0000
  C   C34       1.0  0.61220  0.48598  0.67579  1.0000
  H   H19       1.0  0.70484  0.46736  0.60448  1.0000
  H   H20       1.0  0.63310  0.53813  0.60526  1.0000
  C   C35       1.0  0.79613  0.44789  0.82120  1.0000
  C   C36       1.0  0.87784  0.48713  0.81841  1.0000
  H   H21       1.0  0.76853  0.47586  0.88275  1.0000
  H   H22       1.0  0.91301  0.54489  0.88046  1.0000
  C   C37       1.0  0.55595  0.34682  0.83525  1.0000
  C   C38       1.0  0.51619  0.38814  0.83901  1.0000
  H   H23       1.0  0.53409  0.29290  0.89952  1.0000
  H   H24       1.0  0.46529  0.36674  0.91206  1.0000
  N   N8        1.0  0.66531  0.33177  0.74709  1.0000
  C   C39       1.0  0.74893  0.37216  0.74662  1.0000
  C   C40       1.0  0.91646  0.45231  0.74520  1.0000
  C   C41       1.0  0.62498  0.37435  0.75154  1.0000
  C   C42       1.0  0.54275  0.45871  0.75841  1.0000
  C  Sn1       1.0  0.52400  0.18712  0.69499  1.0000
  C   C43       1.0  0.59851  0.23956  0.76923  1.0000
  C  Sn2       1.0  0.64847  0.21264  0.82286  1.0000
  C  Sn3       1.0  0.62345  0.13163  0.80175  1.0000
  C   C44       1.0  0.54898  0.07924  0.72753  1.0000
  C  Sn4       1.0  0.49898  0.10611  0.67389  1.0000
  O  Te1       1.0  0.47503  0.21534  0.64231  1.0000
  O  Te2       1.0  0.72268  0.26618  0.89678  1.0000
  O  Te3       1.0  0.67249  0.10344  0.85452  1.0000
  O  Te4       1.0  0.42481  0.05262  0.59999  1.0000
  Mg  Mg1       1.0  0.76816  0.19930  0.94810  1.0000
  Mg  Mg2       1.0  0.37931  0.11944  0.54854  1.0000
  C  Sn5       1.0  0.51278  0.88905  0.72676  1.0000
  C   C45       1.0  0.43674  0.83772  0.77396  1.0000
  C  Sn6       1.0  0.38392  0.86420  0.79351  1.0000
  C  Sn7       1.0  0.40758  0.94361  0.76518  1.0000
  C   C46       1.0  0.48357  0.99488  0.71798  1.0000
  C  Sn8       1.0  0.53643  0.96846  0.69843  1.0000
  O  Te5       1.0  0.56459  0.86131  0.70795  1.0000
  O  Te6       1.0  0.30823  0.81179  0.84084  1.0000
  O  Te7       1.0  0.35569  0.97132  0.78404  1.0000
  O  Te8       1.0  0.10360  0.02081  0.65111  1.0000
  Mg  Mg3       1.0  0.25890  0.87745  0.85025  1.0000
  Mg  Mg4       1.0  0.66144  0.95521  0.64158  1.0000
  C  Sn9       1.0  0.40464  0.47044  0.19184  1.0000
  C   C47       1.0  0.48624  0.50216  0.20387  1.0000
  C  Sn10      1.0  0.53666  0.58032  0.25949  1.0000
  C  Sn11      1.0  0.50487  0.62777  0.30412  1.0000
  C   C48       1.0  0.42332  0.59605  0.29212  1.0000
  C  Sn12      1.0  0.37285  0.51789  0.23648  1.0000
  O  Te9       1.0  0.35535  0.39216  0.13593  1.0000
  O  Te10      1.0  0.61804  0.61072  0.27041  1.0000
  O  Te11      1.0  0.55425  0.70611  0.36006  1.0000
  O  Te12      1.0  0.29153  0.48749  0.22557  1.0000
  Mg  Mg5       1.0  0.66099  0.72068  0.35361  1.0000
  Mg  Mg6       1.0  0.24852  0.37753  0.14248  1.0000
  C  Sn13      1.0  0.53194  0.39137  0.37317  1.0000
  C   C49       1.0  0.55099  0.46118  0.29792  1.0000
  C  Sn14      1.0  0.60586  0.48891  0.17867  1.0000
  C  Sn15      1.0  0.64241  0.44595  0.13361  1.0000
  C   C50       1.0  0.62334  0.37618  0.20882  1.0000
  C  Sn16      1.0  0.56849  0.34841  0.32811  1.0000
  O  Te13      1.0  0.47692  0.36475  0.49207  1.0000
  O  Te14      1.0  0.62397  0.55886  0.10519  1.0000
  O  Te15      1.0  0.69746  0.47263  0.01460  1.0000
  O  Te16      1.0  0.55037  0.27850  0.40154  1.0000
  Mg  Mg7       1.0  0.73399  0.59517  0.94963  1.0000
  Mg  Mg8       1.0  0.47173  0.26625  0.55705  1.0000
  C  Sn17      1.0  0.40045  0.46210  0.72818  1.0000
  C   C51       1.0  0.48125  0.49266  0.71691  1.0000
  C  Sn18      1.0  0.53401  0.57366  0.73745  1.0000
  C  Sn19      1.0  0.50544  0.62519  0.77003  1.0000
  C   C52       1.0  0.42469  0.59462  0.78131  1.0000
  C  Sn20      1.0  0.37187  0.51363  0.76076  1.0000
  O  Te17      1.0  0.34877  0.38093  0.70722  1.0000
  O  Te18      1.0  0.61453  0.60283  0.72558  1.0000
  O  Te19      1.0  0.55719  0.70641  0.79098  1.0000
  O  Te20      1.0  0.29141  0.48446  0.77264  1.0000
  Mg  Mg9       1.0  0.66158  0.71784  0.76357  1.0000
  Mg  Mg10      1.0  0.24431  0.36946  0.73476  1.0000
  C  Sn21      1.0  0.06157  0.58517  0.66759  1.0000
  C   C53       1.0  0.01148  0.50541  0.69346  1.0000
  C  Sn22      1.0  0.04126  0.46153  0.76524  1.0000
  C  Sn23      1.0  0.12281  0.49813  0.81225  1.0000
  C   C54       1.0  0.17285  0.57785  0.78640  1.0000
  C  Sn24      1.0  0.14312  0.62178  0.71460  1.0000
  O  Te21      1.0  0.03052  0.62791  0.59563  1.0000
  O  Te22      1.0  0.99003  0.38187  0.78981  1.0000
  O  Te23      1.0  0.15384  0.45532  0.88425  1.0000
  O  Te24      1.0  0.19430  0.70139  0.69005  1.0000
  Mg  Mg11      1.0  0.06039  0.34850  0.89241  1.0000
  Mg  Mg12      1.0  0.12399  0.73482  0.58755  1.0000
