data_image0
_chemical_formula_structural       C3N4C3N4C2Sn2C2HTe2HMgC2Sn2C2HTe2HMgC2Sn2C2HTe2HMgC2Sn2C2HTe2HMgC2Sn2C2HTe2HMgC2Sn2C2HTe2HMgC2Sn2C2HTe2HMgC2Sn2C2HTe2HMgC2Sn2C2HTe2HMgC2Sn2C2HTe2HMgC2Sn2C2HTe2HMgC2Sn2C2HTe2HMg
_chemical_formula_sum              "C54 N8 Sn24 H24 Te24 Mg12"
_cell_length_a       19.7351
_cell_length_b       19.7462
_cell_length_c       8.22997
_cell_angle_alpha    91.1259
_cell_angle_beta     92.6282
_cell_angle_gamma    120.544

_symmetry_space_group_name_H-M    'P1'
_space_group_IT_number       1

loop_
  _space_group_symop_operation_xyz
  'x, y, z'

loop_
  _atom_site_type_symbol
  _atom_site_label
  _atom_site_symmetry_multiplicity
  _atom_site_fract_x
  _atom_site_fract_y
  _atom_site_fract_z
  _atom_site_occupancy
  C   C1        1.0  0.25780  0.62872  0.26482  1.0000
  C   C2        1.0  0.37424  0.63090  0.25676  1.0000
  C   C3        1.0  0.37308  0.74564  0.25536  1.0000
  N   N1        1.0  0.29524  0.58762  0.26428  1.0000
  N   N2        1.0  0.41581  0.70997  0.25008  1.0000
  N   N3        1.0  0.29423  0.70782  0.26302  1.0000
  N   N4        1.0  0.66571  0.33660  0.24566  1.0000
  C   C4        1.0  0.25642  0.62407  0.75099  1.0000
  C   C5        1.0  0.37296  0.62633  0.74556  1.0000
  C   C6        1.0  0.37169  0.74098  0.74159  1.0000
  N   N5        1.0  0.29403  0.58318  0.75322  1.0000
  N   N6        1.0  0.41443  0.70531  0.73620  1.0000
  N   N7        1.0  0.29276  0.70320  0.74880  1.0000
  N   N8        1.0  0.66531  0.33177  0.74709  1.0000
  C   C7        1.0  0.11000  0.48499  0.29742  1.0000
  C   C8        1.0  0.16176  0.56322  0.26254  1.0000
  C  Sn1       1.0  0.13314  0.61370  0.23021  1.0000
  C  Sn2       1.0  0.05116  0.58516  0.23298  1.0000
  C   C9        1.0  0.99986  0.50680  0.26812  1.0000
  C   C10       1.0  0.02913  0.45679  0.30024  1.0000
  H   H1        1.0  0.13264  0.44630  0.32236  1.0000
  O  Te1       1.0  0.18567  0.69169  0.19552  1.0000
  O  Te2       1.0  0.02098  0.63434  0.20118  1.0000
  H   H2        1.0  0.98904  0.39623  0.32735  1.0000
  Mg  Mg1       1.0  0.11613  0.73594  0.16019  1.0000
  C   C11       1.0  0.39925  0.46530  0.24452  1.0000
  C   C12       1.0  0.48032  0.49570  0.23942  1.0000
  C  Sn3       1.0  0.53256  0.57700  0.25150  1.0000
  C  Sn4       1.0  0.50291  0.62867  0.26905  1.0000
  C   C13       1.0  0.42171  0.59767  0.27414  1.0000
  C   C14       1.0  0.36996  0.51622  0.26189  1.0000
  H   H3        1.0  0.35921  0.40228  0.23513  1.0000
  O  Te3       1.0  0.61338  0.60638  0.24613  1.0000
  O  Te4       1.0  0.55381  0.71017  0.28145  1.0000
  H   H4        1.0  0.30720  0.49270  0.26595  1.0000
  Mg  Mg2       1.0  0.65912  0.72186  0.26778  1.0000
  C   C15       1.0  0.39917  0.93689  0.29935  1.0000
  C   C16       1.0  0.47772  0.98910  0.26841  1.0000
  C  Sn5       1.0  0.52565  0.96050  0.21846  1.0000
  C  Sn6       1.0  0.49418  0.87808  0.19920  1.0000
  C   C17       1.0  0.41551  0.82634  0.23035  1.0000
  C   C18       1.0  0.36807  0.85559  0.28032  1.0000
  H   H5        1.0  0.36245  0.95952  0.33792  1.0000
  O  Te5       1.0  0.09552  0.01348  0.18813  1.0000
  O  Te6       1.0  0.54077  0.84790  0.14937  1.0000
  H   H6        1.0  0.30724  0.81516  0.30416  1.0000
  Mg  Mg3       1.0  0.64404  0.94376  0.12282  1.0000
  C   C19       1.0  0.52895  0.18838  0.15588  1.0000
  C   C20       1.0  0.60192  0.24292  0.23339  1.0000
  C  Sn7       1.0  0.64732  0.21724  0.31698  1.0000
  C  Sn8       1.0  0.61899  0.13541  0.32283  1.0000
  C   C21       1.0  0.54594  0.08132  0.24479  1.0000
  C   C22       1.0  0.50098  0.10766  0.16153  1.0000
  H   H7        1.0  0.49418  0.20876  0.09138  1.0000
  O  Te7       1.0  0.72008  0.27252  0.39380  1.0000
  O  Te8       1.0  0.66317  0.10813  0.40546  1.0000
  H   H8        1.0  0.44451  0.06543  0.10145  1.0000
  Mg  Mg4       1.0  0.75867  0.20637  0.49110  1.0000
  C   C23       1.0  0.81501  0.46715  0.35432  1.0000
  C   C24       1.0  0.75973  0.39833  0.26541  1.0000
  C  Sn9       1.0  0.78455  0.35639  0.17095  1.0000
  C  Sn10      1.0  0.86625  0.38397  0.16570  1.0000
  C   C25       1.0  0.92108  0.45285  0.25519  1.0000
  C   C26       1.0  0.89560  0.49438  0.34926  1.0000
  H   H9        1.0  0.79530  0.49926  0.42718  1.0000
  O  Te9       1.0  0.72853  0.28776  0.08282  1.0000
  O  Te10      1.0  0.89267  0.34318  0.07235  1.0000
  H   H10       1.0  0.93841  0.54763  0.41817  1.0000
  Mg  Mg5       1.0  0.82503  0.27688  0.97348  1.0000
  C   C27       1.0  0.65329  0.46810  0.15645  1.0000
  C   C28       1.0  0.63710  0.39993  0.23546  1.0000
  C  Sn11      1.0  0.56958  0.36040  0.32264  1.0000
  C  Sn12      1.0  0.51741  0.38978  0.33060  1.0000
  C   C29       1.0  0.53410  0.45799  0.25104  1.0000
  C   C30       1.0  0.60184  0.49710  0.16419  1.0000
  H   H11       1.0  0.70568  0.49834  0.08918  1.0000
  O  Te11      1.0  0.55432  0.29239  0.40091  1.0000
  O  Te12      1.0  0.44949  0.35141  0.41682  1.0000
  H   H12       1.0  0.61433  0.54985  0.10294  1.0000
  Mg  Mg6       1.0  0.45421  0.26092  0.50323  1.0000
  C   C31       1.0  0.10809  0.61744  0.71049  1.0000
  C   C32       1.0  0.16056  0.59180  0.75208  1.0000
  C  Sn13      1.0  0.13220  0.51286  0.78348  1.0000
  C  Sn14      1.0  0.04976  0.45872  0.77291  1.0000
  C   C33       1.0  0.99776  0.48495  0.73109  1.0000
  C   C34       1.0  0.02677  0.56408  0.69997  1.0000
  H   H13       1.0  0.13054  0.67865  0.68632  1.0000
  O  Te13      1.0  0.18544  0.48824  0.82494  1.0000
  O  Te14      1.0  0.01982  0.37949  0.80361  1.0000
  H   H14       1.0  0.98613  0.58390  0.66767  1.0000
  Mg  Mg7       1.0  0.11599  0.37432  0.85569  1.0000
  C   C35       1.0  0.51773  0.62493  0.73412  1.0000
  C   C36       1.0  0.43661  0.59506  0.73526  1.0000
  C  Sn15      1.0  0.38518  0.51505  0.75601  1.0000
  C  Sn16      1.0  0.41570  0.46415  0.77599  1.0000
  C   C37       1.0  0.49696  0.49462  0.77478  1.0000
  C   C38       1.0  0.54789  0.57477  0.75389  1.0000
  H   H15       1.0  0.55715  0.68695  0.71804  1.0000
  O  Te15      1.0  0.30429  0.48618  0.75679  1.0000
  O  Te16      1.0  0.36563  0.38395  0.79701  1.0000
  H   H16       1.0  0.61070  0.59789  0.75311  1.0000
  Mg  Mg8       1.0  0.25986  0.37251  0.78936  1.0000
  C   C39       1.0  0.53078  0.93377  0.68139  1.0000
  C   C40       1.0  0.50319  0.98436  0.72021  1.0000
  C  Sn17      1.0  0.42853  0.95458  0.77958  1.0000
  C  Sn18      1.0  0.38076  0.87260  0.80040  1.0000
  C   C41       1.0  0.40892  0.82248  0.76133  1.0000
  C   C42       1.0  0.48371  0.85291  0.70195  1.0000
  H   H17       1.0  0.58866  0.95731  0.63554  1.0000
  O  Te17      1.0  0.40187  0.00595  0.81771  1.0000
  O  Te18      1.0  0.30592  0.84127  0.85958  1.0000
  H   H18       1.0  0.50507  0.81373  0.67201  1.0000
  Mg  Mg9       1.0  0.29568  0.93510  0.89440  1.0000
  C   C43       1.0  0.63014  0.14416  0.83731  1.0000
  C   C44       1.0  0.55426  0.09074  0.77059  1.0000
  C  Sn19      1.0  0.51150  0.11736  0.68007  1.0000
  C  Sn20      1.0  0.54550  0.19900  0.65606  1.0000
  C   C45       1.0  0.62147  0.25195  0.72322  1.0000
  C   C46       1.0  0.66373  0.22468  0.81364  1.0000
  H   H19       1.0  0.66286  0.12306  0.90720  1.0000
  O  Te19      1.0  0.43575  0.06320  0.61431  1.0000
  O  Te20      1.0  0.50408  0.22719  0.56605  1.0000
  H   H20       1.0  0.72250  0.26605  0.86519  1.0000
  Mg  Mg10      1.0  0.40272  0.13031  0.50090  1.0000
  C   C47       1.0  0.81567  0.46491  0.83681  1.0000
  C   C48       1.0  0.75923  0.39305  0.75942  1.0000
  C  Sn21      1.0  0.78257  0.34681  0.67577  1.0000
  C  Sn22      1.0  0.86398  0.37315  0.66973  1.0000
  C   C49       1.0  0.91999  0.44510  0.74765  1.0000
  C   C50       1.0  0.89597  0.49092  0.83097  1.0000
  H   H21       1.0  0.79710  0.50035  0.90135  1.0000
  O  Te21      1.0  0.72541  0.27518  0.59907  1.0000
  O  Te22      1.0  0.88895  0.32808  0.58703  1.0000
  H   H22       1.0  0.93969  0.54653  0.89096  1.0000
  Mg  Mg11      1.0  0.78872  0.23473  0.50161  1.0000
  C   C51       1.0  0.51621  0.36956  0.84718  1.0000
  C   C52       1.0  0.53760  0.44321  0.78799  1.0000
  C  Sn23      1.0  0.60367  0.48235  0.69659  1.0000
  C  Sn24      1.0  0.64905  0.44696  0.66402  1.0000
  C   C53       1.0  0.62713  0.37324  0.72369  1.0000
  C   C54       1.0  0.56092  0.33460  0.81505  1.0000
  H   H23       1.0  0.46496  0.33964  0.91780  1.0000
  O  Te23      1.0  0.62423  0.55591  0.63843  1.0000
  O  Te24      1.0  0.71535  0.48477  0.57295  1.0000
  H   H24       1.0  0.54435  0.27756  0.86078  1.0000
  Mg  Mg12      1.0  0.71961  0.58421  0.52014  1.0000
