data_image0
_chemical_formula_structural       C3N3C12H4C4H2NC2NSN2SN2SNC3N3C12H4C4H2NC2NSN2SN2SNSnCSn2CSnTe4Mg2SnCSn2CSnTe4Mg2SnCSn2CSnTe4Mg2SnCSn2CSnTe4Mg2SnCSn2CSnTe4Mg2SnCSn2CSnTe4Mg2SnCSn2CSnTe4Mg2SnCSn2CSnTe4Mg2SnCSn2CSnTe4Mg2SnCSn2CSnTe4Mg2SnCSn2CSnTe4Mg2SnCSn2CSnTe4Mg2
_chemical_formula_sum              "C66 N20 H12 S6 Sn48 Te48 Mg24"
_cell_length_a       27.246
_cell_length_b       27.3547
_cell_length_c       7.93162
_cell_angle_alpha    87.2967
_cell_angle_beta     87.8137
_cell_angle_gamma    60.1327

_symmetry_space_group_name_H-M    'P1'
_space_group_IT_number       1

loop_
  _space_group_symop_operation_xyz
  'x, y, z'

loop_
  _atom_site_type_symbol
  _atom_site_label
  _atom_site_symmetry_multiplicity
  _atom_site_fract_x
  _atom_site_fract_y
  _atom_site_fract_z
  _atom_site_occupancy
  C   C1        1.0  0.23147  0.61892  0.74710  1.0000
  C   C2        1.0  0.14788  0.61949  0.73510  1.0000
  C   C3        1.0  0.23098  0.53589  0.74208  1.0000
  N   N1        1.0  0.26151  0.56218  0.75169  1.0000
  N   N2        1.0  0.17400  0.56276  0.73143  1.0000
  N   N3        1.0  0.17463  0.64957  0.74057  1.0000
  C   C4        1.0  0.41643  0.80142  0.75917  1.0000
  C   C5        1.0  0.77983  0.80485  0.77027  1.0000
  C   C6        1.0  0.35948  0.82652  0.82213  1.0000
  C   C7        1.0  0.81203  0.82966  0.71953  1.0000
  C   C8        1.0  0.32780  0.79677  0.82265  1.0000
  C   C9        1.0  0.87205  0.79983  0.71717  1.0000
  C   C10       1.0  0.35278  0.74106  0.76012  1.0000
  C   C11       1.0  0.90398  0.74322  0.76543  1.0000
  C   C12       1.0  0.40877  0.71759  0.70493  1.0000
  C   C13       1.0  0.87252  0.71675  0.82622  1.0000
  C   C14       1.0  0.43967  0.74668  0.70439  1.0000
  C   C15       1.0  0.81104  0.74725  0.82857  1.0000
  H   H1        1.0  0.79032  0.87332  0.67257  1.0000
  H   H2        1.0  0.89439  0.82149  0.66934  1.0000
  H   H3        1.0  0.42916  0.67544  0.65472  1.0000
  H   H4        1.0  0.48283  0.72586  0.65403  1.0000
  C   C16       1.0  0.44121  0.20062  0.65617  1.0000
  C   C17       1.0  0.36484  0.19894  0.80701  1.0000
  C   C18       1.0  0.40953  0.26216  0.65753  1.0000
  C   C19       1.0  0.33456  0.25834  0.80947  1.0000
  H   H5        1.0  0.34478  0.17688  0.86838  1.0000
  H   H6        1.0  0.29376  0.27833  0.87520  1.0000
  N   N4        1.0  0.53661  0.92393  0.75822  1.0000
  C   C20       1.0  0.41872  0.16722  0.73473  1.0000
  C   C21       1.0  0.35504  0.29228  0.73795  1.0000
  N   N5        1.0  0.49170  0.18082  0.57377  1.0000
  S   S1        1.0  0.49632  0.23532  0.50463  1.0000
  N   N6        1.0  0.43660  0.28639  0.57365  1.0000
  N   N7        1.0  0.33078  0.87741  0.89473  1.0000
  S   S2        1.0  0.26968  0.88485  0.95508  1.0000
  N   N8        1.0  0.27569  0.82594  0.89543  1.0000
  N   N9        1.0  0.89490  0.66357  0.89316  1.0000
  S   S3        1.0  0.84149  0.65532  0.95164  1.0000
  N   N10       1.0  0.78824  0.71656  0.89728  1.0000
  C   C22       1.0  0.23256  0.61774  0.24017  1.0000
  C   C23       1.0  0.14947  0.61703  0.23012  1.0000
  C   C24       1.0  0.23307  0.53415  0.24317  1.0000
  N   N11       1.0  0.26304  0.56104  0.25118  1.0000
  N   N12       1.0  0.17620  0.56027  0.23322  1.0000
  N   N13       1.0  0.17574  0.64779  0.22875  1.0000
  C   C25       1.0  0.41666  0.80183  0.25493  1.0000
  C   C26       1.0  0.78166  0.79852  0.26654  1.0000
  C   C27       1.0  0.35935  0.82699  0.31426  1.0000
  C   C28       1.0  0.81384  0.82177  0.20178  1.0000
  C   C29       1.0  0.32794  0.79691  0.31387  1.0000
  C   C30       1.0  0.87374  0.79183  0.19817  1.0000
  C   C31       1.0  0.35344  0.74085  0.25339  1.0000
  C   C32       1.0  0.90568  0.73681  0.26107  1.0000
  C   C33       1.0  0.40983  0.71737  0.20200  1.0000
  C   C34       1.0  0.87422  0.71199  0.33510  1.0000
  C   C35       1.0  0.44044  0.74679  0.20298  1.0000
  C   C36       1.0  0.81273  0.74247  0.33703  1.0000
  H   H7        1.0  0.79192  0.86407  0.14460  1.0000
  H   H8        1.0  0.89586  0.81200  0.13733  1.0000
  H   H9        1.0  0.43097  0.67494  0.15382  1.0000
  H   H10       1.0  0.48397  0.72599  0.15562  1.0000
  C   C37       1.0  0.44351  0.19950  0.14873  1.0000
  C   C38       1.0  0.36792  0.19789  0.30420  1.0000
  C   C39       1.0  0.41210  0.26103  0.15115  1.0000
  C   C40       1.0  0.33772  0.25728  0.30672  1.0000
  H   H11       1.0  0.34814  0.17616  0.36933  1.0000
  H   H12       1.0  0.29740  0.27742  0.37500  1.0000
  N   N14       1.0  0.53859  0.92282  0.25912  1.0000
  C   C41       1.0  0.42121  0.16608  0.22854  1.0000
  C   C42       1.0  0.35800  0.29107  0.23303  1.0000
  N   N15       1.0  0.49360  0.17978  0.06411  1.0000
  S   S4        1.0  0.49833  0.23430  0.99561  1.0000
  N   N16       1.0  0.43895  0.28539  0.06679  1.0000
  N   N17       1.0  0.32992  0.87836  0.38353  1.0000
  S   S5        1.0  0.26852  0.88580  0.44030  1.0000
  N   N18       1.0  0.27530  0.82631  0.38307  1.0000
  N   N19       1.0  0.89651  0.66058  0.41456  1.0000
  S   S6        1.0  0.84309  0.65363  0.48230  1.0000
  N   N20       1.0  0.78993  0.71341  0.41742  1.0000
  C  Sn1       1.0  0.25029  0.73858  0.74391  1.0000
  C   C43       1.0  0.30633  0.71819  0.79034  1.0000
  C  Sn2       1.0  0.34382  0.66019  0.80492  1.0000
  C  Sn3       1.0  0.32492  0.62177  0.77231  1.0000
  C   C44       1.0  0.26892  0.64216  0.72588  1.0000
  C  Sn4       1.0  0.23139  0.70015  0.71129  1.0000
  O  Te1       1.0  0.21355  0.79673  0.73010  1.0000
  O  Te2       1.0  0.39963  0.64081  0.85159  1.0000
  O  Te3       1.0  0.36172  0.56358  0.78617  1.0000
  O  Te4       1.0  0.17561  0.71953  0.66463  1.0000
  Mg  Mg1       1.0  0.43370  0.55777  0.85344  1.0000
  Mg  Mg2       1.0  0.14152  0.80256  0.66266  1.0000
  C  Sn5       1.0  0.00990  0.73948  0.77012  1.0000
  C   C45       1.0  0.97222  0.72202  0.72346  1.0000
  C  Sn6       1.0  0.99166  0.66532  0.69310  1.0000
  C  Sn7       1.0  0.04997  0.62522  0.70982  1.0000
  C   C46       1.0  0.08762  0.64269  0.75647  1.0000
  C  Sn8       1.0  0.06822  0.69938  0.78684  1.0000
  O  Te5       1.0  0.98953  0.79637  0.79986  1.0000
  O  Te6       1.0  0.95318  0.64888  0.64654  1.0000
  O  Te7       1.0  0.07032  0.56829  0.68002  1.0000
  O  Te8       1.0  0.10665  0.71582  0.83339  1.0000
  Mg  Mg3       1.0  0.00140  0.56656  0.61965  1.0000
  Mg  Mg4       1.0  0.05849  0.79812  0.86039  1.0000
  C  Sn9       1.0  0.33284  0.43191  0.70413  1.0000
  C   C47       1.0  0.27428  0.46788  0.69869  1.0000
  C  Sn10      1.0  0.23745  0.44681  0.73239  1.0000
  C  Sn11      1.0  0.25960  0.38859  0.77247  1.0000
  C   C48       1.0  0.31812  0.35265  0.77792  1.0000
  C  Sn12      1.0  0.35499  0.37368  0.74421  1.0000
  O  Te9       1.0  0.36886  0.45388  0.67001  1.0000
  O  Te10      1.0  0.17907  0.48359  0.72613  1.0000
  O  Te11      1.0  0.22352  0.36663  0.80660  1.0000
  O  Te12      1.0  0.41333  0.33694  0.75048  1.0000
  Mg  Mg5       1.0  0.14722  0.43358  0.78241  1.0000
  Mg  Mg6       1.0  0.44522  0.38691  0.69431  1.0000
  C  Sn13      1.0  0.43627  0.92060  0.72469  1.0000
  C   C49       1.0  0.48967  0.90337  0.78932  1.0000
  C  Sn14      1.0  0.52647  0.84653  0.82993  1.0000
  C  Sn15      1.0  0.50956  0.80606  0.80533  1.0000
  C   C50       1.0  0.45620  0.82329  0.74071  1.0000
  C  Sn16      1.0  0.41936  0.88012  0.70009  1.0000
  O  Te13      1.0  0.40017  0.97765  0.68497  1.0000
  O  Te14      1.0  0.57964  0.83033  0.89442  1.0000
  O  Te15      1.0  0.54572  0.74898  0.84512  1.0000
  O  Te16      1.0  0.36623  0.89633  0.63561  1.0000
  Mg  Mg7       1.0  0.61382  0.74767  0.92940  1.0000
  Mg  Mg8       1.0  0.33203  0.97897  0.60051  1.0000
  C  Sn17      1.0  0.67230  0.89115  0.88256  1.0000
  C   C51       1.0  0.71043  0.83905  0.81491  1.0000
  C  Sn18      1.0  0.69241  0.81490  0.69810  1.0000
  C  Sn19      1.0  0.63509  0.84342  0.64777  1.0000
  C   C52       1.0  0.59700  0.89549  0.71538  1.0000
  C  Sn20      1.0  0.61498  0.91967  0.83223  1.0000
  O  Te17      1.0  0.69124  0.91450  0.99915  1.0000
  O  Te18      1.0  0.73131  0.76277  0.63227  1.0000
  O  Te19      1.0  0.61617  0.82002  0.53109  1.0000
  O  Te20      1.0  0.57612  0.97177  0.89803  1.0000
  Mg  Mg9       1.0  0.68516  0.74817  0.47710  1.0000
  Mg  Mg10      1.0  0.62790  0.99728  0.05312  1.0000
  C  Sn21      1.0  0.53412  0.02618  0.69337  1.0000
  C   C53       1.0  0.01727  0.99012  0.77295  1.0000
  C  Sn22      1.0  0.46132  0.01098  0.82894  1.0000
  C  Sn23      1.0  0.42140  0.06909  0.80480  1.0000
  C   C54       1.0  0.43826  0.10511  0.72524  1.0000
  C  Sn24      1.0  0.49419  0.08429  0.66923  1.0000
  O  Te21      1.0  0.59025  0.00441  0.63840  1.0000
  O  Te22      1.0  0.94549  0.97411  0.90821  1.0000
  O  Te23      1.0  0.36523  0.09084  0.85986  1.0000
  O  Te24      1.0  0.51005  0.12112  0.58998  1.0000
  Mg  Mg11      1.0  0.36409  0.02384  0.96086  1.0000
  Mg  Mg12      1.0  0.59140  0.07143  0.53721  1.0000
  C  Sn25      1.0  0.25139  0.73767  0.22405  1.0000
  C   C55       1.0  0.30629  0.71835  0.27972  1.0000
  C  Sn26      1.0  0.34346  0.66066  0.30538  1.0000
  C  Sn27      1.0  0.32539  0.62145  0.27466  1.0000
  C   C56       1.0  0.27052  0.64078  0.21899  1.0000
  C  Sn28      1.0  0.23331  0.69847  0.19332  1.0000
  O  Te25      1.0  0.21495  0.79554  0.19923  1.0000
  O  Te26      1.0  0.39814  0.64235  0.36115  1.0000
  O  Te27      1.0  0.36188  0.56355  0.29953  1.0000
  O  Te28      1.0  0.17867  0.71678  0.13757  1.0000
  Mg  Mg13      1.0  0.43221  0.55930  0.37642  1.0000
  Mg  Mg14      1.0  0.14457  0.79981  0.12217  1.0000
  C  Sn29      1.0  0.04374  0.62797  0.14767  1.0000
  C   C57       1.0  0.08050  0.64766  0.18453  1.0000
  C  Sn30      1.0  0.06081  0.69727  0.27246  1.0000
  C  Sn31      1.0  0.00318  0.72782  0.32475  1.0000
  C   C58       1.0  0.96646  0.70812  0.28792  1.0000
  C  Sn32      1.0  0.98611  0.65852  0.19995  1.0000
  O  Te29      1.0  0.06434  0.57828  0.05962  1.0000
  O  Te30      1.0  0.09835  0.71612  0.30780  1.0000
  O  Te31      1.0  0.98260  0.77755  0.41286  1.0000
  O  Te32      1.0  0.94860  0.63966  0.16465  1.0000
  Mg  Mg15      1.0  0.05017  0.78610  0.43109  1.0000
  Mg  Mg16      1.0  0.99675  0.56967  0.04145  1.0000
  C  Sn33      1.0  0.25914  0.39632  0.16936  1.0000
  C   C59       1.0  0.31725  0.36046  0.18974  1.0000
  C  Sn34      1.0  0.35040  0.38036  0.25707  1.0000
  C  Sn35      1.0  0.32493  0.43729  0.30515  1.0000
  C   C60       1.0  0.26685  0.47312  0.28479  1.0000
  C  Sn36      1.0  0.23367  0.45325  0.21743  1.0000
  O  Te33      1.0  0.22681  0.37553  0.10178  1.0000
  O  Te34      1.0  0.40841  0.34371  0.27619  1.0000
  O  Te35      1.0  0.35731  0.45807  0.37276  1.0000
  O  Te36      1.0  0.17569  0.48987  0.19834  1.0000
  Mg  Mg17      1.0  0.43460  0.39182  0.37423  1.0000
  Mg  Mg18      1.0  0.14946  0.44179  0.10040  1.0000
  C  Sn37      1.0  0.53349  0.82386  0.31242  1.0000
  C   C61       1.0  0.51847  0.87682  0.23909  1.0000
  C  Sn38      1.0  0.46356  0.91227  0.18169  1.0000
  C  Sn39      1.0  0.42280  0.89442  0.19801  1.0000
  C   C62       1.0  0.43782  0.84149  0.27133  1.0000
  C  Sn40      1.0  0.49273  0.80601  0.32874  1.0000
  O  Te37      1.0  0.58864  0.78912  0.36894  1.0000
  O  Te38      1.0  0.44955  0.96502  0.10877  1.0000
  O  Te39      1.0  0.36763  0.92921  0.14141  1.0000
  O  Te40      1.0  0.50675  0.75329  0.40165  1.0000
  Mg  Mg19      1.0  0.36895  0.99724  0.05101  1.0000
  Mg  Mg20      1.0  0.58732  0.72105  0.45953  1.0000
  C  Sn41      1.0  0.67595  0.88575  0.38315  1.0000
  C   C63       1.0  0.71243  0.83350  0.31354  1.0000
  C  Sn42      1.0  0.69248  0.81086  0.19766  1.0000
  C  Sn43      1.0  0.63487  0.84108  0.15027  1.0000
  C   C64       1.0  0.59843  0.89330  0.21984  1.0000
  C  Sn44      1.0  0.61835  0.91597  0.33577  1.0000
  O  Te41      1.0  0.69682  0.90758  0.49877  1.0000
  O  Te42      1.0  0.72975  0.75854  0.12981  1.0000
  O  Te43      1.0  0.61402  0.81920  0.03456  1.0000
  O  Te44      1.0  0.58112  0.96826  0.40357  1.0000
  Mg  Mg21      1.0  0.67559  0.73556  0.97702  1.0000
  Mg  Mg22      1.0  0.62955  0.98043  0.55630  1.0000
  C  Sn45      1.0  0.53764  0.02482  0.20522  1.0000
  C   C65       1.0  0.01882  0.98892  0.27366  1.0000
  C  Sn46      1.0  0.46153  0.00986  0.31332  1.0000
  C  Sn47      1.0  0.42226  0.06789  0.28387  1.0000
  C   C66       1.0  0.44110  0.10375  0.21545  1.0000
  C  Sn48      1.0  0.49837  0.08285  0.17577  1.0000
  O  Te45      1.0  0.59509  0.00297  0.16651  1.0000
  O  Te46      1.0  0.94373  0.97315  0.38168  1.0000
  O  Te47      1.0  0.36477  0.08972  0.32265  1.0000
  O  Te48      1.0  0.51620  0.11952  0.10742  1.0000
  Mg  Mg23      1.0  0.36110  0.02294  0.41342  1.0000
  Mg  Mg24      1.0  0.59878  0.06977  0.07556  1.0000
