data_image0
_chemical_formula_structural       C3N3C12H4C4H2NC2NSN2SN2SNC3N3C12H4C4H2NC2NSN2SN2SNC2Sn2C2HTe2HMgC2Sn2C2HTe2HMgC2Sn2C2HTe2HMgC2Sn2C2HTe2HMgC2Sn2C2HTe2HMgC2Sn2C2HTe2HMgC2Sn2C2HTe2HMgC2Sn2C2HTe2HMgC2Sn2C2HTe2HMgC2Sn2C2HTe2HMgC2Sn2C2HTe2HMgC2Sn2C2HTe2HMg
_chemical_formula_sum              "C90 N20 H36 S6 Sn24 Te24 Mg12"
_cell_length_a       27.246
_cell_length_b       27.3547
_cell_length_c       7.93162
_cell_angle_alpha    87.2967
_cell_angle_beta     87.8137
_cell_angle_gamma    60.1327

_symmetry_space_group_name_H-M    'P1'
_space_group_IT_number       1

loop_
  _space_group_symop_operation_xyz
  'x, y, z'

loop_
  _atom_site_type_symbol
  _atom_site_label
  _atom_site_symmetry_multiplicity
  _atom_site_fract_x
  _atom_site_fract_y
  _atom_site_fract_z
  _atom_site_occupancy
  C   C1        1.0  0.23147  0.61892  0.74710  1.0000
  C   C2        1.0  0.14788  0.61949  0.73510  1.0000
  C   C3        1.0  0.23098  0.53589  0.74208  1.0000
  N   N1        1.0  0.26151  0.56218  0.75169  1.0000
  N   N2        1.0  0.17400  0.56276  0.73143  1.0000
  N   N3        1.0  0.17463  0.64957  0.74057  1.0000
  C   C4        1.0  0.41643  0.80142  0.75917  1.0000
  C   C5        1.0  0.77983  0.80485  0.77027  1.0000
  C   C6        1.0  0.35948  0.82652  0.82213  1.0000
  C   C7        1.0  0.81203  0.82966  0.71953  1.0000
  C   C8        1.0  0.32780  0.79677  0.82265  1.0000
  C   C9        1.0  0.87205  0.79983  0.71717  1.0000
  C   C10       1.0  0.35278  0.74106  0.76012  1.0000
  C   C11       1.0  0.90398  0.74322  0.76543  1.0000
  C   C12       1.0  0.40877  0.71759  0.70493  1.0000
  C   C13       1.0  0.87252  0.71675  0.82622  1.0000
  C   C14       1.0  0.43967  0.74668  0.70439  1.0000
  C   C15       1.0  0.81104  0.74725  0.82857  1.0000
  H   H1        1.0  0.79032  0.87332  0.67257  1.0000
  H   H2        1.0  0.89439  0.82149  0.66934  1.0000
  H   H3        1.0  0.42916  0.67544  0.65472  1.0000
  H   H4        1.0  0.48283  0.72586  0.65403  1.0000
  C   C16       1.0  0.44121  0.20062  0.65617  1.0000
  C   C17       1.0  0.36484  0.19894  0.80701  1.0000
  C   C18       1.0  0.40953  0.26216  0.65753  1.0000
  C   C19       1.0  0.33456  0.25834  0.80947  1.0000
  H   H5        1.0  0.34478  0.17688  0.86838  1.0000
  H   H6        1.0  0.29376  0.27833  0.87520  1.0000
  N   N4        1.0  0.53661  0.92393  0.75822  1.0000
  C   C20       1.0  0.41872  0.16722  0.73473  1.0000
  C   C21       1.0  0.35504  0.29228  0.73795  1.0000
  N   N5        1.0  0.49170  0.18082  0.57377  1.0000
  S   S1        1.0  0.49632  0.23532  0.50463  1.0000
  N   N6        1.0  0.43660  0.28639  0.57365  1.0000
  N   N7        1.0  0.33078  0.87741  0.89473  1.0000
  S   S2        1.0  0.26968  0.88485  0.95508  1.0000
  N   N8        1.0  0.27569  0.82594  0.89543  1.0000
  N   N9        1.0  0.89490  0.66357  0.89316  1.0000
  S   S3        1.0  0.84149  0.65532  0.95164  1.0000
  N   N10       1.0  0.78824  0.71656  0.89728  1.0000
  C   C22       1.0  0.23256  0.61774  0.24017  1.0000
  C   C23       1.0  0.14947  0.61703  0.23012  1.0000
  C   C24       1.0  0.23307  0.53415  0.24317  1.0000
  N   N11       1.0  0.26304  0.56104  0.25118  1.0000
  N   N12       1.0  0.17620  0.56027  0.23322  1.0000
  N   N13       1.0  0.17574  0.64779  0.22875  1.0000
  C   C25       1.0  0.41666  0.80183  0.25493  1.0000
  C   C26       1.0  0.78166  0.79852  0.26654  1.0000
  C   C27       1.0  0.35935  0.82699  0.31426  1.0000
  C   C28       1.0  0.81384  0.82177  0.20178  1.0000
  C   C29       1.0  0.32794  0.79691  0.31387  1.0000
  C   C30       1.0  0.87374  0.79183  0.19817  1.0000
  C   C31       1.0  0.35344  0.74085  0.25339  1.0000
  C   C32       1.0  0.90568  0.73681  0.26107  1.0000
  C   C33       1.0  0.40983  0.71737  0.20200  1.0000
  C   C34       1.0  0.87422  0.71199  0.33510  1.0000
  C   C35       1.0  0.44044  0.74679  0.20298  1.0000
  C   C36       1.0  0.81273  0.74247  0.33703  1.0000
  H   H7        1.0  0.79192  0.86407  0.14460  1.0000
  H   H8        1.0  0.89586  0.81200  0.13733  1.0000
  H   H9        1.0  0.43097  0.67494  0.15382  1.0000
  H   H10       1.0  0.48397  0.72599  0.15562  1.0000
  C   C37       1.0  0.44351  0.19950  0.14873  1.0000
  C   C38       1.0  0.36792  0.19789  0.30420  1.0000
  C   C39       1.0  0.41210  0.26103  0.15115  1.0000
  C   C40       1.0  0.33772  0.25728  0.30672  1.0000
  H   H11       1.0  0.34814  0.17616  0.36933  1.0000
  H   H12       1.0  0.29740  0.27742  0.37500  1.0000
  N   N14       1.0  0.53859  0.92282  0.25912  1.0000
  C   C41       1.0  0.42121  0.16608  0.22854  1.0000
  C   C42       1.0  0.35800  0.29107  0.23303  1.0000
  N   N15       1.0  0.49360  0.17978  0.06411  1.0000
  S   S4        1.0  0.49833  0.23430  0.99561  1.0000
  N   N16       1.0  0.43895  0.28539  0.06679  1.0000
  N   N17       1.0  0.32992  0.87836  0.38353  1.0000
  S   S5        1.0  0.26852  0.88580  0.44030  1.0000
  N   N18       1.0  0.27530  0.82631  0.38307  1.0000
  N   N19       1.0  0.89651  0.66058  0.41456  1.0000
  S   S6        1.0  0.84309  0.65363  0.48230  1.0000
  N   N20       1.0  0.78993  0.71341  0.41742  1.0000
  C   C43       1.0  0.25262  0.73648  0.68744  1.0000
  C   C44       1.0  0.30646  0.71875  0.74944  1.0000
  C  Sn1       1.0  0.34026  0.66317  0.80877  1.0000
  C  Sn2       1.0  0.31966  0.62472  0.80576  1.0000
  C   C45       1.0  0.26576  0.64285  0.74337  1.0000
  C   C46       1.0  0.23228  0.69857  0.68436  1.0000
  H   H13       1.0  0.22673  0.77957  0.64169  1.0000
  O  Te1       1.0  0.39394  0.64617  0.87036  1.0000
  O  Te2       1.0  0.35257  0.56892  0.86422  1.0000
  H   H14       1.0  0.19062  0.71227  0.63626  1.0000
  Mg  Mg1       1.0  0.42289  0.56581  0.93616  1.0000
  C   C47       1.0  0.01172  0.73434  0.82558  1.0000
  C   C48       1.0  0.97302  0.72036  0.76418  1.0000
  C  Sn3       1.0  0.99213  0.66847  0.68992  1.0000
  C  Sn4       1.0  0.05109  0.62995  0.67712  1.0000
  C   C49       1.0  0.08946  0.64431  0.73903  1.0000
  C   C50       1.0  0.06988  0.69635  0.81306  1.0000
  H   H15       1.0  0.99658  0.77459  0.88293  1.0000
  O  Te3       1.0  0.95289  0.65519  0.62918  1.0000
  O  Te4       1.0  0.07134  0.57779  0.60354  1.0000
  H   H16       1.0  0.09985  0.70714  0.86068  1.0000
  Mg  Mg2       1.0  0.00123  0.57898  0.53930  1.0000
  C   C51       1.0  0.23342  0.42966  0.73038  1.0000
  C   C52       1.0  0.25352  0.46687  0.75410  1.0000
  C  Sn5       1.0  0.31158  0.44662  0.76588  1.0000
  C  Sn6       1.0  0.35014  0.38800  0.75360  1.0000
  C   C53       1.0  0.32960  0.35112  0.72975  1.0000
  C   C54       1.0  0.27141  0.37184  0.71818  1.0000
  H   H17       1.0  0.18840  0.44568  0.72133  1.0000
  O  Te5       1.0  0.33095  0.48438  0.78965  1.0000
  O  Te6       1.0  0.40838  0.36663  0.76488  1.0000
  H   H18       1.0  0.25586  0.34302  0.69970  1.0000
  Mg  Mg3       1.0  0.41417  0.43490  0.79741  1.0000
  C   C55       1.0  0.42376  0.90109  0.67951  1.0000
  C   C56       1.0  0.44113  0.84584  0.73663  1.0000
  C  Sn7       1.0  0.49264  0.81405  0.81888  1.0000
  C  Sn8       1.0  0.52730  0.83814  0.84426  1.0000
  C   C57       1.0  0.50952  0.89346  0.78675  1.0000
  C   C58       1.0  0.45791  0.92489  0.70456  1.0000
  H   H19       1.0  0.38381  0.92543  0.61599  1.0000
  O  Te7       1.0  0.50937  0.75890  0.87509  1.0000
  O  Te8       1.0  0.57896  0.80731  0.92614  1.0000
  H   H20       1.0  0.44445  0.96768  0.66044  1.0000
  Mg  Mg4       1.0  0.58339  0.73380  0.97975  1.0000
  C   C59       1.0  0.67473  0.81181  0.68569  1.0000
  C   C60       1.0  0.71108  0.82941  0.74349  1.0000
  C  Sn9       1.0  0.68912  0.88148  0.81923  1.0000
  C  Sn10      1.0  0.62964  0.91648  0.83732  1.0000
  C   C61       1.0  0.59363  0.89847  0.77919  1.0000
  C   C62       1.0  0.61607  0.84630  0.70354  1.0000
  H   H21       1.0  0.69208  0.77143  0.62724  1.0000
  O  Te9       1.0  0.72604  0.89842  0.87622  1.0000
  O  Te10      1.0  0.60656  0.96871  0.91260  1.0000
  H   H22       1.0  0.58791  0.83267  0.65890  1.0000
  Mg  Mg5       1.0  0.67422  0.97324  0.97022  1.0000
  C   C63       1.0  0.51425  0.05895  0.64596  1.0000
  C   C64       1.0  0.46085  0.09745  0.71014  1.0000
  C  Sn11      1.0  0.42925  0.07842  0.80620  1.0000
  C  Sn12      1.0  0.45164  0.01972  0.83843  1.0000
  C   C65       1.0  0.00514  0.98154  0.77375  1.0000
  C   C66       1.0  0.53637  0.00105  0.67774  1.0000
  H   H23       1.0  0.53844  0.07404  0.57175  1.0000
  O  Te11      1.0  0.37597  0.11746  0.86932  1.0000
  O  Te12      1.0  0.42097  0.99955  0.93410  1.0000
  H   H24       1.0  0.07775  0.97123  0.62816  1.0000
  Mg  Mg6       1.0  0.35032  0.06932  0.99272  1.0000
  C   C67       1.0  0.25487  0.73449  0.16826  1.0000
  C   C68       1.0  0.30726  0.71813  0.23889  1.0000
  C  Sn13      1.0  0.33983  0.66370  0.30844  1.0000
  C  Sn14      1.0  0.31946  0.62504  0.30702  1.0000
  C   C69       1.0  0.26701  0.64180  0.23595  1.0000
  C   C70       1.0  0.23476  0.69637  0.16675  1.0000
  H   H25       1.0  0.22992  0.77669  0.11463  1.0000
  O  Te13      1.0  0.39207  0.64806  0.37855  1.0000
  O  Te14      1.0  0.35116  0.57038  0.37561  1.0000
  H   H26       1.0  0.19421  0.70901  0.11198  1.0000
  Mg  Mg7       1.0  0.41974  0.56891  0.45665  1.0000
  C   C71       1.0  0.04379  0.71854  0.27982  1.0000
  C   C72       1.0  0.08086  0.66171  0.24822  1.0000
  C  Sn15      1.0  0.05973  0.62641  0.20965  1.0000
  C  Sn16      1.0  0.00038  0.64854  0.20263  1.0000
  C   C73       1.0  0.96366  0.70545  0.23433  1.0000
  C   C74       1.0  0.98525  0.74040  0.27286  1.0000
  H   H27       1.0  0.06049  0.74559  0.30954  1.0000
  O  Te15      1.0  0.09736  0.56973  0.17848  1.0000
  O  Te16      1.0  0.97814  0.61420  0.16432  1.0000
  H   H28       1.0  0.95654  0.78440  0.29721  1.0000
  Mg  Mg8       1.0  0.04656  0.53977  0.13160  1.0000
  C   C75       1.0  0.35430  0.39754  0.26071  1.0000
  C   C76       1.0  0.33405  0.35974  0.25342  1.0000
  C  Sn17      1.0  0.27634  0.37973  0.23317  1.0000
  C  Sn18      1.0  0.23829  0.43868  0.21996  1.0000
  C   C77       1.0  0.25898  0.47614  0.22728  1.0000
  C   C78       1.0  0.31681  0.45569  0.24762  1.0000
  H   H29       1.0  0.39905  0.38171  0.27635  1.0000
  O  Te17      1.0  0.25682  0.34138  0.22621  1.0000
  O  Te18      1.0  0.18041  0.45980  0.19959  1.0000
  H   H30       1.0  0.33248  0.48496  0.25314  1.0000
  Mg  Mg9       1.0  0.17423  0.39072  0.19727  1.0000
  C   C79       1.0  0.51197  0.81131  0.35440  1.0000
  C   C80       1.0  0.45982  0.82713  0.28293  1.0000
  C  Sn19      1.0  0.43130  0.87775  0.18894  1.0000
  C  Sn20      1.0  0.45554  0.91309  0.16627  1.0000
  C   C81       1.0  0.50774  0.89686  0.23818  1.0000
  C   C82       1.0  0.53592  0.84613  0.33204  1.0000
  H   H31       1.0  0.53379  0.77204  0.42694  1.0000
  O  Te19      1.0  0.37923  0.89293  0.11846  1.0000
  O  Te20      1.0  0.42794  0.96389  0.07287  1.0000
  H   H32       1.0  0.57630  0.83387  0.38726  1.0000
  Mg  Mg10      1.0  0.35790  0.96626  0.00173  1.0000
  C   C83       1.0  0.64306  0.82624  0.17478  1.0000
  C   C84       1.0  0.60567  0.87749  0.24835  1.0000
  C  Sn21      1.0  0.62638  0.90767  0.32909  1.0000
  C  Sn22      1.0  0.68565  0.88605  0.33605  1.0000
  C   C85       1.0  0.72271  0.83477  0.26195  1.0000
  C   C86       1.0  0.70152  0.80490  0.18153  1.0000
  H   H33       1.0  0.62667  0.80315  0.11247  1.0000
  O  Te21      1.0  0.58843  0.95879  0.40200  1.0000
  O  Te22      1.0  0.70750  0.91536  0.41589  1.0000
  H   H34       1.0  0.73048  0.76524  0.12448  1.0000
  Mg  Mg11      1.0  0.63874  0.98319  0.49657  1.0000
  C   C87       1.0  0.53275  0.02592  0.15074  1.0000
  C   C88       1.0  0.01737  0.98915  0.23322  1.0000
  C  Sn23      1.0  0.46473  0.01029  0.31529  1.0000
  C  Sn24      1.0  0.42691  0.06935  0.31451  1.0000
  C   C89       1.0  0.44270  0.10577  0.23153  1.0000
  C   C90       1.0  0.49546  0.08418  0.14985  1.0000
  H   H35       1.0  0.57356  0.00921  0.08746  1.0000
  O  Te23      1.0  0.95005  0.97296  0.39715  1.0000
  O  Te24      1.0  0.37406  0.09160  0.39549  1.0000
  H   H36       1.0  0.50736  0.11265  0.08590  1.0000
  Mg  Mg12      1.0  0.37330  0.02364  0.48973  1.0000
