data_image0
_chemical_formula_structural       C6N6C32H8C12H8N2H8C4H8C6N6C26H4C4H4C18H12C4H4N2C4H8C4H8SnCSn2CSnTe4Mg2SnCSn2CSnTe4Mg2SnCSn2CSnTe4Mg2SnCSn2CSnTe4Mg2SnCSn2CSnTe4Mg2SnCSn2CSnTe4Mg2SnCSn2CSnTe4Mg2SnCSn2CSnTe4Mg2SnCSn2CSnTe4Mg2SnCSn2CSnTe4Mg2SnCSn2CSnTe4Mg2SnCSn2CSnTe4Mg2SnCSn2CSnTe4Mg2SnCSn2CSnTe4Mg2SnCSn2CSnTe4Mg2SnCSn2CSnTe4Mg2SnCSn2CSnTe4Mg2SnCSn2CSnTe4Mg2
_chemical_formula_sum              "C156 N16 H72 Sn72 Te72 Mg36"
_cell_length_a       27.1265
_cell_length_b       47.2399
_cell_length_c       8.34426
_cell_angle_alpha    109.647
_cell_angle_beta     77.6535
_cell_angle_gamma    89.4384

_symmetry_space_group_name_H-M    'P1'
_space_group_IT_number       1

loop_
  _space_group_symop_operation_xyz
  'x, y, z'

loop_
  _atom_site_type_symbol
  _atom_site_label
  _atom_site_symmetry_multiplicity
  _atom_site_fract_x
  _atom_site_fract_y
  _atom_site_fract_z
  _atom_site_occupancy
  C   C1        1.0  0.53979  0.69220  0.26452  1.0000
  C   C2        1.0  0.04126  0.19265  0.27386  1.0000
  C   C3        1.0  0.45861  0.69023  0.23023  1.0000
  C   C4        1.0  0.95891  0.19091  0.25306  1.0000
  C   C5        1.0  0.49943  0.73250  0.23913  1.0000
  C   C6        1.0  0.99959  0.23292  0.25271  1.0000
  N   N1        1.0  0.54161  0.72054  0.26197  1.0000
  N   N2        1.0  0.04295  0.22065  0.26575  1.0000
  N   N3        1.0  0.45724  0.71809  0.21951  1.0000
  N   N4        1.0  0.95684  0.21878  0.24306  1.0000
  N   N5        1.0  0.49901  0.67625  0.25187  1.0000
  N   N6        1.0  0.00001  0.17697  0.27085  1.0000
  C   C7        1.0  0.58594  0.67744  0.27896  1.0000
  C   C8        1.0  0.08802  0.17795  0.28419  1.0000
  C   C9        1.0  0.49941  0.76360  0.23705  1.0000
  C   C10       1.0  0.99919  0.26393  0.25071  1.0000
  C   C11       1.0  0.63309  0.68861  0.23941  1.0000
  C   C12       1.0  0.13504  0.18869  0.23665  1.0000
  C   C13       1.0  0.46340  0.77499  0.17045  1.0000
  C   C14       1.0  0.95906  0.27653  0.20733  1.0000
  C   C15       1.0  0.53514  0.78261  0.30442  1.0000
  C   C16       1.0  0.03831  0.28190  0.29803  1.0000
  C   C17       1.0  0.58403  0.65146  0.32493  1.0000
  C   C18       1.0  0.08672  0.15249  0.33561  1.0000
  C   C19       1.0  0.62806  0.63697  0.33120  1.0000
  C   C20       1.0  0.13140  0.13824  0.33948  1.0000
  C   C21       1.0  0.53470  0.81212  0.30620  1.0000
  C   C22       1.0  0.03701  0.31154  0.30279  1.0000
  C   C23       1.0  0.46409  0.80429  0.16771  1.0000
  C   C24       1.0  0.95831  0.30613  0.21073  1.0000
  C   C25       1.0  0.67715  0.67365  0.24155  1.0000
  C   C26       1.0  0.17960  0.17422  0.23896  1.0000
  C   C27       1.0  0.95467  0.55306  0.25233  1.0000
  C   C28       1.0  0.54833  0.05280  0.24408  1.0000
  C   C29       1.0  0.90744  0.54578  0.32979  1.0000
  C   C30       1.0  0.59497  0.03688  0.14357  1.0000
  C   C31       1.0  0.86255  0.56098  0.33504  1.0000
  C   C32       1.0  0.63958  0.05115  0.13915  1.0000
  C   C33       1.0  0.86263  0.58496  0.27117  1.0000
  C   C34       1.0  0.63994  0.08204  0.23095  1.0000
  C   C35       1.0  0.91001  0.59257  0.19697  1.0000
  C   C36       1.0  0.59326  0.09792  0.33020  1.0000
  C   C37       1.0  0.95482  0.57648  0.18418  1.0000
  C   C38       1.0  0.54859  0.08370  0.33823  1.0000
  H   H1        1.0  0.90588  0.52854  0.38927  1.0000
  H   H2        1.0  0.59587  0.01298  0.07059  1.0000
  H   H3        1.0  0.82657  0.55523  0.39853  1.0000
  H   H4        1.0  0.67490  0.03830  0.05790  1.0000
  H   H5        1.0  0.91118  0.61016  0.13906  1.0000
  H   H6        1.0  0.59247  0.12175  0.40595  1.0000
  H   H7        1.0  0.99057  0.58181  0.11842  1.0000
  H   H8        1.0  0.51334  0.09686  0.41643  1.0000
  C   C39       1.0  0.81493  0.60088  0.27714  1.0000
  C   C40       1.0  0.18405  0.59814  0.22898  1.0000
  C   C41       1.0  0.77276  0.58503  0.23859  1.0000
  C   C42       1.0  0.22770  0.58590  0.25598  1.0000
  C   C43       1.0  0.72795  0.60000  0.24202  1.0000
  C   C44       1.0  0.27196  0.60057  0.25296  1.0000
  C   C45       1.0  0.72280  0.63154  0.28533  1.0000
  C   C46       1.0  0.27523  0.62795  0.22006  1.0000
  C   C47       1.0  0.76483  0.64735  0.32571  1.0000
  C   C48       1.0  0.23145  0.63975  0.19042  1.0000
  C   C49       1.0  0.80984  0.63241  0.32078  1.0000
  C   C50       1.0  0.18685  0.62543  0.19667  1.0000
  H   H9        1.0  0.77627  0.56049  0.19968  1.0000
  H   H10       1.0  0.22613  0.56523  0.28630  1.0000
  H   H11       1.0  0.69680  0.58699  0.20490  1.0000
  H   H12       1.0  0.30390  0.59082  0.28227  1.0000
  H   H13       1.0  0.76140  0.67182  0.36449  1.0000
  H   H14       1.0  0.23240  0.66014  0.15762  1.0000
  H   H15       1.0  0.84140  0.64533  0.35548  1.0000
  H   H16       1.0  0.15449  0.63475  0.16722  1.0000
  N   N7        1.0  0.00100  0.53750  0.24407  1.0000
  N   N8        1.0  0.50263  0.03815  0.24805  1.0000
  H   H17       1.0  0.63439  0.70850  0.20158  1.0000
  H   H18       1.0  0.13612  0.20802  0.19373  1.0000
  H   H19       1.0  0.43588  0.76027  0.11727  1.0000
  H   H20       1.0  0.92896  0.26256  0.16943  1.0000
  H   H21       1.0  0.56211  0.77398  0.35985  1.0000
  H   H22       1.0  0.06899  0.27216  0.33373  1.0000
  H   H23       1.0  0.54737  0.64323  0.35869  1.0000
  H   H24       1.0  0.05026  0.14455  0.37583  1.0000
  C   C51       1.0  0.67570  0.64748  0.28657  1.0000
  C   C52       1.0  0.17881  0.14863  0.28977  1.0000
  C   C53       1.0  0.49974  0.82367  0.23546  1.0000
  C   C54       1.0  0.99727  0.32451  0.25801  1.0000
  H   H25       1.0  0.71370  0.68160  0.20213  1.0000
  H   H26       1.0  0.62580  0.61773  0.37515  1.0000
  H   H27       1.0  0.21597  0.18200  0.19544  1.0000
  H   H28       1.0  0.12962  0.11938  0.38716  1.0000
  H   H29       1.0  0.43729  0.81187  0.10719  1.0000
  H   H30       1.0  0.92719  0.31491  0.17296  1.0000
  H   H31       1.0  0.56124  0.82660  0.36782  1.0000
  H   H32       1.0  0.06765  0.32477  0.34251  1.0000
  C   C55       1.0  0.53940  0.69175  0.75547  1.0000
  C   C56       1.0  0.03889  0.19239  0.77851  1.0000
  C   C57       1.0  0.45788  0.68968  0.72412  1.0000
  C   C58       1.0  0.95705  0.19140  0.75222  1.0000
  C   C59       1.0  0.49901  0.73167  0.72661  1.0000
  C   C60       1.0  0.99863  0.23334  0.75893  1.0000
  N   N9        1.0  0.54148  0.71977  0.74790  1.0000
  N   N10       1.0  0.04116  0.22070  0.77536  1.0000
  N   N11       1.0  0.45640  0.71746  0.71215  1.0000
  N   N12       1.0  0.95557  0.21956  0.74639  1.0000
  N   N13       1.0  0.49849  0.67587  0.74538  1.0000
  N   N14       1.0  0.99775  0.17679  0.76789  1.0000
  C   C61       1.0  0.08485  0.17700  0.78974  1.0000
  C   C62       1.0  0.41175  0.67343  0.71694  1.0000
  C   C63       1.0  0.91095  0.17525  0.74108  1.0000
  C   C64       1.0  0.49902  0.76279  0.72574  1.0000
  C   C65       1.0  0.13217  0.18790  0.74962  1.0000
  C   C66       1.0  0.36717  0.68723  0.70506  1.0000
  C   C67       1.0  0.86384  0.19092  0.76876  1.0000
  C   C68       1.0  0.45770  0.77642  0.69387  1.0000
  C   C69       1.0  0.53970  0.77995  0.76497  1.0000
  C   C70       1.0  0.41071  0.64431  0.72679  1.0000
  C   C71       1.0  0.91345  0.14386  0.70334  1.0000
  C   C72       1.0  0.08252  0.15051  0.83127  1.0000
  C   C73       1.0  0.12653  0.13533  0.83343  1.0000
  C   C74       1.0  0.36651  0.62961  0.72600  1.0000
  C   C75       1.0  0.87009  0.12851  0.69145  1.0000
  C   C76       1.0  0.53915  0.80975  0.77106  1.0000
  C   C77       1.0  0.45738  0.80627  0.70051  1.0000
  C   C78       1.0  0.32299  0.67261  0.70654  1.0000
  C   C79       1.0  0.82029  0.17570  0.76274  1.0000
  C   C80       1.0  0.17613  0.17232  0.74769  1.0000
  C   C81       1.0  0.54721  0.05275  0.73380  1.0000
  C   C82       1.0  0.59516  0.03717  0.64349  1.0000
  C   C83       1.0  0.63908  0.05215  0.64290  1.0000
  C   C84       1.0  0.63764  0.08348  0.72750  1.0000
  C   C85       1.0  0.58981  0.09904  0.81683  1.0000
  C   C86       1.0  0.54589  0.08404  0.82258  1.0000
  H   H33       1.0  0.59832  0.01296  0.57486  1.0000
  H   H34       1.0  0.67554  0.03941  0.57162  1.0000
  H   H35       1.0  0.58711  0.12321  0.88779  1.0000
  H   H36       1.0  0.50972  0.09679  0.89482  1.0000
  C   C87       1.0  0.46690  0.98810  0.66103  1.0000
  C   C88       1.0  0.53821  0.99522  0.79333  1.0000
  C   C89       1.0  0.46687  0.95872  0.66080  1.0000
  C   C90       1.0  0.53903  0.96542  0.78646  1.0000
  H   H37       1.0  0.43987  0.99608  0.60367  1.0000
  H   H38       1.0  0.56554  0.00951  0.85037  1.0000
  H   H39       1.0  0.43858  0.94502  0.60545  1.0000
  H   H40       1.0  0.56737  0.95739  0.83915  1.0000
  C   C91       1.0  0.31348  0.10067  0.79140  1.0000
  C   C92       1.0  0.18190  0.59875  0.72293  1.0000
  C   C93       1.0  0.68456  0.09896  0.72455  1.0000
  C   C94       1.0  0.27217  0.08413  0.74965  1.0000
  C   C95       1.0  0.22486  0.58641  0.75327  1.0000
  C   C96       1.0  0.72849  0.08594  0.74520  1.0000
  C   C97       1.0  0.22714  0.09848  0.74893  1.0000
  C   C98       1.0  0.26936  0.60084  0.75281  1.0000
  C   C99       1.0  0.77288  0.10047  0.74384  1.0000
  C   C100      1.0  0.22138  0.13007  0.79164  1.0000
  C   C101      1.0  0.27381  0.62804  0.71874  1.0000
  C   C102      1.0  0.77584  0.12839  0.71880  1.0000
  C   C103      1.0  0.26243  0.14658  0.83681  1.0000
  C   C104      1.0  0.23070  0.63999  0.68631  1.0000
  C   C105      1.0  0.73209  0.14107  0.69454  1.0000
  C   C106      1.0  0.30749  0.13224  0.83607  1.0000
  C   C107      1.0  0.18577  0.62600  0.69006  1.0000
  C   C108      1.0  0.68731  0.12691  0.69983  1.0000
  H   H41       1.0  0.27640  0.05960  0.71228  1.0000
  H   H42       1.0  0.22238  0.56587  0.78493  1.0000
  H   H43       1.0  0.72703  0.06492  0.77132  1.0000
  H   H44       1.0  0.19659  0.08496  0.70885  1.0000
  H   H45       1.0  0.30060  0.59102  0.78471  1.0000
  H   H46       1.0  0.80515  0.09062  0.77043  1.0000
  H   H47       1.0  0.25814  0.17115  0.87633  1.0000
  H   H48       1.0  0.23261  0.66021  0.65205  1.0000
  H   H49       1.0  0.73330  0.16189  0.66661  1.0000
  H   H50       1.0  0.33828  0.14551  0.87554  1.0000
  H   H51       1.0  0.15390  0.63557  0.65933  1.0000
  H   H52       1.0  0.65429  0.13702  0.67828  1.0000
  C   C109      1.0  0.03886  0.40313  0.79479  1.0000
  C   C110      1.0  0.96108  0.39797  0.70050  1.0000
  C   C111      1.0  0.03786  0.37404  0.79976  1.0000
  C   C112      1.0  0.96049  0.36866  0.70250  1.0000
  H   H53       1.0  0.07009  0.41609  0.83221  1.0000
  H   H54       1.0  0.93010  0.40666  0.66179  1.0000
  H   H55       1.0  0.06795  0.36586  0.84486  1.0000
  H   H56       1.0  0.92949  0.35567  0.66293  1.0000
  N   N15       1.0  0.99854  0.53803  0.74902  1.0000
  N   N16       1.0  0.50180  0.03780  0.73691  1.0000
  C   C113      1.0  0.50231  0.00733  0.73022  1.0000
  C   C114      1.0  0.50281  0.94617  0.72296  1.0000
  C   C115      1.0  0.00069  0.41607  0.74345  1.0000
  C   C116      1.0  0.99909  0.35558  0.75124  1.0000
  H   H57       1.0  0.13369  0.20814  0.71465  1.0000
  H   H58       1.0  0.36787  0.70969  0.69644  1.0000
  H   H59       1.0  0.86202  0.21521  0.79879  1.0000
  H   H60       1.0  0.42635  0.76306  0.66265  1.0000
  H   H61       1.0  0.57145  0.76955  0.79173  1.0000
  H   H62       1.0  0.44506  0.63346  0.73599  1.0000
  H   H63       1.0  0.94999  0.13180  0.68198  1.0000
  H   H64       1.0  0.04563  0.14246  0.86459  1.0000
  C   C117      1.0  0.17432  0.14580  0.79004  1.0000
  C   C118      1.0  0.32118  0.64342  0.71712  1.0000
  C   C119      1.0  0.82242  0.14416  0.72310  1.0000
  C   C120      1.0  0.49804  0.82380  0.73884  1.0000
  H   H65       1.0  0.21282  0.18008  0.70758  1.0000
  H   H66       1.0  0.12393  0.11557  0.87340  1.0000
  H   H67       1.0  0.28916  0.68442  0.70073  1.0000
  H   H68       1.0  0.36753  0.60702  0.73257  1.0000
  H   H69       1.0  0.78370  0.18846  0.79371  1.0000
  H   H70       1.0  0.87338  0.10401  0.65578  1.0000
  H   H71       1.0  0.42490  0.81587  0.67343  1.0000
  H   H72       1.0  0.57139  0.82229  0.80059  1.0000
  C  Sn1       1.0  0.05055  0.48687  0.25932  1.0000
  C   C121      1.0  0.01687  0.50220  0.20479  1.0000
  C  Sn2       1.0  0.97185  0.49015  0.17047  1.0000
  C  Sn3       1.0  0.96023  0.46219  0.19120  1.0000
  C   C122      1.0  0.99390  0.44688  0.24573  1.0000
  C  Sn4       1.0  0.03894  0.45891  0.28004  1.0000
  O  Te1       1.0  0.09534  0.49934  0.29289  1.0000
  O  Te2       1.0  0.93877  0.50589  0.11605  1.0000
  O  Te3       1.0  0.91540  0.44972  0.15756  1.0000
  O  Te4       1.0  0.07199  0.44319  0.33447  1.0000
  Mg  Mg1       1.0  0.88247  0.47967  0.08647  1.0000
  Mg  Mg2       1.0  0.12829  0.46939  0.36416  1.0000
  C  Sn5       1.0  0.12592  0.54841  0.59665  1.0000
  C   C123      1.0  0.13164  0.57899  0.67555  1.0000
  C  Sn6       1.0  0.09285  0.59773  0.80931  1.0000
  C  Sn7       1.0  0.04741  0.58564  0.86547  1.0000
  C   C124      1.0  0.04171  0.55508  0.78662  1.0000
  C  Sn8       1.0  0.08047  0.53632  0.65282  1.0000
  O  Te5       1.0  0.16518  0.53009  0.46317  1.0000
  O  Te6       1.0  0.09945  0.62823  0.88616  1.0000
  O  Te7       1.0  0.00813  0.60399  0.99906  1.0000
  O  Te8       1.0  0.07390  0.50584  0.57601  1.0000
  Mg  Mg3       1.0  0.10186  0.58430  0.06317  1.0000
  Mg  Mg4       1.0  0.13827  0.48998  0.39906  1.0000
  C  Sn9       1.0  0.35314  0.68964  0.25171  1.0000
  C   C125      1.0  0.40043  0.67962  0.26353  1.0000
  C  Sn10      1.0  0.41174  0.64921  0.23637  1.0000
  C  Sn11      1.0  0.37503  0.62838  0.19644  1.0000
  C   C126      1.0  0.32778  0.63840  0.18460  1.0000
  C  Sn12      1.0  0.31643  0.66880  0.21178  1.0000
  O  Te9       1.0  0.34265  0.72014  0.27936  1.0000
  O  Te10      1.0  0.45927  0.63974  0.24895  1.0000
  O  Te11      1.0  0.38556  0.59786  0.16879  1.0000
  O  Te12      1.0  0.26893  0.67828  0.19919  1.0000
  Mg  Mg5       1.0  0.45565  0.59589  0.20015  1.0000
  Mg  Mg6       1.0  0.27252  0.72212  0.24787  1.0000
  C  Sn13      1.0  0.02722  0.47613  0.86354  1.0000
  C   C127      1.0  0.99927  0.45301  0.78394  1.0000
  C  Sn14      1.0  0.97382  0.45579  0.66034  1.0000
  C  Sn15      1.0  0.97638  0.48222  0.61527  1.0000
  C   C128      1.0  0.00433  0.50532  0.69483  1.0000
  C  Sn16      1.0  0.02979  0.50256  0.81848  1.0000
  O  Te13      1.0  0.05237  0.47286  0.98675  1.0000
  O  Te14      1.0  0.94609  0.43237  0.58256  1.0000
  O  Te15      1.0  0.95121  0.48547  0.49196  1.0000
  O  Te16      1.0  0.05750  0.52595  0.89621  1.0000
  Mg  Mg7       1.0  0.91838  0.44738  0.42205  1.0000
  Mg  Mg8       1.0  0.15204  0.45120  0.05665  1.0000
  C  Sn17      1.0  0.28429  0.14675  0.28509  1.0000
  C   C129      1.0  0.23950  0.13436  0.25041  1.0000
  C  Sn18      1.0  0.23060  0.10539  0.25249  1.0000
  C  Sn19      1.0  0.26722  0.08846  0.29012  1.0000
  C   C130      1.0  0.31197  0.10085  0.32480  1.0000
  C  Sn20      1.0  0.32091  0.12981  0.32272  1.0000
  O  Te17      1.0  0.29239  0.17574  0.28231  1.0000
  O  Te18      1.0  0.18554  0.09349  0.21735  1.0000
  O  Te19      1.0  0.25908  0.05944  0.29286  1.0000
  O  Te20      1.0  0.36593  0.14172  0.35786  1.0000
  Mg  Mg9       1.0  0.19186  0.05303  0.23666  1.0000
  Mg  Mg10      1.0  0.35964  0.18218  0.33868  1.0000
  C  Sn21      1.0  0.53844  0.88155  0.32338  1.0000
  C   C131      1.0  0.50159  0.86138  0.28706  1.0000
  C  Sn22      1.0  0.46435  0.86703  0.20637  1.0000
  C  Sn23      1.0  0.46395  0.89337  0.16092  1.0000
  C   C132      1.0  0.50079  0.91352  0.19722  1.0000
  C  Sn24      1.0  0.53804  0.90790  0.27794  1.0000
  O  Te21      1.0  0.57531  0.87545  0.40412  1.0000
  O  Te22      1.0  0.42789  0.84654  0.17143  1.0000
  O  Te23      1.0  0.42703  0.89946  0.08013  1.0000
  O  Te24      1.0  0.57448  0.92837  0.31285  1.0000
  Mg  Mg11      1.0  0.38547  0.86475  0.05942  1.0000
  Mg  Mg12      1.0  0.61694  0.91016  0.42476  1.0000
  C  Sn25      1.0  0.66727  0.68316  0.78580  1.0000
  C   C133      1.0  0.67181  0.65692  0.82562  1.0000
  C  Sn26      1.0  0.63189  0.63849  0.82705  1.0000
  C  Sn27      1.0  0.58648  0.64644  0.78775  1.0000
  C   C134      1.0  0.58196  0.67265  0.74793  1.0000
  C  Sn28      1.0  0.62187  0.69110  0.74650  1.0000
  O  Te25      1.0  0.70767  0.70125  0.78514  1.0000
  O  Te26      1.0  0.63731  0.61238  0.86731  1.0000
  O  Te27      1.0  0.54607  0.62832  0.78844  1.0000
  O  Te28      1.0  0.61647  0.71720  0.70625  1.0000
  Mg  Mg13      1.0  0.57164  0.59502  0.85122  1.0000
  Mg  Mg14      1.0  0.68211  0.73456  0.72220  1.0000
  C  Sn29      1.0  0.55124  0.98727  0.26746  1.0000
  C   C135      1.0  0.51975  0.00231  0.20381  1.0000
  C  Sn30      1.0  0.47544  0.99026  0.16179  1.0000
  C  Sn31      1.0  0.46231  0.96260  0.18396  1.0000
  C   C136      1.0  0.49379  0.94757  0.24760  1.0000
  C  Sn32      1.0  0.53811  0.95961  0.28962  1.0000
  O  Te29      1.0  0.59536  0.99973  0.30863  1.0000
  O  Te30      1.0  0.44456  0.00571  0.09832  1.0000
  O  Te31      1.0  0.41815  0.95014  0.14272  1.0000
  O  Te32      1.0  0.56897  0.94418  0.35309  1.0000
  Mg  Mg15      1.0  0.38839  0.97963  0.06065  1.0000
  Mg  Mg16      1.0  0.62514  0.97024  0.39088  1.0000
  C  Sn33      1.0  0.45031  0.08884  0.24593  1.0000
  C   C137      1.0  0.45646  0.06359  0.29362  1.0000
  C  Sn34      1.0  0.41511  0.04751  0.32961  1.0000
  C  Sn35      1.0  0.36660  0.05685  0.31760  1.0000
  C   C138      1.0  0.36046  0.08209  0.26990  1.0000
  C  Sn36      1.0  0.40179  0.09818  0.23391  1.0000
  O  Te33      1.0  0.49218  0.10457  0.21052  1.0000
  O  Te34      1.0  0.40513  0.02234  0.37709  1.0000
  O  Te35      1.0  0.32472  0.04110  0.35306  1.0000
  O  Te36      1.0  0.39472  0.12333  0.18643  1.0000
  Mg  Mg17      1.0  0.33645  0.00828  0.41248  1.0000
  Mg  Mg18      1.0  0.46338  0.13740  0.15092  1.0000
  C  Sn37      1.0  0.45252  0.89238  0.70418  1.0000
  C   C139      1.0  0.48494  0.91427  0.76444  1.0000
  C  Sn38      1.0  0.52967  0.90625  0.80233  1.0000
  C  Sn39      1.0  0.54227  0.87571  0.77942  1.0000
  C   C140      1.0  0.50987  0.85384  0.71917  1.0000
  C  Sn40      1.0  0.46512  0.86184  0.68127  1.0000
  O  Te37      1.0  0.40800  0.90091  0.66710  1.0000
  O  Te38      1.0  0.56148  0.92854  0.86247  1.0000
  O  Te39      1.0  0.58683  0.86720  0.81657  1.0000
  O  Te40      1.0  0.43333  0.83958  0.62114  1.0000
  Mg  Mg19      1.0  0.61789  0.90574  0.89513  1.0000
  Mg  Mg20      1.0  0.37692  0.86235  0.58836  1.0000
  C  Sn41      1.0  0.71975  0.14183  0.23539  1.0000
  C   C141      1.0  0.76626  0.13230  0.25558  1.0000
  C  Sn42      1.0  0.77574  0.10273  0.24842  1.0000
  C  Sn43      1.0  0.73796  0.08224  0.22040  1.0000
  C   C142      1.0  0.69149  0.09177  0.20020  1.0000
  C  Sn44      1.0  0.68197  0.12134  0.20737  1.0000
  O  Te41      1.0  0.71110  0.17149  0.24300  1.0000
  O  Te42      1.0  0.82252  0.09374  0.26903  1.0000
  O  Te43      1.0  0.74665  0.05256  0.21280  1.0000
  O  Te44      1.0  0.63523  0.13033  0.18675  1.0000
  Mg  Mg21      1.0  0.81634  0.05099  0.24827  1.0000
  Mg  Mg22      1.0  0.64138  0.17306  0.20739  1.0000
  C  Sn45      1.0  0.04828  0.30318  0.76406  1.0000
  C   C143      1.0  0.01262  0.31905  0.72019  1.0000
  C  Sn46      1.0  0.96550  0.30818  0.70510  1.0000
  C  Sn47      1.0  0.95376  0.28089  0.73458  1.0000
  C   C144      1.0  0.98940  0.26505  0.77846  1.0000
  C  Sn48      1.0  0.03653  0.27590  0.79355  1.0000
  O  Te45      1.0  0.09514  0.31447  0.77844  1.0000
  O  Te46      1.0  0.93048  0.32444  0.66103  1.0000
  O  Te47      1.0  0.90685  0.26961  0.72016  1.0000
  O  Te48      1.0  0.07154  0.25966  0.83761  1.0000
  Mg  Mg23      1.0  0.87175  0.29987  0.65720  1.0000
  Mg  Mg24      1.0  0.13027  0.28421  0.84157  1.0000
  C  Sn49      1.0  0.89329  0.54126  0.79395  1.0000
  C   C145      1.0  0.94280  0.54690  0.73053  1.0000
  C  Sn50      1.0  0.95234  0.57378  0.69890  1.0000
  C  Sn51      1.0  0.91154  0.59548  0.73143  1.0000
  C   C146      1.0  0.86206  0.58984  0.79484  1.0000
  C  Sn52      1.0  0.85249  0.56296  0.82648  1.0000
  O  Te49      1.0  0.88464  0.51424  0.82464  1.0000
  O  Te50      1.0  0.00216  0.57891  0.63544  1.0000
  O  Te51      1.0  0.92023  0.62252  0.70068  1.0000
  O  Te52      1.0  0.80270  0.55783  0.88993  1.0000
  Mg  Mg25      1.0  0.99467  0.61915  0.61421  1.0000
  Mg  Mg26      1.0  0.81014  0.51761  0.91129  1.0000
  C  Sn53      1.0  0.05101  0.59007  0.29263  1.0000
  C   C147      1.0  0.04602  0.55925  0.21902  1.0000
  C  Sn54      1.0  0.08837  0.53832  0.16189  1.0000
  C  Sn55      1.0  0.13670  0.54839  0.17878  1.0000
  C   C148      1.0  0.14167  0.57919  0.25237  1.0000
  C  Sn56      1.0  0.09934  0.60014  0.30952  1.0000
  O  Te53      1.0  0.00815  0.61060  0.34886  1.0000
  O  Te54      1.0  0.08244  0.50762  0.08868  1.0000
  O  Te55      1.0  0.17957  0.52783  0.12246  1.0000
  O  Te56      1.0  0.10525  0.63082  0.38272  1.0000
  Mg  Mg27      1.0  0.15217  0.48839  0.03149  1.0000
  Mg  Mg28      1.0  0.03554  0.65007  0.44003  1.0000
  C  Sn57      1.0  0.96868  0.37060  0.13698  1.0000
  C   C149      1.0  0.99997  0.35566  0.20187  1.0000
  C  Sn58      1.0  0.03082  0.37179  0.30875  1.0000
  C  Sn59      1.0  0.03038  0.40352  0.35177  1.0000
  C   C150      1.0  0.99911  0.41845  0.28692  1.0000
  C  Sn60      1.0  0.96824  0.40233  0.18000  1.0000
  O  Te57      1.0  0.93815  0.35402  0.03036  1.0000
  O  Te58      1.0  0.06179  0.35636  0.37201  1.0000
  O  Te59      1.0  0.06095  0.42010  0.45847  1.0000
  O  Te60      1.0  0.93728  0.41775  0.11678  1.0000
  Mg  Mg29      1.0  0.09658  0.38890  0.51263  1.0000
  Mg  Mg30      1.0  0.83566  0.44500  0.97623  1.0000
  C  Sn61      1.0  0.91136  0.13659  0.16392  1.0000
  C   C151      1.0  0.91549  0.16735  0.19500  1.0000
  C  Sn62      1.0  0.87211  0.18757  0.25599  1.0000
  C  Sn63      1.0  0.82359  0.17683  0.28668  1.0000
  C   C152      1.0  0.81948  0.14610  0.25563  1.0000
  C  Sn64      1.0  0.86284  0.12585  0.19460  1.0000
  O  Te61      1.0  0.95524  0.11678  0.10295  1.0000
  O  Te62      1.0  0.87720  0.21822  0.28605  1.0000
  O  Te63      1.0  0.77970  0.19667  0.34768  1.0000
  O  Te64      1.0  0.85777  0.09523  0.16458  1.0000
  Mg  Mg31      1.0  0.80621  0.23635  0.36909  1.0000
  Mg  Mg32      1.0  0.92873  0.07708  0.08163  1.0000
  C  Sn65      1.0  0.41822  0.08510  0.65123  1.0000
  C   C153      1.0  0.36954  0.08172  0.73638  1.0000
  C  Sn66      1.0  0.36285  0.06573  0.85196  1.0000
  C  Sn67      1.0  0.40571  0.05286  0.88319  1.0000
  C   C154      1.0  0.45436  0.05625  0.79810  1.0000
  C  Sn68      1.0  0.46108  0.07223  0.68246  1.0000
  O  Te65      1.0  0.42401  0.10117  0.53623  1.0000
  O  Te66      1.0  0.31381  0.06265  0.93550  1.0000
  O  Te67      1.0  0.38281  0.03678  0.99830  1.0000
  O  Te68      1.0  0.51008  0.07532  0.59898  1.0000
  Mg  Mg33      1.0  0.37518  0.97898  0.08071  1.0000
  Mg  Mg34      1.0  0.49849  0.09923  0.45382  1.0000
  C  Sn69      1.0  0.72828  0.59551  0.78970  1.0000
  C   C155      1.0  0.71761  0.62637  0.82714  1.0000
  C  Sn70      1.0  0.75659  0.64554  0.83438  1.0000
  C  Sn71      1.0  0.80731  0.63362  0.80345  1.0000
  C   C156      1.0  0.81796  0.60278  0.76600  1.0000
  C  Sn72      1.0  0.77900  0.58359  0.75877  1.0000
  O  Te69      1.0  0.68872  0.57677  0.78312  1.0000
  O  Te70      1.0  0.74498  0.67631  0.87212  1.0000
  O  Te71      1.0  0.84688  0.65240  0.81006  1.0000
  O  Te72      1.0  0.79059  0.55284  0.72103  1.0000
  Mg  Mg35      1.0  0.81197  0.69271  0.86638  1.0000
  Mg  Mg36      1.0  0.72364  0.53641  0.72664  1.0000
