data_image0
_chemical_formula_structural       C6N8C6N8C2Sn2C2HTe2HMgC2Sn2C2HTe2HMgC2Sn2C2HTe2HMgC2Sn2C2HTe2HMgC2Sn2C2HTe2HMgC2Sn2C2HTe2HMgC2Sn2C2HTe2HMgC2Sn2C2HTe2HMgC2Sn2C2HTe2HMgC2Sn2C2HTe2HMgC2Sn2C2HTe2HMgC2Sn2C2HTe2HMgC2Sn2C2HTe2HMgC2Sn2C2HTe2HMgC2Sn2C2HTe2HMgC2Sn2C2HTe2HMgC2Sn2C2HTe2HMgC2Sn2C2HTe2HMgC2Sn2C2HTe2HMgC2Sn2C2HTe2HMgC2Sn2C2HTe2HMgC2Sn2C2HTe2HMgC2Sn2C2HTe2HMgC2Sn2C2HTe2HMgC2Sn2C2HTe2HMgC2Sn2C2HTe2HMgC2Sn2C2HTe2HMgC2Sn2C2HTe2HMgC2Sn2C2HTe2HMgC2Sn2C2HTe2HMgC2Sn2C2HTe2HMgC2Sn2C2HTe2HMgC2Sn2C2HTe2HMgC2Sn2C2HTe2HMgC2Sn2C2HTe2HMgC2Sn2C2HTe2HMg
_chemical_formula_sum              "C156 N16 Sn72 H72 Te72 Mg36"
_cell_length_a       27.1265
_cell_length_b       47.2399
_cell_length_c       8.34426
_cell_angle_alpha    109.647
_cell_angle_beta     77.6535
_cell_angle_gamma    89.4384

_symmetry_space_group_name_H-M    'P1'
_space_group_IT_number       1

loop_
  _space_group_symop_operation_xyz
  'x, y, z'

loop_
  _atom_site_type_symbol
  _atom_site_label
  _atom_site_symmetry_multiplicity
  _atom_site_fract_x
  _atom_site_fract_y
  _atom_site_fract_z
  _atom_site_occupancy
  C   C1        1.0  0.53979  0.69220  0.26452  1.0000
  C   C2        1.0  0.04126  0.19265  0.27386  1.0000
  C   C3        1.0  0.45861  0.69023  0.23023  1.0000
  C   C4        1.0  0.95891  0.19091  0.25306  1.0000
  C   C5        1.0  0.49943  0.73250  0.23913  1.0000
  C   C6        1.0  0.99959  0.23292  0.25271  1.0000
  N   N1        1.0  0.54161  0.72054  0.26197  1.0000
  N   N2        1.0  0.04295  0.22065  0.26575  1.0000
  N   N3        1.0  0.45724  0.71809  0.21951  1.0000
  N   N4        1.0  0.95684  0.21878  0.24306  1.0000
  N   N5        1.0  0.49901  0.67625  0.25187  1.0000
  N   N6        1.0  0.00001  0.17697  0.27085  1.0000
  N   N7        1.0  0.00100  0.53750  0.24407  1.0000
  N   N8        1.0  0.50263  0.03815  0.24805  1.0000
  C   C7        1.0  0.53940  0.69175  0.75547  1.0000
  C   C8        1.0  0.03889  0.19239  0.77851  1.0000
  C   C9        1.0  0.45788  0.68968  0.72412  1.0000
  C   C10       1.0  0.95705  0.19140  0.75222  1.0000
  C   C11       1.0  0.49901  0.73167  0.72661  1.0000
  C   C12       1.0  0.99863  0.23334  0.75893  1.0000
  N   N9        1.0  0.54148  0.71977  0.74790  1.0000
  N   N10       1.0  0.04116  0.22070  0.77536  1.0000
  N   N11       1.0  0.45640  0.71746  0.71215  1.0000
  N   N12       1.0  0.95557  0.21956  0.74639  1.0000
  N   N13       1.0  0.49849  0.67587  0.74538  1.0000
  N   N14       1.0  0.99775  0.17679  0.76789  1.0000
  N   N15       1.0  0.99854  0.53803  0.74902  1.0000
  N   N16       1.0  0.50180  0.03780  0.73691  1.0000
  C   C13       1.0  0.67117  0.67963  0.22979  1.0000
  C   C14       1.0  0.67681  0.65491  0.28269  1.0000
  C  Sn1       1.0  0.63455  0.64046  0.33202  1.0000
  C  Sn2       1.0  0.58581  0.65098  0.32815  1.0000
  C   C15       1.0  0.58057  0.67571  0.27491  1.0000
  C   C16       1.0  0.62310  0.69002  0.22587  1.0000
  H   H1        1.0  0.70408  0.69068  0.19175  1.0000
  O  Te1       1.0  0.64086  0.61580  0.38459  1.0000
  O  Te2       1.0  0.54294  0.63695  0.37671  1.0000
  H   H2        1.0  0.61873  0.70914  0.18481  1.0000
  Mg  Mg1       1.0  0.57093  0.60420  0.43869  1.0000
  C   C17       1.0  0.11721  0.13904  0.35075  1.0000
  C   C18       1.0  0.16735  0.14470  0.29613  1.0000
  C  Sn3       1.0  0.17793  0.16885  0.23691  1.0000
  C  Sn4       1.0  0.13749  0.18764  0.23249  1.0000
  C   C19       1.0  0.08746  0.18180  0.28753  1.0000
  C   C20       1.0  0.07730  0.15757  0.34650  1.0000
  H   H3        1.0  0.10935  0.12031  0.39647  1.0000
  O  Te3       1.0  0.22824  0.17418  0.18275  1.0000
  O  Te4       1.0  0.14699  0.21193  0.17396  1.0000
  H   H4        1.0  0.03848  0.15321  0.38888  1.0000
  Mg  Mg2       1.0  0.22191  0.21003  0.11370  1.0000
  C   C21       1.0  0.38108  0.63022  0.23407  1.0000
  C   C22       1.0  0.33292  0.64022  0.22949  1.0000
  C  Sn5       1.0  0.32477  0.66816  0.21172  1.0000
  C  Sn6       1.0  0.36567  0.68636  0.19826  1.0000
  C   C23       1.0  0.41371  0.67614  0.20286  1.0000
  C   C24       1.0  0.42145  0.64815  0.22074  1.0000
  H   H5        1.0  0.38708  0.60856  0.24780  1.0000
  O  Te5       1.0  0.27641  0.67781  0.20744  1.0000
  O  Te6       1.0  0.35858  0.71437  0.18034  1.0000
  H   H6        1.0  0.45875  0.64041  0.22416  1.0000
  Mg  Mg3       1.0  0.28569  0.71769  0.18120  1.0000
  C   C25       1.0  0.90882  0.13652  0.21914  1.0000
  C   C26       1.0  0.91514  0.16647  0.23209  1.0000
  C  Sn7       1.0  0.87376  0.18577  0.24687  1.0000
  C  Sn8       1.0  0.82519  0.17482  0.24872  1.0000
  C   C27       1.0  0.81926  0.14483  0.23582  1.0000
  C   C28       1.0  0.86094  0.12570  0.22103  1.0000
  H   H7        1.0  0.94106  0.12173  0.20779  1.0000
  O  Te7       1.0  0.88074  0.21563  0.25962  1.0000
  O  Te8       1.0  0.78318  0.19363  0.26343  1.0000
  H   H8        1.0  0.85603  0.10252  0.21111  1.0000
  Mg  Mg4       1.0  0.81187  0.23254  0.27722  1.0000
  C   C29       1.0  0.45720  0.78126  0.16170  1.0000
  C   C30       1.0  0.48993  0.76562  0.21790  1.0000
  C  Sn9       1.0  0.52820  0.78014  0.29379  1.0000
  C  Sn10      1.0  0.53369  0.81089  0.31366  1.0000
  C   C31       1.0  0.50072  0.82635  0.25713  1.0000
  C   C32       1.0  0.46257  0.81160  0.18131  1.0000
  H   H9        1.0  0.42766  0.76985  0.10313  1.0000
  O  Te9       1.0  0.56060  0.76417  0.34917  1.0000
  O  Te10      1.0  0.57160  0.82595  0.38914  1.0000
  H   H10       1.0  0.43721  0.82372  0.13792  1.0000
  Mg  Mg5       1.0  0.60642  0.79454  0.44414  1.0000
  C   C33       1.0  0.95281  0.29867  0.19830  1.0000
  C   C34       1.0  0.98556  0.32065  0.25395  1.0000
  C  Sn11      1.0  0.02842  0.31338  0.30489  1.0000
  C  Sn12      1.0  0.03859  0.28354  0.29986  1.0000
  C   C35       1.0  0.00561  0.26171  0.24387  1.0000
  C   C36       1.0  0.96282  0.26923  0.19323  1.0000
  H   H11       1.0  0.91972  0.30449  0.15903  1.0000
  O  Te11      1.0  0.06073  0.33562  0.36020  1.0000
  O  Te12      1.0  0.08116  0.27566  0.34999  1.0000
  H   H12       1.0  0.93749  0.25220  0.15004  1.0000
  Mg  Mg6       1.0  0.11388  0.31387  0.41560  1.0000
  C   C37       1.0  0.89338  0.54729  0.34687  1.0000
  C   C38       1.0  0.94307  0.54987  0.26651  1.0000
  C  Sn13      1.0  0.95329  0.57168  0.18781  1.0000
  C  Sn14      1.0  0.91294  0.59124  0.18986  1.0000
  C   C39       1.0  0.86337  0.58848  0.27070  1.0000
  C   C40       1.0  0.85357  0.56658  0.34900  1.0000
  H   H13       1.0  0.88580  0.53035  0.40754  1.0000
  O  Te13      1.0  0.00315  0.57395  0.10804  1.0000
  O  Te14      1.0  0.92209  0.61324  0.11225  1.0000
  H   H14       1.0  0.81510  0.56459  0.41131  1.0000
  Mg  Mg7       1.0  0.99646  0.60751  0.01986  1.0000
  C   C41       1.0  0.42603  0.09409  0.20643  1.0000
  C   C42       1.0  0.37598  0.08918  0.26882  1.0000
  C  Sn15      1.0  0.36567  0.06641  0.33994  1.0000
  C  Sn16      1.0  0.40630  0.04825  0.34864  1.0000
  C   C43       1.0  0.45623  0.05335  0.28598  1.0000
  C   C44       1.0  0.46612  0.07620  0.21501  1.0000
  H   H15       1.0  0.43368  0.11177  0.15160  1.0000
  O  Te15      1.0  0.31544  0.06181  0.40162  1.0000
  O  Te16      1.0  0.39707  0.02535  0.41914  1.0000
  H   H16       1.0  0.50488  0.08000  0.16682  1.0000
  Mg  Mg8       1.0  0.30509  0.02780  0.48613  1.0000
  C   C45       1.0  0.05166  0.59069  0.34741  1.0000
  C   C46       1.0  0.04507  0.56054  0.26029  1.0000
  C  Sn17      1.0  0.08699  0.54008  0.16069  1.0000
  C  Sn18      1.0  0.13638  0.55006  0.14837  1.0000
  C   C47       1.0  0.14257  0.58026  0.23612  1.0000
  C   C48       1.0  0.10036  0.60054  0.33538  1.0000
  H   H17       1.0  0.01900  0.60638  0.42429  1.0000
  O  Te17      1.0  0.07973  0.51005  0.07443  1.0000
  O  Te18      1.0  0.17894  0.53009  0.04978  1.0000
  H   H18       1.0  0.10547  0.62388  0.40292  1.0000
  Mg  Mg9       1.0  0.08278  0.55116  0.95607  1.0000
  C   C49       1.0  0.60872  0.03651  0.12240  1.0000
  C   C50       1.0  0.56020  0.04798  0.22530  1.0000
  C  Sn19      1.0  0.55065  0.07842  0.33042  1.0000
  C  Sn20      1.0  0.59049  0.09769  0.33224  1.0000
  C   C51       1.0  0.63888  0.08600  0.22873  1.0000
  C   C52       1.0  0.64802  0.05550  0.12406  1.0000
  H   H19       1.0  0.61579  0.01291  0.04134  1.0000
  O  Te19      1.0  0.50196  0.08951  0.43248  1.0000
  O  Te20      1.0  0.58199  0.12821  0.43605  1.0000
  H   H20       1.0  0.68559  0.04663  0.04431  1.0000
  Mg  Mg10      1.0  0.50918  0.13271  0.55235  1.0000
  C   C53       1.0  0.96170  0.46446  0.15566  1.0000
  C   C54       1.0  0.99503  0.44857  0.20830  1.0000
  C  Sn21      1.0  0.03296  0.46310  0.28620  1.0000
  C  Sn22      1.0  0.03750  0.49412  0.31174  1.0000
  C   C55       1.0  0.00394  0.50983  0.25872  1.0000
  C   C56       1.0  0.96614  0.49507  0.18085  1.0000
  H   H21       1.0  0.93243  0.45305  0.09549  1.0000
  O  Te21      1.0  0.06596  0.44688  0.33797  1.0000
  O  Te22      1.0  0.07505  0.50920  0.38932  1.0000
  H   H22       1.0  0.94031  0.50739  0.14021  1.0000
  Mg  Mg11      1.0  0.11097  0.47738  0.43778  1.0000
  C   C57       1.0  0.54269  0.99002  0.32399  1.0000
  C   C58       1.0  0.51531  0.00462  0.24576  1.0000
  C  Sn23      1.0  0.47902  0.98985  0.15952  1.0000
  C  Sn24      1.0  0.47006  0.95993  0.15170  1.0000
  C   C59       1.0  0.49763  0.94553  0.23049  1.0000
  C   C60       1.0  0.53386  0.96051  0.31640  1.0000
  H   H23       1.0  0.57071  0.00162  0.39055  1.0000
  O  Te23      1.0  0.45202  0.00476  0.08201  1.0000
  O  Te24      1.0  0.43400  0.94465  0.06640  1.0000
  H   H24       1.0  0.55503  0.94922  0.37706  1.0000
  Mg  Mg12      1.0  0.34006  0.03425  0.98081  1.0000
  C   C61       1.0  0.80292  0.63960  0.32472  1.0000
  C   C62       1.0  0.81404  0.60903  0.29436  1.0000
  C  Sn25      1.0  0.77845  0.58840  0.24896  1.0000
  C  Sn26      1.0  0.73089  0.59862  0.23373  1.0000
  C   C63       1.0  0.72014  0.62924  0.26425  1.0000
  C   C64       1.0  0.75602  0.64970  0.30965  1.0000
  H   H25       1.0  0.83069  0.65542  0.35975  1.0000
  O  Te25      1.0  0.79017  0.55794  0.21915  1.0000
  O  Te26      1.0  0.69464  0.57848  0.18848  1.0000
  H   H26       1.0  0.74742  0.67336  0.33304  1.0000
  Mg  Mg13      1.0  0.72833  0.53920  0.16081  1.0000
  C   C65       1.0  0.28048  0.14974  0.34415  1.0000
  C   C66       1.0  0.23729  0.13753  0.29253  1.0000
  C  Sn27      1.0  0.23291  0.10653  0.24737  1.0000
  C  Sn28      1.0  0.27257  0.08746  0.25417  1.0000
  C   C67       1.0  0.31561  0.09991  0.30609  1.0000
  C   C68       1.0  0.31960  0.13095  0.35095  1.0000
  H   H27       1.0  0.28356  0.17377  0.37895  1.0000
  O  Te27      1.0  0.18951  0.09470  0.19603  1.0000
  O  Te28      1.0  0.26917  0.05640  0.20978  1.0000
  H   H28       1.0  0.35303  0.14041  0.39102  1.0000
  Mg  Mg14      1.0  0.20251  0.05096  0.14797  1.0000
  C   C69       1.0  0.19344  0.63226  0.19440  1.0000
  C   C70       1.0  0.18397  0.60456  0.21570  1.0000
  C  Sn29      1.0  0.22115  0.58827  0.25028  1.0000
  C  Sn30      1.0  0.26865  0.59998  0.26377  1.0000
  C   C71       1.0  0.27774  0.62772  0.24238  1.0000
  C   C72       1.0  0.24027  0.64383  0.20776  1.0000
  H   H29       1.0  0.16444  0.64474  0.16771  1.0000
  O  Te29      1.0  0.21107  0.56062  0.27113  1.0000
  O  Te30      1.0  0.30648  0.58416  0.29830  1.0000
  H   H30       1.0  0.24760  0.66529  0.19139  1.0000
  Mg  Mg15      1.0  0.27469  0.54747  0.31643  1.0000
  C   C73       1.0  0.72222  0.13792  0.17652  1.0000
  C   C74       1.0  0.76749  0.13057  0.21382  1.0000
  C  Sn31      1.0  0.77349  0.10453  0.25422  1.0000
  C  Sn32      1.0  0.73337  0.08553  0.25717  1.0000
  C   C75       1.0  0.68824  0.09307  0.21954  1.0000
  C   C76       1.0  0.68264  0.11918  0.17934  1.0000
  H   H31       1.0  0.71789  0.15811  0.14532  1.0000
  O  Te31      1.0  0.81896  0.09753  0.29123  1.0000
  O  Te32      1.0  0.73836  0.05936  0.29707  1.0000
  H   H32       1.0  0.64760  0.12486  0.15035  1.0000
  Mg  Mg16      1.0  0.80759  0.05942  0.33829  1.0000
  C   C77       1.0  0.04159  0.38152  0.31948  1.0000
  C   C78       1.0  0.00563  0.36078  0.28200  1.0000
  C  Sn33      1.0  0.96626  0.36684  0.21098  1.0000
  C  Sn34      1.0  0.96295  0.39419  0.17696  1.0000
  C   C79       1.0  0.99913  0.41478  0.21481  1.0000
  C   C80       1.0  0.03836  0.40850  0.28591  1.0000
  H   H33       1.0  0.07196  0.37666  0.37440  1.0000
  O  Te33      1.0  0.93064  0.34587  0.17438  1.0000
  O  Te34      1.0  0.92401  0.40081  0.10597  1.0000
  H   H34       1.0  0.06622  0.42456  0.31481  1.0000
  Mg  Mg17      1.0  0.88456  0.36511  0.07852  1.0000
  C   C81       1.0  0.45336  0.87581  0.19851  1.0000
  C   C82       1.0  0.49116  0.85736  0.21493  1.0000
  C  Sn35      1.0  0.53631  0.86891  0.25152  1.0000
  C  Sn36      1.0  0.54364  0.89951  0.27202  1.0000
  C   C83       1.0  0.50559  0.91780  0.25546  1.0000
  C   C84       1.0  0.46056  0.90601  0.21878  1.0000
  H   H35       1.0  0.41851  0.86670  0.17022  1.0000
  O  Te35      1.0  0.57368  0.85015  0.26744  1.0000
  O  Te36      1.0  0.58839  0.91164  0.30870  1.0000
  H   H36       1.0  0.43129  0.92031  0.20618  1.0000
  Mg  Mg18      1.0  0.62814  0.87710  0.31819  1.0000
  C   C85       1.0  0.58864  0.64453  0.82563  1.0000
  C   C86       1.0  0.58297  0.67099  0.78903  1.0000
  C  Sn37      1.0  0.62543  0.68553  0.74253  1.0000
  C  Sn38      1.0  0.67442  0.67328  0.73256  1.0000
  C   C87       1.0  0.67969  0.64678  0.76931  1.0000
  C   C88       1.0  0.63695  0.63243  0.81576  1.0000
  H   H37       1.0  0.55557  0.63341  0.86147  1.0000
  O  Te37      1.0  0.61908  0.71195  0.70645  1.0000
  O  Te38      1.0  0.71750  0.68734  0.68635  1.0000
  H   H38       1.0  0.64135  0.61193  0.84398  1.0000
  Mg  Mg19      1.0  0.68936  0.72287  0.64926  1.0000
  C   C89       1.0  0.14619  0.18769  0.74567  1.0000
  C   C90       1.0  0.09621  0.18017  0.77678  1.0000
  C  Sn39      1.0  0.08478  0.15489  0.82429  1.0000
  C  Sn40      1.0  0.12420  0.13686  0.84092  1.0000
  C   C91       1.0  0.17407  0.14459  0.80963  1.0000
  C   C92       1.0  0.18509  0.16993  0.76210  1.0000
  H   H39       1.0  0.15472  0.20730  0.70899  1.0000
  O  Te39      1.0  0.03464  0.14769  0.85483  1.0000
  O  Te40      1.0  0.11383  0.11149  0.88829  1.0000
  H   H40       1.0  0.22379  0.17575  0.73813  1.0000
  Mg  Mg20      1.0  0.03954  0.11090  0.91620  1.0000
  C   C93       1.0  0.40377  0.63777  0.73240  1.0000
  C   C94       1.0  0.41344  0.66553  0.71231  1.0000
  C  Sn41      1.0  0.37453  0.68379  0.70040  1.0000
  C  Sn42      1.0  0.32505  0.67400  0.70884  1.0000
  C   C95       1.0  0.31576  0.64620  0.72908  1.0000
  C   C96       1.0  0.35498  0.62811  0.74081  1.0000
  H   H41       1.0  0.43410  0.62378  0.74158  1.0000
  O  Te41      1.0  0.38485  0.71145  0.68029  1.0000
  O  Te42      1.0  0.28546  0.69180  0.69734  1.0000
  H   H42       1.0  0.34747  0.60662  0.75648  1.0000
  Mg  Mg21      1.0  0.31837  0.72770  0.67064  1.0000
  C   C97       1.0  0.82609  0.18307  0.77330  1.0000
  C   C98       1.0  0.82103  0.15214  0.72882  1.0000
  C  Sn43      1.0  0.86328  0.13195  0.69271  1.0000
  C  Sn44      1.0  0.91144  0.14300  0.70144  1.0000
  C   C99       1.0  0.91610  0.17399  0.74619  1.0000
  C   C100      1.0  0.87357  0.19399  0.78201  1.0000
  H   H43       1.0  0.79318  0.19855  0.80111  1.0000
  O  Te43      1.0  0.85756  0.10111  0.64841  1.0000
  O  Te44      1.0  0.95430  0.12332  0.66605  1.0000
  H   H44       1.0  0.87749  0.21794  0.81656  1.0000
  Mg  Mg22      1.0  0.92723  0.08325  0.61149  1.0000
  C   C101      1.0  0.45154  0.79892  0.68869  1.0000
  C   C102      1.0  0.48587  0.82020  0.73823  1.0000
  C  Sn45      1.0  0.53025  0.81188  0.77704  1.0000
  C  Sn46      1.0  0.54035  0.78166  0.76588  1.0000
  C   C103      1.0  0.50578  0.76053  0.71608  1.0000
  C   C104      1.0  0.46148  0.76911  0.67759  1.0000
  H   H45       1.0  0.41728  0.80555  0.65882  1.0000
  O  Te45      1.0  0.56414  0.83343  0.82639  1.0000
  O  Te46      1.0  0.58443  0.77273  0.80388  1.0000
  H   H46       1.0  0.43492  0.75262  0.63913  1.0000
  Mg  Mg23      1.0  0.61898  0.81032  0.86526  1.0000
  C   C105      1.0  0.95523  0.29834  0.68807  1.0000
  C   C106      1.0  0.98711  0.32058  0.74826  1.0000
  C  Sn47      1.0  0.02819  0.31388  0.80975  1.0000
  C  Sn48      1.0  0.03744  0.28434  0.81079  1.0000
  C   C107      1.0  0.00535  0.26223  0.75018  1.0000
  C   C108      1.0  0.96435  0.26919  0.68899  1.0000
  H   H47       1.0  0.92352  0.30371  0.64063  1.0000
  O  Te47      1.0  0.05964  0.33638  0.86948  1.0000
  O  Te48      1.0  0.07824  0.27703  0.87148  1.0000
  H   H48       1.0  0.93969  0.25195  0.64229  1.0000
  Mg  Mg24      1.0  0.11036  0.31541  0.93957  1.0000
  C   C109      1.0  0.94529  0.58241  0.67841  1.0000
  C   C110      1.0  0.95323  0.55963  0.74446  1.0000
  C  Sn49      1.0  0.91206  0.54825  0.82786  1.0000
  C  Sn50      1.0  0.86205  0.55993  0.84523  1.0000
  C   C111      1.0  0.85450  0.58270  0.77860  1.0000
  C   C112      1.0  0.89598  0.59393  0.69542  1.0000
  H   H49       1.0  0.97738  0.59109  0.61397  1.0000
  O  Te49      1.0  0.92067  0.52550  0.89315  1.0000
  O  Te50      1.0  0.82021  0.54895  0.92795  1.0000
  H   H50       1.0  0.88982  0.61155  0.64420  1.0000
  Mg  Mg25      1.0  0.85139  0.51789  0.99546  1.0000
  C   C113      1.0  0.37772  0.04789  0.85656  1.0000
  C   C114      1.0  0.44386  0.05080  0.77231  1.0000
  C  Sn51      1.0  0.45255  0.07268  0.69353  1.0000
  C  Sn52      1.0  0.41129  0.09199  0.69946  1.0000
  C   C115      1.0  0.36235  0.08891  0.78418  1.0000
  C   C116      1.0  0.35407  0.06693  0.86253  1.0000
  H   H51       1.0  0.37132  0.03089  0.91726  1.0000
  O  Te51      1.0  0.50181  0.07527  0.60985  1.0000
  O  Te52      1.0  0.41891  0.11406  0.62186  1.0000
  H   H52       1.0  0.31608  0.06470  0.92784  1.0000
  Mg  Mg26      1.0  0.49297  0.10880  0.52333  1.0000
  C   C117      1.0  0.10510  0.53692  0.63206  1.0000
  C   C118      1.0  0.05588  0.54840  0.72777  1.0000
  C  Sn53      1.0  0.04498  0.57925  0.82231  1.0000
  C  Sn54      1.0  0.08415  0.59891  0.82072  1.0000
  C   C119      1.0  0.13326  0.58720  0.72446  1.0000
  C   C120      1.0  0.14375  0.55629  0.63036  1.0000
  H   H53       1.0  0.11321  0.51301  0.55917  1.0000
  O  Te53      1.0  0.99561  0.59035  0.91729  1.0000
  O  Te54      1.0  0.07430  0.62983  0.91399  1.0000
  H   H54       1.0  0.18185  0.54741  0.55618  1.0000
  Mg  Mg27      1.0  0.06779  0.57442  0.02362  1.0000
  C   C121      1.0  0.59199  0.03696  0.62494  1.0000
  C   C122      1.0  0.55932  0.04797  0.71643  1.0000
  C  Sn55      1.0  0.54753  0.07867  0.81352  1.0000
  C  Sn56      1.0  0.58634  0.09866  0.81883  1.0000
  C   C123      1.0  0.63598  0.08742  0.72674  1.0000
  C   C124      1.0  0.64736  0.05666  0.63004  1.0000
  H   H55       1.0  0.60080  0.01316  0.55004  1.0000
  O  Te55      1.0  0.49764  0.08930  0.90422  1.0000
  O  Te56      1.0  0.57561  0.12945  0.91478  1.0000
  H   H56       1.0  0.68587  0.04814  0.55913  1.0000
  Mg  Mg28      1.0  0.56866  0.07336  0.01656  1.0000
  C   C125      1.0  0.96219  0.46425  0.65038  1.0000
  C   C126      1.0  0.99455  0.44889  0.70946  1.0000
  C  Sn57      1.0  0.03013  0.46417  0.79744  1.0000
  C  Sn58      1.0  0.03329  0.49540  0.82666  1.0000
  C   C127      1.0  0.00073  0.51057  0.76715  1.0000
  C   C128      1.0  0.96527  0.49506  0.67921  1.0000
  H   H57       1.0  0.93473  0.45226  0.58243  1.0000
  O  Te57      1.0  0.06218  0.44847  0.85553  1.0000
  O  Te58      1.0  0.06850  0.51122  0.91428  1.0000
  H   H58       1.0  0.94020  0.50697  0.63358  1.0000
  Mg  Mg29      1.0  0.10391  0.47991  0.96843  1.0000
  C   C129      1.0  0.46184  0.98053  0.64665  1.0000
  C   C130      1.0  0.49187  0.00325  0.71624  1.0000
  C  Sn59      1.0  0.53068  0.99713  0.78939  1.0000
  C  Sn60      1.0  0.53950  0.96770  0.79271  1.0000
  C   C131      1.0  0.50926  0.94512  0.72264  1.0000
  C   C132      1.0  0.47052  0.95150  0.64980  1.0000
  H   H59       1.0  0.43188  0.98546  0.59021  1.0000
  O  Te59      1.0  0.56032  0.02009  0.85841  1.0000
  O  Te60      1.0  0.57804  0.96096  0.86497  1.0000
  H   H60       1.0  0.44729  0.93390  0.59583  1.0000
  Mg  Mg30      1.0  0.60827  0.99983  0.94274  1.0000
  C   C133      1.0  0.80008  0.63975  0.83801  1.0000
  C   C134      1.0  0.81110  0.60913  0.80635  1.0000
  C  Sn61      1.0  0.77612  0.58843  0.75455  1.0000
  C  Sn62      1.0  0.72928  0.59866  0.73413  1.0000
  C   C135      1.0  0.71862  0.62934  0.76600  1.0000
  C   C136      1.0  0.75389  0.64985  0.81784  1.0000
  H   H61       1.0  0.82737  0.65562  0.87802  1.0000
  O  Te61      1.0  0.78774  0.55792  0.72351  1.0000
  O  Te62      1.0  0.69364  0.57846  0.68243  1.0000
  H   H62       1.0  0.74535  0.67356  0.84223  1.0000
  Mg  Mg31      1.0  0.72691  0.53911  0.65558  1.0000
  C   C137      1.0  0.23508  0.09124  0.73751  1.0000
  C   C138      1.0  0.22065  0.12208  0.79012  1.0000
  C  Sn63      1.0  0.25493  0.14325  0.84192  1.0000
  C  Sn64      1.0  0.30457  0.13331  0.84085  1.0000
  C   C139      1.0  0.31865  0.10241  0.78788  1.0000
  C   C140      1.0  0.28403  0.08142  0.73635  1.0000
  H   H63       1.0  0.20831  0.07500  0.69755  1.0000
  O  Te63      1.0  0.23988  0.17397  0.89416  1.0000
  O  Te64      1.0  0.33960  0.15399  0.89193  1.0000
  H   H64       1.0  0.29523  0.05754  0.69552  1.0000
  Mg  Mg32      1.0  0.30119  0.19346  0.95233  1.0000
  C   C141      1.0  0.23856  0.58618  0.75464  1.0000
  C   C142      1.0  0.19187  0.59548  0.73480  1.0000
  C  Sn65      1.0  0.18632  0.62171  0.69575  1.0000
  C  Sn66      1.0  0.22837  0.63888  0.67624  1.0000
  C   C143      1.0  0.27494  0.62936  0.69623  1.0000
  C   C144      1.0  0.28006  0.60309  0.73535  1.0000
  H   H65       1.0  0.24254  0.56584  0.78482  1.0000
  O  Te65      1.0  0.13940  0.63069  0.67643  1.0000
  O  Te66      1.0  0.22389  0.66517  0.63715  1.0000
  H   H66       1.0  0.31623  0.59588  0.75060  1.0000
  Mg  Mg33      1.0  0.15216  0.66816  0.62334  1.0000
  C   C145      1.0  0.74229  0.08567  0.74519  1.0000
  C   C146      1.0  0.69486  0.09536  0.73278  1.0000
  C  Sn67      1.0  0.68814  0.12232  0.70243  1.0000
  C  Sn68      1.0  0.72975  0.13986  0.68416  1.0000
  C   C147      1.0  0.77706  0.12996  0.69666  1.0000
  C   C148      1.0  0.78336  0.10294  0.72712  1.0000
  H   H67       1.0  0.74717  0.06476  0.76866  1.0000
  O  Te67      1.0  0.64049  0.13168  0.69046  1.0000
  O  Te68      1.0  0.72410  0.16689  0.65369  1.0000
  H   H68       1.0  0.82009  0.09544  0.73660  1.0000
  Mg  Mg34      1.0  0.65173  0.17016  0.64778  1.0000
  C   C149      1.0  0.95564  0.39049  0.68826  1.0000
  C   C150      1.0  0.98789  0.41270  0.74541  1.0000
  C  Sn69      1.0  0.02981  0.40592  0.80267  1.0000
  C  Sn70      1.0  0.03954  0.37635  0.80252  1.0000
  C   C151      1.0  0.00707  0.35429  0.74498  1.0000
  C   C152      1.0  0.96522  0.36131  0.68801  1.0000
  H   H69       1.0  0.92328  0.39592  0.64409  1.0000
  O  Te69      1.0  0.06163  0.42838  0.85939  1.0000
  O  Te70      1.0  0.08118  0.36896  0.85900  1.0000
  H   H70       1.0  0.94028  0.34411  0.64367  1.0000
  Mg  Mg35      1.0  0.11352  0.40731  0.92415  1.0000
  C   C153      1.0  0.54077  0.88153  0.81270  1.0000
  C   C154      1.0  0.50667  0.86002  0.76420  1.0000
  C  Sn71      1.0  0.46899  0.86557  0.68489  1.0000
  C  Sn72      1.0  0.46548  0.89316  0.65368  1.0000
  C   C155      1.0  0.49979  0.91452  0.70256  1.0000
  C   C156      1.0  0.53734  0.90875  0.78189  1.0000
  H   H71       1.0  0.56984  0.87705  0.87399  1.0000
  O  Te71      1.0  0.43522  0.84384  0.63733  1.0000
  O  Te72      1.0  0.42819  0.89928  0.57456  1.0000
  H   H72       1.0  0.56375  0.92539  0.81932  1.0000
  Mg  Mg36      1.0  0.39096  0.86262  0.53334  1.0000
