data_image0
_chemical_formula_structural       C3N3C12H8C4H4C12H4C4H2NC4NSN2SN2SNC3N3C16H4C12H4C4H2NC2H4C2H4NSN2SN2SNC2Sn2C2HTe2HMgC2Sn2C2HTe2HMgC2Sn2C2HTe2HMgC2Sn2C2HTe2HMgC2Sn2C2HTe2HMgC2Sn2C2HTe2HMg
_chemical_formula_sum              "C102 N20 H48 S6 Sn12 Te12 Mg6"
_cell_length_a       27.246
_cell_length_b       27.3547
_cell_length_c       7.93162
_cell_angle_alpha    87.2967
_cell_angle_beta     87.8137
_cell_angle_gamma    60.1327

_symmetry_space_group_name_H-M    'P1'
_space_group_IT_number       1

loop_
  _space_group_symop_operation_xyz
  'x, y, z'

loop_
  _atom_site_type_symbol
  _atom_site_label
  _atom_site_symmetry_multiplicity
  _atom_site_fract_x
  _atom_site_fract_y
  _atom_site_fract_z
  _atom_site_occupancy
  C   C1        1.0  0.23147  0.61892  0.74710  1.0000
  C   C2        1.0  0.14788  0.61949  0.73510  1.0000
  C   C3        1.0  0.23098  0.53589  0.74208  1.0000
  N   N1        1.0  0.26151  0.56218  0.75169  1.0000
  N   N2        1.0  0.17400  0.56276  0.73143  1.0000
  N   N3        1.0  0.17463  0.64957  0.74057  1.0000
  C   C4        1.0  0.50657  0.89370  0.76062  1.0000
  C   C5        1.0  0.59702  0.89447  0.75881  1.0000
  C   C6        1.0  0.45310  0.91709  0.68626  1.0000
  C   C7        1.0  0.62655  0.91801  0.83085  1.0000
  C   C8        1.0  0.42392  0.88743  0.68793  1.0000
  C   C9        1.0  0.68542  0.88949  0.83277  1.0000
  C   C10       1.0  0.44754  0.83253  0.75924  1.0000
  C   C11       1.0  0.71756  0.83545  0.76728  1.0000
  C   C12       1.0  0.50090  0.80916  0.83296  1.0000
  C   C13       1.0  0.68802  0.81198  0.69497  1.0000
  C   C14       1.0  0.52935  0.83950  0.83702  1.0000
  C   C15       1.0  0.62928  0.84126  0.68760  1.0000
  H   H1        1.0  0.43430  0.95892  0.62680  1.0000
  H   H2        1.0  0.60286  0.95922  0.88529  1.0000
  H   H3        1.0  0.38318  0.90584  0.62667  1.0000
  H   H4        1.0  0.70659  0.90877  0.89260  1.0000
  H   H5        1.0  0.51922  0.76762  0.89506  1.0000
  H   H6        1.0  0.71176  0.77121  0.63707  1.0000
  H   H7        1.0  0.56954  0.82107  0.90079  1.0000
  H   H8        1.0  0.60833  0.82234  0.62558  1.0000
  C   C16       1.0  0.45435  0.01585  0.83413  1.0000
  C   C17       1.0  0.52879  0.01409  0.65976  1.0000
  C   C18       1.0  0.42649  0.07439  0.82856  1.0000
  C   C19       1.0  0.50111  0.07259  0.65516  1.0000
  H   H9        1.0  0.43513  0.99453  0.90424  1.0000
  H   H10       1.0  0.56875  0.99115  0.59212  1.0000
  H   H11       1.0  0.38707  0.09620  0.90026  1.0000
  H   H12       1.0  0.52023  0.09355  0.58283  1.0000
  C   C20       1.0  0.41643  0.80142  0.75917  1.0000
  C   C21       1.0  0.77983  0.80485  0.77027  1.0000
  C   C22       1.0  0.35948  0.82652  0.82213  1.0000
  C   C23       1.0  0.81203  0.82966  0.71953  1.0000
  C   C24       1.0  0.32780  0.79677  0.82265  1.0000
  C   C25       1.0  0.87205  0.79983  0.71717  1.0000
  C   C26       1.0  0.35278  0.74106  0.76012  1.0000
  C   C27       1.0  0.90398  0.74322  0.76543  1.0000
  C   C28       1.0  0.40877  0.71759  0.70493  1.0000
  C   C29       1.0  0.87252  0.71675  0.82622  1.0000
  C   C30       1.0  0.43967  0.74668  0.70439  1.0000
  C   C31       1.0  0.81104  0.74725  0.82857  1.0000
  H   H13       1.0  0.79032  0.87332  0.67257  1.0000
  H   H14       1.0  0.89439  0.82149  0.66934  1.0000
  H   H15       1.0  0.42916  0.67544  0.65472  1.0000
  H   H16       1.0  0.48283  0.72586  0.65403  1.0000
  C   C32       1.0  0.44121  0.20062  0.65617  1.0000
  C   C33       1.0  0.36484  0.19894  0.80701  1.0000
  C   C34       1.0  0.40953  0.26216  0.65753  1.0000
  C   C35       1.0  0.33456  0.25834  0.80947  1.0000
  H   H17       1.0  0.34478  0.17688  0.86838  1.0000
  H   H18       1.0  0.29376  0.27833  0.87520  1.0000
  N   N4        1.0  0.53661  0.92393  0.75822  1.0000
  C   C36       1.0  0.50668  0.98400  0.75058  1.0000
  C   C37       1.0  0.44880  0.10511  0.73936  1.0000
  C   C38       1.0  0.41872  0.16722  0.73473  1.0000
  C   C39       1.0  0.35504  0.29228  0.73795  1.0000
  N   N5        1.0  0.49170  0.18082  0.57377  1.0000
  S   S1        1.0  0.49632  0.23532  0.50463  1.0000
  N   N6        1.0  0.43660  0.28639  0.57365  1.0000
  N   N7        1.0  0.33078  0.87741  0.89473  1.0000
  S   S2        1.0  0.26968  0.88485  0.95508  1.0000
  N   N8        1.0  0.27569  0.82594  0.89543  1.0000
  N   N9        1.0  0.89490  0.66357  0.89316  1.0000
  S   S3        1.0  0.84149  0.65532  0.95164  1.0000
  N   N10       1.0  0.78824  0.71656  0.89728  1.0000
  C   C40       1.0  0.23256  0.61774  0.24017  1.0000
  C   C41       1.0  0.14947  0.61703  0.23012  1.0000
  C   C42       1.0  0.23307  0.53415  0.24317  1.0000
  N   N11       1.0  0.26304  0.56104  0.25118  1.0000
  N   N12       1.0  0.17620  0.56027  0.23322  1.0000
  N   N13       1.0  0.17574  0.64779  0.22875  1.0000
  C   C43       1.0  0.26359  0.64916  0.24146  1.0000
  C   C44       1.0  0.08702  0.64776  0.23257  1.0000
  C   C45       1.0  0.31865  0.62321  0.30466  1.0000
  C   C46       1.0  0.05668  0.62032  0.19858  1.0000
  C   C47       1.0  0.05721  0.70478  0.27479  1.0000
  C   C48       1.0  0.23852  0.70521  0.17934  1.0000
  C   C49       1.0  0.26740  0.73511  0.18330  1.0000
  C   C50       1.0  0.99845  0.73339  0.28508  1.0000
  C   C51       1.0  0.99789  0.64910  0.20781  1.0000
  C   C52       1.0  0.34746  0.65321  0.30891  1.0000
  C   C53       1.0  0.59899  0.89205  0.26070  1.0000
  C   C54       1.0  0.63003  0.91386  0.33338  1.0000
  C   C55       1.0  0.68894  0.88383  0.33272  1.0000
  C   C56       1.0  0.71934  0.82996  0.26532  1.0000
  C   C57       1.0  0.68835  0.80778  0.19481  1.0000
  C   C58       1.0  0.62958  0.83866  0.18956  1.0000
  H   H19       1.0  0.60792  0.95486  0.38975  1.0000
  H   H20       1.0  0.71184  0.90147  0.39163  1.0000
  H   H21       1.0  0.71079  0.76717  0.13526  1.0000
  H   H22       1.0  0.60695  0.82109  0.12946  1.0000
  C   C59       1.0  0.41666  0.80183  0.25493  1.0000
  C   C60       1.0  0.78166  0.79852  0.26654  1.0000
  C   C61       1.0  0.35935  0.82699  0.31426  1.0000
  C   C62       1.0  0.81384  0.82177  0.20178  1.0000
  C   C63       1.0  0.32794  0.79691  0.31387  1.0000
  C   C64       1.0  0.87374  0.79183  0.19817  1.0000
  C   C65       1.0  0.35344  0.74085  0.25339  1.0000
  C   C66       1.0  0.90568  0.73681  0.26107  1.0000
  C   C67       1.0  0.40983  0.71737  0.20200  1.0000
  C   C68       1.0  0.87422  0.71199  0.33510  1.0000
  C   C69       1.0  0.44044  0.74679  0.20298  1.0000
  C   C70       1.0  0.81273  0.74247  0.33703  1.0000
  H   H23       1.0  0.79192  0.86407  0.14460  1.0000
  H   H24       1.0  0.89586  0.81200  0.13733  1.0000
  H   H25       1.0  0.43097  0.67494  0.15382  1.0000
  H   H26       1.0  0.48397  0.72599  0.15562  1.0000
  C   C71       1.0  0.44351  0.19950  0.14873  1.0000
  C   C72       1.0  0.36792  0.19789  0.30420  1.0000
  C   C73       1.0  0.41210  0.26103  0.15115  1.0000
  C   C74       1.0  0.33772  0.25728  0.30672  1.0000
  H   H27       1.0  0.34814  0.17616  0.36933  1.0000
  H   H28       1.0  0.29740  0.27742  0.37500  1.0000
  N   N14       1.0  0.53859  0.92282  0.25912  1.0000
  C   C75       1.0  0.42121  0.16608  0.22854  1.0000
  C   C76       1.0  0.35800  0.29107  0.23303  1.0000
  H   H29       1.0  0.33756  0.57980  0.35238  1.0000
  H   H30       1.0  0.07990  0.57628  0.16499  1.0000
  H   H31       1.0  0.08116  0.72541  0.30237  1.0000
  H   H32       1.0  0.19651  0.72446  0.12596  1.0000
  C   C77       1.0  0.32226  0.70968  0.24915  1.0000
  C   C78       1.0  0.96786  0.70606  0.25180  1.0000
  H   H33       1.0  0.38951  0.63333  0.36243  1.0000
  H   H34       1.0  0.97452  0.62807  0.17847  1.0000
  H   H35       1.0  0.24841  0.77783  0.13010  1.0000
  H   H36       1.0  0.97574  0.77696  0.32393  1.0000
  N   N15       1.0  0.49360  0.17978  0.06411  1.0000
  S   S4        1.0  0.49833  0.23430  0.99561  1.0000
  N   N16       1.0  0.43895  0.28539  0.06679  1.0000
  N   N17       1.0  0.32992  0.87836  0.38353  1.0000
  S   S5        1.0  0.26852  0.88580  0.44030  1.0000
  N   N18       1.0  0.27530  0.82631  0.38307  1.0000
  N   N19       1.0  0.89651  0.66058  0.41456  1.0000
  S   S6        1.0  0.84309  0.65363  0.48230  1.0000
  N   N20       1.0  0.78993  0.71341  0.41742  1.0000
  C   C79       1.0  0.34721  0.63963  0.82097  1.0000
  C   C80       1.0  0.33024  0.69487  0.76462  1.0000
  C  Sn1       1.0  0.27586  0.72951  0.70213  1.0000
  C  Sn2       1.0  0.23786  0.70834  0.69615  1.0000
  C   C81       1.0  0.25523  0.65303  0.75294  1.0000
  C   C82       1.0  0.30975  0.61873  0.81518  1.0000
  H   H37       1.0  0.38938  0.61310  0.86922  1.0000
  O  Te1       1.0  0.25960  0.78459  0.64629  1.0000
  O  Te2       1.0  0.18326  0.74205  0.63435  1.0000
  H   H38       1.0  0.32286  0.57597  0.85890  1.0000
  Mg  Mg1       1.0  0.18080  0.81423  0.57282  1.0000
  C   C83       1.0  0.24958  0.39763  0.73975  1.0000
  C   C84       1.0  0.30805  0.36106  0.73286  1.0000
  C  Sn3       1.0  0.34523  0.38210  0.74149  1.0000
  C  Sn4       1.0  0.32335  0.44085  0.75735  1.0000
  C   C85       1.0  0.26478  0.47708  0.76426  1.0000
  C   C86       1.0  0.22795  0.45558  0.75546  1.0000
  H   H39       1.0  0.22108  0.38099  0.73304  1.0000
  O  Te3       1.0  0.40353  0.34498  0.73436  1.0000
  O  Te4       1.0  0.35956  0.46300  0.76631  1.0000
  H   H40       1.0  0.18269  0.48390  0.76091  1.0000
  Mg  Mg2       1.0  0.43574  0.39541  0.75134  1.0000
  C   C87       1.0  0.51197  0.81131  0.35440  1.0000
  C   C88       1.0  0.45982  0.82713  0.28293  1.0000
  C  Sn5       1.0  0.43130  0.87775  0.18894  1.0000
  C  Sn6       1.0  0.45554  0.91309  0.16627  1.0000
  C   C89       1.0  0.50774  0.89686  0.23818  1.0000
  C   C90       1.0  0.53592  0.84613  0.33204  1.0000
  H   H41       1.0  0.53379  0.77204  0.42694  1.0000
  O  Te5       1.0  0.37923  0.89293  0.11846  1.0000
  O  Te6       1.0  0.42794  0.96389  0.07287  1.0000
  H   H42       1.0  0.57630  0.83387  0.38726  1.0000
  Mg  Mg3       1.0  0.35790  0.96626  0.00173  1.0000
  C   C91       1.0  0.23675  0.42803  0.21516  1.0000
  C   C92       1.0  0.25577  0.46530  0.25101  1.0000
  C  Sn7       1.0  0.31333  0.44524  0.27474  1.0000
  C  Sn8       1.0  0.35248  0.38678  0.26223  1.0000
  C   C93       1.0  0.33303  0.34985  0.22619  1.0000
  C   C94       1.0  0.27534  0.37037  0.20273  1.0000
  H   H43       1.0  0.19211  0.44391  0.19691  1.0000
  O  Te7       1.0  0.33161  0.48305  0.31054  1.0000
  O  Te8       1.0  0.41025  0.36560  0.28531  1.0000
  H   H44       1.0  0.26063  0.34151  0.17486  1.0000
  Mg  Mg4       1.0  0.41453  0.43386  0.33173  1.0000
  C   C95       1.0  0.42634  0.06010  0.32138  1.0000
  C   C96       1.0  0.44495  0.09684  0.25903  1.0000
  C  Sn9       1.0  0.49791  0.07570  0.17915  1.0000
  C  Sn10      1.0  0.53280  0.01667  0.16151  1.0000
  C   C97       1.0  0.01381  0.98027  0.22422  1.0000
  C   C98       1.0  0.46072  0.00187  0.30399  1.0000
  H   H45       1.0  0.38527  0.07681  0.38302  1.0000
  O  Te9       1.0  0.51585  0.11300  0.11763  1.0000
  O  Te10      1.0  0.08594  0.99441  0.08216  1.0000
  H   H46       1.0  0.94633  0.97341  0.35216  1.0000
  Mg  Mg5       1.0  0.59164  0.06233  0.01915  1.0000
  C   C99       1.0  0.04034  0.62823  0.67384  1.0000
  C   C100      1.0  0.07884  0.64520  0.71590  1.0000
  C  Sn11      1.0  0.05971  0.69739  0.78817  1.0000
  C  Sn12      1.0  0.00094  0.73316  0.81880  1.0000
  C   C101      1.0  0.96277  0.71579  0.77638  1.0000
  C   C102      1.0  0.98236  0.66348  0.70407  1.0000
  H   H47       1.0  0.05550  0.58775  0.61798  1.0000
  O  Te11      1.0  0.09875  0.71370  0.82937  1.0000
  O  Te12      1.0  0.98067  0.78554  0.89095  1.0000
  H   H48       1.0  0.95255  0.65034  0.67162  1.0000
  Mg  Mg6       1.0  0.05047  0.78901  0.92511  1.0000
