data_image0
_chemical_formula_structural       C3N3C7H2C2H2C2H2C2H2NC4H2CH2C3N3C7H2C2H2C2H2C2H2NC4H2CH2C2Sn2C2HTe2HMgC2Sn2C2HTe2HMgC2Sn2C2HTe2HMgC2Sn2C2HTe2HMgC2Sn2C2HTe2HMgC2Sn2C2HTe2HMg
_chemical_formula_sum              "C66 N8 H36 Sn12 Te12 Mg6"
_cell_length_a       19.7351
_cell_length_b       19.7462
_cell_length_c       8.22997
_cell_angle_alpha    91.1259
_cell_angle_beta     92.6282
_cell_angle_gamma    120.544

_symmetry_space_group_name_H-M    'P1'
_space_group_IT_number       1

loop_
  _space_group_symop_operation_xyz
  'x, y, z'

loop_
  _atom_site_type_symbol
  _atom_site_label
  _atom_site_symmetry_multiplicity
  _atom_site_fract_x
  _atom_site_fract_y
  _atom_site_fract_z
  _atom_site_occupancy
  C   C1        1.0  0.25780  0.62872  0.26482  1.0000
  C   C2        1.0  0.37424  0.63090  0.25676  1.0000
  C   C3        1.0  0.37308  0.74564  0.25536  1.0000
  N   N1        1.0  0.29524  0.58762  0.26428  1.0000
  N   N2        1.0  0.41581  0.70997  0.25008  1.0000
  N   N3        1.0  0.29423  0.70782  0.26302  1.0000
  C   C4        1.0  0.41802  0.58872  0.25466  1.0000
  C   C5        1.0  0.50090  0.63037  0.26363  1.0000
  C   C6        1.0  0.37731  0.50601  0.24332  1.0000
  C   C7        1.0  0.41859  0.46630  0.24108  1.0000
  C   C8        1.0  0.54191  0.59028  0.26282  1.0000
  C   C9        1.0  0.78913  0.34726  0.16492  1.0000
  C   C10       1.0  0.87105  0.38649  0.16968  1.0000
  H   H1        1.0  0.75480  0.29169  0.09555  1.0000
  H   H2        1.0  0.89968  0.36188  0.09988  1.0000
  C   C11       1.0  0.65539  0.45155  0.17219  1.0000
  C   C12       1.0  0.61604  0.49331  0.17575  1.0000
  H   H3        1.0  0.70911  0.47423  0.10832  1.0000
  H   H4        1.0  0.63944  0.54789  0.11246  1.0000
  C   C13       1.0  0.79568  0.45064  0.33634  1.0000
  C   C14       1.0  0.87765  0.49078  0.33727  1.0000
  H   H5        1.0  0.76672  0.47529  0.40426  1.0000
  H   H6        1.0  0.91163  0.54623  0.40833  1.0000
  C   C15       1.0  0.55499  0.35106  0.32616  1.0000
  C   C16       1.0  0.51484  0.39200  0.32544  1.0000
  H   H7        1.0  0.53217  0.29705  0.39050  1.0000
  H   H8        1.0  0.46164  0.36965  0.39166  1.0000
  N   N4        1.0  0.66571  0.33660  0.24566  1.0000
  C   C17       1.0  0.74971  0.37806  0.24902  1.0000
  C   C18       1.0  0.91741  0.45950  0.25537  1.0000
  C   C19       1.0  0.62554  0.37937  0.24767  1.0000
  C   C20       1.0  0.54445  0.46432  0.25083  1.0000
  H   H9        1.0  0.53193  0.69433  0.27413  1.0000
  H   H10       1.0  0.31320  0.47444  0.23453  1.0000
  C   C21       1.0  0.50164  0.50739  0.25133  1.0000
  H   H11       1.0  0.60604  0.62299  0.27491  1.0000
  H   H12       1.0  0.38645  0.40238  0.22715  1.0000
  C   C22       1.0  0.25642  0.62407  0.75099  1.0000
  C   C23       1.0  0.37296  0.62633  0.74556  1.0000
  C   C24       1.0  0.37169  0.74098  0.74159  1.0000
  N   N5        1.0  0.29403  0.58318  0.75322  1.0000
  N   N6        1.0  0.41443  0.70531  0.73620  1.0000
  N   N7        1.0  0.29276  0.70320  0.74880  1.0000
  C   C25       1.0  0.16955  0.57940  0.74923  1.0000
  C   C26       1.0  0.12806  0.49818  0.77339  1.0000
  C   C27       1.0  0.12693  0.61772  0.72060  1.0000
  C   C28       1.0  0.04510  0.57610  0.71724  1.0000
  C   C29       1.0  0.04613  0.45681  0.77134  1.0000
  C   C30       1.0  0.54766  0.20380  0.66169  1.0000
  C   C31       1.0  0.50582  0.12185  0.66214  1.0000
  H   H13       1.0  0.52311  0.23400  0.59456  1.0000
  H   H14       1.0  0.44938  0.08903  0.59234  1.0000
  C   C32       1.0  0.78728  0.33716  0.67260  1.0000
  C   C33       1.0  0.86908  0.37607  0.67322  1.0000
  H   H15       1.0  0.75224  0.27863  0.61481  1.0000
  H   H16       1.0  0.89668  0.34790  0.61173  1.0000
  C   C34       1.0  0.79613  0.44789  0.82120  1.0000
  C   C35       1.0  0.87784  0.48713  0.81841  1.0000
  H   H17       1.0  0.76853  0.47586  0.88275  1.0000
  H   H18       1.0  0.91301  0.54489  0.88046  1.0000
  C   C36       1.0  0.65222  0.20703  0.83019  1.0000
  C   C37       1.0  0.61127  0.12523  0.82676  1.0000
  H   H19       1.0  0.70918  0.23995  0.89667  1.0000
  H   H20       1.0  0.63618  0.09527  0.89424  1.0000
  N   N8        1.0  0.66531  0.33177  0.74709  1.0000
  C   C38       1.0  0.62165  0.24794  0.74676  1.0000
  C   C39       1.0  0.53697  0.08077  0.74320  1.0000
  C   C40       1.0  0.74893  0.37216  0.74662  1.0000
  C   C41       1.0  0.91646  0.45231  0.74520  1.0000
  H   H21       1.0  0.16140  0.46884  0.79523  1.0000
  H   H22       1.0  0.15955  0.68029  0.69972  1.0000
  C   C42       1.0  0.00306  0.49501  0.74424  1.0000
  H   H23       1.0  0.01461  0.39442  0.79501  1.0000
  H   H24       1.0  0.01264  0.60601  0.69077  1.0000
  C   C43       1.0  0.11000  0.48499  0.29742  1.0000
  C   C44       1.0  0.16176  0.56322  0.26254  1.0000
  C  Sn1       1.0  0.13314  0.61370  0.23021  1.0000
  C  Sn2       1.0  0.05116  0.58516  0.23298  1.0000
  C   C45       1.0  0.99986  0.50680  0.26812  1.0000
  C   C46       1.0  0.02913  0.45679  0.30024  1.0000
  H   H25       1.0  0.13264  0.44630  0.32236  1.0000
  O  Te1       1.0  0.18567  0.69169  0.19552  1.0000
  O  Te2       1.0  0.02098  0.63434  0.20118  1.0000
  H   H26       1.0  0.98904  0.39623  0.32735  1.0000
  Mg  Mg1       1.0  0.11613  0.73594  0.16019  1.0000
  C   C47       1.0  0.51621  0.36956  0.84718  1.0000
  C   C48       1.0  0.53760  0.44321  0.78799  1.0000
  C  Sn3       1.0  0.60367  0.48235  0.69659  1.0000
  C  Sn4       1.0  0.64905  0.44696  0.66402  1.0000
  C   C49       1.0  0.62713  0.37324  0.72369  1.0000
  C   C50       1.0  0.56092  0.33460  0.81505  1.0000
  H   H27       1.0  0.46496  0.33964  0.91780  1.0000
  O  Te3       1.0  0.62423  0.55591  0.63843  1.0000
  O  Te4       1.0  0.71535  0.48477  0.57295  1.0000
  H   H28       1.0  0.54435  0.27756  0.86078  1.0000
  Mg  Mg2       1.0  0.71961  0.58421  0.52014  1.0000
  C   C51       1.0  0.53078  0.93377  0.68139  1.0000
  C   C52       1.0  0.50319  0.98436  0.72021  1.0000
  C  Sn5       1.0  0.42853  0.95458  0.77958  1.0000
  C  Sn6       1.0  0.38076  0.87260  0.80040  1.0000
  C   C53       1.0  0.40892  0.82248  0.76133  1.0000
  C   C54       1.0  0.48371  0.85291  0.70195  1.0000
  H   H29       1.0  0.58866  0.95731  0.63554  1.0000
  O  Te5       1.0  0.40187  0.00595  0.81771  1.0000
  O  Te6       1.0  0.30592  0.84127  0.85958  1.0000
  H   H30       1.0  0.50507  0.81373  0.67201  1.0000
  Mg  Mg3       1.0  0.29568  0.93510  0.89440  1.0000
  C   C55       1.0  0.63488  0.14958  0.32800  1.0000
  C   C56       1.0  0.55726  0.09556  0.27180  1.0000
  C  Sn7       1.0  0.51133  0.12130  0.19067  1.0000
  C  Sn8       1.0  0.54387  0.20266  0.16547  1.0000
  C   C57       1.0  0.62160  0.25623  0.22207  1.0000
  C   C58       1.0  0.66703  0.22983  0.30315  1.0000
  H   H31       1.0  0.67005  0.12916  0.39066  1.0000
  O  Te7       1.0  0.43388  0.06654  0.13536  1.0000
  O  Te8       1.0  0.49929  0.22999  0.08471  1.0000
  H   H32       1.0  0.72714  0.27166  0.34656  1.0000
  Mg  Mg4       1.0  0.39660  0.13254  0.03205  1.0000
  C   C59       1.0  0.39925  0.46237  0.78292  1.0000
  C   C60       1.0  0.47824  0.48996  0.75523  1.0000
  C  Sn9       1.0  0.52941  0.56970  0.73131  1.0000
  C  Sn10      1.0  0.50081  0.62265  0.73529  1.0000
  C   C61       1.0  0.42170  0.59447  0.76319  1.0000
  C   C62       1.0  0.37100  0.51456  0.78693  1.0000
  H   H33       1.0  0.36002  0.40055  0.80138  1.0000
  O  Te9       1.0  0.60815  0.59628  0.70374  1.0000
  O  Te10      1.0  0.55069  0.70265  0.71181  1.0000
  H   H34       1.0  0.30986  0.49322  0.80847  1.0000
  Mg  Mg5       1.0  0.65316  0.71057  0.67846  1.0000
  C   C63       1.0  0.53384  0.93773  0.19935  1.0000
  C   C64       1.0  0.50554  0.98867  0.22808  1.0000
  C  Sn11      1.0  0.42946  0.95949  0.27926  1.0000
  C  Sn12      1.0  0.38096  0.87778  0.30205  1.0000
  C   C65       1.0  0.40983  0.82732  0.27309  1.0000
  C   C66       1.0  0.48605  0.85714  0.22186  1.0000
  H   H35       1.0  0.59282  0.96080  0.15980  1.0000
  O  Te11      1.0  0.89362  0.01119  0.30735  1.0000
  O  Te12      1.0  0.30470  0.84706  0.35318  1.0000
  H   H36       1.0  0.50796  0.81770  0.19973  1.0000
  Mg  Mg6       1.0  0.29398  0.94115  0.37566  1.0000
