data_image0
_chemical_formula_structural       C6OBOC6OBOC6OBOH6C6OBOC6OBOC6OBOH6C7O2NH2C7O2NH2C7O2NH2C13O2NH6C7O2NH2C7O2NH2C6OBOC6OBOC6OBOH6C6OBOC6OBOC6OBOH6C7O2NH2C13O2NH6C13O2NH6C13O2NH6C13O2NH6C13O2NH6SnCSn2CSnTe4Mg2SnCSn2CSnTe4Mg2SnCSn2CSnTe4Mg2SnCSn2CSnTe4Mg2SnCSn2CSnTe4Mg2SnCSn2CSnTe4Mg2
_chemical_formula_sum              "C204 O48 B12 H72 N12 Sn24 Te24 Mg12"
_cell_length_a       52.2462
_cell_length_b       52.1182
_cell_length_c       7.90315
_cell_angle_alpha    106.008
_cell_angle_beta     96.1754
_cell_angle_gamma    119.911

_symmetry_space_group_name_H-M    'P1'
_space_group_IT_number       1

loop_
  _space_group_symop_operation_xyz
  'x, y, z'

loop_
  _atom_site_type_symbol
  _atom_site_label
  _atom_site_symmetry_multiplicity
  _atom_site_fract_x
  _atom_site_fract_y
  _atom_site_fract_z
  _atom_site_occupancy
  C   C1        1.0  0.53024  0.50317  0.73761  1.0000
  C   C2        1.0  0.52908  0.52847  0.70883  1.0000
  C   C3        1.0  0.55546  0.55438  0.69328  1.0000
  C   C4        1.0  0.58202  0.55465  0.71075  1.0000
  C   C5        1.0  0.58338  0.53007  0.74124  1.0000
  C   C6        1.0  0.55818  0.50434  0.75469  1.0000
  O   O1        1.0  0.61227  0.53560  0.74262  1.0000
  B   B1        1.0  0.62841  0.56424  0.71275  1.0000
  O   O2        1.0  0.60998  0.57633  0.69295  1.0000
  C   C7        1.0  0.50213  0.47520  0.73528  1.0000
  C   C8        1.0  0.47302  0.47105  0.67468  1.0000
  C   C9        1.0  0.50335  0.45135  0.78221  1.0000
  C   C10       1.0  0.47596  0.42372  0.75725  1.0000
  C   C11       1.0  0.44742  0.41862  0.68376  1.0000
  C   C12       1.0  0.44527  0.44158  0.64296  1.0000
  O   O3        1.0  0.42384  0.38865  0.66762  1.0000
  B   B2        1.0  0.43870  0.37562  0.73422  1.0000
  O   O4        1.0  0.47100  0.39710  0.79120  1.0000
  C   C13       1.0  0.50042  0.52726  0.69084  1.0000
  C   C14       1.0  0.47216  0.49783  0.65787  1.0000
  C   C15       1.0  0.44380  0.49574  0.62273  1.0000
  C   C16       1.0  0.44481  0.52296  0.63180  1.0000
  C   C17       1.0  0.47282  0.55241  0.68011  1.0000
  C   C18       1.0  0.50064  0.55516  0.70695  1.0000
  O   O5        1.0  0.46712  0.57614  0.69704  1.0000
  B   B3        1.0  0.43483  0.56023  0.65404  1.0000
  O   O6        1.0  0.42064  0.52720  0.60994  1.0000
  H   H1        1.0  0.55447  0.57269  0.65883  1.0000
  H   H2        1.0  0.55970  0.48515  0.77190  1.0000
  H   H3        1.0  0.52519  0.45483  0.83941  1.0000
  H   H4        1.0  0.42273  0.43690  0.58906  1.0000
  H   H5        1.0  0.42182  0.47377  0.59553  1.0000
  H   H6        1.0  0.52205  0.57826  0.74418  1.0000
  C   C19       1.0  0.13986  0.83332  0.71769  1.0000
  C   C20       1.0  0.13882  0.80464  0.69687  1.0000
  C   C21       1.0  0.11207  0.77778  0.70263  1.0000
  C   C22       1.0  0.08806  0.78055  0.73430  1.0000
  C   C23       1.0  0.08957  0.80905  0.76256  1.0000
  C   C24       1.0  0.11468  0.83530  0.75298  1.0000
  O   O7        1.0  0.06219  0.80493  0.79003  1.0000
  B   B4        1.0  0.04350  0.77271  0.76943  1.0000
  O   O8        1.0  0.05953  0.75760  0.73946  1.0000
  C   C25       1.0  0.16650  0.86015  0.69907  1.0000
  C   C26       1.0  0.19061  0.85695  0.64989  1.0000
  C   C27       1.0  0.16862  0.88938  0.72831  1.0000
  C   C28       1.0  0.19385  0.91368  0.70508  1.0000
  C   C29       1.0  0.21666  0.90993  0.64837  1.0000
  C   C30       1.0  0.21559  0.88219  0.62004  1.0000
  O   O9        1.0  0.23893  0.93782  0.63337  1.0000
  B   B5        1.0  0.22935  0.95893  0.68562  1.0000
  O   O10       1.0  0.20135  0.94423  0.72936  1.0000
  C   C31       1.0  0.16526  0.80306  0.66981  1.0000
  C   C32       1.0  0.19054  0.82863  0.64204  1.0000
  C   C33       1.0  0.21640  0.82725  0.61670  1.0000
  C   C34       1.0  0.21657  0.80134  0.62413  1.0000
  C   C35       1.0  0.19216  0.77664  0.65585  1.0000
  C   C36       1.0  0.16648  0.77675  0.67773  1.0000
  O   O11       1.0  0.19924  0.75469  0.66657  1.0000
  B   B6        1.0  0.22862  0.76675  0.63956  1.0000
  O   O12       1.0  0.23952  0.79542  0.61078  1.0000
  H   H7        1.0  0.11000  0.75525  0.67991  1.0000
  H   H8        1.0  0.11468  0.85666  0.77009  1.0000
  H   H9        1.0  0.15124  0.89305  0.77077  1.0000
  H   H10       1.0  0.23368  0.88020  0.57591  1.0000
  H   H11       1.0  0.23602  0.84622  0.59537  1.0000
  H   H12       1.0  0.14839  0.75768  0.70751  1.0000
  C   C37       1.0  0.84934  0.67250  0.67922  1.0000
  C   C38       1.0  0.84815  0.71668  0.64419  1.0000
  C   C39       1.0  0.84956  0.62775  0.71439  1.0000
  C   C40       1.0  0.86401  0.70196  0.65562  1.0000
  C   C41       1.0  0.89594  0.71681  0.64114  1.0000
  C   C42       1.0  0.86492  0.65727  0.69713  1.0000
  C   C43       1.0  0.89768  0.67268  0.69955  1.0000
  O   O13       1.0  0.90799  0.73980  0.59436  1.0000
  O   O14       1.0  0.91168  0.65988  0.71571  1.0000
  N   N1        1.0  0.91209  0.70292  0.68333  1.0000
  H   H13       1.0  0.85964  0.73904  0.62239  1.0000
  H   H14       1.0  0.86234  0.61689  0.73191  1.0000
  C   C44       1.0  0.81823  0.65780  0.68478  1.0000
  C   C45       1.0  0.81814  0.61217  0.70566  1.0000
  C   C46       1.0  0.81822  0.70332  0.66454  1.0000
  C   C47       1.0  0.80252  0.62698  0.69025  1.0000
  C   C48       1.0  0.76881  0.60947  0.66326  1.0000
  C   C49       1.0  0.80324  0.67405  0.68476  1.0000
  C   C50       1.0  0.77325  0.66141  0.72673  1.0000
  O   O15       1.0  0.75296  0.58016  0.60915  1.0000
  O   O16       1.0  0.76408  0.67879  0.78291  1.0000
  N   N2        1.0  0.75602  0.62835  0.70217  1.0000
  H   H15       1.0  0.80554  0.58848  0.71097  1.0000
  H   H16       1.0  0.80632  0.71550  0.66368  1.0000
  C   C51       1.0  0.32670  0.67427  0.66306  1.0000
  C   C52       1.0  0.27808  0.62513  0.61077  1.0000
  C   C53       1.0  0.37528  0.72330  0.71385  1.0000
  C   C54       1.0  0.29419  0.65658  0.62168  1.0000
  C   C55       1.0  0.27776  0.67115  0.57450  1.0000
  C   C56       1.0  0.34372  0.70715  0.69306  1.0000
  C   C57       1.0  0.32812  0.72457  0.71876  1.0000
  O   O17       1.0  0.25074  0.65481  0.47906  1.0000
  O   O18       1.0  0.34273  0.75376  0.79887  1.0000
  N   N3        1.0  0.29527  0.70536  0.64603  1.0000
  H   H17       1.0  0.25304  0.61191  0.57899  1.0000
  H   H18       1.0  0.38800  0.74863  0.73686  1.0000
  C   C58       1.0  0.34244  0.65880  0.67451  1.0000
  C   C59       1.0  0.39025  0.70699  0.70496  1.0000
  C   C60       1.0  0.29411  0.61097  0.64225  1.0000
  C   C61       1.0  0.37430  0.67528  0.69021  1.0000
  C   C62       1.0  0.39039  0.65846  0.68426  1.0000
  C   C63       1.0  0.32588  0.62724  0.66971  1.0000
  C   C64       1.0  0.34254  0.61190  0.69773  1.0000
  C   C65       1.0  0.38850  0.61028  0.68264  1.0000
  C   C66       1.0  0.41704  0.62460  0.80993  1.0000
  C   C67       1.0  0.43179  0.60835  0.79694  1.0000
  C   C68       1.0  0.37431  0.57978  0.54542  1.0000
  C   C69       1.0  0.38874  0.56325  0.53875  1.0000
  C   C70       1.0  0.41788  0.57742  0.66226  1.0000
  O   O19       1.0  0.41698  0.67068  0.67477  1.0000
  O   O20       1.0  0.33036  0.58706  0.72694  1.0000
  N   N4        1.0  0.37344  0.62743  0.68911  1.0000
  H   H19       1.0  0.41464  0.71893  0.71331  1.0000
  H   H20       1.0  0.42739  0.64795  0.91844  1.0000
  H   H21       1.0  0.45415  0.61962  0.89543  1.0000
  H   H22       1.0  0.28195  0.58683  0.64126  1.0000
  H   H23       1.0  0.35253  0.56948  0.44430  1.0000
  H   H24       1.0  0.37761  0.53943  0.43267  1.0000
  C   C71       1.0  0.32622  0.15310  0.73229  1.0000
  C   C72       1.0  0.37351  0.15459  0.74561  1.0000
  C   C73       1.0  0.27931  0.15241  0.72452  1.0000
  C   C74       1.0  0.34311  0.13926  0.75238  1.0000
  C   C75       1.0  0.32889  0.10933  0.78776  1.0000
  C   C76       1.0  0.29503  0.13747  0.73190  1.0000
  C   C77       1.0  0.27825  0.10452  0.72910  1.0000
  O   O21       1.0  0.34442  0.10015  0.84336  1.0000
  O   O22       1.0  0.25016  0.08925  0.70293  1.0000
  N   N5        1.0  0.29608  0.09151  0.75476  1.0000
  H   H25       1.0  0.38624  0.14364  0.76151  1.0000
  H   H26       1.0  0.25534  0.13981  0.72508  1.0000
  C   C78       1.0  0.34081  0.18332  0.71487  1.0000
  C   C79       1.0  0.29418  0.18294  0.71699  1.0000
  C   C80       1.0  0.38726  0.18342  0.71628  1.0000
  C   C81       1.0  0.32448  0.19815  0.70900  1.0000
  C   C82       1.0  0.33957  0.23033  0.70099  1.0000
  C   C83       1.0  0.37129  0.19794  0.70221  1.0000
  C   C84       1.0  0.38594  0.22831  0.67154  1.0000
  O   O23       1.0  0.32582  0.24381  0.70264  1.0000
  O   O24       1.0  0.40997  0.23888  0.62791  1.0000
  N   N6        1.0  0.37060  0.24483  0.69374  1.0000
  H   H27       1.0  0.28238  0.19521  0.71578  1.0000
  H   H28       1.0  0.41070  0.19510  0.70568  1.0000
  C   C85       1.0  0.52971  0.50386  0.23528  1.0000
  C   C86       1.0  0.52840  0.52911  0.20665  1.0000
  C   C87       1.0  0.55472  0.55509  0.19107  1.0000
  C   C88       1.0  0.58131  0.55540  0.20723  1.0000
  C   C89       1.0  0.58288  0.53100  0.23886  1.0000
  C   C90       1.0  0.55777  0.50525  0.25285  1.0000
  O   O25       1.0  0.61188  0.53675  0.24113  1.0000
  B   B7        1.0  0.62777  0.56522  0.20907  1.0000
  O   O26       1.0  0.60918  0.57709  0.18863  1.0000
  C   C91       1.0  0.50171  0.47584  0.23375  1.0000
  C   C92       1.0  0.47256  0.47168  0.17460  1.0000
  C   C93       1.0  0.50303  0.45201  0.28049  1.0000
  C   C94       1.0  0.47567  0.42438  0.25626  1.0000
  C   C95       1.0  0.44709  0.41924  0.18334  1.0000
  C   C96       1.0  0.44486  0.44220  0.14325  1.0000
  O   O27       1.0  0.42355  0.38927  0.16737  1.0000
  B   B8        1.0  0.43847  0.37621  0.23323  1.0000
  O   O28       1.0  0.47076  0.39780  0.29055  1.0000
  C   C97       1.0  0.49968  0.52781  0.18931  1.0000
  C   C98       1.0  0.47154  0.49840  0.15841  1.0000
  C   C99       1.0  0.44313  0.49625  0.12588  1.0000
  C   C100      1.0  0.44396  0.52340  0.13584  1.0000
  C   C101      1.0  0.47185  0.55281  0.18095  1.0000
  C   C102      1.0  0.49968  0.55556  0.20448  1.0000
  O   O29       1.0  0.46604  0.57644  0.19736  1.0000
  B   B9        1.0  0.43377  0.56050  0.15724  1.0000
  O   O30       1.0  0.41968  0.52756  0.11638  1.0000
  H   H29       1.0  0.55373  0.57355  0.15859  1.0000
  H   H30       1.0  0.55948  0.48624  0.27149  1.0000
  H   H31       1.0  0.52491  0.45545  0.33628  1.0000
  H   H32       1.0  0.42230  0.43755  0.09013  1.0000
  H   H33       1.0  0.42123  0.47427  0.09997  1.0000
  H   H34       1.0  0.52093  0.57864  0.23850  1.0000
  C   C103      1.0  0.13918  0.83396  0.22031  1.0000
  C   C104      1.0  0.13803  0.80516  0.19626  1.0000
  C   C105      1.0  0.11110  0.77803  0.19825  1.0000
  C   C106      1.0  0.08704  0.78069  0.22980  1.0000
  C   C107      1.0  0.08875  0.80938  0.26270  1.0000
  C   C108      1.0  0.11404  0.83591  0.25687  1.0000
  O   O31       1.0  0.06142  0.80522  0.29117  1.0000
  B   B10       1.0  0.04262  0.77285  0.26713  1.0000
  O   O32       1.0  0.05842  0.75758  0.23257  1.0000
  C   C109      1.0  0.16582  0.86090  0.20282  1.0000
  C   C110      1.0  0.19003  0.85791  0.15350  1.0000
  C   C111      1.0  0.16765  0.88997  0.23215  1.0000
  C   C112      1.0  0.19276  0.91444  0.20955  1.0000
  C   C113      1.0  0.21579  0.91102  0.15366  1.0000
  C   C114      1.0  0.21488  0.88331  0.12391  1.0000
  O   O33       1.0  0.23785  0.93908  0.13932  1.0000
  B   B11       1.0  0.22787  0.95987  0.19078  1.0000
  O   O34       1.0  0.19978  0.94480  0.23276  1.0000
  C   C115      1.0  0.16452  0.80371  0.16928  1.0000
  C   C116      1.0  0.19001  0.82955  0.14453  1.0000
  C   C117      1.0  0.21602  0.82829  0.12144  1.0000
  C   C118      1.0  0.21598  0.80213  0.12620  1.0000
  C   C119      1.0  0.19112  0.77697  0.15232  1.0000
  C   C120      1.0  0.16548  0.77714  0.17423  1.0000
  O   O35       1.0  0.19784  0.75464  0.15952  1.0000
  B   B12       1.0  0.22765  0.76713  0.13886  1.0000
  O   O36       1.0  0.23906  0.79633  0.11573  1.0000
  H   H35       1.0  0.10893  0.75540  0.17315  1.0000
  H   H36       1.0  0.11412  0.85738  0.27685  1.0000
  H   H37       1.0  0.15009  0.89339  0.27350  1.0000
  H   H38       1.0  0.23288  0.88133  0.07812  1.0000
  H   H39       1.0  0.23592  0.84755  0.10380  1.0000
  H   H40       1.0  0.14724  0.75794  0.20242  1.0000
  C   C121      1.0  0.84889  0.67312  0.17904  1.0000
  C   C122      1.0  0.84788  0.71733  0.14282  1.0000
  C   C123      1.0  0.84908  0.62860  0.21854  1.0000
  C   C124      1.0  0.86363  0.70251  0.15454  1.0000
  C   C125      1.0  0.89561  0.71722  0.14089  1.0000
  C   C126      1.0  0.86440  0.65789  0.19873  1.0000
  C   C127      1.0  0.89713  0.67311  0.20133  1.0000
  O   O37       1.0  0.90790  0.74018  0.09414  1.0000
  O   O38       1.0  0.91108  0.66030  0.21852  1.0000
  N   N7        1.0  0.91156  0.70323  0.18416  1.0000
  H   H41       1.0  0.85945  0.73970  0.12106  1.0000
  H   H42       1.0  0.86194  0.61790  0.23816  1.0000
  C   C128      1.0  0.81783  0.65859  0.18511  1.0000
  C   C129      1.0  0.81769  0.61315  0.21015  1.0000
  C   C130      1.0  0.81798  0.70410  0.16338  1.0000
  C   C131      1.0  0.80212  0.62794  0.19283  1.0000
  C   C132      1.0  0.76847  0.61055  0.16698  1.0000
  C   C133      1.0  0.80293  0.67490  0.18436  1.0000
  C   C134      1.0  0.77299  0.66249  0.22671  1.0000
  C   C135      1.0  0.72401  0.61425  0.20951  1.0000
  C   C136      1.0  0.71125  0.58814  0.26428  1.0000
  C   C137      1.0  0.68021  0.57197  0.25747  1.0000
  C   C138      1.0  0.70553  0.62461  0.15448  1.0000
  C   C139      1.0  0.67482  0.60892  0.15547  1.0000
  C   C140      1.0  0.66134  0.58199  0.20347  1.0000
  O   O39       1.0  0.75269  0.58127  0.11600  1.0000
  O   O40       1.0  0.76394  0.68001  0.28204  1.0000
  N   N8        1.0  0.75567  0.62946  0.20318  1.0000
  H   H43       1.0  0.80512  0.58959  0.21711  1.0000
  H   H44       1.0  0.72503  0.58007  0.31227  1.0000
  H   H45       1.0  0.67082  0.55183  0.30116  1.0000
  H   H46       1.0  0.80616  0.71636  0.16256  1.0000
  H   H47       1.0  0.71483  0.64445  0.10931  1.0000
  H   H48       1.0  0.66092  0.61742  0.11321  1.0000
  C   C141      1.0  0.32521  0.67399  0.16072  1.0000
  C   C142      1.0  0.27682  0.62505  0.11411  1.0000
  C   C143      1.0  0.37357  0.72289  0.20621  1.0000
  C   C144      1.0  0.29275  0.65634  0.12224  1.0000
  C   C145      1.0  0.27620  0.67088  0.07578  1.0000
  C   C146      1.0  0.34211  0.70678  0.18844  1.0000
  C   C147      1.0  0.32657  0.72423  0.21660  1.0000
  C   C148      1.0  0.27737  0.72070  0.14280  1.0000
  C   C149      1.0  0.24891  0.70789  0.18078  1.0000
  C   C150      1.0  0.23293  0.72263  0.17624  1.0000
  C   C151      1.0  0.29002  0.74856  0.10506  1.0000
  C   C152      1.0  0.27426  0.76368  0.10757  1.0000
  C   C153      1.0  0.24532  0.75090  0.14117  1.0000
  O   O41       1.0  0.24907  0.65454  0.98260  1.0000
  O   O42       1.0  0.34124  0.75341  0.29822  1.0000
  N   N9        1.0  0.29374  0.70508  0.14517  1.0000
  H   H49       1.0  0.25180  0.61181  0.08413  1.0000
  H   H50       1.0  0.23941  0.68680  0.21504  1.0000
  H   H51       1.0  0.21084  0.71245  0.20578  1.0000
  H   H52       1.0  0.38618  0.74813  0.22718  1.0000
  H   H53       1.0  0.31176  0.75829  0.07209  1.0000
  H   H54       1.0  0.28432  0.78535  0.07831  1.0000
  C   C154      1.0  0.34106  0.65862  0.17214  1.0000
  C   C155      1.0  0.38859  0.70662  0.19694  1.0000
  C   C156      1.0  0.29306  0.61112  0.14677  1.0000
  C   C157      1.0  0.37281  0.67506  0.18482  1.0000
  C   C158      1.0  0.38897  0.65833  0.17871  1.0000
  C   C159      1.0  0.32474  0.62729  0.17107  1.0000
  C   C160      1.0  0.34162  0.61219  0.20013  1.0000
  C   C161      1.0  0.38745  0.61050  0.18116  1.0000
  C   C162      1.0  0.41637  0.62528  0.30555  1.0000
  C   C163      1.0  0.43115  0.60908  0.29366  1.0000
  C   C164      1.0  0.37296  0.57963  0.04754  1.0000
  C   C165      1.0  0.38746  0.56320  0.04189  1.0000
  C   C166      1.0  0.41689  0.57774  0.16326  1.0000
  O   O43       1.0  0.41543  0.67046  0.16659  1.0000
  O   O44       1.0  0.32990  0.58776  0.23375  1.0000
  N   N10       1.0  0.37228  0.62752  0.18693  1.0000
  H   H55       1.0  0.41288  0.71849  0.20290  1.0000
  H   H56       1.0  0.42707  0.64901  0.41072  1.0000
  H   H57       1.0  0.45386  0.62075  0.38940  1.0000
  H   H58       1.0  0.28111  0.58726  0.14980  1.0000
  H   H59       1.0  0.35093  0.56898  0.94780  1.0000
  H   H60       1.0  0.37619  0.53915  0.93812  1.0000
  C   C167      1.0  0.32470  0.15367  0.23166  1.0000
  C   C168      1.0  0.37185  0.15484  0.24581  1.0000
  C   C169      1.0  0.27782  0.15306  0.22083  1.0000
  C   C170      1.0  0.34146  0.13971  0.25236  1.0000
  C   C171      1.0  0.32716  0.10982  0.28819  1.0000
  C   C172      1.0  0.29347  0.13809  0.23001  1.0000
  C   C173      1.0  0.27662  0.10518  0.22797  1.0000
  C   C174      1.0  0.27870  0.05964  0.24868  1.0000
  C   C175      1.0  0.28849  0.03989  0.16634  1.0000
  C   C176      1.0  0.27243  0.00809  0.14986  1.0000
  C   C177      1.0  0.25288  0.04721  0.31320  1.0000
  C   C178      1.0  0.23656  0.01510  0.29085  1.0000
  C   C179      1.0  0.24583  0.99485  0.20813  1.0000
  O   O45       1.0  0.34266  0.10053  0.34276  1.0000
  O   O46       1.0  0.24848  0.08988  0.19999  1.0000
  N   N11       1.0  0.29440  0.09221  0.25663  1.0000
  H   H61       1.0  0.38442  0.14374  0.26221  1.0000
  H   H62       1.0  0.30810  0.04903  0.11251  1.0000
  H   H63       1.0  0.28032  0.99309  0.08589  1.0000
  H   H64       1.0  0.25372  0.14041  0.21906  1.0000
  H   H65       1.0  0.24513  0.06207  0.37897  1.0000
  H   H66       1.0  0.21662  0.00590  0.34245  1.0000
  C   C180      1.0  0.33945  0.18387  0.21406  1.0000
  C   C181      1.0  0.29287  0.18363  0.21387  1.0000
  C   C182      1.0  0.38579  0.18365  0.21634  1.0000
  C   C183      1.0  0.32325  0.19880  0.20713  1.0000
  C   C184      1.0  0.33850  0.23096  0.19842  1.0000
  C   C185      1.0  0.36996  0.19831  0.20180  1.0000
  C   C186      1.0  0.38472  0.22857  0.17013  1.0000
  C   C187      1.0  0.38681  0.27795  0.20182  1.0000
  C   C188      1.0  0.37261  0.28922  0.11186  1.0000
  C   C189      1.0  0.38948  0.32106  0.12898  1.0000
  C   C190      1.0  0.41791  0.29871  0.30869  1.0000
  C   C191      1.0  0.43472  0.33025  0.32043  1.0000
  C   C192      1.0  0.42082  0.34213  0.23180  1.0000
  O   O47       1.0  0.32487  0.24455  0.19885  1.0000
  O   O48       1.0  0.40869  0.23892  0.12587  1.0000
  N   N12       1.0  0.36962  0.24531  0.19234  1.0000
  H   H67       1.0  0.28114  0.19593  0.21190  1.0000
  H   H68       1.0  0.34869  0.27357  0.02893  1.0000
  H   H69       1.0  0.37822  0.32942  0.05665  1.0000
  H   H70       1.0  0.40925  0.19515  0.20611  1.0000
  H   H71       1.0  0.42871  0.29031  0.38369  1.0000
  H   H72       1.0  0.45887  0.34601  0.40282  1.0000
  C  Sn1       1.0  0.43591  0.32082  0.78234  1.0000
  C   C193      1.0  0.42576  0.33627  0.70319  1.0000
  C  Sn2       1.0  0.39420  0.32283  0.63405  1.0000
  C  Sn3       1.0  0.37232  0.29335  0.64433  1.0000
  C   C194      1.0  0.38248  0.27792  0.72348  1.0000
  C  Sn4       1.0  0.41403  0.29134  0.79263  1.0000
  O  Te1       1.0  0.46757  0.33470  0.85059  1.0000
  O  Te2       1.0  0.38461  0.33872  0.55548  1.0000
  O  Te3       1.0  0.34064  0.27948  0.57599  1.0000
  O  Te4       1.0  0.42362  0.27547  0.87118  1.0000
  Mg  Mg1       1.0  0.33899  0.31025  0.48171  1.0000
  Mg  Mg2       1.0  0.46924  0.30392  0.94508  1.0000
  C  Sn5       1.0  0.96887  0.76061  0.30726  1.0000
  C   C195      1.0  0.94667  0.72846  0.19655  1.0000
  C  Sn6       1.0  0.95563  0.70762  0.12358  1.0000
  C  Sn7       1.0  0.98745  0.71914  0.16217  1.0000
  C   C196      1.0  0.00963  0.75127  0.27284  1.0000
  C  Sn8       1.0  0.00069  0.77213  0.34585  1.0000
  O  Te5       1.0  0.95939  0.78101  0.37875  1.0000
  O  Te6       1.0  0.93301  0.67558  0.01322  1.0000
  O  Te7       1.0  0.99692  0.69870  0.09056  1.0000
  O  Te8       1.0  0.02330  0.80414  0.45617  1.0000
  Mg  Mg3       1.0  0.00679  0.72359  0.94779  1.0000
  Mg  Mg4       1.0  0.99888  0.82264  0.52174  1.0000
  C  Sn9       1.0  0.24046  0.72340  0.73487  1.0000
  C   C197      1.0  0.24813  0.75007  0.69100  1.0000
  C  Sn10      1.0  0.27107  0.76145  0.60415  1.0000
  C  Sn11      1.0  0.28665  0.74583  0.56011  1.0000
  C   C198      1.0  0.27897  0.71918  0.60394  1.0000
  C  Sn12      1.0  0.25604  0.70779  0.69083  1.0000
  O  Te9       1.0  0.21746  0.71244  0.82168  1.0000
  O  Te10      1.0  0.27834  0.78816  0.56172  1.0000
  O  Te11      1.0  0.30966  0.75682  0.47323  1.0000
  O  Te12      1.0  0.24876  0.68109  0.73322  1.0000
  Mg  Mg5       1.0  0.31134  0.79406  0.44334  1.0000
  Mg  Mg6       1.0  0.21575  0.67516  0.85150  1.0000
  C  Sn13      1.0  0.75300  0.04229  0.86309  1.0000
  C   C199      1.0  0.28123  0.05888  0.80491  1.0000
  C  Sn14      1.0  0.78686  0.04220  0.67619  1.0000
  C  Sn15      1.0  0.76903  0.00823  0.60403  1.0000
  C   C200      1.0  0.74337  0.99166  0.66219  1.0000
  C  Sn16      1.0  0.73516  0.00832  0.79093  1.0000
  O  Te13      1.0  0.74522  0.05945  0.99188  1.0000
  O  Te14      1.0  0.31520  0.05931  0.62017  1.0000
  O  Te15      1.0  0.77682  0.99107  0.47515  1.0000
  O  Te16      1.0  0.70941  0.99122  0.84693  1.0000
  Mg  Mg7       1.0  0.81392  0.02515  0.44170  1.0000
  Mg  Mg8       1.0  0.65874  0.95887  0.02531  1.0000
  C  Sn17      1.0  0.67871  0.60604  0.60021  1.0000
  C   C201      1.0  0.66265  0.58089  0.65844  1.0000
  C  Sn18      1.0  0.67860  0.57264  0.76176  1.0000
  C  Sn19      1.0  0.71129  0.58989  0.80794  1.0000
  C   C202      1.0  0.72733  0.61503  0.74975  1.0000
  C  Sn20      1.0  0.71140  0.62330  0.64639  1.0000
  O  Te17      1.0  0.66229  0.61388  0.49706  1.0000
  O  Te18      1.0  0.66204  0.54739  0.81836  1.0000
  O  Te19      1.0  0.72771  0.58203  0.91117  1.0000
  O  Te20      1.0  0.72794  0.64853  0.58983  1.0000
  Mg  Mg9       1.0  0.69480  0.54577  0.95636  1.0000
  Mg  Mg10      1.0  0.69521  0.65018  0.45191  1.0000
  C  Sn21      1.0  0.96527  0.70414  0.64808  1.0000
  C   C203      1.0  0.94803  0.71515  0.72513  1.0000
  C  Sn22      1.0  0.96113  0.74796  0.81351  1.0000
  C  Sn23      1.0  0.99211  0.77023  0.82502  1.0000
  C   C204      1.0  0.00933  0.75922  0.74798  1.0000
  C  Sn24      1.0  0.99625  0.72641  0.65960  1.0000
  O  Te21      1.0  0.95171  0.67123  0.56037  1.0000
  O  Te22      1.0  0.94343  0.75839  0.88954  1.0000
  O  Te23      1.0  0.00567  0.80316  0.91283  1.0000
  O  Te24      1.0  0.01393  0.71598  0.58357  1.0000
  Mg  Mg11      1.0  0.97219  0.80561  0.99492  1.0000
  Mg  Mg12      1.0  0.98519  0.66877  0.47808  1.0000
