data_image0
_chemical_formula_structural       C8O2H2C8O2H2N2C8O2H2C8O2H2N2B2N2B2N2H2N2H2C8H4N2C8H2C2H2C4H2N2H2C8H4N2C8H2C2H4C8O2H2C8O2H2N2C8O2H2C8O2H2N2B2N2B2N2H2N2H2C8H4N2C8H2C2H2C4H2N2H2C8H4N2C8H2C2H4SnCSn2CSnTe4Mg2SnCSn2CSnTe4Mg2SnCSn2CSnTe4Mg2SnCSn2CSnTe4Mg2SnCSn2CSnTe4Mg2SnCSn2CSnTe4Mg2SnCSn2CSnTe4Mg2SnCSn2CSnTe4Mg2
_chemical_formula_sum              "C160 O16 H68 N32 B8 Sn32 Te32 Mg16"
_cell_length_a       36.2081
_cell_length_b       36.2101
_cell_length_c       8.06629
_cell_angle_alpha    67.2421
_cell_angle_beta     112.881
_cell_angle_gamma    91.7777

_symmetry_space_group_name_H-M    'P1'
_space_group_IT_number       1

loop_
  _space_group_symop_operation_xyz
  'x, y, z'

loop_
  _atom_site_type_symbol
  _atom_site_label
  _atom_site_symmetry_multiplicity
  _atom_site_fract_x
  _atom_site_fract_y
  _atom_site_fract_z
  _atom_site_occupancy
  C   C1        1.0  0.50046  0.67213  0.28497  1.0000
  C   C2        1.0  0.55949  0.64312  0.27300  1.0000
  C   C3        1.0  0.53877  0.60978  0.27280  1.0000
  C   C4        1.0  0.54853  0.57184  0.26340  1.0000
  C   C5        1.0  0.52867  0.31834  0.22325  1.0000
  C   C6        1.0  0.46808  0.35342  0.19413  1.0000
  C   C7        1.0  0.49181  0.38379  0.21661  1.0000
  C   C8        1.0  0.48256  0.42176  0.22570  1.0000
  O   O1        1.0  0.55080  0.71096  0.27600  1.0000
  O   O2        1.0  0.47242  0.28672  0.17682  1.0000
  H   H1        1.0  0.58892  0.64481  0.26623  1.0000
  H   H2        1.0  0.43676  0.35540  0.17587  1.0000
  C   C9        1.0  0.33677  0.47292  0.26235  1.0000
  C   C10       1.0  0.37070  0.53224  0.27430  1.0000
  C   C11       1.0  0.40207  0.51278  0.26353  1.0000
  C   C12       1.0  0.44031  0.52545  0.26287  1.0000
  C   C13       1.0  0.69471  0.52103  0.22906  1.0000
  C   C14       1.0  0.66262  0.45982  0.23572  1.0000
  C   C15       1.0  0.63055  0.47928  0.24207  1.0000
  C   C16       1.0  0.59267  0.46590  0.24786  1.0000
  O   O3        1.0  0.30297  0.52232  0.28018  1.0000
  O   O4        1.0  0.72994  0.47051  0.22552  1.0000
  H   H3        1.0  0.37235  0.56127  0.28526  1.0000
  H   H4        1.0  0.66205  0.43000  0.23361  1.0000
  N   N1        1.0  0.58327  0.56335  0.25456  1.0000
  N   N2        1.0  0.44700  0.43101  0.22541  1.0000
  C   C17       1.0  0.53887  0.67405  0.27862  1.0000
  C   C18       1.0  0.47987  0.63921  0.28642  1.0000
  C   C19       1.0  0.50032  0.60812  0.27963  1.0000
  C   C20       1.0  0.48858  0.56964  0.27340  1.0000
  C   C21       1.0  0.48781  0.32107  0.19543  1.0000
  C   C22       1.0  0.55206  0.34898  0.23922  1.0000
  C   C23       1.0  0.53216  0.38235  0.23345  1.0000
  C   C24       1.0  0.54481  0.42071  0.24303  1.0000
  O   O5        1.0  0.48763  0.70757  0.28535  1.0000
  O   O6        1.0  0.54006  0.28131  0.23107  1.0000
  H   H5        1.0  0.45031  0.63765  0.29146  1.0000
  H   H6        1.0  0.58323  0.34732  0.25493  1.0000
  C   C25       1.0  0.69435  0.48184  0.23016  1.0000
  C   C26       1.0  0.66333  0.54071  0.23461  1.0000
  C   C27       1.0  0.63093  0.51864  0.24170  1.0000
  C   C28       1.0  0.59347  0.52931  0.24867  1.0000
  C   C29       1.0  0.33821  0.51107  0.27283  1.0000
  C   C30       1.0  0.36729  0.45347  0.25030  1.0000
  C   C31       1.0  0.40034  0.47468  0.25002  1.0000
  C   C32       1.0  0.43752  0.46422  0.23986  1.0000
  O   O7        1.0  0.73028  0.53480  0.22184  1.0000
  O   O8        1.0  0.30076  0.45961  0.26524  1.0000
  H   H7        1.0  0.66334  0.57084  0.23311  1.0000
  H   H8        1.0  0.36603  0.42422  0.24183  1.0000
  N   N3        1.0  0.45288  0.55930  0.27470  1.0000
  N   N4        1.0  0.58104  0.43083  0.24790  1.0000
  B   B1        1.0  0.51891  0.73136  0.27976  1.0000
  B   B2        1.0  0.50523  0.26191  0.20452  1.0000
  N   N5        1.0  0.51798  0.54832  0.26474  1.0000
  N   N6        1.0  0.51458  0.44346  0.23962  1.0000
  B   B3        1.0  0.28012  0.49037  0.27603  1.0000
  B   B4        1.0  0.75233  0.50309  0.22431  1.0000
  N   N7        1.0  0.45998  0.49557  0.24787  1.0000
  N   N8        1.0  0.57199  0.49696  0.25085  1.0000
  H   H9        1.0  0.54419  0.49597  0.25576  1.0000
  H   H10       1.0  0.48806  0.49637  0.24603  1.0000
  N   N9        1.0  0.96569  0.53891  0.14492  1.0000
  N   N10       1.0  0.06627  0.45093  0.34486  1.0000
  H   H11       1.0  0.98628  0.51297  0.21288  1.0000
  H   H12       1.0  0.04566  0.47687  0.27740  1.0000
  C   C33       1.0  0.96712  0.57711  0.01954  1.0000
  C   C34       1.0  0.06495  0.41268  0.47078  1.0000
  C   C35       1.0  0.92987  0.60122  0.95873  1.0000
  C   C36       1.0  0.10265  0.38891  0.53367  1.0000
  C   C37       1.0  0.92921  0.53705  0.16243  1.0000
  C   C38       1.0  0.10318  0.45321  0.33140  1.0000
  C   C39       1.0  0.90672  0.57700  0.04480  1.0000
  C   C40       1.0  0.12603  0.41351  0.45027  1.0000
  H   H13       1.0  0.92204  0.63292  0.85923  1.0000
  H   H14       1.0  0.11077  0.35721  0.63354  1.0000
  H   H15       1.0  0.87693  0.58594  0.02869  1.0000
  H   H16       1.0  0.15662  0.40543  0.47249  1.0000
  N   N11       1.0  0.05087  0.53160  0.12536  1.0000
  N   N12       1.0  0.98191  0.45871  0.37315  1.0000
  C   C41       1.0  0.03505  0.57126  0.00243  1.0000
  C   C42       1.0  0.99813  0.41929  0.49896  1.0000
  C   C43       1.0  0.06352  0.59245  0.92558  1.0000
  C   C44       1.0  0.97170  0.39937  0.59365  1.0000
  C   C45       1.0  0.94542  0.46413  0.38173  1.0000
  C   C46       1.0  0.08881  0.52702  0.13003  1.0000
  C   C47       1.0  0.93892  0.42734  0.52208  1.0000
  C   C48       1.0  0.09721  0.56509  0.00626  1.0000
  H   H17       1.0  0.05800  0.62387  0.82306  1.0000
  H   H18       1.0  0.97818  0.36855  0.70326  1.0000
  C   C49       1.0  0.99760  0.59100  0.95593  1.0000
  C   C50       1.0  0.03482  0.39911  0.53816  1.0000
  H   H19       1.0  0.91369  0.42412  0.56446  1.0000
  H   H20       1.0  0.12483  0.56981  0.98354  1.0000
  C   C51       1.0  0.91825  0.50092  0.27273  1.0000
  C   C52       1.0  0.11516  0.48980  0.23265  1.0000
  C   C53       1.0  0.50936  0.89492  0.25088  1.0000
  C   C54       1.0  0.50899  0.09515  0.26380  1.0000
  H   H21       1.0  0.99094  0.62271  0.85368  1.0000
  H   H22       1.0  0.04173  0.36750  0.64208  1.0000
  N   N13       1.0  0.46870  0.95287  0.21483  1.0000
  N   N14       1.0  0.55044  0.03594  0.31512  1.0000
  H   H23       1.0  0.49419  0.96614  0.26021  1.0000
  H   H24       1.0  0.52591  0.02018  0.30065  1.0000
  C   C55       1.0  0.42907  0.96576  0.16602  1.0000
  C   C56       1.0  0.58958  0.02394  0.35284  1.0000
  C   C57       1.0  0.40546  0.93776  0.10011  1.0000
  C   C58       1.0  0.61058  0.05824  0.34890  1.0000
  C   C59       1.0  0.47181  0.91754  0.19083  1.0000
  C   C60       1.0  0.54555  0.07551  0.29210  1.0000
  C   C61       1.0  0.43121  0.90897  0.11054  1.0000
  C   C62       1.0  0.58377  0.08983  0.30852  1.0000
  H   H25       1.0  0.37281  0.94016  0.04852  1.0000
  H   H26       1.0  0.64204  0.05835  0.37058  1.0000
  H   H27       1.0  0.42288  0.88456  0.06367  1.0000
  H   H28       1.0  0.58981  0.12022  0.29100  1.0000
  N   N15       1.0  0.47094  0.03863  0.23489  1.0000
  N   N16       1.0  0.54909  0.94851  0.31252  1.0000
  C   C63       1.0  0.43247  0.03109  0.21523  1.0000
  C   C64       1.0  0.58962  0.95118  0.38916  1.0000
  C   C65       1.0  0.41109  0.06293  0.22573  1.0000
  C   C66       1.0  0.61371  0.91245  0.46189  1.0000
  C   C67       1.0  0.54655  0.90965  0.32581  1.0000
  C   C68       1.0  0.47416  0.07519  0.24988  1.0000
  C   C69       1.0  0.58696  0.88620  0.42706  1.0000
  C   C70       1.0  0.43714  0.09023  0.24987  1.0000
  H   H29       1.0  0.38080  0.06332  0.22137  1.0000
  H   H30       1.0  0.64649  0.90624  0.53390  1.0000
  C   C71       1.0  0.41385  0.99905  0.17856  1.0000
  C   C72       1.0  0.60711  0.98584  0.39499  1.0000
  H   H31       1.0  0.59377  0.85416  0.46922  1.0000
  H   H32       1.0  0.43247  0.11707  0.27184  1.0000
  H   H33       1.0  0.38196  0.00035  0.15240  1.0000
  H   H34       1.0  0.63980  0.98286  0.44034  1.0000
  C   C73       1.0  0.46537  0.68028  0.78215  1.0000
  C   C74       1.0  0.52419  0.65051  0.77283  1.0000
  C   C75       1.0  0.50334  0.61734  0.77377  1.0000
  C   C76       1.0  0.51423  0.57909  0.77099  1.0000
  C   C77       1.0  0.49994  0.32985  0.69646  1.0000
  C   C78       1.0  0.43803  0.35912  0.68415  1.0000
  C   C79       1.0  0.45967  0.39063  0.71134  1.0000
  C   C80       1.0  0.44940  0.42745  0.72939  1.0000
  O   O9        1.0  0.51654  0.71819  0.77609  1.0000
  O   O10       1.0  0.44646  0.29456  0.64903  1.0000
  H   H35       1.0  0.55400  0.65131  0.77045  1.0000
  H   H36       1.0  0.40707  0.35812  0.67155  1.0000
  C   C81       1.0  0.30284  0.47725  0.76903  1.0000
  C   C82       1.0  0.33621  0.53729  0.77352  1.0000
  C   C83       1.0  0.36809  0.51763  0.76692  1.0000
  C   C84       1.0  0.40638  0.53057  0.76689  1.0000
  C   C85       1.0  0.66088  0.52892  0.73568  1.0000
  C   C86       1.0  0.62763  0.46887  0.73100  1.0000
  C   C87       1.0  0.59638  0.48819  0.74284  1.0000
  C   C88       1.0  0.55857  0.47493  0.74794  1.0000
  O   O11       1.0  0.26835  0.52768  0.77694  1.0000
  O   O12       1.0  0.69468  0.47945  0.71833  1.0000
  H   H37       1.0  0.33739  0.56667  0.78065  1.0000
  H   H38       1.0  0.62624  0.43952  0.72335  1.0000
  N   N17       1.0  0.54961  0.57099  0.76660  1.0000
  N   N18       1.0  0.41425  0.43537  0.73615  1.0000
  C   C89       1.0  0.50375  0.68184  0.77593  1.0000
  C   C90       1.0  0.44438  0.64743  0.78282  1.0000
  C   C91       1.0  0.46457  0.61576  0.77752  1.0000
  C   C92       1.0  0.45366  0.57651  0.77489  1.0000
  C   C93       1.0  0.45944  0.32928  0.67500  1.0000
  C   C94       1.0  0.52124  0.36138  0.71715  1.0000
  C   C95       1.0  0.49958  0.39187  0.72232  1.0000
  C   C96       1.0  0.51094  0.42977  0.73765  1.0000
  O   O13       1.0  0.45359  0.71577  0.78726  1.0000
  O   O14       1.0  0.51343  0.29515  0.69188  1.0000
  H   H39       1.0  0.41500  0.64602  0.79006  1.0000
  H   H40       1.0  0.55202  0.36272  0.72719  1.0000
  C   C97       1.0  0.65965  0.49056  0.72747  1.0000
  C   C98       1.0  0.63016  0.54846  0.74626  1.0000
  C   C99       1.0  0.59748  0.52685  0.75024  1.0000
  C   C100      1.0  0.56017  0.53723  0.75960  1.0000
  C   C101      1.0  0.30392  0.51597  0.77348  1.0000
  C   C102      1.0  0.33393  0.45754  0.76133  1.0000
  C   C103      1.0  0.36696  0.47894  0.75944  1.0000
  C   C104      1.0  0.40445  0.46840  0.75182  1.0000
  O   O15       1.0  0.69685  0.54225  0.73185  1.0000
  O   O16       1.0  0.26682  0.46409  0.77262  1.0000
  H   H41       1.0  0.63087  0.57810  0.75046  1.0000
  H   H42       1.0  0.33317  0.42788  0.75714  1.0000
  N   N19       1.0  0.41805  0.56516  0.77385  1.0000
  N   N20       1.0  0.54679  0.44057  0.74066  1.0000
  B   B5        1.0  0.48536  0.73900  0.78317  1.0000
  B   B6        1.0  0.48036  0.27359  0.66234  1.0000
  N   N21       1.0  0.48399  0.55523  0.77183  1.0000
  N   N22       1.0  0.48052  0.45056  0.74174  1.0000
  B   B7        1.0  0.24532  0.49573  0.77324  1.0000
  B   B8        1.0  0.71753  0.51141  0.72149  1.0000
  N   N23       1.0  0.42667  0.50006  0.75868  1.0000
  N   N24       1.0  0.53848  0.50510  0.75906  1.0000
  H   H43       1.0  0.51053  0.50467  0.76228  1.0000
  H   H44       1.0  0.45477  0.50028  0.75727  1.0000
  N   N25       1.0  0.93101  0.54985  0.64442  1.0000
  N   N26       1.0  0.03196  0.46161  0.84906  1.0000
  H   H45       1.0  0.95154  0.52388  0.71137  1.0000
  H   H46       1.0  0.01144  0.48759  0.78130  1.0000
  C   C105      1.0  0.93247  0.58808  0.51876  1.0000
  C   C106      1.0  0.03028  0.42335  0.97257  1.0000
  C   C107      1.0  0.89473  0.61190  0.45486  1.0000
  C   C108      1.0  0.06758  0.39921  0.03448  1.0000
  C   C109      1.0  0.89412  0.54770  0.65809  1.0000
  C   C110      1.0  0.06855  0.46344  0.83274  1.0000
  C   C111      1.0  0.87129  0.58739  0.53832  1.0000
  C   C112      1.0  0.09099  0.42348  0.95052  1.0000
  H   H47       1.0  0.88661  0.64355  0.35411  1.0000
  H   H48       1.0  0.07530  0.36747  0.13336  1.0000
  H   H49       1.0  0.84063  0.59551  0.51510  1.0000
  H   H50       1.0  0.12094  0.41456  0.96828  1.0000
  N   N27       1.0  0.01585  0.54188  0.62095  1.0000
  N   N28       1.0  0.94637  0.46918  0.86397  1.0000
  C   C113      1.0  0.99971  0.58130  0.49460  1.0000
  C   C114      1.0  0.96203  0.42944  0.98611  1.0000
  C   C115      1.0  0.02620  0.60107  0.39997  1.0000
  C   C116      1.0  0.93359  0.40835  0.06332  1.0000
  C   C117      1.0  0.90855  0.47394  0.86046  1.0000
  C   C118      1.0  0.05232  0.53632  0.61244  1.0000
  C   C119      1.0  0.90012  0.43593  0.98445  1.0000
  C   C120      1.0  0.05886  0.57297  0.47147  1.0000
  H   H51       1.0  0.01976  0.63186  0.29008  1.0000
  H   H52       1.0  0.93901  0.37692  0.16502  1.0000
  C   C121      1.0  0.96292  0.60159  0.45365  1.0000
  C   C122      1.0  0.99942  0.40950  0.03324  1.0000
  H   H53       1.0  0.87269  0.43137  0.00864  1.0000
  H   H54       1.0  0.08401  0.57596  0.42854  1.0000
  C   C123      1.0  0.88222  0.51117  0.75833  1.0000
  C   C124      1.0  0.07946  0.49951  0.72194  1.0000
  C   C125      1.0  0.48807  0.90552  0.73010  1.0000
  C   C126      1.0  0.49343  0.10550  0.75184  1.0000
  H   H55       1.0  0.95625  0.63322  0.35027  1.0000
  H   H56       1.0  0.00572  0.37770  0.13383  1.0000
  N   N29       1.0  0.44895  0.96481  0.69406  1.0000
  N   N30       1.0  0.53360  0.04561  0.80365  1.0000
  H   H57       1.0  0.47500  0.97743  0.73897  1.0000
  H   H58       1.0  0.50838  0.03093  0.78023  1.0000
  C   C127      1.0  0.40950  0.97899  0.64236  1.0000
  C   C128      1.0  0.57243  0.03292  0.84011  1.0000
  C   C129      1.0  0.38503  0.95148  0.57610  1.0000
  C   C130      1.0  0.59514  0.06553  0.85383  1.0000
  C   C131      1.0  0.45116  0.92903  0.67313  1.0000
  C   C132      1.0  0.53011  0.08463  0.78971  1.0000
  C   C133      1.0  0.41020  0.92139  0.59190  1.0000
  C   C134      1.0  0.56936  0.09723  0.82005  1.0000
  H   H59       1.0  0.35231  0.95491  0.52187  1.0000
  H   H60       1.0  0.62697  0.06457  0.88181  1.0000
  H   H61       1.0  0.40150  0.89668  0.54769  1.0000
  H   H62       1.0  0.57647  0.12682  0.81345  1.0000
  N   N31       1.0  0.45399  0.04965  0.72393  1.0000
  N   N32       1.0  0.52882  0.95914  0.78183  1.0000
  C   C135      1.0  0.41506  0.04346  0.70047  1.0000
  C   C136      1.0  0.56920  0.96282  0.83903  1.0000
  C   C137      1.0  0.39448  0.07610  0.70957  1.0000
  C   C138      1.0  0.59263  0.92592  0.88167  1.0000
  C   C139      1.0  0.52563  0.92094  0.78499  1.0000
  C   C140      1.0  0.45814  0.08632  0.73730  1.0000
  C   C141      1.0  0.56586  0.89947  0.85280  1.0000
  C   C142      1.0  0.42132  0.10284  0.73307  1.0000
  H   H63       1.0  0.36401  0.07766  0.70227  1.0000
  H   H64       1.0  0.62521  0.92098  0.93036  1.0000
  C   C143      1.0  0.39525  0.01246  0.65731  1.0000
  C   C144      1.0  0.58792  0.99608  0.85904  1.0000
  H   H65       1.0  0.57303  0.86849  0.87836  1.0000
  H   H66       1.0  0.41727  0.13027  0.75140  1.0000
  H   H67       1.0  0.36310  0.01504  0.62623  1.0000
  H   H68       1.0  0.62030  0.99288  0.89575  1.0000
  C  Sn1       1.0  0.82273  0.54252  0.20671  1.0000
  C   C145      1.0  0.79642  0.51418  0.18129  1.0000
  C  Sn2       1.0  0.81127  0.47562  0.21501  1.0000
  C  Sn3       1.0  0.85329  0.46516  0.27552  1.0000
  C   C146      1.0  0.87957  0.49349  0.30095  1.0000
  C  Sn4       1.0  0.86475  0.53206  0.26722  1.0000
  O  Te1       1.0  0.80723  0.58089  0.17218  1.0000
  O  Te2       1.0  0.78438  0.44780  0.18855  1.0000
  O  Te3       1.0  0.86878  0.42676  0.31005  1.0000
  O  Te4       1.0  0.89162  0.55987  0.29369  1.0000
  Mg  Mg1       1.0  0.82007  0.39935  0.25403  1.0000
  Mg  Mg2       1.0  0.85596  0.60832  0.22835  1.0000
  C  Sn5       1.0  0.18477  0.52813  0.24092  1.0000
  C   C147      1.0  0.15830  0.50037  0.20697  1.0000
  C  Sn6       1.0  0.17260  0.46348  0.22043  1.0000
  C  Sn7       1.0  0.21424  0.45413  0.26895  1.0000
  C   C148      1.0  0.24069  0.48187  0.30290  1.0000
  C  Sn8       1.0  0.22642  0.51877  0.28944  1.0000
  O  Te5       1.0  0.16981  0.56482  0.22667  1.0000
  O  Te6       1.0  0.14555  0.43623  0.18579  1.0000
  O  Te7       1.0  0.22919  0.41740  0.28317  1.0000
  O  Te8       1.0  0.25344  0.54601  0.32409  1.0000
  Mg  Mg3       1.0  0.18046  0.39017  0.22290  1.0000
  Mg  Mg4       1.0  0.21857  0.59207  0.28712  1.0000
  C  Sn9       1.0  0.48871  0.81468  0.35879  1.0000
  C   C149      1.0  0.51304  0.84446  0.31461  1.0000
  C  Sn10      1.0  0.53786  0.84125  0.22326  1.0000
  C  Sn11      1.0  0.53835  0.80759  0.17493  1.0000
  C   C150      1.0  0.51403  0.77785  0.21908  1.0000
  C  Sn12      1.0  0.48921  0.78103  0.31047  1.0000
  O  Te9       1.0  0.46414  0.81851  0.45014  1.0000
  O  Te10      1.0  0.56192  0.87139  0.18061  1.0000
  O  Te11      1.0  0.56295  0.80379  0.08352  1.0000
  O  Te12      1.0  0.46515  0.75092  0.35307  1.0000
  Mg  Mg5       1.0  0.59029  0.85266  0.05521  1.0000
  Mg  Mg6       1.0  0.43676  0.76963  0.47838  1.0000
  C  Sn13      1.0  0.46407  0.19465  0.13050  1.0000
  C   C151      1.0  0.49357  0.21165  0.24060  1.0000
  C  Sn14      1.0  0.53351  0.19233  0.34830  1.0000
  C  Sn15      1.0  0.54421  0.15526  0.34582  1.0000
  C   C152      1.0  0.51472  0.13828  0.23575  1.0000
  C  Sn16      1.0  0.47477  0.15757  0.12802  1.0000
  O  Te13      1.0  0.42433  0.21449  0.02393  1.0000
  O  Te14      1.0  0.56246  0.20991  0.45732  1.0000
  O  Te15      1.0  0.58399  0.13543  0.45252  1.0000
  O  Te16      1.0  0.44582  0.14002  0.01903  1.0000
  Mg  Mg7       1.0  0.61259  0.17137  0.57835  1.0000
  Mg  Mg8       1.0  0.47972  0.09498  0.89787  1.0000
  C  Sn17      1.0  0.79013  0.47261  0.75041  1.0000
  C   C153      1.0  0.76869  0.49925  0.77962  1.0000
  C  Sn18      1.0  0.78168  0.53625  0.77456  1.0000
  C  Sn19      1.0  0.81681  0.54686  0.73945  1.0000
  C   C154      1.0  0.83822  0.52023  0.71022  1.0000
  C  Sn20      1.0  0.82526  0.48322  0.71529  1.0000
  O  Te17      1.0  0.77660  0.43578  0.75608  1.0000
  O  Te18      1.0  0.75975  0.56237  0.80425  1.0000
  O  Te19      1.0  0.83033  0.58372  0.73379  1.0000
  O  Te20      1.0  0.84716  0.45710  0.68559  1.0000
  Mg  Mg9       1.0  0.79024  0.60912  0.78268  1.0000
  Mg  Mg10      1.0  0.81669  0.41036  0.70703  1.0000
  C  Sn21      1.0  0.17946  0.52527  0.82934  1.0000
  C   C155      1.0  0.20156  0.49687  0.81299  1.0000
  C  Sn22      1.0  0.18196  0.46990  0.73389  1.0000
  C  Sn23      1.0  0.13937  0.47136  0.66968  1.0000
  C   C156      1.0  0.11730  0.49974  0.68601  1.0000
  C  Sn24      1.0  0.13688  0.52672  0.76513  1.0000
  O  Te21      1.0  0.19969  0.55193  0.90886  1.0000
  O  Te22      1.0  0.20471  0.44177  0.71910  1.0000
  O  Te23      1.0  0.11916  0.44466  0.59012  1.0000
  O  Te24      1.0  0.11415  0.55484  0.77990  1.0000
  Mg  Mg11      1.0  0.16336  0.41184  0.60048  1.0000
  Mg  Mg12      1.0  0.15547  0.58480  0.89839  1.0000
  C  Sn25      1.0  0.46477  0.82639  0.86754  1.0000
  C   C157      1.0  0.49069  0.85351  0.81523  1.0000
  C  Sn26      1.0  0.51265  0.84702  0.71750  1.0000
  C  Sn27      1.0  0.50860  0.81272  0.67096  1.0000
  C   C158      1.0  0.48270  0.78563  0.72323  1.0000
  C  Sn28      1.0  0.46073  0.79209  0.82100  1.0000
  O  Te25      1.0  0.44311  0.83348  0.96517  1.0000
  O  Te26      1.0  0.53838  0.87455  0.66677  1.0000
  O  Te27      1.0  0.53029  0.80565  0.57325  1.0000
  O  Te28      1.0  0.43501  0.76459  0.87169  1.0000
  Mg  Mg13      1.0  0.56147  0.85180  0.53493  1.0000
  Mg  Mg14      1.0  0.32786  0.87088  0.00343  1.0000
  C  Sn29      1.0  0.52777  0.19673  0.79246  1.0000
  C   C159      1.0  0.49648  0.22808  0.64954  1.0000
  C  Sn30      1.0  0.45879  0.21949  0.54503  1.0000
  C  Sn31      1.0  0.45224  0.17871  0.58426  1.0000
  C   C160      1.0  0.48352  0.14739  0.72712  1.0000
  C  Sn32      1.0  0.52122  0.15595  0.83169  1.0000
  O  Te29      1.0  0.56520  0.20602  0.89516  1.0000
  O  Te30      1.0  0.42797  0.25134  0.40280  1.0000
  O  Te31      1.0  0.41477  0.16944  0.48141  1.0000
  O  Te32      1.0  0.55202  0.12413  0.97386  1.0000
  Mg  Mg15      1.0  0.38227  0.22330  0.30187  1.0000
  Mg  Mg16      1.0  0.51370  0.23569  0.07495  1.0000
