data_image0
_chemical_formula_structural       HC2H2C2HCHC2HCHNOHC2H2NOHC2H2NOHC2H2NOHC2H2C2HCHC2HCHNOHC2H2C2HCHC2HCHNOHC2H2NOHC2H2C2HCHC2HCHNOC6Sn2C2HTe2HMgC2Sn2C2HTe2HMgC2Sn2C2HTe2HMgC2Sn2C2HTe2HMg
_chemical_formula_sum              "H48 C60 N8 O8 Sn8 Te8 Mg4"
_cell_length_a       15.6917
_cell_length_b       15.5911
_cell_length_c       7.14321
_cell_angle_alpha    90.0779
_cell_angle_beta     89.9617
_cell_angle_gamma    90.5431

_symmetry_space_group_name_H-M    'P1'
_space_group_IT_number       1

loop_
  _space_group_symop_operation_xyz
  'x, y, z'

loop_
  _atom_site_type_symbol
  _atom_site_label
  _atom_site_symmetry_multiplicity
  _atom_site_fract_x
  _atom_site_fract_y
  _atom_site_fract_z
  _atom_site_occupancy
  H   H1        1.0  0.79008  0.78794  0.09368  1.0000
  C   C1        1.0  0.80753  0.69052  0.88036  1.0000
  C   C2        1.0  0.86329  0.74843  0.75488  1.0000
  H   H2        1.0  0.90401  0.79028  0.84070  1.0000
  H   H3        1.0  0.90467  0.70795  0.66841  1.0000
  C   C3        1.0  0.86111  0.63695  0.01337  1.0000
  C   C4        1.0  0.95019  0.64547  0.02289  1.0000
  H   H4        1.0  0.98341  0.68629  0.92315  1.0000
  C   C5        1.0  0.99732  0.60388  0.15949  1.0000
  H   H5        1.0  0.06627  0.60957  0.16472  1.0000
  C   C6        1.0  0.95551  0.55303  0.29296  1.0000
  C   C7        1.0  0.86699  0.54085  0.28367  1.0000
  H   H6        1.0  0.83412  0.50086  0.38506  1.0000
  C   C8        1.0  0.82124  0.58214  0.14387  1.0000
  H   H7        1.0  0.75241  0.57296  0.14090  1.0000
  N   N1        1.0  0.01039  0.50975  0.42379  1.0000
  O   O1        1.0  0.08548  0.48932  0.37132  1.0000
  H   H8        1.0  0.70958  0.70812  0.09326  1.0000
  C   C9        1.0  0.69292  0.80486  0.87854  1.0000
  C   C10       1.0  0.63775  0.74675  0.75226  1.0000
  H   H9        1.0  0.59626  0.70510  0.83660  1.0000
  H   H10       1.0  0.59714  0.78697  0.66382  1.0000
  N   N2        1.0  0.49010  0.99479  0.40785  1.0000
  O   O2        1.0  0.41481  0.01326  0.35393  1.0000
  H   H11       1.0  0.21144  0.28583  0.58973  1.0000
  C   C11       1.0  0.30544  0.30834  0.37135  1.0000
  C   C12       1.0  0.24623  0.36239  0.24774  1.0000
  H   H12       1.0  0.20410  0.40176  0.33452  1.0000
  H   H13       1.0  0.28535  0.40575  0.16114  1.0000
  N   N3        1.0  0.48998  0.51585  0.90822  1.0000
  O   O3        1.0  0.50640  0.59295  0.85814  1.0000
  H   H14       1.0  0.29248  0.20781  0.58162  1.0000
  C   C13       1.0  0.19415  0.18871  0.37136  1.0000
  C   C14       1.0  0.25234  0.13533  0.24312  1.0000
  H   H15       1.0  0.29483  0.09524  0.32702  1.0000
  H   H16       1.0  0.21263  0.09282  0.15578  1.0000
  N   N4        1.0  0.00824  0.98159  0.90766  1.0000
  O   O4        1.0  0.99113  0.90457  0.85789  1.0000
  H   H17       1.0  0.20825  0.20787  0.90697  1.0000
  C   C15       1.0  0.18978  0.30477  0.12174  1.0000
  C   C16       1.0  0.13653  0.24546  0.24892  1.0000
  H   H18       1.0  0.09469  0.20348  0.16579  1.0000
  H   H19       1.0  0.09615  0.28528  0.33912  1.0000
  C   C17       1.0  0.13416  0.35913  0.99420  1.0000
  C   C18       1.0  0.04485  0.35112  0.98811  1.0000
  H   H20       1.0  0.01219  0.30843  0.08509  1.0000
  C   C19       1.0  0.99657  0.39624  0.85846  1.0000
  H   H21       1.0  0.92747  0.39132  0.85611  1.0000
  C   C20       1.0  0.03760  0.44973  0.72897  1.0000
  C   C21       1.0  0.12614  0.46159  0.73588  1.0000
  H   H22       1.0  0.15770  0.50442  0.63828  1.0000
  C   C22       1.0  0.17294  0.41676  0.86819  1.0000
  H   H23       1.0  0.24172  0.42620  0.86952  1.0000
  N   N5        1.0  0.98312  0.49552  0.60159  1.0000
  O   O5        1.0  0.90916  0.51844  0.65654  1.0000
  H   H24       1.0  0.28618  0.29031  0.90331  1.0000
  C   C23       1.0  0.30788  0.19401  0.11736  1.0000
  C   C24       1.0  0.36194  0.25333  0.24321  1.0000
  H   H25       1.0  0.40149  0.29689  0.15877  1.0000
  H   H26       1.0  0.40443  0.21356  0.32830  1.0000
  C   C25       1.0  0.36377  0.14193  0.98537  1.0000
  C   C26       1.0  0.45195  0.15689  0.96843  1.0000
  H   H27       1.0  0.48355  0.20318  0.05931  1.0000
  C   C27       1.0  0.50058  0.11451  0.83490  1.0000
  H   H28       1.0  0.56890  0.12529  0.82426  1.0000
  C   C28       1.0  0.46125  0.05647  0.71211  1.0000
  C   C29       1.0  0.37390  0.03845  0.72830  1.0000
  H   H29       1.0  0.34329  0.99261  0.63545  1.0000
  C   C30       1.0  0.32667  0.08077  0.86458  1.0000
  H   H30       1.0  0.25874  0.06664  0.87347  1.0000
  N   N6        1.0  0.51745  0.01250  0.58432  1.0000
  O   O6        1.0  0.59318  0.99561  0.63771  1.0000
  H   H31       1.0  0.79117  0.70650  0.41572  1.0000
  C   C31       1.0  0.69351  0.68892  0.62801  1.0000
  C   C32       1.0  0.74996  0.63367  0.75524  1.0000
  H   H32       1.0  0.79053  0.59202  0.67051  1.0000
  H   H33       1.0  0.70918  0.59265  0.84341  1.0000
  N   N7        1.0  0.50914  0.48591  0.08171  1.0000
  O   O7        1.0  0.49373  0.40776  0.12480  1.0000
  H   H34       1.0  0.71241  0.78664  0.41313  1.0000
  C   C33       1.0  0.80812  0.80563  0.62851  1.0000
  C   C34       1.0  0.75057  0.86120  0.75316  1.0000
  H   H35       1.0  0.70951  0.90197  0.66729  1.0000
  H   H36       1.0  0.79079  0.90317  0.84064  1.0000
  C   C35       1.0  0.86267  0.85998  0.49675  1.0000
  C   C36       1.0  0.85390  0.94939  0.48335  1.0000
  H   H37       1.0  0.81246  0.98309  0.57989  1.0000
  C   C37       1.0  0.89611  0.99648  0.34609  1.0000
  H   H38       1.0  0.89017  0.06568  0.33774  1.0000
  C   C38       1.0  0.94761  0.95452  0.21529  1.0000
  C   C39       1.0  0.96027  0.86576  0.22915  1.0000
  H   H39       1.0  0.00083  0.83268  0.13049  1.0000
  C   C40       1.0  0.91855  0.82018  0.37007  1.0000
  H   H40       1.0  0.92821  0.75119  0.37677  1.0000
  N   N8        1.0  0.99024  0.01035  0.08307  1.0000
  O   O8        1.0  0.00560  0.08785  0.13194  1.0000
  C   C41       1.0  0.74997  0.74794  0.00203  1.0000
  C   C42       1.0  0.25088  0.24761  0.49445  1.0000
  C   C43       1.0  0.24795  0.24930  0.99661  1.0000
  C   C44       1.0  0.75135  0.74684  0.50576  1.0000
  C   C45       1.0  0.50291  0.88193  0.10912  1.0000
  C   C46       1.0  0.53189  0.93507  0.25385  1.0000
  C  Sn1       1.0  0.61870  0.95409  0.27151  1.0000
  C  Sn2       1.0  0.67744  0.91918  0.14164  1.0000
  C   C47       1.0  0.64750  0.86676  0.99727  1.0000
  C   C48       1.0  0.56050  0.84813  0.98093  1.0000
  H   H41       1.0  0.43559  0.86755  0.09641  1.0000
  O  Te1       1.0  0.63716  0.00726  0.41696  1.0000
  O  Te2       1.0  0.76454  0.93717  0.15599  1.0000
  H   H42       1.0  0.53807  0.80703  0.86879  1.0000
  Mg  Mg1       1.0  0.76208  0.01300  0.37814  1.0000
  C   C49       1.0  0.63311  0.52343  0.47390  1.0000
  C   C50       1.0  0.64391  0.61210  0.49262  1.0000
  C  Sn3       1.0  0.60104  0.66793  0.37319  1.0000
  C  Sn4       1.0  0.54636  0.63418  0.23258  1.0000
  C   C51       1.0  0.53593  0.54537  0.21508  1.0000
  C   C52       1.0  0.57916  0.49008  0.33530  1.0000
  H   H43       1.0  0.66652  0.48064  0.56696  1.0000
  O  Te3       1.0  0.61259  0.75635  0.39378  1.0000
  O  Te4       1.0  0.50271  0.68853  0.11139  1.0000
  H   H44       1.0  0.57074  0.42144  0.32084  1.0000
  Mg  Mg2       1.0  0.53926  0.80430  0.19486  1.0000
  C   C53       1.0  0.14558  0.02252  0.53802  1.0000
  C   C54       1.0  0.14076  0.10986  0.49612  1.0000
  C  Sn5       1.0  0.09001  0.16382  0.60456  1.0000
  C  Sn6       1.0  0.04331  0.12951  0.75773  1.0000
  C   C55       1.0  0.04861  0.04205  0.79857  1.0000
  C   C56       1.0  0.10899  0.98863  0.68911  1.0000
  H   H45       1.0  0.19446  0.98119  0.45340  1.0000
  O  Te5       1.0  0.08589  0.25093  0.56072  1.0000
  O  Te6       1.0  0.99212  0.18200  0.86845  1.0000
  H   H46       1.0  0.11275  0.92102  0.72166  1.0000
  Mg  Mg3       1.0  0.00727  0.29650  0.75291  1.0000
  C   C57       1.0  0.43690  0.32660  0.65641  1.0000
  C   C58       1.0  0.37296  0.35259  0.53338  1.0000
  C  Sn7       1.0  0.34855  0.43848  0.52689  1.0000
  C  Sn8       1.0  0.38902  0.49933  0.64589  1.0000
  C   C59       1.0  0.45296  0.47269  0.76838  1.0000
  C   C60       1.0  0.47688  0.38658  0.77378  1.0000
  H   H47       1.0  0.45544  0.25998  0.66053  1.0000
  O  Te7       1.0  0.28453  0.46336  0.40320  1.0000
  O  Te8       1.0  0.36589  0.58558  0.64222  1.0000
  H   H48       1.0  0.52642  0.36648  0.86896  1.0000
  Mg  Mg4       1.0  0.27522  0.58819  0.44971  1.0000
