data_image0
_chemical_formula_structural       HC2H2NOHC2H2NOHC2H2NOHC2H2NOHC2H2NOHC2H2NOHC2H2NOHC2H2NOC6Sn2C2HTe2HMgC2Sn2C2HTe2HMgC2Sn2C2HTe2HMgC2Sn2C2HTe2HMgC2Sn2C2HTe2HMgC2Sn2C2HTe2HMgC2Sn2C2HTe2HMgC2Sn2C2HTe2HMg
_chemical_formula_sum              "H40 C52 N8 O8 Sn16 Te16 Mg8"
_cell_length_a       15.6917
_cell_length_b       15.5911
_cell_length_c       7.14321
_cell_angle_alpha    90.0779
_cell_angle_beta     89.9617
_cell_angle_gamma    90.5431

_symmetry_space_group_name_H-M    'P1'
_space_group_IT_number       1

loop_
  _space_group_symop_operation_xyz
  'x, y, z'

loop_
  _atom_site_type_symbol
  _atom_site_label
  _atom_site_symmetry_multiplicity
  _atom_site_fract_x
  _atom_site_fract_y
  _atom_site_fract_z
  _atom_site_occupancy
  H   H1        1.0  0.79008  0.78794  0.09368  1.0000
  C   C1        1.0  0.80753  0.69052  0.88036  1.0000
  C   C2        1.0  0.86329  0.74843  0.75488  1.0000
  H   H2        1.0  0.90401  0.79028  0.84070  1.0000
  H   H3        1.0  0.90467  0.70795  0.66841  1.0000
  N   N1        1.0  0.01039  0.50975  0.42379  1.0000
  O   O1        1.0  0.08548  0.48932  0.37132  1.0000
  H   H4        1.0  0.70958  0.70812  0.09326  1.0000
  C   C3        1.0  0.69292  0.80486  0.87854  1.0000
  C   C4        1.0  0.63775  0.74675  0.75226  1.0000
  H   H5        1.0  0.59626  0.70510  0.83660  1.0000
  H   H6        1.0  0.59714  0.78697  0.66382  1.0000
  N   N2        1.0  0.49010  0.99479  0.40785  1.0000
  O   O2        1.0  0.41481  0.01326  0.35393  1.0000
  H   H7        1.0  0.21144  0.28583  0.58973  1.0000
  C   C5        1.0  0.30544  0.30834  0.37135  1.0000
  C   C6        1.0  0.24623  0.36239  0.24774  1.0000
  H   H8        1.0  0.20410  0.40176  0.33452  1.0000
  H   H9        1.0  0.28535  0.40575  0.16114  1.0000
  N   N3        1.0  0.48998  0.51585  0.90822  1.0000
  O   O3        1.0  0.50640  0.59295  0.85814  1.0000
  H   H10       1.0  0.29248  0.20781  0.58162  1.0000
  C   C7        1.0  0.19415  0.18871  0.37136  1.0000
  C   C8        1.0  0.25234  0.13533  0.24312  1.0000
  H   H11       1.0  0.29483  0.09524  0.32702  1.0000
  H   H12       1.0  0.21263  0.09282  0.15578  1.0000
  N   N4        1.0  0.00824  0.98159  0.90766  1.0000
  O   O4        1.0  0.99113  0.90457  0.85789  1.0000
  H   H13       1.0  0.20825  0.20787  0.90697  1.0000
  C   C9        1.0  0.18978  0.30477  0.12174  1.0000
  C   C10       1.0  0.13653  0.24546  0.24892  1.0000
  H   H14       1.0  0.09469  0.20348  0.16579  1.0000
  H   H15       1.0  0.09615  0.28528  0.33912  1.0000
  N   N5        1.0  0.98312  0.49552  0.60159  1.0000
  O   O5        1.0  0.90916  0.51844  0.65654  1.0000
  H   H16       1.0  0.28618  0.29031  0.90331  1.0000
  C   C11       1.0  0.30788  0.19401  0.11736  1.0000
  C   C12       1.0  0.36194  0.25333  0.24321  1.0000
  H   H17       1.0  0.40149  0.29689  0.15877  1.0000
  H   H18       1.0  0.40443  0.21356  0.32830  1.0000
  N   N6        1.0  0.51745  0.01250  0.58432  1.0000
  O   O6        1.0  0.59318  0.99561  0.63771  1.0000
  H   H19       1.0  0.79117  0.70650  0.41572  1.0000
  C   C13       1.0  0.69351  0.68892  0.62801  1.0000
  C   C14       1.0  0.74996  0.63367  0.75524  1.0000
  H   H20       1.0  0.79053  0.59202  0.67051  1.0000
  H   H21       1.0  0.70918  0.59265  0.84341  1.0000
  N   N7        1.0  0.50914  0.48591  0.08171  1.0000
  O   O7        1.0  0.49373  0.40776  0.12480  1.0000
  H   H22       1.0  0.71241  0.78664  0.41313  1.0000
  C   C15       1.0  0.80812  0.80563  0.62851  1.0000
  C   C16       1.0  0.75057  0.86120  0.75316  1.0000
  H   H23       1.0  0.70951  0.90197  0.66729  1.0000
  H   H24       1.0  0.79079  0.90317  0.84064  1.0000
  N   N8        1.0  0.99024  0.01035  0.08307  1.0000
  O   O8        1.0  0.00560  0.08785  0.13194  1.0000
  C   C17       1.0  0.74997  0.74794  0.00203  1.0000
  C   C18       1.0  0.25088  0.24761  0.49445  1.0000
  C   C19       1.0  0.24795  0.24930  0.99661  1.0000
  C   C20       1.0  0.75135  0.74684  0.50576  1.0000
  C   C21       1.0  0.99730  0.61702  0.11566  1.0000
  C   C22       1.0  0.96853  0.56660  0.26488  1.0000
  C  Sn1       1.0  0.88176  0.54780  0.28465  1.0000
  C  Sn2       1.0  0.82286  0.58014  0.15233  1.0000
  C   C23       1.0  0.85229  0.63047  0.00346  1.0000
  C   C24       1.0  0.93896  0.64954  0.98504  1.0000
  H   H25       1.0  0.06459  0.63127  0.10134  1.0000
  O  Te1       1.0  0.85409  0.49735  0.43460  1.0000
  O  Te2       1.0  0.73579  0.56229  0.16871  1.0000
  H   H26       1.0  0.96122  0.68853  0.86943  1.0000
  Mg  Mg1       1.0  0.72915  0.49068  0.39706  1.0000
  C   C25       1.0  0.67861  0.93379  0.17145  1.0000
  C   C26       1.0  0.65076  0.87242  0.04190  1.0000
  C  Sn3       1.0  0.56407  0.85256  0.02580  1.0000
  C  Sn4       1.0  0.50429  0.89505  0.14168  1.0000
  C   C27       1.0  0.53279  0.95639  0.27075  1.0000
  C   C28       1.0  0.61969  0.97575  0.28575  1.0000
  H   H27       1.0  0.74584  0.94881  0.18300  1.0000
  O  Te3       1.0  0.53704  0.79168  0.89569  1.0000
  O  Te4       1.0  0.41727  0.87645  0.12844  1.0000
  H   H28       1.0  0.63181  0.02331  0.38598  1.0000
  Mg  Mg2       1.0  0.41178  0.78843  0.92991  1.0000
  C   C29       1.0  0.43690  0.32660  0.65641  1.0000
  C   C30       1.0  0.37296  0.35259  0.53338  1.0000
  C  Sn5       1.0  0.34855  0.43848  0.52689  1.0000
  C  Sn6       1.0  0.38902  0.49933  0.64589  1.0000
  C   C31       1.0  0.45296  0.47269  0.76838  1.0000
  C   C32       1.0  0.47688  0.38658  0.77378  1.0000
  H   H29       1.0  0.45544  0.25998  0.66053  1.0000
  O  Te5       1.0  0.28453  0.46336  0.40320  1.0000
  O  Te6       1.0  0.36589  0.58558  0.64222  1.0000
  H   H30       1.0  0.52642  0.36648  0.86896  1.0000
  Mg  Mg3       1.0  0.27522  0.58819  0.44971  1.0000
  C   C33       1.0  0.06659  0.17137  0.66492  1.0000
  C   C34       1.0  0.12736  0.14449  0.53489  1.0000
  C  Sn7       1.0  0.14774  0.05772  0.51973  1.0000
  C  Sn8       1.0  0.11581  0.99688  0.63708  1.0000
  C   C35       1.0  0.04565  0.02441  0.76662  1.0000
  C   C36       1.0  0.02575  0.11140  0.78066  1.0000
  H   H31       1.0  0.05116  0.23867  0.67572  1.0000
  O  Te7       1.0  0.20863  0.03197  0.38912  1.0000
  O  Te8       1.0  0.13495  0.90976  0.62482  1.0000
  H   H32       1.0  0.97866  0.13218  0.88126  1.0000
  Mg  Mg4       1.0  0.22240  0.90614  0.42508  1.0000
  C   C37       1.0  0.02337  0.35829  0.97200  1.0000
  C   C38       1.0  0.11182  0.35231  0.98911  1.0000
  C  Sn9       1.0  0.16534  0.40250  0.87659  1.0000
  C  Sn10      1.0  0.12945  0.45970  0.74465  1.0000
  C   C39       1.0  0.04088  0.46526  0.72870  1.0000
  C   C40       1.0  0.98792  0.41472  0.84195  1.0000
  H   H33       1.0  0.98268  0.31861  0.05969  1.0000
  O  Te9       1.0  0.25358  0.39571  0.89546  1.0000
  O  Te10      1.0  0.18146  0.51063  0.63049  1.0000
  H   H34       1.0  0.91943  0.41940  0.82875  1.0000
  Mg  Mg5       1.0  0.29794  0.47846  0.70828  1.0000
  C   C41       1.0  0.35324  0.04028  0.75418  1.0000
  C   C42       1.0  0.43870  0.05228  0.70471  1.0000
  C  Sn11      1.0  0.49042  0.10884  0.80665  1.0000
  C  Sn12      1.0  0.45576  0.15412  0.96095  1.0000
  C   C43       1.0  0.37051  0.14100  0.00939  1.0000
  C   C44       1.0  0.31902  0.08489  0.90639  1.0000
  H   H35       1.0  0.32305  0.99636  0.67456  1.0000
  O  Te11      1.0  0.57566  0.12009  0.75528  1.0000
  O  Te12      1.0  0.50633  0.21039  0.06528  1.0000
  H   H36       1.0  0.25287  0.07558  0.94480  1.0000
  Mg  Mg6       1.0  0.61855  0.20465  0.94063  1.0000
  C   C45       1.0  0.54775  0.65146  0.24768  1.0000
  C   C46       1.0  0.54974  0.56371  0.20796  1.0000
  C  Sn13      1.0  0.59424  0.50800  0.32472  1.0000
  C  Sn14      1.0  0.63746  0.54093  0.48413  1.0000
  C   C47       1.0  0.63504  0.62881  0.52273  1.0000
  C   C48       1.0  0.59034  0.68399  0.40493  1.0000
  H   H37       1.0  0.51313  0.69416  0.15660  1.0000
  O  Te13      1.0  0.59560  0.42051  0.28294  1.0000
  O  Te14      1.0  0.68239  0.48667  0.60321  1.0000
  H   H38       1.0  0.58876  0.75192  0.43579  1.0000
  Mg  Mg7       1.0  0.66556  0.37232  0.48738  1.0000
  C   C49       1.0  0.87922  0.99592  0.38313  1.0000
  C   C50       1.0  0.94077  0.96864  0.25529  1.0000
  C  Sn15      1.0  0.96130  0.88184  0.24216  1.0000
  C  Sn16      1.0  0.91932  0.82137  0.35935  1.0000
  C   C51       1.0  0.85780  0.84930  0.48670  1.0000
  C   C52       1.0  0.83776  0.93631  0.49871  1.0000
  H   H39       1.0  0.85426  0.06323  0.39237  1.0000
  O  Te15      1.0  0.02297  0.85569  0.11372  1.0000
  O  Te16      1.0  0.93859  0.73423  0.34909  1.0000
  H   H40       1.0  0.79007  0.95740  0.59762  1.0000
  Mg  Mg8       1.0  0.02721  0.73000  0.15191  1.0000
