data_image0
_chemical_formula_structural       NONONONONONONONOC4Sn2C2HTe2HMgC2Sn2C2HTe2HMgC2Sn2C2HTe2HMgC2Sn2C2HTe2HMgC2Sn2C2HTe2HMgC2Sn2C2HTe2HMgC2Sn2C2HTe2HMgC2Sn2C2HTe2HMg
_chemical_formula_sum              "N8 O8 C34 Sn16 H16 Te16 Mg8"
_cell_length_a       13.1984
_cell_length_b       13.4367
_cell_length_c       7.88268
_cell_angle_alpha    89.903
_cell_angle_beta     90.0549
_cell_angle_gamma    90.1054

_symmetry_space_group_name_H-M    'P1'
_space_group_IT_number       1

loop_
  _space_group_symop_operation_xyz
  'x, y, z'

loop_
  _atom_site_type_symbol
  _atom_site_label
  _atom_site_symmetry_multiplicity
  _atom_site_fract_x
  _atom_site_fract_y
  _atom_site_fract_z
  _atom_site_occupancy
  N   N1        1.0  0.20891  0.71184  0.57878  1.0000
  O   O1        1.0  0.25229  0.64032  0.65725  1.0000
  N   N2        1.0  0.78441  0.28366  0.57949  1.0000
  O   O2        1.0  0.73156  0.34814  0.65866  1.0000
  N   N3        1.0  0.71717  0.78625  0.42385  1.0000
  O   O3        1.0  0.64108  0.74649  0.34983  1.0000
  N   N4        1.0  0.28429  0.21407  0.42222  1.0000
  O   O4        1.0  0.35861  0.25773  0.34963  1.0000
  N   N5        1.0  0.72980  0.77917  0.59406  1.0000
  O   O5        1.0  0.79312  0.83319  0.67505  1.0000
  N   N6        1.0  0.27291  0.21836  0.59241  1.0000
  O   O6        1.0  0.21226  0.16197  0.67486  1.0000
  N   N7        1.0  0.21469  0.72200  0.40858  1.0000
  O   O7        1.0  0.15738  0.78165  0.32617  1.0000
  N   N8        1.0  0.78809  0.28214  0.40796  1.0000
  O   O8        1.0  0.85453  0.23224  0.32662  1.0000
  C   C1        1.0  0.00042  0.99905  0.99730  1.0000
  C   C2        1.0  0.49949  0.49924  0.99956  1.0000
  C   C3        1.0  0.07763  0.75422  0.84699  1.0000
  C   C4        1.0  0.13392  0.77140  0.69973  1.0000
  C  Sn1       1.0  0.15204  0.86860  0.64412  1.0000
  C  Sn2       1.0  0.11301  0.94995  0.73798  1.0000
  C   C5        1.0  0.05684  0.93197  0.88521  1.0000
  C   C6        1.0  0.03914  0.83441  0.93968  1.0000
  H   H1        1.0  0.06397  0.67874  0.88920  1.0000
  O  Te1       1.0  0.20840  0.88443  0.49668  1.0000
  O  Te2       1.0  0.12814  0.04784  0.68531  1.0000
  H   H2        1.0  0.99504  0.82213  0.05377  1.0000
  Mg  Mg1       1.0  0.20938  0.03136  0.47622  1.0000
  C   C7        1.0  0.92794  0.20298  0.92188  1.0000
  C   C8        1.0  0.94149  0.10049  0.90268  1.0000
  C  Sn3       1.0  0.90704  0.05246  0.75646  1.0000
  C  Sn4       1.0  0.85819  0.10828  0.62727  1.0000
  C   C9        1.0  0.84507  0.21079  0.64765  1.0000
  C   C10       1.0  0.87980  0.25809  0.79450  1.0000
  H   H3        1.0  0.95429  0.24058  0.03546  1.0000
  O  Te3       1.0  0.92303  0.95001  0.73934  1.0000
  O  Te4       1.0  0.82306  0.06217  0.47981  1.0000
  H   H4        1.0  0.86937  0.33745  0.80928  1.0000
  Mg  Mg2       1.0  0.86191  0.92090  0.51522  1.0000
  C   C11       1.0  0.95412  0.88212  0.29880  1.0000
  C   C12       1.0  0.93447  0.92999  0.14474  1.0000
  C  Sn5       1.0  0.83523  0.93780  0.08442  1.0000
  C  Sn6       1.0  0.75431  0.89689  0.18042  1.0000
  C   C13       1.0  0.77476  0.84921  0.33444  1.0000
  C   C14       1.0  0.87436  0.84178  0.39359  1.0000
  H   H5        1.0  0.03118  0.87642  0.34462  1.0000
  O  Te5       1.0  0.81750  0.98484  0.93023  1.0000
  O  Te6       1.0  0.65440  0.90368  0.12313  1.0000
  H   H6        1.0  0.88955  0.80478  0.51292  1.0000
  Mg  Mg3       1.0  0.66845  0.97518  0.90539  1.0000
  C   C15       1.0  0.08317  0.14641  0.35321  1.0000
  C   C16       1.0  0.18871  0.15392  0.34622  1.0000
  C  Sn7       1.0  0.24198  0.11214  0.21091  1.0000
  C  Sn8       1.0  0.18839  0.06198  0.08034  1.0000
  C   C17       1.0  0.08280  0.05492  0.08844  1.0000
  C   C18       1.0  0.03026  0.09697  0.22444  1.0000
  H   H7        1.0  0.04250  0.17898  0.45838  1.0000
  O  Te7       1.0  0.34741  0.12031  0.20594  1.0000
  O  Te8       1.0  0.24030  0.01858  0.94362  1.0000
  H   H8        1.0  0.94854  0.09119  0.22976  1.0000
  Mg  Mg4       1.0  0.38404  0.04929  0.99355  1.0000
  C   C19       1.0  0.64126  0.58660  0.63513  1.0000
  C   C20       1.0  0.65963  0.68806  0.65920  1.0000
  C  Sn9       1.0  0.62910  0.73469  0.80891  1.0000
  C  Sn10      1.0  0.57929  0.67851  0.93667  1.0000
  C   C21       1.0  0.56133  0.57704  0.91142  1.0000
  C   C22       1.0  0.59217  0.53112  0.76111  1.0000
  H   H9        1.0  0.66517  0.55105  0.51888  1.0000
  O  Te9       1.0  0.64802  0.83613  0.83087  1.0000
  O  Te10      1.0  0.54743  0.72424  0.08753  1.0000
  H   H10       1.0  0.57800  0.45255  0.74256  1.0000
  Mg  Mg5       1.0  0.59032  0.86450  0.05829  1.0000
  C   C23       1.0  0.37591  0.45047  0.70310  1.0000
  C   C24       1.0  0.42645  0.43326  0.85619  1.0000
  C  Sn11      1.0  0.43536  0.33659  0.91998  1.0000
  C  Sn12      1.0  0.39282  0.25580  0.82849  1.0000
  C   C25       1.0  0.34246  0.27380  0.67539  1.0000
  C   C26       1.0  0.33397  0.37083  0.61275  1.0000
  H   H11       1.0  0.36938  0.52554  0.65457  1.0000
  O  Te11      1.0  0.48549  0.32171  0.07316  1.0000
  O  Te12      1.0  0.40065  0.15844  0.88931  1.0000
  H   H12       1.0  0.29489  0.38413  0.49416  1.0000
  Mg  Mg6       1.0  0.47633  0.17564  0.10397  1.0000
  C   C27       1.0  0.25667  0.60387  0.12699  1.0000
  C   C28       1.0  0.27292  0.64887  0.28441  1.0000
  C  Sn13      1.0  0.36933  0.64838  0.35775  1.0000
  C  Sn14      1.0  0.45083  0.60194  0.27158  1.0000
  C   C29       1.0  0.43380  0.55719  0.11409  1.0000
  C   C30       1.0  0.33702  0.55808  0.04188  1.0000
  H   H13       1.0  0.18180  0.60460  0.07106  1.0000
  O  Te13      1.0  0.38424  0.69365  0.51514  1.0000
  O  Te14      1.0  0.54796  0.60040  0.34196  1.0000
  H   H14       1.0  0.32504  0.52230  0.91995  1.0000
  Mg  Mg7       1.0  0.53034  0.67207  0.55917  1.0000
  C   C31       1.0  0.70809  0.43449  0.07845  1.0000
  C   C32       1.0  0.60284  0.44215  0.09219  1.0000
  C  Sn15      1.0  0.55244  0.39984  0.23048  1.0000
  C  Sn16      1.0  0.60865  0.34898  0.35719  1.0000
  C   C33       1.0  0.71393  0.34179  0.34234  1.0000
  C   C34       1.0  0.76360  0.38437  0.20340  1.0000
  H   H15       1.0  0.74711  0.46649  0.97101  1.0000
  O  Te15      1.0  0.44724  0.40815  0.24221  1.0000
  O  Te16      1.0  0.56020  0.30604  0.49676  1.0000
  H   H16       1.0  0.84510  0.37848  0.19285  1.0000
  Mg  Mg8       1.0  0.41561  0.33721  0.45623  1.0000
