data_image0
_chemical_formula_structural       HC2H2C2HCHC2HCHNOHC2H2NOHC2H2NOHC2H2C2HCHC2HCHNOHC2H2NOHC2H2NOHC2H2C2HCHC2HCHNOHC2H2C2HCHC2HCHNOC4SnCSn2CSnTe4Mg2SnCSn2CSnTe4Mg2SnCSn2CSnTe4Mg2SnCSn2CSnTe4Mg2
_chemical_formula_sum              "H40 C52 N8 O8 Sn16 Te16 Mg8"
_cell_length_a       15.6917
_cell_length_b       15.5911
_cell_length_c       7.14321
_cell_angle_alpha    90.0779
_cell_angle_beta     89.9617
_cell_angle_gamma    90.5431

_symmetry_space_group_name_H-M    'P1'
_space_group_IT_number       1

loop_
  _space_group_symop_operation_xyz
  'x, y, z'

loop_
  _atom_site_type_symbol
  _atom_site_label
  _atom_site_symmetry_multiplicity
  _atom_site_fract_x
  _atom_site_fract_y
  _atom_site_fract_z
  _atom_site_occupancy
  H   H1        1.0  0.79008  0.78794  0.09368  1.0000
  C   C1        1.0  0.80753  0.69052  0.88036  1.0000
  C   C2        1.0  0.86329  0.74843  0.75488  1.0000
  H   H2        1.0  0.90401  0.79028  0.84070  1.0000
  H   H3        1.0  0.90467  0.70795  0.66841  1.0000
  C   C3        1.0  0.86111  0.63695  0.01337  1.0000
  C   C4        1.0  0.95019  0.64547  0.02289  1.0000
  H   H4        1.0  0.98341  0.68629  0.92315  1.0000
  C   C5        1.0  0.99732  0.60388  0.15949  1.0000
  H   H5        1.0  0.06627  0.60957  0.16472  1.0000
  C   C6        1.0  0.95551  0.55303  0.29296  1.0000
  C   C7        1.0  0.86699  0.54085  0.28367  1.0000
  H   H6        1.0  0.83412  0.50086  0.38506  1.0000
  C   C8        1.0  0.82124  0.58214  0.14387  1.0000
  H   H7        1.0  0.75241  0.57296  0.14090  1.0000
  N   N1        1.0  0.01039  0.50975  0.42379  1.0000
  O   O1        1.0  0.08548  0.48932  0.37132  1.0000
  H   H8        1.0  0.70958  0.70812  0.09326  1.0000
  C   C9        1.0  0.69292  0.80486  0.87854  1.0000
  C   C10       1.0  0.63775  0.74675  0.75226  1.0000
  H   H9        1.0  0.59626  0.70510  0.83660  1.0000
  H   H10       1.0  0.59714  0.78697  0.66382  1.0000
  N   N2        1.0  0.49010  0.99479  0.40785  1.0000
  O   O2        1.0  0.41481  0.01326  0.35393  1.0000
  H   H11       1.0  0.21144  0.28583  0.58973  1.0000
  C   C11       1.0  0.30544  0.30834  0.37135  1.0000
  C   C12       1.0  0.24623  0.36239  0.24774  1.0000
  H   H12       1.0  0.20410  0.40176  0.33452  1.0000
  H   H13       1.0  0.28535  0.40575  0.16114  1.0000
  N   N3        1.0  0.48998  0.51585  0.90822  1.0000
  O   O3        1.0  0.50640  0.59295  0.85814  1.0000
  H   H14       1.0  0.29248  0.20781  0.58162  1.0000
  C   C13       1.0  0.19415  0.18871  0.37136  1.0000
  C   C14       1.0  0.25234  0.13533  0.24312  1.0000
  H   H15       1.0  0.29483  0.09524  0.32702  1.0000
  H   H16       1.0  0.21263  0.09282  0.15578  1.0000
  C   C15       1.0  0.14036  0.13304  0.50215  1.0000
  C   C16       1.0  0.14900  0.04355  0.51379  1.0000
  H   H17       1.0  0.19091  0.01036  0.41726  1.0000
  C   C17       1.0  0.10542  0.99558  0.64803  1.0000
  H   H18       1.0  0.11098  0.92624  0.65396  1.0000
  C   C18       1.0  0.05249  0.03697  0.77713  1.0000
  C   C19       1.0  0.04002  0.12570  0.76468  1.0000
  H   H19       1.0  0.99774  0.15805  0.86096  1.0000
  C   C20       1.0  0.08326  0.17205  0.62741  1.0000
  H   H20       1.0  0.07298  0.24091  0.62127  1.0000
  N   N4        1.0  0.00824  0.98159  0.90766  1.0000
  O   O4        1.0  0.99113  0.90457  0.85789  1.0000
  H   H21       1.0  0.20825  0.20787  0.90697  1.0000
  C   C21       1.0  0.18978  0.30477  0.12174  1.0000
  C   C22       1.0  0.13653  0.24546  0.24892  1.0000
  H   H22       1.0  0.09469  0.20348  0.16579  1.0000
  H   H23       1.0  0.09615  0.28528  0.33912  1.0000
  N   N5        1.0  0.98312  0.49552  0.60159  1.0000
  O   O5        1.0  0.90916  0.51844  0.65654  1.0000
  H   H24       1.0  0.28618  0.29031  0.90331  1.0000
  C   C23       1.0  0.30788  0.19401  0.11736  1.0000
  C   C24       1.0  0.36194  0.25333  0.24321  1.0000
  H   H25       1.0  0.40149  0.29689  0.15877  1.0000
  H   H26       1.0  0.40443  0.21356  0.32830  1.0000
  N   N6        1.0  0.51745  0.01250  0.58432  1.0000
  O   O6        1.0  0.59318  0.99561  0.63771  1.0000
  H   H27       1.0  0.79117  0.70650  0.41572  1.0000
  C   C25       1.0  0.69351  0.68892  0.62801  1.0000
  C   C26       1.0  0.74996  0.63367  0.75524  1.0000
  H   H28       1.0  0.79053  0.59202  0.67051  1.0000
  H   H29       1.0  0.70918  0.59265  0.84341  1.0000
  C   C27       1.0  0.63861  0.63483  0.49618  1.0000
  C   C28       1.0  0.64102  0.54473  0.49124  1.0000
  H   H30       1.0  0.67806  0.51009  0.59440  1.0000
  C   C29       1.0  0.59761  0.49799  0.35489  1.0000
  H   H31       1.0  0.59800  0.42838  0.35269  1.0000
  C   C30       1.0  0.55122  0.54083  0.21657  1.0000
  C   C31       1.0  0.54412  0.63047  0.22331  1.0000
  H   H32       1.0  0.50696  0.66433  0.12003  1.0000
  C   C32       1.0  0.58704  0.67572  0.36293  1.0000
  H   H33       1.0  0.58190  0.74528  0.36373  1.0000
  N   N7        1.0  0.50914  0.48591  0.08171  1.0000
  O   O7        1.0  0.49373  0.40776  0.12480  1.0000
  H   H34       1.0  0.71241  0.78664  0.41313  1.0000
  C   C33       1.0  0.80812  0.80563  0.62851  1.0000
  C   C34       1.0  0.75057  0.86120  0.75316  1.0000
  H   H35       1.0  0.70951  0.90197  0.66729  1.0000
  H   H36       1.0  0.79079  0.90317  0.84064  1.0000
  C   C35       1.0  0.86267  0.85998  0.49675  1.0000
  C   C36       1.0  0.85390  0.94939  0.48335  1.0000
  H   H37       1.0  0.81246  0.98309  0.57989  1.0000
  C   C37       1.0  0.89611  0.99648  0.34609  1.0000
  H   H38       1.0  0.89017  0.06568  0.33774  1.0000
  C   C38       1.0  0.94761  0.95452  0.21529  1.0000
  C   C39       1.0  0.96027  0.86576  0.22915  1.0000
  H   H39       1.0  0.00083  0.83268  0.13049  1.0000
  C   C40       1.0  0.91855  0.82018  0.37007  1.0000
  H   H40       1.0  0.92821  0.75119  0.37677  1.0000
  N   N8        1.0  0.99024  0.01035  0.08307  1.0000
  O   O8        1.0  0.00560  0.08785  0.13194  1.0000
  C   C41       1.0  0.74997  0.74794  0.00203  1.0000
  C   C42       1.0  0.25088  0.24761  0.49445  1.0000
  C   C43       1.0  0.24795  0.24930  0.99661  1.0000
  C   C44       1.0  0.75135  0.74684  0.50576  1.0000
  C  Sn1       1.0  0.49988  0.10808  0.90495  1.0000
  C   C45       1.0  0.47239  0.04794  0.77235  1.0000
  C  Sn2       1.0  0.38581  0.03905  0.73044  1.0000
  C  Sn3       1.0  0.32546  0.09140  0.82290  1.0000
  C   C46       1.0  0.35296  0.15150  0.95538  1.0000
  C  Sn4       1.0  0.43953  0.16043  0.99741  1.0000
  O  Te1       1.0  0.58675  0.11588  0.94464  1.0000
  O  Te2       1.0  0.36927  0.97846  0.59740  1.0000
  O  Te3       1.0  0.23854  0.08355  0.78310  1.0000
  O  Te4       1.0  0.46579  0.22037  0.13033  1.0000
  Mg  Mg1       1.0  0.24396  0.99187  0.59127  1.0000
  Mg  Mg2       1.0  0.59108  0.20704  0.13649  1.0000
  C  Sn5       1.0  0.16564  0.44856  0.87175  1.0000
  C   C47       1.0  0.13720  0.38948  0.00637  1.0000
  C  Sn6       1.0  0.05495  0.35474  0.99453  1.0000
  C  Sn7       1.0  0.00061  0.37826  0.84494  1.0000
  C   C48       1.0  0.02936  0.43668  0.71041  1.0000
  C  Sn8       1.0  0.11130  0.47208  0.72216  1.0000
  O  Te5       1.0  0.24782  0.48310  0.88636  1.0000
  O  Te6       1.0  0.02793  0.29582  0.13082  1.0000
  O  Te7       1.0  0.91838  0.34366  0.83043  1.0000
  O  Te8       1.0  0.13863  0.53033  0.58596  1.0000
  Mg  Mg3       1.0  0.91057  0.26623  0.05024  1.0000
  Mg  Mg4       1.0  0.25598  0.55993  0.66635  1.0000
  C  Sn9       1.0  0.41241  0.32577  0.68984  1.0000
  C   C49       1.0  0.35507  0.35511  0.55528  1.0000
  C  Sn10      1.0  0.34889  0.44268  0.51720  1.0000
  C  Sn11      1.0  0.40117  0.50218  0.61557  1.0000
  C   C50       1.0  0.45848  0.47284  0.75001  1.0000
  C  Sn12      1.0  0.46469  0.38527  0.78821  1.0000
  O  Te9       1.0  0.41752  0.23793  0.72563  1.0000
  O  Te10      1.0  0.29106  0.47048  0.38210  1.0000
  O  Te11      1.0  0.39602  0.59008  0.57967  1.0000
  O  Te12      1.0  0.52248  0.35746  0.92319  1.0000
  Mg  Mg5       1.0  0.30753  0.59654  0.38297  1.0000
  Mg  Mg6       1.0  0.50610  0.23142  0.92237  1.0000
  C  Sn13      1.0  0.64548  0.97419  0.21014  1.0000
  C   C51       1.0  0.55791  0.97016  0.24529  1.0000
  C  Sn14      1.0  0.50824  0.90381  0.16990  1.0000
  C  Sn15      1.0  0.54691  0.84013  0.05711  1.0000
  C   C52       1.0  0.63443  0.84417  0.02204  1.0000
  C  Sn16      1.0  0.68415  0.91051  0.09735  1.0000
  O  Te13      1.0  0.68448  0.04110  0.28695  1.0000
  O  Te14      1.0  0.42082  0.90115  0.20695  1.0000
  O  Te15      1.0  0.49811  0.77381  0.98029  1.0000
  O  Te16      1.0  0.77152  0.91318  0.06038  1.0000
  Mg  Mg7       1.0  0.38182  0.79727  0.07087  1.0000
  Mg  Mg8       1.0  0.80117  0.01699  0.19645  1.0000
