data_image0
_chemical_formula_structural       NONONONONONONONOSi2C2Sn2C2HTe2HMgC2Sn2C2HTe2HMgC2Sn2C2HTe2HMgC2Sn2C2HTe2HMgC2Sn2C2HTe2HMgC2Sn2C2HTe2HMgC2Sn2C2HTe2HMgC2Sn2C2HTe2HMg
_chemical_formula_sum              "N8 O8 Si2 C32 Sn16 H16 Te16 Mg8"
_cell_length_a       13.79
_cell_length_b       13.5574
_cell_length_c       8.56957
_cell_angle_alpha    89.7042
_cell_angle_beta     89.3139
_cell_angle_gamma    89.8041

_symmetry_space_group_name_H-M    'P1'
_space_group_IT_number       1

loop_
  _space_group_symop_operation_xyz
  'x, y, z'

loop_
  _atom_site_type_symbol
  _atom_site_label
  _atom_site_symmetry_multiplicity
  _atom_site_fract_x
  _atom_site_fract_y
  _atom_site_fract_z
  _atom_site_occupancy
  N   N1        1.0  0.77924  0.72443  0.56694  1.0000
  O   O1        1.0  0.72692  0.65960  0.63553  1.0000
  N   N2        1.0  0.24099  0.30543  0.65125  1.0000
  O   O2        1.0  0.22874  0.39320  0.68686  1.0000
  N   N3        1.0  0.72086  0.22232  0.42504  1.0000
  O   O3        1.0  0.65934  0.27896  0.35872  1.0000
  N   N4        1.0  0.27784  0.76290  0.41951  1.0000
  O   O4        1.0  0.34258  0.71011  0.35203  1.0000
  N   N5        1.0  0.27242  0.77065  0.57703  1.0000
  O   O5        1.0  0.21945  0.83499  0.64587  1.0000
  N   N6        1.0  0.72500  0.21232  0.58257  1.0000
  O   O6        1.0  0.77191  0.14214  0.64725  1.0000
  N   N7        1.0  0.19652  0.25586  0.35036  1.0000
  O   O7        1.0  0.10963  0.27479  0.32698  1.0000
  N   N8        1.0  0.78337  0.73032  0.40885  1.0000
  O   O8        1.0  0.84774  0.78048  0.33581  1.0000
  Si  Si1       1.0  0.00204  0.99580  0.00206  1.0000
  Si  Si2       1.0  0.50341  0.49897  0.00462  1.0000
  C   C1        1.0  0.89941  0.79271  0.90116  1.0000
  C   C2        1.0  0.93770  0.88673  0.87494  1.0000
  C  Sn1       1.0  0.91966  0.93658  0.73512  1.0000
  C  Sn2       1.0  0.86218  0.89129  0.61964  1.0000
  C   C3        1.0  0.82414  0.79723  0.64705  1.0000
  C   C4        1.0  0.84267  0.74800  0.78735  1.0000
  H   H1        1.0  0.92113  0.75786  0.00975  1.0000
  O  Te1       1.0  0.96187  0.03046  0.71080  1.0000
  O  Te2       1.0  0.84298  0.93947  0.47888  1.0000
  H   H2        1.0  0.81296  0.67523  0.80766  1.0000
  Mg  Mg1       1.0  0.91539  0.06642  0.50015  1.0000
  C   C5        1.0  0.14815  0.07315  0.72814  1.0000
  C   C6        1.0  0.09003  0.08213  0.86206  1.0000
  C  Sn3       1.0  0.07457  0.17450  0.92965  1.0000
  C  Sn4       1.0  0.11816  0.25932  0.86162  1.0000
  C   C7        1.0  0.17612  0.24957  0.72757  1.0000
  C   C8        1.0  0.19114  0.15677  0.66092  1.0000
  H   H3        1.0  0.15973  0.00136  0.67651  1.0000
  O  Te3       1.0  0.02376  0.18539  0.06348  1.0000
  O  Te4       1.0  0.10388  0.35254  0.92674  1.0000
  H   H4        1.0  0.23609  0.14985  0.55718  1.0000
  Mg  Mg2       1.0  0.02598  0.32842  0.10921  1.0000
  C   C9        1.0  0.94325  0.11718  0.30961  1.0000
  C   C10       1.0  0.92264  0.06614  0.17275  1.0000
  C  Sn5       1.0  0.82951  0.06949  0.11047  1.0000
  C  Sn6       1.0  0.75580  0.12506  0.18687  1.0000
  C   C11       1.0  0.77718  0.17593  0.32367  1.0000
  C   C12       1.0  0.87061  0.17204  0.38500  1.0000
  H   H5        1.0  0.01555  0.11422  0.35702  1.0000
  O  Te5       1.0  0.80271  0.01479  0.97367  1.0000
  O  Te6       1.0  0.66211  0.12971  0.12713  1.0000
  H   H6        1.0  0.88656  0.21162  0.49091  1.0000
  Mg  Mg3       1.0  0.66386  0.04377  0.93773  1.0000
  C   C13       1.0  0.08911  0.84218  0.36271  1.0000
  C   C14       1.0  0.18641  0.81599  0.34092  1.0000
  C  Sn7       1.0  0.23740  0.84809  0.20836  1.0000
  C  Sn8       1.0  0.18990  0.90754  0.09576  1.0000
  C   C15       1.0  0.09255  0.93340  0.11870  1.0000
  C   C16       1.0  0.04221  0.90085  0.25174  1.0000
  H   H7        1.0  0.05017  0.81705  0.46569  1.0000
  O  Te7       1.0  0.33457  0.82121  0.18838  1.0000
  O  Te8       1.0  0.23171  0.93743  0.96224  1.0000
  H   H8        1.0  0.96689  0.92119  0.26864  1.0000
  Mg  Mg4       1.0  0.36337  0.88126  0.98726  1.0000
  C   C17       1.0  0.37749  0.54788  0.70293  1.0000
  C   C18       1.0  0.43286  0.57421  0.83163  1.0000
  C  Sn9       1.0  0.43419  0.67194  0.88250  1.0000
  C  Sn10      1.0  0.37897  0.74447  0.80285  1.0000
  C   C19       1.0  0.32376  0.71736  0.67430  1.0000
  C   C20       1.0  0.32297  0.61937  0.62434  1.0000
  H   H9        1.0  0.37683  0.47205  0.66432  1.0000
  O  Te9       1.0  0.49737  0.70022  0.01125  1.0000
  O  Te10      1.0  0.37897  0.84267  0.85126  1.0000
  H   H10       1.0  0.28004  0.59899  0.52476  1.0000
  Mg  Mg5       1.0  0.47387  0.84375  0.03282  1.0000
  C   C21       1.0  0.62517  0.24999  0.85987  1.0000
  C   C22       1.0  0.66278  0.26833  0.71041  1.0000
  C  Sn11      1.0  0.65903  0.36329  0.64661  1.0000
  C  Sn12      1.0  0.61682  0.44119  0.73435  1.0000
  C   C23       1.0  0.57945  0.42210  0.88382  1.0000
  C   C24       1.0  0.58356  0.32679  0.94652  1.0000
  H   H11       1.0  0.62838  0.17626  0.90843  1.0000
  O  Te11      1.0  0.69691  0.38031  0.49709  1.0000
  O  Te12      1.0  0.61216  0.53680  0.67342  1.0000
  H   H12       1.0  0.56192  0.31587  0.06228  1.0000
  Mg  Mg6       1.0  0.67356  0.52314  0.46457  1.0000
  C   C25       1.0  0.42717  0.34315  0.26742  1.0000
  C   C26       1.0  0.41724  0.41321  0.14846  1.0000
  C  Sn13      1.0  0.32520  0.44044  0.09675  1.0000
  C  Sn14      1.0  0.24169  0.39660  0.16567  1.0000
  C   C27       1.0  0.25239  0.32662  0.28469  1.0000
  C   C28       1.0  0.34483  0.29989  0.33551  1.0000
  H   H13       1.0  0.49868  0.32250  0.30681  1.0000
  O  Te13      1.0  0.30916  0.50730  0.97773  1.0000
  O  Te14      1.0  0.14884  0.42248  0.11626  1.0000
  H   H14       1.0  0.35250  0.24569  0.42769  1.0000
  Mg  Mg7       1.0  0.16710  0.51829  0.95040  1.0000
  C   C29       1.0  0.74650  0.61524  0.14833  1.0000
  C   C30       1.0  0.72604  0.67007  0.28246  1.0000
  C  Sn15      1.0  0.63277  0.66975  0.34795  1.0000
  C  Sn16      1.0  0.55877  0.61340  0.27763  1.0000
  C   C31       1.0  0.57999  0.55873  0.14353  1.0000
  C   C32       1.0  0.67356  0.55961  0.07893  1.0000
  H   H15       1.0  0.81890  0.61587  0.09839  1.0000
  O  Te15      1.0  0.61357  0.72498  0.48195  1.0000
  O  Te16      1.0  0.46493  0.61172  0.34069  1.0000
  H   H16       1.0  0.68196  0.51386  0.97514  1.0000
  Mg  Mg8       1.0  0.47442  0.69908  0.52430  1.0000
