data_image0
_chemical_formula_structural       NONONONONONONONOC2SnCSn2CSnTe4Mg2SnCSn2CSnTe4Mg2SnCSn2CSnTe4Mg2SnCSn2CSnTe4Mg2SnCSn2CSnTe4Mg2SnCSn2CSnTe4Mg2SnCSn2CSnTe4Mg2SnCSn2CSnTe4Mg2
_chemical_formula_sum              "N8 O8 C18 Sn32 Te32 Mg16"
_cell_length_a       13.1984
_cell_length_b       13.4367
_cell_length_c       7.88268
_cell_angle_alpha    89.903
_cell_angle_beta     90.0549
_cell_angle_gamma    90.1054

_symmetry_space_group_name_H-M    'P1'
_space_group_IT_number       1

loop_
  _space_group_symop_operation_xyz
  'x, y, z'

loop_
  _atom_site_type_symbol
  _atom_site_label
  _atom_site_symmetry_multiplicity
  _atom_site_fract_x
  _atom_site_fract_y
  _atom_site_fract_z
  _atom_site_occupancy
  N   N1        1.0  0.20891  0.71184  0.57878  1.0000
  O   O1        1.0  0.25229  0.64032  0.65725  1.0000
  N   N2        1.0  0.78441  0.28366  0.57949  1.0000
  O   O2        1.0  0.73156  0.34814  0.65866  1.0000
  N   N3        1.0  0.71717  0.78625  0.42385  1.0000
  O   O3        1.0  0.64108  0.74649  0.34983  1.0000
  N   N4        1.0  0.28429  0.21407  0.42222  1.0000
  O   O4        1.0  0.35861  0.25773  0.34963  1.0000
  N   N5        1.0  0.72980  0.77917  0.59406  1.0000
  O   O5        1.0  0.79312  0.83319  0.67505  1.0000
  N   N6        1.0  0.27291  0.21836  0.59241  1.0000
  O   O6        1.0  0.21226  0.16197  0.67486  1.0000
  N   N7        1.0  0.21469  0.72200  0.40858  1.0000
  O   O7        1.0  0.15738  0.78165  0.32617  1.0000
  N   N8        1.0  0.78809  0.28214  0.40796  1.0000
  O   O8        1.0  0.85453  0.23224  0.32662  1.0000
  C   C1        1.0  0.00042  0.99905  0.99730  1.0000
  C   C2        1.0  0.49949  0.49924  0.99956  1.0000
  C  Sn1       1.0  0.05469  0.75702  0.80459  1.0000
  C   C3        1.0  0.11920  0.77673  0.66807  1.0000
  C  Sn2       1.0  0.15814  0.87235  0.64289  1.0000
  C  Sn3       1.0  0.13211  0.94989  0.75658  1.0000
  C   C4        1.0  0.06766  0.93016  0.89301  1.0000
  C  Sn4       1.0  0.02866  0.83455  0.91828  1.0000
  O  Te1       1.0  0.01666  0.66086  0.82733  1.0000
  O  Te2       1.0  0.22247  0.89026  0.50547  1.0000
  O  Te3       1.0  0.16834  0.04609  0.73373  1.0000
  O  Te4       1.0  0.96382  0.81762  0.05562  1.0000
  Mg  Mg1       1.0  0.25313  0.03353  0.52793  1.0000
  Mg  Mg2       1.0  0.93128  0.67437  0.03333  1.0000
  C  Sn5       1.0  0.91908  0.06240  0.67429  1.0000
  C   C5        1.0  0.96059  0.07900  0.83496  1.0000
  C  Sn6       1.0  0.93583  0.16469  0.92591  1.0000
  C  Sn7       1.0  0.86810  0.23524  0.85485  1.0000
  C   C6        1.0  0.82662  0.21862  0.69430  1.0000
  C  Sn8       1.0  0.85136  0.13295  0.60324  1.0000
  O  Te5       1.0  0.94677  0.97621  0.58564  1.0000
  O  Te6       1.0  0.97775  0.18067  0.08628  1.0000
  O  Te7       1.0  0.84231  0.32148  0.94366  1.0000
  O  Te8       1.0  0.80889  0.11794  0.44298  1.0000
  Mg  Mg3       1.0  0.91924  0.30953  0.15763  1.0000
  Mg  Mg4       1.0  0.86918  0.98909  0.37155  1.0000
  C  Sn9       1.0  0.76439  0.88104  0.12639  1.0000
  C   C7        1.0  0.78676  0.82891  0.27530  1.0000
  C  Sn10      1.0  0.87988  0.84237  0.35654  1.0000
  C  Sn11      1.0  0.95212  0.90938  0.28757  1.0000
  C   C8        1.0  0.92973  0.96147  0.13876  1.0000
  C  Sn12      1.0  0.83663  0.94804  0.05741  1.0000
  O  Te9       1.0  0.67081  0.86643  0.04731  1.0000
  O  Te10      1.0  0.90053  0.78940  0.50525  1.0000
  O  Te11      1.0  0.04575  0.92395  0.36678  1.0000
  O  Te12      1.0  0.81466  0.99999  0.90882  1.0000
  Mg  Mg5       1.0  0.03858  0.83475  0.56652  1.0000
  Mg  Mg6       1.0  0.67849  0.95473  0.84749  1.0000
  C  Sn13      1.0  0.20804  0.04259  0.11582  1.0000
  C   C9        1.0  0.10335  0.03014  0.13219  1.0000
  C  Sn14      1.0  0.04788  0.09135  0.24081  1.0000
  C  Sn15      1.0  0.09808  0.16661  0.33496  1.0000
  C   C10       1.0  0.20270  0.17904  0.31856  1.0000
  C  Sn16      1.0  0.25823  0.11785  0.20998  1.0000
  O  Te13      1.0  0.26385  0.98055  0.00648  1.0000
  O  Te14      1.0  0.94330  0.07746  0.25509  1.0000
  O  Te15      1.0  0.04404  0.22866  0.44437  1.0000
  O  Te16      1.0  0.36275  0.13172  0.19565  1.0000
  Mg  Mg7       1.0  0.90287  0.18070  0.42053  1.0000
  Mg  Mg8       1.0  0.40325  0.02856  0.03019  1.0000
  C  Sn17      1.0  0.64349  0.72184  0.89570  1.0000
  C   C11       1.0  0.68551  0.70567  0.73546  1.0000
  C  Sn18      1.0  0.65491  0.62422  0.63802  1.0000
  C  Sn19      1.0  0.58071  0.55758  0.70202  1.0000
  C   C12       1.0  0.53872  0.57378  0.86215  1.0000
  C  Sn20      1.0  0.56929  0.65520  0.95970  1.0000
  O  Te17      1.0  0.67521  0.80375  0.99090  1.0000
  O  Te18      1.0  0.69804  0.60958  0.47821  1.0000
  O  Te19      1.0  0.54901  0.47563  0.60666  1.0000
  O  Te20      1.0  0.52562  0.67086  0.11940  1.0000
  Mg  Mg9       1.0  0.63000  0.48729  0.39633  1.0000
  Mg  Mg10      1.0  0.59356  0.79314  0.20134  1.0000
  C  Sn21      1.0  0.37037  0.40528  0.62630  1.0000
  C   C13       1.0  0.35934  0.30246  0.64616  1.0000
  C  Sn22      1.0  0.38412  0.25681  0.80001  1.0000
  C  Sn23      1.0  0.42061  0.31516  0.93691  1.0000
  C   C14       1.0  0.43160  0.41791  0.91702  1.0000
  C  Sn24      1.0  0.40686  0.46362  0.76320  1.0000
  O  Te21      1.0  0.34513  0.44934  0.47137  1.0000
  O  Te22      1.0  0.37249  0.15389  0.81682  1.0000
  O  Te23      1.0  0.44528  0.27200  0.09192  1.0000
  O  Te24      1.0  0.41846  0.56648  0.74637  1.0000
  Mg  Mg11      1.0  0.41637  0.12927  0.05282  1.0000
  Mg  Mg12      1.0  0.37399  0.59218  0.51047  1.0000
  C  Sn25      1.0  0.30721  0.59823  0.05509  1.0000
  C   C15       1.0  0.40894  0.57588  0.08610  1.0000
  C  Sn26      1.0  0.45051  0.59009  0.24730  1.0000
  C  Sn27      1.0  0.38912  0.62736  0.38032  1.0000
  C   C16       1.0  0.28746  0.64966  0.34929  1.0000
  C  Sn28      1.0  0.24582  0.63549  0.18811  1.0000
  O  Te25      1.0  0.26781  0.58245  0.89296  1.0000
  O  Te26      1.0  0.55242  0.56725  0.27521  1.0000
  O  Te27      1.0  0.42918  0.64214  0.54254  1.0000
  O  Te28      1.0  0.14398  0.65830  0.16018  1.0000
  Mg  Mg13      1.0  0.57204  0.60005  0.51781  1.0000
  Mg  Mg14      1.0  0.12484  0.62448  0.91767  1.0000
  C  Sn29      1.0  0.56021  0.40906  0.31609  1.0000
  C   C17       1.0  0.57905  0.45816  0.16288  1.0000
  C  Sn30      1.0  0.66917  0.44150  0.07469  1.0000
  C  Sn31      1.0  0.74196  0.37430  0.14095  1.0000
  C   C18       1.0  0.72310  0.32523  0.29405  1.0000
  C  Sn32      1.0  0.63301  0.34186  0.38235  1.0000
  O  Te29      1.0  0.46960  0.42684  0.40210  1.0000
  O  Te30      1.0  0.68689  0.49050  0.92179  1.0000
  O  Te31      1.0  0.83263  0.35655  0.05479  1.0000
  O  Te32      1.0  0.61584  0.29190  0.53514  1.0000
  Mg  Mg15      1.0  0.82179  0.44142  0.85141  1.0000
  Mg  Mg16      1.0  0.48095  0.34088  0.60558  1.0000
