data_image0
_chemical_formula_structural       H120C144N12O12SnCSn2CSnTe4Mg2SnCSn2CSnTe4Mg2SnCSn2CSnTe4Mg2SnCSn2CSnTe4Mg2SnCSn2CSnTe4Mg2SnCSn2CSnTe4Mg2
_chemical_formula_sum              "H120 C156 N12 O12 Sn24 Te24 Mg12"
_cell_length_a       31.8853
_cell_length_b       31.6281
_cell_length_c       8.86209
_cell_angle_alpha    90.0038
_cell_angle_beta     90.0928
_cell_angle_gamma    120.71

_symmetry_space_group_name_H-M    'P1'
_space_group_IT_number       1

loop_
  _space_group_symop_operation_xyz
  'x, y, z'

loop_
  _atom_site_type_symbol
  _atom_site_label
  _atom_site_symmetry_multiplicity
  _atom_site_fract_x
  _atom_site_fract_y
  _atom_site_fract_z
  _atom_site_occupancy
  H   H1        1.0  0.38933  0.58554  0.27515  1.0000
  H   H2        1.0  0.41343  0.79993  0.25162  1.0000
  H   H3        1.0  0.20153  0.61062  0.23906  1.0000
  H   H4        1.0  0.59027  0.39050  0.24489  1.0000
  H   H5        1.0  0.80002  0.41493  0.22764  1.0000
  H   H6        1.0  0.61018  0.19992  0.22028  1.0000
  H   H7        1.0  0.21689  0.54146  0.26350  1.0000
  H   H8        1.0  0.45659  0.67105  0.28826  1.0000
  H   H9        1.0  0.32759  0.78613  0.28799  1.0000
  H   H10       1.0  0.53967  0.21584  0.18762  1.0000
  H   H11       1.0  0.67266  0.45926  0.21404  1.0000
  H   H12       1.0  0.78275  0.33202  0.19686  1.0000
  H   H13       1.0  0.09854  0.66421  0.48833  1.0000
  H   H14       1.0  0.90882  0.56969  0.95933  1.0000
  H   H15       1.0  0.66583  0.10276  0.01980  1.0000
  H   H16       1.0  0.02344  0.62945  0.33441  1.0000
  H   H17       1.0  0.98510  0.60909  0.10909  1.0000
  H   H18       1.0  0.63071  0.03001  0.18070  1.0000
  H   H19       1.0  0.11203  0.53910  0.38433  1.0000
  H   H20       1.0  0.88097  0.42739  0.09505  1.0000
  H   H21       1.0  0.52956  0.09932  0.01914  1.0000
  H   H22       1.0  0.03707  0.50455  0.22636  1.0000
  H   H23       1.0  0.95688  0.46683  0.24932  1.0000
  H   H24       1.0  0.49304  0.02493  0.17770  1.0000
  H   H25       1.0  0.30901  0.48265  0.01355  1.0000
  H   H26       1.0  0.51603  0.81880  0.00450  1.0000
  H   H27       1.0  0.18084  0.69604  0.00254  1.0000
  H   H28       1.0  0.48079  0.30510  0.46919  1.0000
  H   H29       1.0  0.82588  0.52048  0.47381  1.0000
  H   H30       1.0  0.69350  0.18087  0.46876  1.0000
  H   H31       1.0  0.70542  0.34979  0.93509  1.0000
  H   H32       1.0  0.76508  0.36910  0.99171  1.0000
  H   H33       1.0  0.59586  0.23451  0.99290  1.0000
  H   H34       1.0  0.63582  0.29376  0.43236  1.0000
  H   H35       1.0  0.63457  0.40537  0.00666  1.0000
  H   H36       1.0  0.65338  0.36583  0.93932  1.0000
  H   H37       1.0  0.36030  0.65319  0.55251  1.0000
  H   H38       1.0  0.40098  0.63449  0.49785  1.0000
  H   H39       1.0  0.29146  0.63712  0.54074  1.0000
  H   H40       1.0  0.23266  0.59649  0.47350  1.0000
  H   H41       1.0  0.34563  0.70754  0.54762  1.0000
  H   H42       1.0  0.36619  0.76736  0.48420  1.0000
  H   H43       1.0  0.83325  0.28134  0.44844  1.0000
  H   H44       1.0  0.82089  0.32863  0.39617  1.0000
  H   H45       1.0  0.82853  0.29303  0.25255  1.0000
  H   H46       1.0  0.72888  0.56391  0.45617  1.0000
  H   H47       1.0  0.67956  0.50155  0.43140  1.0000
  H   H48       1.0  0.70904  0.53956  0.27020  1.0000
  H   H49       1.0  0.43213  0.16298  0.41058  1.0000
  H   H50       1.0  0.49245  0.17336  0.38620  1.0000
  H   H51       1.0  0.45842  0.17412  0.22549  1.0000
  H   H52       1.0  0.18653  0.41094  0.11144  1.0000
  H   H53       1.0  0.20126  0.44235  0.29049  1.0000
  H   H54       1.0  0.24405  0.42999  0.20081  1.0000
  H   H55       1.0  0.24205  0.79489  0.31865  1.0000
  H   H56       1.0  0.18827  0.75331  0.21524  1.0000
  H   H57       1.0  0.22701  0.81488  0.14703  1.0000
  H   H58       1.0  0.58609  0.76669  0.14206  1.0000
  H   H59       1.0  0.55174  0.75257  0.31467  1.0000
  H   H60       1.0  0.56853  0.80838  0.21593  1.0000
  H   H61       1.0  0.38758  0.58393  0.76791  1.0000
  H   H62       1.0  0.40986  0.79811  0.75845  1.0000
  H   H63       1.0  0.19951  0.60854  0.73358  1.0000
  H   H64       1.0  0.58671  0.38632  0.74573  1.0000
  H   H65       1.0  0.79923  0.41520  0.72757  1.0000
  H   H66       1.0  0.60859  0.19789  0.71641  1.0000
  H   H67       1.0  0.21479  0.53853  0.75818  1.0000
  H   H68       1.0  0.45645  0.67166  0.79201  1.0000
  H   H69       1.0  0.32500  0.78373  0.79332  1.0000
  H   H70       1.0  0.53994  0.21254  0.68946  1.0000
  H   H71       1.0  0.67096  0.45809  0.70572  1.0000
  H   H72       1.0  0.78131  0.33018  0.70519  1.0000
  H   H73       1.0  0.56423  0.89078  0.92275  1.0000
  H   H74       1.0  0.09890  0.66452  0.99438  1.0000
  H   H75       1.0  0.90889  0.56884  0.46483  1.0000
  H   H76       1.0  0.59968  0.96357  0.76158  1.0000
  H   H77       1.0  0.02394  0.62928  0.83934  1.0000
  H   H78       1.0  0.98576  0.60906  0.61103  1.0000
  H   H79       1.0  0.43858  0.90416  0.99813  1.0000
  H   H80       1.0  0.11442  0.54086  0.88870  1.0000
  H   H81       1.0  0.88344  0.42717  0.59746  1.0000
  H   H82       1.0  0.47490  0.97910  0.84123  1.0000
  H   H83       1.0  0.04021  0.50617  0.72748  1.0000
  H   H84       1.0  0.95976  0.46733  0.74902  1.0000
  H   H85       1.0  0.30714  0.48031  0.50791  1.0000
  H   H86       1.0  0.51119  0.81711  0.50394  1.0000
  H   H87       1.0  0.17905  0.69546  0.50428  1.0000
  H   H88       1.0  0.47781  0.29948  0.96891  1.0000
  H   H89       1.0  0.82547  0.52267  0.96371  1.0000
  H   H90       1.0  0.69040  0.17757  0.96831  1.0000
  H   H91       1.0  0.70585  0.34813  0.43580  1.0000
  H   H92       1.0  0.76495  0.36747  0.49909  1.0000
  H   H93       1.0  0.59591  0.23319  0.48824  1.0000
  H   H94       1.0  0.63606  0.29432  0.93083  1.0000
  H   H95       1.0  0.63168  0.40179  0.50823  1.0000
  H   H96       1.0  0.65131  0.36283  0.44102  1.0000
  H   H97       1.0  0.35735  0.64961  0.04940  1.0000
  H   H98       1.0  0.39861  0.63178  0.99324  1.0000
  H   H99       1.0  0.28750  0.63268  0.03900  1.0000
  H   H100      1.0  0.22945  0.59267  0.96635  1.0000
  H   H101      1.0  0.34220  0.70346  0.04976  1.0000
  H   H102      1.0  0.36269  0.76373  0.99190  1.0000
  H   H103      1.0  0.82616  0.29470  0.76164  1.0000
  H   H104      1.0  0.83025  0.27623  0.94962  1.0000
  H   H105      1.0  0.81736  0.32468  0.92018  1.0000
  H   H106      1.0  0.72687  0.56489  0.93813  1.0000
  H   H107      1.0  0.67847  0.50203  0.91934  1.0000
  H   H108      1.0  0.70611  0.53879  0.75447  1.0000
  H   H109      1.0  0.42986  0.15791  0.90422  1.0000
  H   H110      1.0  0.48967  0.16732  0.87324  1.0000
  H   H111      1.0  0.45528  0.17059  0.71779  1.0000
  H   H112      1.0  0.18512  0.40804  0.60800  1.0000
  H   H113      1.0  0.19625  0.44065  0.78393  1.0000
  H   H114      1.0  0.24086  0.42807  0.70946  1.0000
  H   H115      1.0  0.24502  0.79794  0.81711  1.0000
  H   H116      1.0  0.18948  0.75602  0.72123  1.0000
  H   H117      1.0  0.22905  0.81610  0.64385  1.0000
  H   H118      1.0  0.58671  0.77674  0.63225  1.0000
  H   H119      1.0  0.55586  0.76418  0.81166  1.0000
  H   H120      1.0  0.56456  0.81524  0.69970  1.0000
  C   C1        1.0  0.02400  0.56391  0.27068  1.0000
  C   C2        1.0  0.97730  0.54102  0.18846  1.0000
  C   C3        1.0  0.55886  0.02118  0.19530  1.0000
  C   C4        1.0  0.04342  0.61009  0.34140  1.0000
  C   C5        1.0  0.96174  0.56926  0.10969  1.0000
  C   C6        1.0  0.60788  0.04475  0.14707  1.0000
  C   C7        1.0  0.08596  0.62998  0.42698  1.0000
  C   C8        1.0  0.91863  0.54723  0.02648  1.0000
  C   C9        1.0  0.62817  0.08644  0.05664  1.0000
  C   C10       1.0  0.11128  0.60448  0.44374  1.0000
  C   C11       1.0  0.88891  0.49558  0.01981  1.0000
  C   C12       1.0  0.60024  0.10717  0.00995  1.0000
  C   C13       1.0  0.09245  0.55871  0.37118  1.0000
  C   C14       1.0  0.90407  0.46723  0.09979  1.0000
  C   C15       1.0  0.55129  0.08374  0.05689  1.0000
  C   C16       1.0  0.05016  0.53926  0.28523  1.0000
  C   C17       1.0  0.94691  0.48944  0.18359  1.0000
  C   C18       1.0  0.53126  0.04210  0.14694  1.0000
  C   C19       1.0  0.33651  0.51295  0.08287  1.0000
  C   C20       1.0  0.48699  0.81790  0.07341  1.0000
  C   C21       1.0  0.18343  0.66733  0.06410  1.0000
  C   C22       1.0  0.51487  0.33375  0.41813  1.0000
  C   C23       1.0  0.82008  0.48746  0.41463  1.0000
  C   C24       1.0  0.66518  0.18241  0.40300  1.0000
  C   C25       1.0  0.31913  0.53795  0.17965  1.0000
  C   C26       1.0  0.46108  0.77607  0.17455  1.0000
  C   C27       1.0  0.22468  0.68340  0.16608  1.0000
  C   C28       1.0  0.53956  0.31779  0.31509  1.0000
  C   C29       1.0  0.77781  0.46275  0.31565  1.0000
  C   C30       1.0  0.68153  0.22454  0.30335  1.0000
  C   C31       1.0  0.26982  0.52504  0.18082  1.0000
  C   C32       1.0  0.47356  0.73949  0.18864  1.0000
  C   C33       1.0  0.26001  0.73341  0.18522  1.0000
  C   C34       1.0  0.52413  0.26756  0.29445  1.0000
  C   C35       1.0  0.74214  0.47669  0.30796  1.0000
  C   C36       1.0  0.73135  0.26183  0.29379  1.0000
  C   C37       1.0  0.25525  0.55243  0.26506  1.0000
  C   C38       1.0  0.44610  0.69876  0.28040  1.0000
  C   C39       1.0  0.30070  0.74720  0.27604  1.0000
  C   C40       1.0  0.55081  0.25430  0.20114  1.0000
  C   C41       1.0  0.70079  0.44963  0.21810  1.0000
  C   C42       1.0  0.74478  0.30296  0.20362  1.0000
  C   C43       1.0  0.28860  0.59293  0.35199  1.0000
  C   C44       1.0  0.40587  0.69298  0.36248  1.0000
  C   C45       1.0  0.30707  0.71219  0.35389  1.0000
  C   C46       1.0  0.59247  0.28968  0.12341  1.0000
  C   C47       1.0  0.69405  0.40937  0.13163  1.0000
  C   C48       1.0  0.71027  0.30859  0.12109  1.0000
  C   C49       1.0  0.33770  0.60473  0.35822  1.0000
  C   C50       1.0  0.39409  0.73039  0.35472  1.0000
  C   C51       1.0  0.27013  0.66207  0.34414  1.0000
  C   C52       1.0  0.60632  0.33965  0.13487  1.0000
  C   C53       1.0  0.73055  0.39680  0.13184  1.0000
  C   C54       1.0  0.66080  0.27083  0.12438  1.0000
  C   C55       1.0  0.35174  0.57719  0.27230  1.0000
  C   C56       1.0  0.42160  0.77057  0.26071  1.0000
  C   C57       1.0  0.23045  0.64890  0.24928  1.0000
  C   C58       1.0  0.58002  0.35222  0.23180  1.0000
  C   C59       1.0  0.77112  0.42358  0.22434  1.0000
  C   C60       1.0  0.64792  0.22996  0.21525  1.0000
  C   C61       1.0  0.72813  0.35604  0.03470  1.0000
  C   C62       1.0  0.62098  0.27209  0.03279  1.0000
  C   C63       1.0  0.64718  0.38051  0.04318  1.0000
  C   C64       1.0  0.37646  0.64637  0.45355  1.0000
  C   C65       1.0  0.27035  0.62180  0.43715  1.0000
  C   C66       1.0  0.35321  0.72967  0.44537  1.0000
  C   C67       1.0  0.81442  0.29195  0.36670  1.0000
  C   C68       1.0  0.71461  0.53084  0.38605  1.0000
  C   C69       1.0  0.46596  0.18335  0.34595  1.0000
  C   C70       1.0  0.21579  0.43957  0.18072  1.0000
  C   C71       1.0  0.22626  0.78384  0.20481  1.0000
  C   C72       1.0  0.55751  0.76942  0.20218  1.0000
  C   C73       1.0  0.54014  0.97751  0.78545  1.0000
  C   C74       1.0  0.02573  0.56455  0.77324  1.0000
  C   C75       1.0  0.97923  0.54136  0.68961  1.0000
  C   C76       1.0  0.56428  0.95118  0.81265  1.0000
  C   C77       1.0  0.04436  0.61035  0.84581  1.0000
  C   C78       1.0  0.96298  0.56916  0.61168  1.0000
  C   C79       1.0  0.54397  0.90940  0.90262  1.0000
  C   C80       1.0  0.08669  0.63046  0.93257  1.0000
  C   C81       1.0  0.91963  0.54666  0.52957  1.0000
  C   C82       1.0  0.49775  0.89124  0.96922  1.0000
  C   C83       1.0  0.11232  0.60531  0.95011  1.0000
  C   C84       1.0  0.89054  0.49498  0.52207  1.0000
  C   C85       1.0  0.47361  0.91741  0.94332  1.0000
  C   C86       1.0  0.09433  0.55996  0.87580  1.0000
  C   C87       1.0  0.90635  0.46704  0.60115  1.0000
  C   C88       1.0  0.49423  0.95928  0.85416  1.0000
  C   C89       1.0  0.05246  0.54047  0.78784  1.0000
  C   C90       1.0  0.94932  0.48973  0.68427  1.0000
  C   C91       1.0  0.33463  0.51024  0.57839  1.0000
  C   C92       1.0  0.48319  0.81681  0.57655  1.0000
  C   C93       1.0  0.18206  0.66624  0.56096  1.0000
  C   C94       1.0  0.51159  0.32849  0.91733  1.0000
  C   C95       1.0  0.81922  0.48896  0.90802  1.0000
  C   C96       1.0  0.66243  0.17989  0.90301  1.0000
  C   C97       1.0  0.31742  0.53576  0.67372  1.0000
  C   C98       1.0  0.45824  0.77541  0.67942  1.0000
  C   C99       1.0  0.22288  0.68176  0.66430  1.0000
  C   C100      1.0  0.53713  0.31318  0.81548  1.0000
  C   C101      1.0  0.77692  0.46364  0.80920  1.0000
  C   C102      1.0  0.67937  0.22213  0.80389  1.0000
  C   C103      1.0  0.26804  0.52251  0.67530  1.0000
  C   C104      1.0  0.47196  0.73975  0.69321  1.0000
  C   C105      1.0  0.25819  0.73167  0.68659  1.0000
  C   C106      1.0  0.52258  0.26317  0.79500  1.0000
  C   C107      1.0  0.74109  0.47724  0.79812  1.0000
  C   C108      1.0  0.72919  0.25947  0.79750  1.0000
  C   C109      1.0  0.25324  0.54979  0.75918  1.0000
  C   C110      1.0  0.44490  0.69853  0.78345  1.0000
  C   C111      1.0  0.29824  0.74484  0.77967  1.0000
  C   C112      1.0  0.55003  0.25074  0.70232  1.0000
  C   C113      1.0  0.69920  0.44863  0.71192  1.0000
  C   C114      1.0  0.74328  0.30113  0.70925  1.0000
  C   C115      1.0  0.28634  0.59034  0.84652  1.0000
  C   C116      1.0  0.40378  0.69138  0.86357  1.0000
  C   C117      1.0  0.30419  0.70946  0.85669  1.0000
  C   C118      1.0  0.59128  0.28672  0.62448  1.0000
  C   C119      1.0  0.69225  0.40738  0.63081  1.0000
  C   C120      1.0  0.70927  0.30699  0.62452  1.0000
  C   C121      1.0  0.33565  0.60262  0.85214  1.0000
  C   C122      1.0  0.39138  0.72837  0.85838  1.0000
  C   C123      1.0  0.26739  0.65939  0.84333  1.0000
  C   C124      1.0  0.60453  0.33648  0.63689  1.0000
  C   C125      1.0  0.72925  0.39544  0.63231  1.0000
  C   C126      1.0  0.65989  0.26906  0.62441  1.0000
  C   C127      1.0  0.34993  0.57538  0.76536  1.0000
  C   C128      1.0  0.41867  0.76917  0.76642  1.0000
  C   C129      1.0  0.22822  0.64681  0.74668  1.0000
  C   C130      1.0  0.57757  0.34831  0.73340  1.0000
  C   C131      1.0  0.77011  0.42352  0.72248  1.0000
  C   C132      1.0  0.64638  0.22785  0.71399  1.0000
  C   C133      1.0  0.72759  0.35447  0.53798  1.0000
  C   C134      1.0  0.62039  0.27042  0.53192  1.0000
  C   C135      1.0  0.64503  0.37754  0.54470  1.0000
  C   C136      1.0  0.37409  0.64381  0.94999  1.0000
  C   C137      1.0  0.26737  0.61841  0.93321  1.0000
  C   C138      1.0  0.35000  0.72647  0.94950  1.0000
  C   C139      1.0  0.81151  0.28943  0.87688  1.0000
  C   C140      1.0  0.71286  0.53134  0.87052  1.0000
  C   C141      1.0  0.46350  0.17844  0.83872  1.0000
  C   C142      1.0  0.21292  0.43726  0.67946  1.0000
  C   C143      1.0  0.22776  0.78541  0.70558  1.0000
  C   C144      1.0  0.55744  0.77730  0.69553  1.0000
  N   N1        1.0  0.53378  0.37995  0.45029  1.0000
  N   N2        1.0  0.61919  0.14991  0.41561  1.0000
  N   N3        1.0  0.84828  0.46959  0.43486  1.0000
  N   N4        1.0  0.38258  0.52819  0.07486  1.0000
  N   N5        1.0  0.15297  0.62100  0.04309  1.0000
  N   N6        1.0  0.47401  0.85046  0.06403  1.0000
  N   N7        1.0  0.52961  0.37462  0.94796  1.0000
  N   N8        1.0  0.61629  0.14808  0.91626  1.0000
  N   N9        1.0  0.84670  0.47048  0.93231  1.0000
  N   N10       1.0  0.38042  0.52418  0.57299  1.0000
  N   N11       1.0  0.15229  0.62004  0.53508  1.0000
  N   N12       1.0  0.47045  0.84959  0.56882  1.0000
  O   O1        1.0  0.75082  0.51698  0.39175  1.0000
  O   O2        1.0  0.76387  0.25497  0.37721  1.0000
  O   O3        1.0  0.48289  0.23422  0.37114  1.0000
  O   O4        1.0  0.51382  0.74382  0.11197  1.0000
  O   O5        1.0  0.25443  0.76955  0.11360  1.0000
  O   O6        1.0  0.23505  0.48489  0.09733  1.0000
  O   O7        1.0  0.75004  0.51877  0.87504  1.0000
  O   O8        1.0  0.76112  0.25193  0.88133  1.0000
  O   O9        1.0  0.48137  0.22918  0.87101  1.0000
  O   O10       1.0  0.51263  0.74528  0.61618  1.0000
  O   O11       1.0  0.25382  0.76850  0.61473  1.0000
  O   O12       1.0  0.23357  0.48193  0.59261  1.0000
  C  Sn1       1.0  0.44454  0.52740  0.36463  1.0000
  C   C145      1.0  0.40000  0.50494  0.44111  1.0000
  C  Sn2       1.0  0.37349  0.45397  0.46043  1.0000
  C  Sn3       1.0  0.39189  0.42484  0.40217  1.0000
  C   C146      1.0  0.43640  0.44731  0.32577  1.0000
  C  Sn4       1.0  0.46293  0.49828  0.30637  1.0000
  O  Te1       1.0  0.47042  0.57842  0.34664  1.0000
  O  Te2       1.0  0.32905  0.43234  0.53724  1.0000
  O  Te3       1.0  0.36596  0.37379  0.42023  1.0000
  O  Te4       1.0  0.50735  0.51991  0.22964  1.0000
  Mg  Mg1       1.0  0.30724  0.36144  0.53308  1.0000
  Mg  Mg2       1.0  0.52921  0.59080  0.23380  1.0000
  C  Sn5       1.0  0.54949  0.08295  0.60563  1.0000
  C   C147      1.0  0.59736  0.11104  0.55311  1.0000
  C  Sn6       1.0  0.62857  0.09221  0.55694  1.0000
  C  Sn7       1.0  0.61157  0.04430  0.61438  1.0000
  C   C148      1.0  0.56373  0.01623  0.66684  1.0000
  C  Sn8       1.0  0.53249  0.03503  0.66307  1.0000
  O  Te5       1.0  0.51892  0.10251  0.60072  1.0000
  O  Te6       1.0  0.67628  0.12100  0.50385  1.0000
  O  Te7       1.0  0.64219  0.02475  0.61926  1.0000
  O  Te8       1.0  0.48481  0.00627  0.71610  1.0000
  Mg  Mg3       1.0  0.70407  0.07813  0.53391  1.0000
  Mg  Mg4       1.0  0.45698  0.04909  0.68602  1.0000
  C  Sn9       1.0  0.38164  0.43614  0.84642  1.0000
  C   C149      1.0  0.42884  0.45851  0.78757  1.0000
  C  Sn10      1.0  0.46490  0.50478  0.83905  1.0000
  C  Sn11      1.0  0.45356  0.52919  0.95178  1.0000
  C   C150      1.0  0.40576  0.50649  0.01058  1.0000
  C  Sn12      1.0  0.37029  0.46056  0.95915  1.0000
  O  Te9       1.0  0.34616  0.38987  0.79329  1.0000
  O  Te10      1.0  0.51183  0.52640  0.77848  1.0000
  O  Te11      1.0  0.48846  0.57516  0.00489  1.0000
  O  Te12      1.0  0.32277  0.43859  0.01968  1.0000
  Mg  Mg5       1.0  0.54766  0.58985  0.88750  1.0000
  Mg  Mg6       1.0  0.28754  0.37548  0.91080  1.0000
  C  Sn13      1.0  0.46494  0.91654  0.38916  1.0000
  C   C151      1.0  0.48479  0.88781  0.43149  1.0000
  C  Sn14      1.0  0.53460  0.90565  0.41379  1.0000
  C  Sn15      1.0  0.56523  0.95321  0.35258  1.0000
  C   C152      1.0  0.54538  0.98191  0.31032  1.0000
  C  Sn16      1.0  0.49556  0.96409  0.32796  1.0000
  O  Te13      1.0  0.41504  0.89796  0.40788  1.0000
  O  Te14      1.0  0.55360  0.87625  0.45688  1.0000
  O  Te15      1.0  0.61516  0.97177  0.33388  1.0000
  O  Te16      1.0  0.47656  0.99347  0.28493  1.0000
  Mg  Mg7       1.0  0.62387  0.91784  0.40938  1.0000
  Mg  Mg8       1.0  0.40631  0.95193  0.33245  1.0000
  C  Sn17      1.0  0.51812  0.45953  0.16097  1.0000
  C   C153      1.0  0.46832  0.44078  0.18382  1.0000
  C  Sn18      1.0  0.43424  0.39265  0.14097  1.0000
  C  Sn19      1.0  0.45026  0.36262  0.07397  1.0000
  C   C154      1.0  0.50002  0.38138  0.05118  1.0000
  C  Sn20      1.0  0.53414  0.42951  0.09397  1.0000
  O  Te17      1.0  0.55155  0.50775  0.20469  1.0000
  O  Te18      1.0  0.38464  0.37472  0.16491  1.0000
  O  Te19      1.0  0.41677  0.31437  0.03025  1.0000
  O  Te20      1.0  0.58370  0.44743  0.07009  1.0000
  Mg  Mg9       1.0  0.35316  0.30664  0.08628  1.0000
  Mg  Mg10      1.0  0.61522  0.51550  0.14874  1.0000
  C  Sn21      1.0  0.43797  0.37826  0.65569  1.0000
  C   C155      1.0  0.46096  0.42166  0.74019  1.0000
  C  Sn22      1.0  0.51017  0.45634  0.71668  1.0000
  C  Sn23      1.0  0.53695  0.44746  0.60634  1.0000
  C   C156      1.0  0.51395  0.40408  0.52190  1.0000
  C  Sn24      1.0  0.46475  0.36938  0.54535  1.0000
  O  Te21      1.0  0.38874  0.34411  0.68109  1.0000
  O  Te22      1.0  0.53237  0.49945  0.80259  1.0000
  O  Te23      1.0  0.58621  0.48165  0.58100  1.0000
  O  Te24      1.0  0.44255  0.32630  0.45950  1.0000
  Mg  Mg11      1.0  0.60021  0.53482  0.72637  1.0000
  Mg  Mg12      1.0  0.37471  0.29092  0.53556  1.0000
