data_image0
_chemical_formula_structural       H96C108N12O12C2Sn2C2HTe2HMgC2Sn2C2HTe2HMgC2Sn2C2HTe2HMgC2Sn2C2HTe2HMgC2Sn2C2HTe2HMgC2Sn2C2HTe2HMgC2Sn2C2HTe2HMgC2Sn2C2HTe2HMgC2Sn2C2HTe2HMgC2Sn2C2HTe2HMgC2Sn2C2HTe2HMgC2Sn2C2HTe2HMg
_chemical_formula_sum              "H120 C156 N12 O12 Sn24 Te24 Mg12"
_cell_length_a       31.8853
_cell_length_b       31.6281
_cell_length_c       8.86209
_cell_angle_alpha    90.0038
_cell_angle_beta     90.0928
_cell_angle_gamma    120.71

_symmetry_space_group_name_H-M    'P1'
_space_group_IT_number       1

loop_
  _space_group_symop_operation_xyz
  'x, y, z'

loop_
  _atom_site_type_symbol
  _atom_site_label
  _atom_site_symmetry_multiplicity
  _atom_site_fract_x
  _atom_site_fract_y
  _atom_site_fract_z
  _atom_site_occupancy
  H   H1        1.0  0.38933  0.58554  0.27515  1.0000
  H   H2        1.0  0.41343  0.79993  0.25162  1.0000
  H   H3        1.0  0.20153  0.61062  0.23906  1.0000
  H   H4        1.0  0.59027  0.39050  0.24489  1.0000
  H   H5        1.0  0.80002  0.41493  0.22764  1.0000
  H   H6        1.0  0.61018  0.19992  0.22028  1.0000
  H   H7        1.0  0.21689  0.54146  0.26350  1.0000
  H   H8        1.0  0.45659  0.67105  0.28826  1.0000
  H   H9        1.0  0.32759  0.78613  0.28799  1.0000
  H   H10       1.0  0.53967  0.21584  0.18762  1.0000
  H   H11       1.0  0.67266  0.45926  0.21404  1.0000
  H   H12       1.0  0.78275  0.33202  0.19686  1.0000
  H   H13       1.0  0.30901  0.48265  0.01355  1.0000
  H   H14       1.0  0.51603  0.81880  0.00450  1.0000
  H   H15       1.0  0.18084  0.69604  0.00254  1.0000
  H   H16       1.0  0.48079  0.30510  0.46919  1.0000
  H   H17       1.0  0.82588  0.52048  0.47381  1.0000
  H   H18       1.0  0.69350  0.18087  0.46876  1.0000
  H   H19       1.0  0.70542  0.34979  0.93509  1.0000
  H   H20       1.0  0.76508  0.36910  0.99171  1.0000
  H   H21       1.0  0.59586  0.23451  0.99290  1.0000
  H   H22       1.0  0.63582  0.29376  0.43236  1.0000
  H   H23       1.0  0.63457  0.40537  0.00666  1.0000
  H   H24       1.0  0.65338  0.36583  0.93932  1.0000
  H   H25       1.0  0.36030  0.65319  0.55251  1.0000
  H   H26       1.0  0.40098  0.63449  0.49785  1.0000
  H   H27       1.0  0.29146  0.63712  0.54074  1.0000
  H   H28       1.0  0.23266  0.59649  0.47350  1.0000
  H   H29       1.0  0.34563  0.70754  0.54762  1.0000
  H   H30       1.0  0.36619  0.76736  0.48420  1.0000
  H   H31       1.0  0.83325  0.28134  0.44844  1.0000
  H   H32       1.0  0.82089  0.32863  0.39617  1.0000
  H   H33       1.0  0.82853  0.29303  0.25255  1.0000
  H   H34       1.0  0.72888  0.56391  0.45617  1.0000
  H   H35       1.0  0.67956  0.50155  0.43140  1.0000
  H   H36       1.0  0.70904  0.53956  0.27020  1.0000
  H   H37       1.0  0.43213  0.16298  0.41058  1.0000
  H   H38       1.0  0.49245  0.17336  0.38620  1.0000
  H   H39       1.0  0.45842  0.17412  0.22549  1.0000
  H   H40       1.0  0.18653  0.41094  0.11144  1.0000
  H   H41       1.0  0.20126  0.44235  0.29049  1.0000
  H   H42       1.0  0.24405  0.42999  0.20081  1.0000
  H   H43       1.0  0.24205  0.79489  0.31865  1.0000
  H   H44       1.0  0.18827  0.75331  0.21524  1.0000
  H   H45       1.0  0.22701  0.81488  0.14703  1.0000
  H   H46       1.0  0.58609  0.76669  0.14206  1.0000
  H   H47       1.0  0.55174  0.75257  0.31467  1.0000
  H   H48       1.0  0.56853  0.80838  0.21593  1.0000
  H   H49       1.0  0.38758  0.58393  0.76791  1.0000
  H   H50       1.0  0.40986  0.79811  0.75845  1.0000
  H   H51       1.0  0.19951  0.60854  0.73358  1.0000
  H   H52       1.0  0.58671  0.38632  0.74573  1.0000
  H   H53       1.0  0.79923  0.41520  0.72757  1.0000
  H   H54       1.0  0.60859  0.19789  0.71641  1.0000
  H   H55       1.0  0.21479  0.53853  0.75818  1.0000
  H   H56       1.0  0.45645  0.67166  0.79201  1.0000
  H   H57       1.0  0.32500  0.78373  0.79332  1.0000
  H   H58       1.0  0.53994  0.21254  0.68946  1.0000
  H   H59       1.0  0.67096  0.45809  0.70572  1.0000
  H   H60       1.0  0.78131  0.33018  0.70519  1.0000
  H   H61       1.0  0.30714  0.48031  0.50791  1.0000
  H   H62       1.0  0.51119  0.81711  0.50394  1.0000
  H   H63       1.0  0.17905  0.69546  0.50428  1.0000
  H   H64       1.0  0.47781  0.29948  0.96891  1.0000
  H   H65       1.0  0.82547  0.52267  0.96371  1.0000
  H   H66       1.0  0.69040  0.17757  0.96831  1.0000
  H   H67       1.0  0.70585  0.34813  0.43580  1.0000
  H   H68       1.0  0.76495  0.36747  0.49909  1.0000
  H   H69       1.0  0.59591  0.23319  0.48824  1.0000
  H   H70       1.0  0.63606  0.29432  0.93083  1.0000
  H   H71       1.0  0.63168  0.40179  0.50823  1.0000
  H   H72       1.0  0.65131  0.36283  0.44102  1.0000
  H   H73       1.0  0.35735  0.64961  0.04940  1.0000
  H   H74       1.0  0.39861  0.63178  0.99324  1.0000
  H   H75       1.0  0.28750  0.63268  0.03900  1.0000
  H   H76       1.0  0.22945  0.59267  0.96635  1.0000
  H   H77       1.0  0.34220  0.70346  0.04976  1.0000
  H   H78       1.0  0.36269  0.76373  0.99190  1.0000
  H   H79       1.0  0.82616  0.29470  0.76164  1.0000
  H   H80       1.0  0.83025  0.27623  0.94962  1.0000
  H   H81       1.0  0.81736  0.32468  0.92018  1.0000
  H   H82       1.0  0.72687  0.56489  0.93813  1.0000
  H   H83       1.0  0.67847  0.50203  0.91934  1.0000
  H   H84       1.0  0.70611  0.53879  0.75447  1.0000
  H   H85       1.0  0.42986  0.15791  0.90422  1.0000
  H   H86       1.0  0.48967  0.16732  0.87324  1.0000
  H   H87       1.0  0.45528  0.17059  0.71779  1.0000
  H   H88       1.0  0.18512  0.40804  0.60800  1.0000
  H   H89       1.0  0.19625  0.44065  0.78393  1.0000
  H   H90       1.0  0.24086  0.42807  0.70946  1.0000
  H   H91       1.0  0.24502  0.79794  0.81711  1.0000
  H   H92       1.0  0.18948  0.75602  0.72123  1.0000
  H   H93       1.0  0.22905  0.81610  0.64385  1.0000
  H   H94       1.0  0.58671  0.77674  0.63225  1.0000
  H   H95       1.0  0.55586  0.76418  0.81166  1.0000
  H   H96       1.0  0.56456  0.81524  0.69970  1.0000
  C   C1        1.0  0.33651  0.51295  0.08287  1.0000
  C   C2        1.0  0.48699  0.81790  0.07341  1.0000
  C   C3        1.0  0.18343  0.66733  0.06410  1.0000
  C   C4        1.0  0.51487  0.33375  0.41813  1.0000
  C   C5        1.0  0.82008  0.48746  0.41463  1.0000
  C   C6        1.0  0.66518  0.18241  0.40300  1.0000
  C   C7        1.0  0.31913  0.53795  0.17965  1.0000
  C   C8        1.0  0.46108  0.77607  0.17455  1.0000
  C   C9        1.0  0.22468  0.68340  0.16608  1.0000
  C   C10       1.0  0.53956  0.31779  0.31509  1.0000
  C   C11       1.0  0.77781  0.46275  0.31565  1.0000
  C   C12       1.0  0.68153  0.22454  0.30335  1.0000
  C   C13       1.0  0.26982  0.52504  0.18082  1.0000
  C   C14       1.0  0.47356  0.73949  0.18864  1.0000
  C   C15       1.0  0.26001  0.73341  0.18522  1.0000
  C   C16       1.0  0.52413  0.26756  0.29445  1.0000
  C   C17       1.0  0.74214  0.47669  0.30796  1.0000
  C   C18       1.0  0.73135  0.26183  0.29379  1.0000
  C   C19       1.0  0.25525  0.55243  0.26506  1.0000
  C   C20       1.0  0.44610  0.69876  0.28040  1.0000
  C   C21       1.0  0.30070  0.74720  0.27604  1.0000
  C   C22       1.0  0.55081  0.25430  0.20114  1.0000
  C   C23       1.0  0.70079  0.44963  0.21810  1.0000
  C   C24       1.0  0.74478  0.30296  0.20362  1.0000
  C   C25       1.0  0.28860  0.59293  0.35199  1.0000
  C   C26       1.0  0.40587  0.69298  0.36248  1.0000
  C   C27       1.0  0.30707  0.71219  0.35389  1.0000
  C   C28       1.0  0.59247  0.28968  0.12341  1.0000
  C   C29       1.0  0.69405  0.40937  0.13163  1.0000
  C   C30       1.0  0.71027  0.30859  0.12109  1.0000
  C   C31       1.0  0.33770  0.60473  0.35822  1.0000
  C   C32       1.0  0.39409  0.73039  0.35472  1.0000
  C   C33       1.0  0.27013  0.66207  0.34414  1.0000
  C   C34       1.0  0.60632  0.33965  0.13487  1.0000
  C   C35       1.0  0.73055  0.39680  0.13184  1.0000
  C   C36       1.0  0.66080  0.27083  0.12438  1.0000
  C   C37       1.0  0.35174  0.57719  0.27230  1.0000
  C   C38       1.0  0.42160  0.77057  0.26071  1.0000
  C   C39       1.0  0.23045  0.64890  0.24928  1.0000
  C   C40       1.0  0.58002  0.35222  0.23180  1.0000
  C   C41       1.0  0.77112  0.42358  0.22434  1.0000
  C   C42       1.0  0.64792  0.22996  0.21525  1.0000
  C   C43       1.0  0.72813  0.35604  0.03470  1.0000
  C   C44       1.0  0.62098  0.27209  0.03279  1.0000
  C   C45       1.0  0.64718  0.38051  0.04318  1.0000
  C   C46       1.0  0.37646  0.64637  0.45355  1.0000
  C   C47       1.0  0.27035  0.62180  0.43715  1.0000
  C   C48       1.0  0.35321  0.72967  0.44537  1.0000
  C   C49       1.0  0.81442  0.29195  0.36670  1.0000
  C   C50       1.0  0.71461  0.53084  0.38605  1.0000
  C   C51       1.0  0.46596  0.18335  0.34595  1.0000
  C   C52       1.0  0.21579  0.43957  0.18072  1.0000
  C   C53       1.0  0.22626  0.78384  0.20481  1.0000
  C   C54       1.0  0.55751  0.76942  0.20218  1.0000
  C   C55       1.0  0.33463  0.51024  0.57839  1.0000
  C   C56       1.0  0.48319  0.81681  0.57655  1.0000
  C   C57       1.0  0.18206  0.66624  0.56096  1.0000
  C   C58       1.0  0.51159  0.32849  0.91733  1.0000
  C   C59       1.0  0.81922  0.48896  0.90802  1.0000
  C   C60       1.0  0.66243  0.17989  0.90301  1.0000
  C   C61       1.0  0.31742  0.53576  0.67372  1.0000
  C   C62       1.0  0.45824  0.77541  0.67942  1.0000
  C   C63       1.0  0.22288  0.68176  0.66430  1.0000
  C   C64       1.0  0.53713  0.31318  0.81548  1.0000
  C   C65       1.0  0.77692  0.46364  0.80920  1.0000
  C   C66       1.0  0.67937  0.22213  0.80389  1.0000
  C   C67       1.0  0.26804  0.52251  0.67530  1.0000
  C   C68       1.0  0.47196  0.73975  0.69321  1.0000
  C   C69       1.0  0.25819  0.73167  0.68659  1.0000
  C   C70       1.0  0.52258  0.26317  0.79500  1.0000
  C   C71       1.0  0.74109  0.47724  0.79812  1.0000
  C   C72       1.0  0.72919  0.25947  0.79750  1.0000
  C   C73       1.0  0.25324  0.54979  0.75918  1.0000
  C   C74       1.0  0.44490  0.69853  0.78345  1.0000
  C   C75       1.0  0.29824  0.74484  0.77967  1.0000
  C   C76       1.0  0.55003  0.25074  0.70232  1.0000
  C   C77       1.0  0.69920  0.44863  0.71192  1.0000
  C   C78       1.0  0.74328  0.30113  0.70925  1.0000
  C   C79       1.0  0.28634  0.59034  0.84652  1.0000
  C   C80       1.0  0.40378  0.69138  0.86357  1.0000
  C   C81       1.0  0.30419  0.70946  0.85669  1.0000
  C   C82       1.0  0.59128  0.28672  0.62448  1.0000
  C   C83       1.0  0.69225  0.40738  0.63081  1.0000
  C   C84       1.0  0.70927  0.30699  0.62452  1.0000
  C   C85       1.0  0.33565  0.60262  0.85214  1.0000
  C   C86       1.0  0.39138  0.72837  0.85838  1.0000
  C   C87       1.0  0.26739  0.65939  0.84333  1.0000
  C   C88       1.0  0.60453  0.33648  0.63689  1.0000
  C   C89       1.0  0.72925  0.39544  0.63231  1.0000
  C   C90       1.0  0.65989  0.26906  0.62441  1.0000
  C   C91       1.0  0.34993  0.57538  0.76536  1.0000
  C   C92       1.0  0.41867  0.76917  0.76642  1.0000
  C   C93       1.0  0.22822  0.64681  0.74668  1.0000
  C   C94       1.0  0.57757  0.34831  0.73340  1.0000
  C   C95       1.0  0.77011  0.42352  0.72248  1.0000
  C   C96       1.0  0.64638  0.22785  0.71399  1.0000
  C   C97       1.0  0.72759  0.35447  0.53798  1.0000
  C   C98       1.0  0.62039  0.27042  0.53192  1.0000
  C   C99       1.0  0.64503  0.37754  0.54470  1.0000
  C   C100      1.0  0.37409  0.64381  0.94999  1.0000
  C   C101      1.0  0.26737  0.61841  0.93321  1.0000
  C   C102      1.0  0.35000  0.72647  0.94950  1.0000
  C   C103      1.0  0.81151  0.28943  0.87688  1.0000
  C   C104      1.0  0.71286  0.53134  0.87052  1.0000
  C   C105      1.0  0.46350  0.17844  0.83872  1.0000
  C   C106      1.0  0.21292  0.43726  0.67946  1.0000
  C   C107      1.0  0.22776  0.78541  0.70558  1.0000
  C   C108      1.0  0.55744  0.77730  0.69553  1.0000
  N   N1        1.0  0.53378  0.37995  0.45029  1.0000
  N   N2        1.0  0.61919  0.14991  0.41561  1.0000
  N   N3        1.0  0.84828  0.46959  0.43486  1.0000
  N   N4        1.0  0.38258  0.52819  0.07486  1.0000
  N   N5        1.0  0.15297  0.62100  0.04309  1.0000
  N   N6        1.0  0.47401  0.85046  0.06403  1.0000
  N   N7        1.0  0.52961  0.37462  0.94796  1.0000
  N   N8        1.0  0.61629  0.14808  0.91626  1.0000
  N   N9        1.0  0.84670  0.47048  0.93231  1.0000
  N   N10       1.0  0.38042  0.52418  0.57299  1.0000
  N   N11       1.0  0.15229  0.62004  0.53508  1.0000
  N   N12       1.0  0.47045  0.84959  0.56882  1.0000
  O   O1        1.0  0.75082  0.51698  0.39175  1.0000
  O   O2        1.0  0.76387  0.25497  0.37721  1.0000
  O   O3        1.0  0.48289  0.23422  0.37114  1.0000
  O   O4        1.0  0.51382  0.74382  0.11197  1.0000
  O   O5        1.0  0.25443  0.76955  0.11360  1.0000
  O   O6        1.0  0.23505  0.48489  0.09733  1.0000
  O   O7        1.0  0.75004  0.51877  0.87504  1.0000
  O   O8        1.0  0.76112  0.25193  0.88133  1.0000
  O   O9        1.0  0.48137  0.22918  0.87101  1.0000
  O   O10       1.0  0.51263  0.74528  0.61618  1.0000
  O   O11       1.0  0.25382  0.76850  0.61473  1.0000
  O   O12       1.0  0.23357  0.48193  0.59261  1.0000
  C   C109      1.0  0.36737  0.43681  0.43220  1.0000
  C   C110      1.0  0.38918  0.48555  0.48131  1.0000
  C  Sn1       1.0  0.43587  0.52051  0.43186  1.0000
  C  Sn2       1.0  0.46110  0.50631  0.33135  1.0000
  C   C111      1.0  0.43894  0.45747  0.28280  1.0000
  C   C112      1.0  0.39221  0.42278  0.33302  1.0000
  H   H97       1.0  0.33120  0.40998  0.47099  1.0000
  O  Te1       1.0  0.45714  0.56904  0.48207  1.0000
  O  Te2       1.0  0.50779  0.54051  0.28011  1.0000
  H   H98       1.0  0.37532  0.38506  0.29491  1.0000
  Mg  Mg1       1.0  0.52144  0.60221  0.38053  1.0000
  C   C113      1.0  0.47945  0.94772  0.37432  1.0000
  C   C114      1.0  0.52609  0.97371  0.31131  1.0000
  C  Sn3       1.0  0.55793  0.95580  0.32440  1.0000
  C  Sn4       1.0  0.54269  0.91102  0.40203  1.0000
  C   C115      1.0  0.49595  0.88528  0.46458  1.0000
  C   C116      1.0  0.46438  0.90355  0.45086  1.0000
  H   H99       1.0  0.45502  0.96183  0.36364  1.0000
  O  Te3       1.0  0.60440  0.98223  0.26082  1.0000
  O  Te4       1.0  0.57377  0.89228  0.41673  1.0000
  H   H100      1.0  0.42827  0.88340  0.49957  1.0000
  Mg  Mg2       1.0  0.63356  0.94167  0.31079  1.0000
  C   C117      1.0  0.08279  0.54801  0.34934  1.0000
  C   C118      1.0  0.10796  0.59340  0.42303  1.0000
  C  Sn5       1.0  0.08926  0.62486  0.42371  1.0000
  C  Sn6       1.0  0.04451  0.61051  0.34918  1.0000
  C   C119      1.0  0.01959  0.56500  0.27588  1.0000
  C   C120      1.0  0.03865  0.53381  0.27585  1.0000
  H   H101      1.0  0.09752  0.52386  0.34939  1.0000
  O  Te5       1.0  0.11488  0.67009  0.49783  1.0000
  O  Te6       1.0  0.02498  0.64123  0.34816  1.0000
  H   H102      1.0  0.01914  0.49866  0.21888  1.0000
  Mg  Mg3       1.0  0.07343  0.69922  0.46487  1.0000
  C   C121      1.0  0.44159  0.36536  0.06290  1.0000
  C   C122      1.0  0.49114  0.38381  0.03609  1.0000
  C  Sn7       1.0  0.52640  0.42609  0.11074  1.0000
  C  Sn8       1.0  0.51166  0.45028  0.21410  1.0000
  C   C123      1.0  0.46200  0.43151  0.24022  1.0000
  C   C124      1.0  0.42702  0.38918  0.16488  1.0000
  H   H103      1.0  0.41452  0.33259  0.00468  1.0000
  O  Te7       1.0  0.57575  0.44404  0.08259  1.0000
  O  Te8       1.0  0.54614  0.49259  0.29028  1.0000
  H   H104      1.0  0.38866  0.37489  0.18573  1.0000
  Mg  Mg4       1.0  0.60901  0.50288  0.21396  1.0000
  C   C125      1.0  0.92905  0.55880  0.04252  1.0000
  C   C126      1.0  0.89664  0.50887  0.01508  1.0000
  C  Sn9       1.0  0.90326  0.47327  0.08616  1.0000
  C  Sn10      1.0  0.94309  0.48803  0.18656  1.0000
  C   C127      1.0  0.97529  0.53807  0.21334  1.0000
  C   C128      1.0  0.96834  0.57339  0.14157  1.0000
  H   H105      1.0  0.92428  0.58647  0.98707  1.0000
  O  Te9       1.0  0.87054  0.42355  0.05743  1.0000
  O  Te10      1.0  0.95054  0.45321  0.25915  1.0000
  H   H106      1.0  0.99342  0.61204  0.16292  1.0000
  Mg  Mg5       1.0  0.89607  0.38990  0.18342  1.0000
  C   C129      1.0  0.61827  0.05365  0.12281  1.0000
  C   C130      1.0  0.57234  0.02848  0.19074  1.0000
  C  Sn11      1.0  0.53773  0.04195  0.16010  1.0000
  C  Sn12      1.0  0.54942  0.08134  0.05951  1.0000
  C   C131      1.0  0.59608  0.10660  0.99204  1.0000
  C   C132      1.0  0.62982  0.09250  0.02353  1.0000
  H   H107      1.0  0.64485  0.04298  0.14711  1.0000
  O  Te11      1.0  0.49202  0.01642  0.22898  1.0000
  O  Te12      1.0  0.51551  0.09555  0.02684  1.0000
  H   H108      1.0  0.66599  0.11231  0.97085  1.0000
  Mg  Mg6       1.0  0.45812  0.04951  0.14871  1.0000
  C   C133      1.0  0.46909  0.52196  0.86018  1.0000
  C   C134      1.0  0.45033  0.47257  0.82270  1.0000
  C  Sn13      1.0  0.40309  0.43703  0.86603  1.0000
  C  Sn14      1.0  0.37419  0.45131  0.94836  1.0000
  C   C135      1.0  0.39328  0.50082  0.98521  1.0000
  C   C136      1.0  0.44060  0.53608  0.94133  1.0000
  H   H109      1.0  0.50569  0.54924  0.82616  1.0000
  O  Te13      1.0  0.38492  0.38785  0.82771  1.0000
  O  Te14      1.0  0.32686  0.41655  0.99304  1.0000
  H   H110      1.0  0.45510  0.57432  0.97028  1.0000
  Mg  Mg7       1.0  0.31833  0.35406  0.91405  1.0000
  C   C137      1.0  0.55359  0.91746  0.87481  1.0000
  C   C138      1.0  0.51133  0.89698  0.96263  1.0000
  C  Sn15      1.0  0.48046  0.91620  0.95645  1.0000
  C  Sn16      1.0  0.49221  0.95665  0.86043  1.0000
  C   C139      1.0  0.53455  0.97685  0.77294  1.0000
  C   C140      1.0  0.56519  0.95735  0.78003  1.0000
  H   H111      1.0  0.57729  0.90235  0.88022  1.0000
  O  Te15      1.0  0.43777  0.89497  0.04498  1.0000
  O  Te16      1.0  0.46198  0.97656  0.85203  1.0000
  H   H112      1.0  0.59789  0.97319  0.71196  1.0000
  Mg  Mg8       1.0  0.40874  0.93539  0.99448  1.0000
  C   C141      1.0  0.08487  0.54930  0.85333  1.0000
  C   C142      1.0  0.10917  0.59434  0.92926  1.0000
  C  Sn17      1.0  0.08981  0.62524  0.93048  1.0000
  C  Sn18      1.0  0.04529  0.61067  0.85420  1.0000
  C   C143      1.0  0.02124  0.56553  0.77865  1.0000
  C   C144      1.0  0.04095  0.53490  0.77811  1.0000
  H   H113      1.0  0.10009  0.52559  0.85297  1.0000
  O  Te17      1.0  0.11394  0.66978  0.00685  1.0000
  O  Te18      1.0  0.02512  0.64083  0.85366  1.0000
  H   H114      1.0  0.02211  0.50002  0.71940  1.0000
  Mg  Mg9       1.0  0.07248  0.69851  0.97370  1.0000
  C   C145      1.0  0.44654  0.37136  0.57062  1.0000
  C   C146      1.0  0.49584  0.38983  0.53935  1.0000
  C  Sn19      1.0  0.53168  0.43265  0.61029  1.0000
  C  Sn20      1.0  0.51778  0.45735  0.71446  1.0000
  C   C147      1.0  0.46836  0.43855  0.74506  1.0000
  C   C148      1.0  0.43280  0.39568  0.67339  1.0000
  H   H115      1.0  0.41902  0.33818  0.51525  1.0000
  O  Te19      1.0  0.58077  0.45062  0.57771  1.0000
  O  Te20      1.0  0.55285  0.50020  0.78700  1.0000
  H   H116      1.0  0.39463  0.38137  0.69771  1.0000
  Mg  Mg10      1.0  0.61506  0.51029  0.70524  1.0000
  C   C149      1.0  0.91558  0.46572  0.62357  1.0000
  C   C150      1.0  0.89314  0.48710  0.54450  1.0000
  C  Sn21      1.0  0.91588  0.53822  0.53341  1.0000
  C  Sn22      1.0  0.96197  0.56840  0.60284  1.0000
  C   C151      1.0  0.98414  0.54665  0.68159  1.0000
  C   C152      1.0  0.96104  0.49547  0.69203  1.0000
  H   H117      1.0  0.89773  0.42612  0.63158  1.0000
  O  Te21      1.0  0.89294  0.55897  0.45404  1.0000
  O  Te22      1.0  0.98552  0.61958  0.59347  1.0000
  H   H118      1.0  0.97845  0.47893  0.75317  1.0000
  Mg  Mg11      1.0  0.93958  0.63053  0.47290  1.0000
  C   C153      1.0  0.63356  0.08061  0.58373  1.0000
  C   C154      1.0  0.61061  0.10254  0.51063  1.0000
  C  Sn23      1.0  0.56107  0.08495  0.53434  1.0000
  C  Sn24      1.0  0.53411  0.04467  0.63316  1.0000
  C   C155      1.0  0.55741  0.02301  0.70583  1.0000
  C   C156      1.0  0.60699  0.04089  0.68126  1.0000
  H   H119      1.0  0.67192  0.09445  0.56478  1.0000
  O  Te23      1.0  0.53871  0.10728  0.46036  1.0000
  O  Te24      1.0  0.48456  0.02637  0.65894  1.0000
  H   H120      1.0  0.62476  0.02392  0.73795  1.0000
  Mg  Mg12      1.0  0.47040  0.06912  0.53198  1.0000
