data_image0
_chemical_formula_structural       H96C108N12O12SnCSn2CSnTe4Mg2SnCSn2CSnTe4Mg2SnCSn2CSnTe4Mg2SnCSn2CSnTe4Mg2SnCSn2CSnTe4Mg2SnCSn2CSnTe4Mg2SnCSn2CSnTe4Mg2SnCSn2CSnTe4Mg2SnCSn2CSnTe4Mg2SnCSn2CSnTe4Mg2SnCSn2CSnTe4Mg2SnCSn2CSnTe4Mg2
_chemical_formula_sum              "H96 C132 N12 O12 Sn48 Te48 Mg24"
_cell_length_a       31.8853
_cell_length_b       31.6281
_cell_length_c       8.86209
_cell_angle_alpha    90.0038
_cell_angle_beta     90.0928
_cell_angle_gamma    120.71

_symmetry_space_group_name_H-M    'P1'
_space_group_IT_number       1

loop_
  _space_group_symop_operation_xyz
  'x, y, z'

loop_
  _atom_site_type_symbol
  _atom_site_label
  _atom_site_symmetry_multiplicity
  _atom_site_fract_x
  _atom_site_fract_y
  _atom_site_fract_z
  _atom_site_occupancy
  H   H1        1.0  0.38933  0.58554  0.27515  1.0000
  H   H2        1.0  0.41343  0.79993  0.25162  1.0000
  H   H3        1.0  0.20153  0.61062  0.23906  1.0000
  H   H4        1.0  0.59027  0.39050  0.24489  1.0000
  H   H5        1.0  0.80002  0.41493  0.22764  1.0000
  H   H6        1.0  0.61018  0.19992  0.22028  1.0000
  H   H7        1.0  0.21689  0.54146  0.26350  1.0000
  H   H8        1.0  0.45659  0.67105  0.28826  1.0000
  H   H9        1.0  0.32759  0.78613  0.28799  1.0000
  H   H10       1.0  0.53967  0.21584  0.18762  1.0000
  H   H11       1.0  0.67266  0.45926  0.21404  1.0000
  H   H12       1.0  0.78275  0.33202  0.19686  1.0000
  H   H13       1.0  0.30901  0.48265  0.01355  1.0000
  H   H14       1.0  0.51603  0.81880  0.00450  1.0000
  H   H15       1.0  0.18084  0.69604  0.00254  1.0000
  H   H16       1.0  0.48079  0.30510  0.46919  1.0000
  H   H17       1.0  0.82588  0.52048  0.47381  1.0000
  H   H18       1.0  0.69350  0.18087  0.46876  1.0000
  H   H19       1.0  0.70542  0.34979  0.93509  1.0000
  H   H20       1.0  0.76508  0.36910  0.99171  1.0000
  H   H21       1.0  0.59586  0.23451  0.99290  1.0000
  H   H22       1.0  0.63582  0.29376  0.43236  1.0000
  H   H23       1.0  0.63457  0.40537  0.00666  1.0000
  H   H24       1.0  0.65338  0.36583  0.93932  1.0000
  H   H25       1.0  0.36030  0.65319  0.55251  1.0000
  H   H26       1.0  0.40098  0.63449  0.49785  1.0000
  H   H27       1.0  0.29146  0.63712  0.54074  1.0000
  H   H28       1.0  0.23266  0.59649  0.47350  1.0000
  H   H29       1.0  0.34563  0.70754  0.54762  1.0000
  H   H30       1.0  0.36619  0.76736  0.48420  1.0000
  H   H31       1.0  0.83325  0.28134  0.44844  1.0000
  H   H32       1.0  0.82089  0.32863  0.39617  1.0000
  H   H33       1.0  0.82853  0.29303  0.25255  1.0000
  H   H34       1.0  0.72888  0.56391  0.45617  1.0000
  H   H35       1.0  0.67956  0.50155  0.43140  1.0000
  H   H36       1.0  0.70904  0.53956  0.27020  1.0000
  H   H37       1.0  0.43213  0.16298  0.41058  1.0000
  H   H38       1.0  0.49245  0.17336  0.38620  1.0000
  H   H39       1.0  0.45842  0.17412  0.22549  1.0000
  H   H40       1.0  0.18653  0.41094  0.11144  1.0000
  H   H41       1.0  0.20126  0.44235  0.29049  1.0000
  H   H42       1.0  0.24405  0.42999  0.20081  1.0000
  H   H43       1.0  0.24205  0.79489  0.31865  1.0000
  H   H44       1.0  0.18827  0.75331  0.21524  1.0000
  H   H45       1.0  0.22701  0.81488  0.14703  1.0000
  H   H46       1.0  0.58609  0.76669  0.14206  1.0000
  H   H47       1.0  0.55174  0.75257  0.31467  1.0000
  H   H48       1.0  0.56853  0.80838  0.21593  1.0000
  H   H49       1.0  0.38758  0.58393  0.76791  1.0000
  H   H50       1.0  0.40986  0.79811  0.75845  1.0000
  H   H51       1.0  0.19951  0.60854  0.73358  1.0000
  H   H52       1.0  0.58671  0.38632  0.74573  1.0000
  H   H53       1.0  0.79923  0.41520  0.72757  1.0000
  H   H54       1.0  0.60859  0.19789  0.71641  1.0000
  H   H55       1.0  0.21479  0.53853  0.75818  1.0000
  H   H56       1.0  0.45645  0.67166  0.79201  1.0000
  H   H57       1.0  0.32500  0.78373  0.79332  1.0000
  H   H58       1.0  0.53994  0.21254  0.68946  1.0000
  H   H59       1.0  0.67096  0.45809  0.70572  1.0000
  H   H60       1.0  0.78131  0.33018  0.70519  1.0000
  H   H61       1.0  0.30714  0.48031  0.50791  1.0000
  H   H62       1.0  0.51119  0.81711  0.50394  1.0000
  H   H63       1.0  0.17905  0.69546  0.50428  1.0000
  H   H64       1.0  0.47781  0.29948  0.96891  1.0000
  H   H65       1.0  0.82547  0.52267  0.96371  1.0000
  H   H66       1.0  0.69040  0.17757  0.96831  1.0000
  H   H67       1.0  0.70585  0.34813  0.43580  1.0000
  H   H68       1.0  0.76495  0.36747  0.49909  1.0000
  H   H69       1.0  0.59591  0.23319  0.48824  1.0000
  H   H70       1.0  0.63606  0.29432  0.93083  1.0000
  H   H71       1.0  0.63168  0.40179  0.50823  1.0000
  H   H72       1.0  0.65131  0.36283  0.44102  1.0000
  H   H73       1.0  0.35735  0.64961  0.04940  1.0000
  H   H74       1.0  0.39861  0.63178  0.99324  1.0000
  H   H75       1.0  0.28750  0.63268  0.03900  1.0000
  H   H76       1.0  0.22945  0.59267  0.96635  1.0000
  H   H77       1.0  0.34220  0.70346  0.04976  1.0000
  H   H78       1.0  0.36269  0.76373  0.99190  1.0000
  H   H79       1.0  0.82616  0.29470  0.76164  1.0000
  H   H80       1.0  0.83025  0.27623  0.94962  1.0000
  H   H81       1.0  0.81736  0.32468  0.92018  1.0000
  H   H82       1.0  0.72687  0.56489  0.93813  1.0000
  H   H83       1.0  0.67847  0.50203  0.91934  1.0000
  H   H84       1.0  0.70611  0.53879  0.75447  1.0000
  H   H85       1.0  0.42986  0.15791  0.90422  1.0000
  H   H86       1.0  0.48967  0.16732  0.87324  1.0000
  H   H87       1.0  0.45528  0.17059  0.71779  1.0000
  H   H88       1.0  0.18512  0.40804  0.60800  1.0000
  H   H89       1.0  0.19625  0.44065  0.78393  1.0000
  H   H90       1.0  0.24086  0.42807  0.70946  1.0000
  H   H91       1.0  0.24502  0.79794  0.81711  1.0000
  H   H92       1.0  0.18948  0.75602  0.72123  1.0000
  H   H93       1.0  0.22905  0.81610  0.64385  1.0000
  H   H94       1.0  0.58671  0.77674  0.63225  1.0000
  H   H95       1.0  0.55586  0.76418  0.81166  1.0000
  H   H96       1.0  0.56456  0.81524  0.69970  1.0000
  C   C1        1.0  0.33651  0.51295  0.08287  1.0000
  C   C2        1.0  0.48699  0.81790  0.07341  1.0000
  C   C3        1.0  0.18343  0.66733  0.06410  1.0000
  C   C4        1.0  0.51487  0.33375  0.41813  1.0000
  C   C5        1.0  0.82008  0.48746  0.41463  1.0000
  C   C6        1.0  0.66518  0.18241  0.40300  1.0000
  C   C7        1.0  0.31913  0.53795  0.17965  1.0000
  C   C8        1.0  0.46108  0.77607  0.17455  1.0000
  C   C9        1.0  0.22468  0.68340  0.16608  1.0000
  C   C10       1.0  0.53956  0.31779  0.31509  1.0000
  C   C11       1.0  0.77781  0.46275  0.31565  1.0000
  C   C12       1.0  0.68153  0.22454  0.30335  1.0000
  C   C13       1.0  0.26982  0.52504  0.18082  1.0000
  C   C14       1.0  0.47356  0.73949  0.18864  1.0000
  C   C15       1.0  0.26001  0.73341  0.18522  1.0000
  C   C16       1.0  0.52413  0.26756  0.29445  1.0000
  C   C17       1.0  0.74214  0.47669  0.30796  1.0000
  C   C18       1.0  0.73135  0.26183  0.29379  1.0000
  C   C19       1.0  0.25525  0.55243  0.26506  1.0000
  C   C20       1.0  0.44610  0.69876  0.28040  1.0000
  C   C21       1.0  0.30070  0.74720  0.27604  1.0000
  C   C22       1.0  0.55081  0.25430  0.20114  1.0000
  C   C23       1.0  0.70079  0.44963  0.21810  1.0000
  C   C24       1.0  0.74478  0.30296  0.20362  1.0000
  C   C25       1.0  0.28860  0.59293  0.35199  1.0000
  C   C26       1.0  0.40587  0.69298  0.36248  1.0000
  C   C27       1.0  0.30707  0.71219  0.35389  1.0000
  C   C28       1.0  0.59247  0.28968  0.12341  1.0000
  C   C29       1.0  0.69405  0.40937  0.13163  1.0000
  C   C30       1.0  0.71027  0.30859  0.12109  1.0000
  C   C31       1.0  0.33770  0.60473  0.35822  1.0000
  C   C32       1.0  0.39409  0.73039  0.35472  1.0000
  C   C33       1.0  0.27013  0.66207  0.34414  1.0000
  C   C34       1.0  0.60632  0.33965  0.13487  1.0000
  C   C35       1.0  0.73055  0.39680  0.13184  1.0000
  C   C36       1.0  0.66080  0.27083  0.12438  1.0000
  C   C37       1.0  0.35174  0.57719  0.27230  1.0000
  C   C38       1.0  0.42160  0.77057  0.26071  1.0000
  C   C39       1.0  0.23045  0.64890  0.24928  1.0000
  C   C40       1.0  0.58002  0.35222  0.23180  1.0000
  C   C41       1.0  0.77112  0.42358  0.22434  1.0000
  C   C42       1.0  0.64792  0.22996  0.21525  1.0000
  C   C43       1.0  0.72813  0.35604  0.03470  1.0000
  C   C44       1.0  0.62098  0.27209  0.03279  1.0000
  C   C45       1.0  0.64718  0.38051  0.04318  1.0000
  C   C46       1.0  0.37646  0.64637  0.45355  1.0000
  C   C47       1.0  0.27035  0.62180  0.43715  1.0000
  C   C48       1.0  0.35321  0.72967  0.44537  1.0000
  C   C49       1.0  0.81442  0.29195  0.36670  1.0000
  C   C50       1.0  0.71461  0.53084  0.38605  1.0000
  C   C51       1.0  0.46596  0.18335  0.34595  1.0000
  C   C52       1.0  0.21579  0.43957  0.18072  1.0000
  C   C53       1.0  0.22626  0.78384  0.20481  1.0000
  C   C54       1.0  0.55751  0.76942  0.20218  1.0000
  C   C55       1.0  0.33463  0.51024  0.57839  1.0000
  C   C56       1.0  0.48319  0.81681  0.57655  1.0000
  C   C57       1.0  0.18206  0.66624  0.56096  1.0000
  C   C58       1.0  0.51159  0.32849  0.91733  1.0000
  C   C59       1.0  0.81922  0.48896  0.90802  1.0000
  C   C60       1.0  0.66243  0.17989  0.90301  1.0000
  C   C61       1.0  0.31742  0.53576  0.67372  1.0000
  C   C62       1.0  0.45824  0.77541  0.67942  1.0000
  C   C63       1.0  0.22288  0.68176  0.66430  1.0000
  C   C64       1.0  0.53713  0.31318  0.81548  1.0000
  C   C65       1.0  0.77692  0.46364  0.80920  1.0000
  C   C66       1.0  0.67937  0.22213  0.80389  1.0000
  C   C67       1.0  0.26804  0.52251  0.67530  1.0000
  C   C68       1.0  0.47196  0.73975  0.69321  1.0000
  C   C69       1.0  0.25819  0.73167  0.68659  1.0000
  C   C70       1.0  0.52258  0.26317  0.79500  1.0000
  C   C71       1.0  0.74109  0.47724  0.79812  1.0000
  C   C72       1.0  0.72919  0.25947  0.79750  1.0000
  C   C73       1.0  0.25324  0.54979  0.75918  1.0000
  C   C74       1.0  0.44490  0.69853  0.78345  1.0000
  C   C75       1.0  0.29824  0.74484  0.77967  1.0000
  C   C76       1.0  0.55003  0.25074  0.70232  1.0000
  C   C77       1.0  0.69920  0.44863  0.71192  1.0000
  C   C78       1.0  0.74328  0.30113  0.70925  1.0000
  C   C79       1.0  0.28634  0.59034  0.84652  1.0000
  C   C80       1.0  0.40378  0.69138  0.86357  1.0000
  C   C81       1.0  0.30419  0.70946  0.85669  1.0000
  C   C82       1.0  0.59128  0.28672  0.62448  1.0000
  C   C83       1.0  0.69225  0.40738  0.63081  1.0000
  C   C84       1.0  0.70927  0.30699  0.62452  1.0000
  C   C85       1.0  0.33565  0.60262  0.85214  1.0000
  C   C86       1.0  0.39138  0.72837  0.85838  1.0000
  C   C87       1.0  0.26739  0.65939  0.84333  1.0000
  C   C88       1.0  0.60453  0.33648  0.63689  1.0000
  C   C89       1.0  0.72925  0.39544  0.63231  1.0000
  C   C90       1.0  0.65989  0.26906  0.62441  1.0000
  C   C91       1.0  0.34993  0.57538  0.76536  1.0000
  C   C92       1.0  0.41867  0.76917  0.76642  1.0000
  C   C93       1.0  0.22822  0.64681  0.74668  1.0000
  C   C94       1.0  0.57757  0.34831  0.73340  1.0000
  C   C95       1.0  0.77011  0.42352  0.72248  1.0000
  C   C96       1.0  0.64638  0.22785  0.71399  1.0000
  C   C97       1.0  0.72759  0.35447  0.53798  1.0000
  C   C98       1.0  0.62039  0.27042  0.53192  1.0000
  C   C99       1.0  0.64503  0.37754  0.54470  1.0000
  C   C100      1.0  0.37409  0.64381  0.94999  1.0000
  C   C101      1.0  0.26737  0.61841  0.93321  1.0000
  C   C102      1.0  0.35000  0.72647  0.94950  1.0000
  C   C103      1.0  0.81151  0.28943  0.87688  1.0000
  C   C104      1.0  0.71286  0.53134  0.87052  1.0000
  C   C105      1.0  0.46350  0.17844  0.83872  1.0000
  C   C106      1.0  0.21292  0.43726  0.67946  1.0000
  C   C107      1.0  0.22776  0.78541  0.70558  1.0000
  C   C108      1.0  0.55744  0.77730  0.69553  1.0000
  N   N1        1.0  0.53378  0.37995  0.45029  1.0000
  N   N2        1.0  0.61919  0.14991  0.41561  1.0000
  N   N3        1.0  0.84828  0.46959  0.43486  1.0000
  N   N4        1.0  0.38258  0.52819  0.07486  1.0000
  N   N5        1.0  0.15297  0.62100  0.04309  1.0000
  N   N6        1.0  0.47401  0.85046  0.06403  1.0000
  N   N7        1.0  0.52961  0.37462  0.94796  1.0000
  N   N8        1.0  0.61629  0.14808  0.91626  1.0000
  N   N9        1.0  0.84670  0.47048  0.93231  1.0000
  N   N10       1.0  0.38042  0.52418  0.57299  1.0000
  N   N11       1.0  0.15229  0.62004  0.53508  1.0000
  N   N12       1.0  0.47045  0.84959  0.56882  1.0000
  O   O1        1.0  0.75082  0.51698  0.39175  1.0000
  O   O2        1.0  0.76387  0.25497  0.37721  1.0000
  O   O3        1.0  0.48289  0.23422  0.37114  1.0000
  O   O4        1.0  0.51382  0.74382  0.11197  1.0000
  O   O5        1.0  0.25443  0.76955  0.11360  1.0000
  O   O6        1.0  0.23505  0.48489  0.09733  1.0000
  O   O7        1.0  0.75004  0.51877  0.87504  1.0000
  O   O8        1.0  0.76112  0.25193  0.88133  1.0000
  O   O9        1.0  0.48137  0.22918  0.87101  1.0000
  O   O10       1.0  0.51263  0.74528  0.61618  1.0000
  O   O11       1.0  0.25382  0.76850  0.61473  1.0000
  O   O12       1.0  0.23357  0.48193  0.59261  1.0000
  C  Sn1       1.0  0.44454  0.52740  0.36463  1.0000
  C   C109      1.0  0.40000  0.50494  0.44111  1.0000
  C  Sn2       1.0  0.37349  0.45397  0.46043  1.0000
  C  Sn3       1.0  0.39189  0.42484  0.40217  1.0000
  C   C110      1.0  0.43640  0.44731  0.32577  1.0000
  C  Sn4       1.0  0.46293  0.49828  0.30637  1.0000
  O  Te1       1.0  0.47042  0.57842  0.34664  1.0000
  O  Te2       1.0  0.32905  0.43234  0.53724  1.0000
  O  Te3       1.0  0.36596  0.37379  0.42023  1.0000
  O  Te4       1.0  0.50735  0.51991  0.22964  1.0000
  Mg  Mg1       1.0  0.30724  0.36144  0.53308  1.0000
  Mg  Mg2       1.0  0.52921  0.59080  0.23380  1.0000
  C  Sn5       1.0  0.46494  0.91654  0.38916  1.0000
  C   C111      1.0  0.48479  0.88781  0.43149  1.0000
  C  Sn6       1.0  0.53460  0.90565  0.41379  1.0000
  C  Sn7       1.0  0.56523  0.95321  0.35258  1.0000
  C   C112      1.0  0.54538  0.98191  0.31032  1.0000
  C  Sn8       1.0  0.49556  0.96409  0.32796  1.0000
  O  Te5       1.0  0.41504  0.89796  0.40788  1.0000
  O  Te6       1.0  0.55360  0.87625  0.45688  1.0000
  O  Te7       1.0  0.61516  0.97177  0.33388  1.0000
  O  Te8       1.0  0.47656  0.99347  0.28493  1.0000
  Mg  Mg3       1.0  0.62387  0.91784  0.40938  1.0000
  Mg  Mg4       1.0  0.40631  0.95193  0.33245  1.0000
  C  Sn9       1.0  0.05111  0.53339  0.33810  1.0000
  C   C113      1.0  0.02245  0.55412  0.30684  1.0000
  C  Sn10      1.0  0.04014  0.60381  0.33654  1.0000
  C  Sn11      1.0  0.08748  0.63341  0.39870  1.0000
  C   C114      1.0  0.11611  0.61267  0.42989  1.0000
  C  Sn12      1.0  0.09845  0.56298  0.40025  1.0000
  O  Te9       1.0  0.03269  0.48363  0.30748  1.0000
  O  Te10      1.0  0.01081  0.62371  0.30439  1.0000
  O  Te11      1.0  0.10588  0.68320  0.42930  1.0000
  O  Te12      1.0  0.12775  0.54309  0.43234  1.0000
  Mg  Mg5       1.0  0.05212  0.69337  0.36592  1.0000
  Mg  Mg6       1.0  0.08649  0.47344  0.37079  1.0000
  C  Sn13      1.0  0.53025  0.43135  0.18079  1.0000
  C   C115      1.0  0.50802  0.39089  0.08361  1.0000
  C  Sn14      1.0  0.45929  0.37094  0.04099  1.0000
  C  Sn15      1.0  0.43223  0.39189  0.09658  1.0000
  C   C116      1.0  0.45446  0.43233  0.19368  1.0000
  C  Sn16      1.0  0.50318  0.45230  0.23638  1.0000
  O  Te13      1.0  0.57900  0.45069  0.22190  1.0000
  O  Te14      1.0  0.43848  0.33082  0.94374  1.0000
  O  Te15      1.0  0.38344  0.37251  0.05538  1.0000
  O  Te16      1.0  0.52462  0.49274  0.33354  1.0000
  Mg  Mg7       1.0  0.37106  0.31760  0.92027  1.0000
  Mg  Mg8       1.0  0.59204  0.50601  0.35702  1.0000
  C  Sn17      1.0  0.93580  0.55459  0.00490  1.0000
  C   C117      1.0  0.90191  0.50485  0.99169  1.0000
  C  Sn18      1.0  0.90131  0.47075  0.09326  1.0000
  C  Sn19      1.0  0.93654  0.48739  0.21054  1.0000
  C   C118      1.0  0.97102  0.53745  0.22373  1.0000
  C  Sn20      1.0  0.97103  0.57124  0.12219  1.0000
  O  Te17      1.0  0.93572  0.58803  0.90211  1.0000
  O  Te18      1.0  0.86645  0.42086  0.07773  1.0000
  O  Te19      1.0  0.93722  0.45424  0.31337  1.0000
  O  Te20      1.0  0.00586  0.62110  0.13769  1.0000
  Mg  Mg9       1.0  0.88227  0.39002  0.24563  1.0000
  Mg  Mg10      1.0  0.99068  0.65231  0.96991  1.0000
  C  Sn21      1.0  0.52840  0.04242  0.09036  1.0000
  C   C119      1.0  0.55085  0.01793  0.14957  1.0000
  C  Sn22      1.0  0.60165  0.04068  0.15157  1.0000
  C  Sn23      1.0  0.63063  0.08894  0.09326  1.0000
  C   C120      1.0  0.60818  0.11342  0.03412  1.0000
  C  Sn24      1.0  0.55738  0.09068  0.03205  1.0000
  O  Te21      1.0  0.47756  0.01897  0.08952  1.0000
  O  Te22      1.0  0.62326  0.01545  0.21130  1.0000
  O  Te23      1.0  0.68151  0.11239  0.09415  1.0000
  O  Te24      1.0  0.53639  0.11623  0.97239  1.0000
  Mg  Mg11      1.0  0.69390  0.06293  0.18747  1.0000
  Mg  Mg12      1.0  0.46576  0.06880  0.99624  1.0000
  C  Sn25      1.0  0.38164  0.43614  0.84642  1.0000
  C   C121      1.0  0.42884  0.45851  0.78757  1.0000
  C  Sn26      1.0  0.46490  0.50478  0.83905  1.0000
  C  Sn27      1.0  0.45356  0.52919  0.95178  1.0000
  C   C122      1.0  0.40576  0.50649  0.01058  1.0000
  C  Sn28      1.0  0.37029  0.46056  0.95915  1.0000
  O  Te25      1.0  0.34616  0.38987  0.79329  1.0000
  O  Te26      1.0  0.51183  0.52640  0.77848  1.0000
  O  Te27      1.0  0.48846  0.57516  0.00489  1.0000
  O  Te28      1.0  0.32277  0.43859  0.01968  1.0000
  Mg  Mg13      1.0  0.54766  0.58985  0.88750  1.0000
  Mg  Mg14      1.0  0.28754  0.37548  0.91080  1.0000
  C  Sn29      1.0  0.55780  0.92648  0.91769  1.0000
  C   C123      1.0  0.51291  0.90368  0.99216  1.0000
  C  Sn30      1.0  0.47716  0.91481  0.95317  1.0000
  C  Sn31      1.0  0.48645  0.94943  0.83726  1.0000
  C   C124      1.0  0.53132  0.97221  0.76284  1.0000
  C  Sn32      1.0  0.56709  0.96110  0.80178  1.0000
  O  Te29      1.0  0.59300  0.91479  0.95851  1.0000
  O  Te30      1.0  0.43195  0.89122  0.02927  1.0000
  O  Te31      1.0  0.45120  0.96111  0.79648  1.0000
  O  Te32      1.0  0.61166  0.98433  0.72574  1.0000
  Mg  Mg15      1.0  0.39617  0.91970  0.93299  1.0000
  Mg  Mg16      1.0  0.64807  0.95620  0.82186  1.0000
  C  Sn33      1.0  0.06930  0.62166  0.95310  1.0000
  C   C125      1.0  0.10039  0.60320  0.97550  1.0000
  C  Sn34      1.0  0.09765  0.56652  0.88102  1.0000
  C  Sn35      1.0  0.06315  0.54791  0.76160  1.0000
  C   C126      1.0  0.03210  0.56637  0.73923  1.0000
  C  Sn36      1.0  0.03480  0.60306  0.83367  1.0000
  O  Te33      1.0  0.07206  0.65800  0.04892  1.0000
  O  Te34      1.0  0.12910  0.54863  0.90568  1.0000
  O  Te35      1.0  0.05980  0.51120  0.66576  1.0000
  O  Te36      1.0  0.00338  0.62095  0.80905  1.0000
  Mg  Mg17      1.0  0.11053  0.49867  0.74487  1.0000
  Mg  Mg18      1.0  0.02194  0.67092  0.96973  1.0000
  C  Sn37      1.0  0.53611  0.43824  0.68062  1.0000
  C   C127      1.0  0.51312  0.39718  0.58597  1.0000
  C  Sn38      1.0  0.46398  0.37675  0.54778  1.0000
  C  Sn39      1.0  0.43726  0.39783  0.60532  1.0000
  C   C128      1.0  0.46024  0.43887  0.69989  1.0000
  C  Sn40      1.0  0.50938  0.45931  0.73816  1.0000
  O  Te37      1.0  0.58526  0.45805  0.71731  1.0000
  O  Te38      1.0  0.44179  0.33569  0.45300  1.0000
  O  Te39      1.0  0.38806  0.37797  0.56855  1.0000
  O  Te40      1.0  0.53157  0.50035  0.83286  1.0000
  Mg  Mg19      1.0  0.37405  0.32198  0.43544  1.0000
  Mg  Mg20      1.0  0.59931  0.51411  0.85043  1.0000
  C  Sn41      1.0  0.93672  0.55419  0.50723  1.0000
  C   C129      1.0  0.90255  0.50399  0.49457  1.0000
  C  Sn42      1.0  0.90343  0.47046  0.59518  1.0000
  C  Sn43      1.0  0.93920  0.48745  0.71092  1.0000
  C   C130      1.0  0.97334  0.53762  0.72355  1.0000
  C  Sn44      1.0  0.97249  0.57118  0.62297  1.0000
  O  Te41      1.0  0.93515  0.58705  0.40541  1.0000
  O  Te42      1.0  0.86890  0.42045  0.58025  1.0000
  O  Te43      1.0  0.94074  0.45453  0.81277  1.0000
  O  Te44      1.0  0.00698  0.62116  0.63788  1.0000
  Mg  Mg21      1.0  0.88594  0.39002  0.74636  1.0000
  Mg  Mg22      1.0  0.98996  0.65162  0.47188  1.0000
  C  Sn45      1.0  0.62229  0.06468  0.66634  1.0000
  C   C131      1.0  0.57412  0.03587  0.71567  1.0000
  C  Sn46      1.0  0.53693  0.04017  0.64757  1.0000
  C  Sn47      1.0  0.54811  0.07395  0.52758  1.0000
  C   C132      1.0  0.59625  0.10273  0.47828  1.0000
  C  Sn48      1.0  0.63346  0.09846  0.54635  1.0000
  O  Te45      1.0  0.65888  0.05977  0.73606  1.0000
  O  Te46      1.0  0.48905  0.01099  0.69888  1.0000
  O  Te47      1.0  0.51146  0.07885  0.45786  1.0000
  O  Te48      1.0  0.68131  0.12762  0.49508  1.0000
  Mg  Mg23      1.0  0.45187  0.03101  0.56773  1.0000
  Mg  Mg24      1.0  0.71852  0.10761  0.62608  1.0000
