data_image0
_chemical_formula_structural       H96C108N12O12SnCSn2CSnTe4Mg2SnCSn2CSnTe4Mg2SnCSn2CSnTe4Mg2SnCSn2CSnTe4Mg2SnCSn2CSnTe4Mg2SnCSn2CSnTe4Mg2
_chemical_formula_sum              "H96 C120 N12 O12 Sn24 Te24 Mg12"
_cell_length_a       22.6341
_cell_length_b       22.1455
_cell_length_c       9.61912
_cell_angle_alpha    90.1225
_cell_angle_beta     90.1639
_cell_angle_gamma    120.588

_symmetry_space_group_name_H-M    'P1'
_space_group_IT_number       1

loop_
  _space_group_symop_operation_xyz
  'x, y, z'

loop_
  _atom_site_type_symbol
  _atom_site_label
  _atom_site_symmetry_multiplicity
  _atom_site_fract_x
  _atom_site_fract_y
  _atom_site_fract_z
  _atom_site_occupancy
  H   H1        1.0  0.49851  0.15556  0.03327  1.0000
  H   H2        1.0  0.84084  0.34607  0.03697  1.0000
  H   H3        1.0  0.65976  0.50256  0.03983  1.0000
  H   H4        1.0  0.15470  0.50165  0.45026  1.0000
  H   H5        1.0  0.34970  0.84741  0.45684  1.0000
  H   H6        1.0  0.49427  0.65241  0.48780  1.0000
  H   H7        1.0  0.55503  0.40106  0.08428  1.0000
  H   H8        1.0  0.60158  0.15230  0.08233  1.0000
  H   H9        1.0  0.84740  0.45214  0.08235  1.0000
  H   H10       1.0  0.39158  0.54692  0.43096  1.0000
  H   H11       1.0  0.15164  0.60729  0.41100  1.0000
  H   H12       1.0  0.44990  0.84581  0.41275  1.0000
  H   H13       1.0  0.42355  0.27373  0.33118  1.0000
  H   H14       1.0  0.72414  0.14690  0.33407  1.0000
  H   H15       1.0  0.86035  0.58786  0.32794  1.0000
  H   H16       1.0  0.27032  0.41845  0.16844  1.0000
  H   H17       1.0  0.15113  0.73385  0.15888  1.0000
  H   H18       1.0  0.58265  0.85080  0.18035  1.0000
  H   H19       1.0  0.60384  0.41889  0.35654  1.0000
  H   H20       1.0  0.63817  0.36841  0.29677  1.0000
  H   H21       1.0  0.57688  0.18539  0.35528  1.0000
  H   H22       1.0  0.62534  0.27152  0.29411  1.0000
  H   H23       1.0  0.72080  0.35855  0.29059  1.0000
  H   H24       1.0  0.80615  0.39488  0.34583  1.0000
  H   H25       1.0  0.36526  0.64046  0.21525  1.0000
  H   H26       1.0  0.41426  0.60377  0.16229  1.0000
  H   H27       1.0  0.27140  0.62902  0.20784  1.0000
  H   H28       1.0  0.18750  0.57839  0.14392  1.0000
  H   H29       1.0  0.39412  0.81235  0.15129  1.0000
  H   H30       1.0  0.35625  0.72594  0.21053  1.0000
  H   H31       1.0  0.31734  0.10213  0.19363  1.0000
  H   H32       1.0  0.35909  0.13447  0.02898  1.0000
  H   H33       1.0  0.34220  0.18941  0.13873  1.0000
  H   H34       1.0  0.91801  0.29418  0.29690  1.0000
  H   H35       1.0  0.89044  0.35386  0.24485  1.0000
  H   H36       1.0  0.91250  0.31003  0.11596  1.0000
  H   H37       1.0  0.72523  0.65016  0.26756  1.0000
  H   H38       1.0  0.65971  0.56047  0.23691  1.0000
  H   H39       1.0  0.70475  0.61678  0.09332  1.0000
  H   H40       1.0  0.09978  0.31554  0.27166  1.0000
  H   H41       1.0  0.11697  0.35328  0.44335  1.0000
  H   H42       1.0  0.17814  0.33690  0.35989  1.0000
  H   H43       1.0  0.63735  0.70850  0.26303  1.0000
  H   H44       1.0  0.54889  0.64494  0.29752  1.0000
  H   H45       1.0  0.60565  0.69447  0.43754  1.0000
  H   H46       1.0  0.30471  0.93169  0.20011  1.0000
  H   H47       1.0  0.36017  0.89996  0.25292  1.0000
  H   H48       1.0  0.31852  0.92409  0.38125  1.0000
  H   H49       1.0  0.49668  0.15299  0.54387  1.0000
  H   H50       1.0  0.83920  0.34841  0.53022  1.0000
  H   H51       1.0  0.65136  0.49750  0.54954  1.0000
  H   H52       1.0  0.15827  0.49972  0.94714  1.0000
  H   H53       1.0  0.34948  0.84537  0.96201  1.0000
  H   H54       1.0  0.49660  0.65223  0.98225  1.0000
  H   H55       1.0  0.54889  0.39732  0.58995  1.0000
  H   H56       1.0  0.60231  0.15157  0.58574  1.0000
  H   H57       1.0  0.84559  0.45634  0.57566  1.0000
  H   H58       1.0  0.39603  0.54745  0.92838  1.0000
  H   H59       1.0  0.15261  0.60438  0.91797  1.0000
  H   H60       1.0  0.44990  0.84455  0.91403  1.0000
  H   H61       1.0  0.41999  0.27035  0.84102  1.0000
  H   H62       1.0  0.72818  0.14643  0.82696  1.0000
  H   H63       1.0  0.85376  0.58568  0.83366  1.0000
  H   H64       1.0  0.27600  0.41930  0.66443  1.0000
  H   H65       1.0  0.15033  0.73091  0.66789  1.0000
  H   H66       1.0  0.58117  0.85060  0.67578  1.0000
  H   H67       1.0  0.61076  0.42263  0.85185  1.0000
  H   H68       1.0  0.64426  0.37151  0.79158  1.0000
  H   H69       1.0  0.58011  0.18801  0.84686  1.0000
  H   H70       1.0  0.63108  0.27458  0.78975  1.0000
  H   H71       1.0  0.72668  0.35917  0.78915  1.0000
  H   H72       1.0  0.81103  0.39408  0.84872  1.0000
  H   H73       1.0  0.36251  0.64213  0.71607  1.0000
  H   H74       1.0  0.41058  0.60429  0.66396  1.0000
  H   H75       1.0  0.26886  0.63267  0.70612  1.0000
  H   H76       1.0  0.18485  0.58232  0.64250  1.0000
  H   H77       1.0  0.39275  0.81437  0.64835  1.0000
  H   H78       1.0  0.35398  0.72816  0.70886  1.0000
  H   H79       1.0  0.34944  0.12213  0.55769  1.0000
  H   H80       1.0  0.34151  0.18714  0.65334  1.0000
  H   H81       1.0  0.31552  0.10372  0.73124  1.0000
  H   H82       1.0  0.92382  0.29286  0.76472  1.0000
  H   H83       1.0  0.89748  0.35474  0.72270  1.0000
  H   H84       1.0  0.91114  0.30763  0.58683  1.0000
  H   H85       1.0  0.70223  0.62617  0.81615  1.0000
  H   H86       1.0  0.64427  0.53947  0.75145  1.0000
  H   H87       1.0  0.69026  0.61075  0.63240  1.0000
  H   H88       1.0  0.10916  0.31521  0.75549  1.0000
  H   H89       1.0  0.12443  0.34835  0.93068  1.0000
  H   H90       1.0  0.18841  0.33837  0.84185  1.0000
  H   H91       1.0  0.63742  0.70950  0.74955  1.0000
  H   H92       1.0  0.55015  0.64553  0.79134  1.0000
  H   H93       1.0  0.60961  0.69641  0.92695  1.0000
  H   H94       1.0  0.30202  0.92729  0.70118  1.0000
  H   H95       1.0  0.35778  0.89560  0.75192  1.0000
  H   H96       1.0  0.31891  0.92234  0.88174  1.0000
  C   C1        1.0  0.47484  0.22622  0.13574  1.0000
  C   C2        1.0  0.77245  0.24928  0.14125  1.0000
  C   C3        1.0  0.75604  0.53172  0.13970  1.0000
  C   C4        1.0  0.22263  0.47283  0.35837  1.0000
  C   C5        1.0  0.25369  0.78082  0.35159  1.0000
  C   C6        1.0  0.52500  0.74847  0.37667  1.0000
  C   C7        1.0  0.51214  0.21008  0.04370  1.0000
  C   C8        1.0  0.78830  0.30315  0.04698  1.0000
  C   C9        1.0  0.70149  0.49203  0.04894  1.0000
  C   C10       1.0  0.20723  0.51235  0.44758  1.0000
  C   C11       1.0  0.30590  0.79464  0.44647  1.0000
  C   C12       1.0  0.48494  0.69529  0.47067  1.0000
  C   C13       1.0  0.56268  0.25960  0.47348  1.0000
  C   C14       1.0  0.73466  0.30559  0.46599  1.0000
  C   C15       1.0  0.69256  0.43565  0.47213  1.0000
  C   C16       1.0  0.26105  0.56435  0.02966  1.0000
  C   C17       1.0  0.30574  0.73920  0.03175  1.0000
  C   C18       1.0  0.43310  0.69379  0.04226  1.0000
  C   C19       1.0  0.57521  0.32895  0.48140  1.0000
  C   C20       1.0  0.66707  0.24812  0.47598  1.0000
  C   C21       1.0  0.74878  0.42489  0.47441  1.0000
  C   C22       1.0  0.32835  0.57552  0.02940  1.0000
  C   C23       1.0  0.24874  0.67043  0.02398  1.0000
  C   C24       1.0  0.42130  0.75015  0.02945  1.0000
  C   C25       1.0  0.54392  0.34750  0.07122  1.0000
  C   C26       1.0  0.65396  0.19552  0.07000  1.0000
  C   C27       1.0  0.80551  0.46237  0.07045  1.0000
  C   C28       1.0  0.33974  0.53780  0.43789  1.0000
  C   C29       1.0  0.19592  0.65979  0.42313  1.0000
  C   C30       1.0  0.45862  0.80256  0.43124  1.0000
  C   C31       1.0  0.49216  0.29644  0.15583  1.0000
  C   C32       1.0  0.70336  0.19495  0.15753  1.0000
  C   C33       1.0  0.80797  0.51459  0.15714  1.0000
  C   C34       1.0  0.29066  0.48705  0.34722  1.0000
  C   C35       1.0  0.19789  0.71132  0.33528  1.0000
  C   C36       1.0  0.51004  0.80226  0.35074  1.0000
  C   C37       1.0  0.46078  0.31624  0.26463  1.0000
  C   C38       1.0  0.68315  0.14259  0.26615  1.0000
  C   C39       1.0  0.86043  0.54666  0.26468  1.0000
  C   C40       1.0  0.31097  0.45496  0.23966  1.0000
  C   C41       1.0  0.14609  0.69181  0.22693  1.0000
  C   C42       1.0  0.54328  0.85384  0.24102  1.0000
  C   C43       1.0  0.75311  0.37093  0.38341  1.0000
  C   C44       1.0  0.60714  0.24041  0.38925  1.0000
  C   C45       1.0  0.62752  0.38873  0.39120  1.0000
  C   C46       1.0  0.36913  0.75751  0.11604  1.0000
  C   C47       1.0  0.38587  0.62842  0.12348  1.0000
  C   C48       1.0  0.24139  0.60982  0.11177  1.0000
  C   C49       1.0  0.35618  0.14847  0.13766  1.0000
  C   C50       1.0  0.88913  0.30475  0.21875  1.0000
  C   C51       1.0  0.70959  0.60396  0.20175  1.0000
  C   C52       1.0  0.13985  0.35284  0.34271  1.0000
  C   C53       1.0  0.59286  0.69631  0.32773  1.0000
  C   C54       1.0  0.31296  0.90053  0.27762  1.0000
  C   C55       1.0  0.47178  0.22298  0.64579  1.0000
  C   C56       1.0  0.77370  0.25047  0.63430  1.0000
  C   C57       1.0  0.74793  0.52746  0.64909  1.0000
  C   C58       1.0  0.22719  0.47263  0.85383  1.0000
  C   C59       1.0  0.25317  0.77812  0.85835  1.0000
  C   C60       1.0  0.52597  0.74838  0.87287  1.0000
  C   C61       1.0  0.50920  0.20724  0.55311  1.0000
  C   C62       1.0  0.78719  0.30471  0.54253  1.0000
  C   C63       1.0  0.69420  0.48856  0.55604  1.0000
  C   C64       1.0  0.21102  0.51111  0.94436  1.0000
  C   C65       1.0  0.30607  0.79235  0.95163  1.0000
  C   C66       1.0  0.48688  0.69500  0.96716  1.0000
  C   C67       1.0  0.56663  0.26230  0.96608  1.0000
  C   C68       1.0  0.73734  0.30468  0.96593  1.0000
  C   C69       1.0  0.69832  0.43734  0.96860  1.0000
  C   C70       1.0  0.25778  0.56604  0.53112  1.0000
  C   C71       1.0  0.30451  0.74144  0.52810  1.0000
  C   C72       1.0  0.43075  0.69448  0.54330  1.0000
  C   C73       1.0  0.58029  0.33198  0.97521  1.0000
  C   C74       1.0  0.66914  0.24823  0.97329  1.0000
  C   C75       1.0  0.75316  0.42446  0.97425  1.0000
  C   C76       1.0  0.32484  0.57651  0.53101  1.0000
  C   C77       1.0  0.24709  0.67296  0.52002  1.0000
  C   C78       1.0  0.41970  0.75128  0.52895  1.0000
  C   C79       1.0  0.53867  0.34402  0.57797  1.0000
  C   C80       1.0  0.65415  0.19559  0.57157  1.0000
  C   C81       1.0  0.80202  0.46420  0.56823  1.0000
  C   C82       1.0  0.34403  0.53791  0.93504  1.0000
  C   C83       1.0  0.19675  0.65700  0.92924  1.0000
  C   C84       1.0  0.45926  0.80165  0.93144  1.0000
  C   C85       1.0  0.48801  0.29299  0.66445  1.0000
  C   C86       1.0  0.70515  0.19563  0.65496  1.0000
  C   C87       1.0  0.80270  0.51409  0.65942  1.0000
  C   C88       1.0  0.29549  0.48759  0.84319  1.0000
  C   C89       1.0  0.19781  0.70842  0.84250  1.0000
  C   C90       1.0  0.51030  0.80178  0.84894  1.0000
  C   C91       1.0  0.45673  0.31278  0.77368  1.0000
  C   C92       1.0  0.68639  0.14294  0.76281  1.0000
  C   C93       1.0  0.85564  0.54672  0.76621  1.0000
  C   C94       1.0  0.31644  0.45646  0.73512  1.0000
  C   C95       1.0  0.14596  0.68871  0.73454  1.0000
  C   C96       1.0  0.54268  0.85369  0.73954  1.0000
  C   C97       1.0  0.75761  0.37044  0.88368  1.0000
  C   C98       1.0  0.61098  0.24254  0.88331  1.0000
  C   C99       1.0  0.63350  0.39158  0.88628  1.0000
  C   C100      1.0  0.36745  0.75939  0.61381  1.0000
  C   C101      1.0  0.38273  0.62941  0.62454  1.0000
  C   C102      1.0  0.23882  0.61273  0.61030  1.0000
  C   C103      1.0  0.35284  0.14445  0.66185  1.0000
  C   C104      1.0  0.89277  0.30429  0.69399  1.0000
  C   C105      1.0  0.69313  0.58854  0.73276  1.0000
  C   C106      1.0  0.14816  0.35194  0.82892  1.0000
  C   C107      1.0  0.59433  0.69732  0.81855  1.0000
  C   C108      1.0  0.31135  0.89711  0.77931  1.0000
  N   N1        1.0  0.48039  0.38154  0.28722  1.0000
  N   N2        1.0  0.61901  0.09639  0.28561  1.0000
  N   N3        1.0  0.90181  0.52346  0.28853  1.0000
  N   N4        1.0  0.37488  0.47375  0.22347  1.0000
  N   N5        1.0  0.09918  0.62660  0.20849  1.0000
  N   N6        1.0  0.52306  0.89779  0.21341  1.0000
  N   N7        1.0  0.47545  0.37793  0.79519  1.0000
  N   N8        1.0  0.62235  0.09753  0.78558  1.0000
  N   N9        1.0  0.89968  0.52646  0.78471  1.0000
  N   N10       1.0  0.38067  0.47659  0.71795  1.0000
  N   N11       1.0  0.10019  0.62331  0.71424  1.0000
  N   N12       1.0  0.52257  0.89798  0.71530  1.0000
  O   O1        1.0  0.76275  0.58755  0.21605  1.0000
  O   O2        1.0  0.42050  0.17203  0.20836  1.0000
  O   O3        1.0  0.82065  0.24579  0.22266  1.0000
  O   O4        1.0  0.25351  0.83166  0.27009  1.0000
  O   O5        1.0  0.57899  0.75168  0.30450  1.0000
  O   O6        1.0  0.17040  0.42046  0.27731  1.0000
  O   O7        1.0  0.75047  0.57813  0.73643  1.0000
  O   O8        1.0  0.41943  0.16904  0.72271  1.0000
  O   O9        1.0  0.82384  0.24706  0.70889  1.0000
  O   O10       1.0  0.25160  0.82838  0.77735  1.0000
  O   O11       1.0  0.57953  0.75220  0.79795  1.0000
  O   O12       1.0  0.17554  0.42084  0.77075  1.0000
  C  Sn1       1.0  0.49877  0.46931  0.50129  1.0000
  C   C109      1.0  0.46377  0.40582  0.42855  1.0000
  C  Sn2       1.0  0.39265  0.36308  0.44063  1.0000
  C  Sn3       1.0  0.35574  0.38426  0.52714  1.0000
  C   C110      1.0  0.39073  0.44772  0.59979  1.0000
  C  Sn4       1.0  0.46185  0.49049  0.58780  1.0000
  O  Te1       1.0  0.56987  0.51121  0.48766  1.0000
  O  Te2       1.0  0.35879  0.29983  0.36693  1.0000
  O  Te3       1.0  0.28458  0.34229  0.54072  1.0000
  O  Te4       1.0  0.49570  0.55371  0.66142  1.0000
  Mg  Mg1       1.0  0.26154  0.26085  0.41939  1.0000
  Mg  Mg2       1.0  0.59295  0.59275  0.60898  1.0000
  C  Sn5       1.0  0.53237  0.02657  0.49688  1.0000
  C   C111      1.0  0.59439  0.05426  0.42520  1.0000
  C  Sn6       1.0  0.63517  0.02391  0.43848  1.0000
  C  Sn7       1.0  0.11137  0.96460  0.52513  1.0000
  C   C112      1.0  0.04938  0.93693  0.59672  1.0000
  C  Sn8       1.0  0.00857  0.96726  0.58353  1.0000
  O  Te5       1.0  0.49242  0.05776  0.48205  1.0000
  O  Te6       1.0  0.69698  0.05254  0.36582  1.0000
  O  Te7       1.0  0.15138  0.93342  0.53990  1.0000
  O  Te8       1.0  0.94680  0.93865  0.65610  1.0000
  Mg  Mg3       1.0  0.23139  0.99148  0.41972  1.0000
  Mg  Mg4       1.0  0.91021  0.99964  0.60223  1.0000
  C  Sn9       1.0  0.97033  0.50394  0.49863  1.0000
  C   C113      1.0  0.94417  0.54042  0.42793  1.0000
  C  Sn10      1.0  0.97606  0.61327  0.44039  1.0000
  C  Sn11      1.0  0.03537  0.65043  0.52523  1.0000
  C   C114      1.0  0.06151  0.61395  0.59585  1.0000
  C  Sn12      1.0  0.02964  0.54110  0.58346  1.0000
  O  Te9       1.0  0.93762  0.43111  0.48464  1.0000
  O  Te10      1.0  0.94895  0.64859  0.36874  1.0000
  O  Te11      1.0  0.06808  0.72331  0.53916  1.0000
  O  Te12      1.0  0.05673  0.50578  0.65504  1.0000
  Mg  Mg5       1.0  0.01176  0.74792  0.42089  1.0000
  Mg  Mg6       1.0  0.99398  0.40646  0.60290  1.0000
  C  Sn13      1.0  0.46394  0.49515  0.01559  1.0000
  C   C115      1.0  0.40086  0.45813  0.08344  1.0000
  C  Sn14      1.0  0.35992  0.38551  0.06719  1.0000
  C  Sn15      1.0  0.38477  0.35121  0.98139  1.0000
  C   C116      1.0  0.44782  0.38822  0.91362  1.0000
  C  Sn16      1.0  0.48880  0.46085  0.92979  1.0000
  O  Te13      1.0  0.50404  0.56774  0.03334  1.0000
  O  Te14      1.0  0.29704  0.34964  0.13605  1.0000
  O  Te15      1.0  0.34461  0.27856  0.96368  1.0000
  O  Te16      1.0  0.55164  0.49670  0.86101  1.0000
  Mg  Mg7       1.0  0.26073  0.25090  0.07916  1.0000
  Mg  Mg8       1.0  0.58801  0.59544  0.91788  1.0000
  C  Sn17      1.0  0.02970  0.53843  0.99949  1.0000
  C   C117      1.0  0.05636  0.60060  0.06949  1.0000
  C  Sn18      1.0  0.02748  0.64304  0.05664  1.0000
  C  Sn19      1.0  0.97069  0.62287  0.97212  1.0000
  C   C118      1.0  0.94179  0.55863  0.90220  1.0000
  C  Sn20      1.0  0.97065  0.51615  0.91497  1.0000
  O  Te17      1.0  0.05716  0.49474  0.01385  1.0000
  O  Te18      1.0  0.05732  0.70710  0.12759  1.0000
  O  Te19      1.0  0.94098  0.66452  0.95781  1.0000
  O  Te20      1.0  0.94083  0.45213  0.84410  1.0000
  Mg  Mg9       1.0  0.99805  0.74524  0.07514  1.0000
  Mg  Mg10      1.0  0.00003  0.41393  0.89653  1.0000
  C  Sn21      1.0  0.53552  0.02790  0.99633  1.0000
  C   C119      1.0  0.59753  0.05490  0.92487  1.0000
  C  Sn22      1.0  0.63727  0.02335  0.93736  1.0000
  C  Sn23      1.0  0.11016  0.96142  0.02300  1.0000
  C   C120      1.0  0.04818  0.93444  0.09437  1.0000
  C  Sn24      1.0  0.00841  0.96597  0.08196  1.0000
  O  Te21      1.0  0.49662  0.06028  0.98230  1.0000
  O  Te22      1.0  0.69909  0.05131  0.86494  1.0000
  O  Te23      1.0  0.14913  0.92904  0.03698  1.0000
  O  Te24      1.0  0.94662  0.93803  0.15430  1.0000
  Mg  Mg11      1.0  0.23186  0.98865  0.91750  1.0000
  Mg  Mg12      1.0  0.41380  0.00062  0.10177  1.0000
