data_image0
_chemical_formula_structural       C4N4C12H12S4C24H12C3HC3HC3HC3HC2HC2HC4N4H4S4C24H12C3HC3HC3HC3HC2HC2HC2Sn2C2HTe2HMgC2Sn2C2HTe2HMgC2Sn2C2HTe2HMgC2Sn2C2HTe2HMgC2Sn2C2HTe2HMgC2Sn2C2HTe2HMgC2Sn2C2HTe2HMgC2Sn2C2HTe2HMg
_chemical_formula_sum              "C132 N8 H68 S8 Sn16 Te16 Mg8"
_cell_length_a       27.464
_cell_length_b       22.9146
_cell_length_c       8.36245
_cell_angle_alpha    90.5793
_cell_angle_beta     90.4016
_cell_angle_gamma    90.0621

_symmetry_space_group_name_H-M    'P1'
_space_group_IT_number       1

loop_
  _space_group_symop_operation_xyz
  'x, y, z'

loop_
  _atom_site_type_symbol
  _atom_site_label
  _atom_site_symmetry_multiplicity
  _atom_site_fract_x
  _atom_site_fract_y
  _atom_site_fract_z
  _atom_site_occupancy
  C   C1        1.0  0.73245  0.20293  0.03376  1.0000
  C   C2        1.0  0.26787  0.79609  0.05522  1.0000
  C   C3        1.0  0.27110  0.20133  0.96368  1.0000
  C   C4        1.0  0.72837  0.79982  0.98971  1.0000
  N   N1        1.0  0.73219  0.24879  0.94473  1.0000
  N   N2        1.0  0.26785  0.74937  0.96701  1.0000
  N   N3        1.0  0.26651  0.25200  0.03190  1.0000
  N   N4        1.0  0.73482  0.74908  0.05377  1.0000
  C   C5        1.0  0.36643  0.60739  0.00579  1.0000
  C   C6        1.0  0.30200  0.70471  0.98790  1.0000
  C   C7        1.0  0.30139  0.29621  0.01836  1.0000
  C   C8        1.0  0.36589  0.39394  0.01064  1.0000
  C   C9        1.0  0.37614  0.65987  0.09048  1.0000
  C   C10       1.0  0.29171  0.65222  0.90573  1.0000
  C   C11       1.0  0.29131  0.34790  0.10431  1.0000
  C   C12       1.0  0.37528  0.34255  0.92119  1.0000
  C   C13       1.0  0.34511  0.70770  0.08035  1.0000
  C   C14       1.0  0.32320  0.60506  0.91385  1.0000
  C   C15       1.0  0.32285  0.39518  0.10152  1.0000
  C   C16       1.0  0.34425  0.29457  0.92618  1.0000
  H   H1        1.0  0.70678  0.19623  0.13229  1.0000
  H   H2        1.0  0.29407  0.80394  0.15315  1.0000
  H   H3        1.0  0.30310  0.18859  0.89305  1.0000
  H   H4        1.0  0.69451  0.81265  0.92844  1.0000
  H   H5        1.0  0.40714  0.66240  0.17183  1.0000
  H   H6        1.0  0.25898  0.65048  0.83178  1.0000
  H   H7        1.0  0.25860  0.34892  0.17675  1.0000
  H   H8        1.0  0.40609  0.34126  0.84037  1.0000
  H   H9        1.0  0.35378  0.74695  0.14916  1.0000
  H   H10       1.0  0.31533  0.56622  0.84239  1.0000
  H   H11       1.0  0.31518  0.43319  0.17599  1.0000
  H   H12       1.0  0.35253  0.25673  0.85167  1.0000
  S   S1        1.0  0.94067  0.93541  0.98970  1.0000
  S   S2        1.0  0.06022  0.06380  0.98177  1.0000
  S   S3        1.0  0.06001  0.93565  0.99064  1.0000
  S   S4        1.0  0.94084  0.06349  0.97284  1.0000
  C   C17       1.0  0.97560  0.99961  0.98578  1.0000
  C   C18       1.0  0.02520  0.99976  0.98811  1.0000
  C   C19       1.0  0.88298  0.96990  0.99564  1.0000
  C   C20       1.0  0.11785  0.02974  0.99413  1.0000
  C   C21       1.0  0.11761  0.96973  0.99357  1.0000
  C   C22       1.0  0.88341  0.02979  0.98643  1.0000
  C   C23       1.0  0.84188  0.92911  0.99919  1.0000
  C   C24       1.0  0.15871  0.07114  0.99337  1.0000
  C   C25       1.0  0.15819  0.92800  0.00120  1.0000
  C   C26       1.0  0.84858  0.87367  0.06946  1.0000
  C   C27       1.0  0.15300  0.12691  0.06538  1.0000
  C   C28       1.0  0.15436  0.87385  0.91937  1.0000
  C   C29       1.0  0.81212  0.83190  0.06656  1.0000
  C   C30       1.0  0.18927  0.16888  0.05776  1.0000
  C   C31       1.0  0.19035  0.83178  0.93291  1.0000
  C   C32       1.0  0.76670  0.84367  0.99465  1.0000
  C   C33       1.0  0.23307  0.15732  0.97651  1.0000
  C   C34       1.0  0.23137  0.84139  0.03168  1.0000
  C   C35       1.0  0.75954  0.89899  0.92585  1.0000
  C   C36       1.0  0.23916  0.10168  0.90614  1.0000
  C   C37       1.0  0.23564  0.89552  0.11170  1.0000
  C   C38       1.0  0.79635  0.94068  0.92678  1.0000
  C   C39       1.0  0.20296  0.05945  0.91505  1.0000
  C   C40       1.0  0.19998  0.93809  0.09586  1.0000
  H   H13       1.0  0.88289  0.86425  0.12977  1.0000
  H   H14       1.0  0.11964  0.13654  0.13001  1.0000
  H   H15       1.0  0.12294  0.86557  0.84234  1.0000
  H   H16       1.0  0.81753  0.78950  0.12113  1.0000
  H   H17       1.0  0.18465  0.21145  0.11419  1.0000
  H   H18       1.0  0.18762  0.79065  0.86759  1.0000
  H   H19       1.0  0.72503  0.90842  0.86653  1.0000
  H   H20       1.0  0.27231  0.09216  0.84021  1.0000
  H   H21       1.0  0.26672  0.90338  0.19064  1.0000
  H   H22       1.0  0.79059  0.98225  0.86845  1.0000
  H   H23       1.0  0.20842  0.01708  0.85903  1.0000
  H   H24       1.0  0.20353  0.97931  0.15973  1.0000
  C   C41       1.0  0.60546  0.44595  0.00122  1.0000
  C   C42       1.0  0.55354  0.44562  0.00232  1.0000
  C   C43       1.0  0.52665  0.60718  0.01594  1.0000
  H   H25       1.0  0.54611  0.64831  0.02387  1.0000
  C   C44       1.0  0.39739  0.55459  0.01108  1.0000
  C   C45       1.0  0.44928  0.55481  0.00966  1.0000
  C   C46       1.0  0.47623  0.39319  0.00796  1.0000
  H   H26       1.0  0.45706  0.35192  0.01419  1.0000
  C   C47       1.0  0.39699  0.44665  0.00854  1.0000
  C   C48       1.0  0.44887  0.44602  0.00821  1.0000
  C   C49       1.0  0.47696  0.60744  0.00810  1.0000
  H   H27       1.0  0.45801  0.64882  0.00203  1.0000
  C   C50       1.0  0.60560  0.55360  0.01276  1.0000
  C   C51       1.0  0.55377  0.55421  0.01172  1.0000
  C   C52       1.0  0.52588  0.39294  0.99876  1.0000
  H   H28       1.0  0.54475  0.35149  0.98931  1.0000
  C   C53       1.0  0.62954  0.49982  0.00655  1.0000
  C   C54       1.0  0.52751  0.50001  0.00698  1.0000
  H   H29       1.0  0.66915  0.50011  0.00608  1.0000
  C   C55       1.0  0.37343  0.50071  0.01083  1.0000
  C   C56       1.0  0.47513  0.50028  0.00816  1.0000
  H   H30       1.0  0.33388  0.50077  0.01095  1.0000
  C   C57       1.0  0.72713  0.20321  0.52572  1.0000
  C   C58       1.0  0.26643  0.79555  0.54390  1.0000
  C   C59       1.0  0.27240  0.19766  0.46429  1.0000
  C   C60       1.0  0.73320  0.79683  0.47071  1.0000
  N   N5        1.0  0.73161  0.25280  0.45396  1.0000
  N   N6        1.0  0.26323  0.74667  0.46530  1.0000
  N   N7        1.0  0.26793  0.24829  0.53235  1.0000
  N   N8        1.0  0.73193  0.75243  0.56492  1.0000
  H   H31       1.0  0.69596  0.19202  0.60142  1.0000
  H   H32       1.0  0.29636  0.80614  0.62743  1.0000
  H   H33       1.0  0.30393  0.18498  0.39126  1.0000
  H   H34       1.0  0.70821  0.80196  0.36841  1.0000
  S   S5        1.0  0.93921  0.93898  0.50719  1.0000
  S   S6        1.0  0.06002  0.06499  0.48485  1.0000
  S   S7        1.0  0.05738  0.93676  0.49445  1.0000
  S   S8        1.0  0.93946  0.06673  0.47843  1.0000
  C   C61       1.0  0.97422  0.00280  0.49520  1.0000
  C   C62       1.0  0.02381  0.00198  0.49356  1.0000
  C   C63       1.0  0.88205  0.97333  0.51147  1.0000
  C   C64       1.0  0.11690  0.02934  0.49807  1.0000
  C   C65       1.0  0.11561  0.96935  0.49742  1.0000
  C   C66       1.0  0.88161  0.03316  0.49791  1.0000
  C   C67       1.0  0.15860  0.06965  0.49736  1.0000
  C   C68       1.0  0.15575  0.92708  0.50249  1.0000
  C   C69       1.0  0.84063  0.07407  0.49972  1.0000
  C   C70       1.0  0.15439  0.12493  0.57303  1.0000
  C   C71       1.0  0.15107  0.87269  0.42196  1.0000
  C   C72       1.0  0.84643  0.13022  0.43265  1.0000
  C   C73       1.0  0.19137  0.16596  0.56487  1.0000
  C   C74       1.0  0.18704  0.83047  0.43317  1.0000
  C   C75       1.0  0.80969  0.17153  0.43855  1.0000
  C   C76       1.0  0.23432  0.15383  0.47980  1.0000
  C   C77       1.0  0.22930  0.84045  0.52597  1.0000
  C   C78       1.0  0.76503  0.15905  0.51277  1.0000
  C   C79       1.0  0.23920  0.09842  0.40737  1.0000
  C   C80       1.0  0.23454  0.89499  0.60359  1.0000
  C   C81       1.0  0.75876  0.10314  0.57860  1.0000
  C   C82       1.0  0.20214  0.05726  0.41584  1.0000
  C   C83       1.0  0.19850  0.93727  0.59238  1.0000
  C   C84       1.0  0.79561  0.06164  0.57243  1.0000
  H   H35       1.0  0.12167  0.13505  0.64046  1.0000
  H   H36       1.0  0.11906  0.86436  0.34765  1.0000
  H   H37       1.0  0.88038  0.14101  0.37329  1.0000
  H   H38       1.0  0.18814  0.20822  0.62413  1.0000
  H   H39       1.0  0.18371  0.78895  0.36985  1.0000
  H   H40       1.0  0.81458  0.21449  0.38684  1.0000
  H   H41       1.0  0.27217  0.08810  0.34128  1.0000
  H   H42       1.0  0.26661  0.90350  0.67760  1.0000
  H   H43       1.0  0.72486  0.09283  0.63896  1.0000
  H   H44       1.0  0.20637  0.01510  0.35758  1.0000
  H   H45       1.0  0.20243  0.97844  0.65629  1.0000
  H   H46       1.0  0.79020  0.01942  0.62724  1.0000
  C   C85       1.0  0.60383  0.44942  0.48646  1.0000
  C   C86       1.0  0.55200  0.44814  0.48359  1.0000
  C   C87       1.0  0.52263  0.60877  0.50829  1.0000
  H   H47       1.0  0.54113  0.65039  0.52116  1.0000
  C   C88       1.0  0.39419  0.55287  0.49327  1.0000
  C   C89       1.0  0.44607  0.55449  0.49518  1.0000
  C   C90       1.0  0.47570  0.39362  0.48214  1.0000
  H   H48       1.0  0.45721  0.35184  0.48294  1.0000
  C   C91       1.0  0.39561  0.44503  0.49078  1.0000
  C   C92       1.0  0.44751  0.44579  0.48795  1.0000
  C   C93       1.0  0.47289  0.60781  0.50074  1.0000
  H   H49       1.0  0.45310  0.64876  0.50103  1.0000
  C   C94       1.0  0.60286  0.55704  0.49989  1.0000
  C   C95       1.0  0.55088  0.55666  0.49928  1.0000
  C   C96       1.0  0.52532  0.39485  0.47380  1.0000
  H   H50       1.0  0.54518  0.35422  0.46071  1.0000
  C   C97       1.0  0.62725  0.50354  0.49258  1.0000
  C   C98       1.0  0.52529  0.50191  0.49075  1.0000
  H   H51       1.0  0.66683  0.50402  0.49385  1.0000
  C   C99       1.0  0.37101  0.49847  0.49133  1.0000
  C   C100      1.0  0.47289  0.50073  0.49081  1.0000
  H   H52       1.0  0.33142  0.49783  0.49096  1.0000
  C   C101      1.0  0.77009  0.09042  0.11006  1.0000
  C   C102      1.0  0.76821  0.14588  0.04229  1.0000
  C  Sn1       1.0  0.80647  0.16735  0.93649  1.0000
  C  Sn2       1.0  0.84514  0.12880  0.89802  1.0000
  C   C103      1.0  0.84668  0.07340  0.96636  1.0000
  C   C104      1.0  0.80821  0.05236  0.07213  1.0000
  H   H53       1.0  0.74196  0.07699  0.19183  1.0000
  O  Te1       1.0  0.80405  0.22292  0.86991  1.0000
  O  Te2       1.0  0.88172  0.14545  0.79258  1.0000
  H   H54       1.0  0.80966  0.00941  0.12450  1.0000
  Mg  Mg1       1.0  0.86247  0.22560  0.73264  1.0000
  C   C105      1.0  0.34938  0.69508  0.60255  1.0000
  C   C106      1.0  0.31012  0.70552  0.49957  1.0000
  C  Sn3       1.0  0.29489  0.66254  0.39050  1.0000
  C  Sn4       1.0  0.31949  0.60815  0.38474  1.0000
  C   C107      1.0  0.35870  0.59812  0.48835  1.0000
  C   C108      1.0  0.37364  0.64144  0.59699  1.0000
  H   H55       1.0  0.36092  0.72858  0.68667  1.0000
  O  Te3       1.0  0.25562  0.67370  0.28844  1.0000
  O  Te4       1.0  0.30502  0.56443  0.27693  1.0000
  H   H56       1.0  0.40402  0.63333  0.67678  1.0000
  Mg  Mg2       1.0  0.24951  0.60039  0.16231  1.0000
  C   C109      1.0  0.62691  0.33046  0.58070  1.0000
  C   C110      1.0  0.63325  0.38550  0.51341  1.0000
  C  Sn5       1.0  0.67240  0.39596  0.41180  1.0000
  C  Sn6       1.0  0.70575  0.35039  0.37710  1.0000
  C   C111      1.0  0.69906  0.29547  0.44492  1.0000
  C   C112      1.0  0.65977  0.28548  0.54648  1.0000
  H   H57       1.0  0.59649  0.32271  0.65921  1.0000
  O  Te5       1.0  0.67821  0.45122  0.34564  1.0000
  O  Te6       1.0  0.74518  0.35965  0.27589  1.0000
  H   H58       1.0  0.65485  0.24285  0.59848  1.0000
  Mg  Mg3       1.0  0.73765  0.44243  0.21482  1.0000
  C   C113      1.0  0.68848  0.61350  0.62136  1.0000
  C   C114      1.0  0.64305  0.60930  0.54573  1.0000
  C  Sn7       1.0  0.62510  0.65586  0.45635  1.0000
  C  Sn8       1.0  0.65323  0.70751  0.44260  1.0000
  C   C115      1.0  0.69865  0.71126  0.51861  1.0000
  C   C116      1.0  0.71626  0.66442  0.60780  1.0000
  H   H59       1.0  0.70212  0.57725  0.69030  1.0000
  O  Te7       1.0  0.57964  0.65094  0.38161  1.0000
  O  Te8       1.0  0.63617  0.75469  0.35395  1.0000
  H   H60       1.0  0.75144  0.66767  0.66626  1.0000
  Mg  Mg4       1.0  0.57205  0.72706  0.27413  1.0000
  C   C117      1.0  0.83998  0.86602  0.62069  1.0000
  C   C118      1.0  0.84493  0.91705  0.53212  1.0000
  C  Sn9       1.0  0.80910  0.93272  0.42121  1.0000
  C  Sn10      1.0  0.76759  0.89656  0.39884  1.0000
  C   C119      1.0  0.76297  0.84562  0.48812  1.0000
  C   C120      1.0  0.79904  0.83033  0.59875  1.0000
  H   H61       1.0  0.86787  0.85420  0.70635  1.0000
  O  Te9       1.0  0.81462  0.98384  0.33367  1.0000
  O  Te10      1.0  0.73123  0.91120  0.28883  1.0000
  H   H62       1.0  0.79519  0.79084  0.66738  1.0000
  Mg  Mg5       1.0  0.75525  0.98522  0.19794  1.0000
  C   C121      1.0  0.68958  0.61274  0.13734  1.0000
  C   C122      1.0  0.64501  0.60679  0.05717  1.0000
  C  Sn11      1.0  0.63064  0.65443  0.95571  1.0000
  C  Sn12      1.0  0.65938  0.70521  0.93433  1.0000
  C   C123      1.0  0.70180  0.70703  0.01499  1.0000
  C   C124      1.0  0.71796  0.66280  0.11627  1.0000
  H   H63       1.0  0.70210  0.57851  0.21563  1.0000
  O  Te11      1.0  0.58601  0.64779  0.87658  1.0000
  O  Te12      1.0  0.64377  0.74979  0.83360  1.0000
  H   H64       1.0  0.75249  0.66740  0.17825  1.0000
  Mg  Mg6       1.0  0.58034  0.72056  0.75197  1.0000
  C   C125      1.0  0.35389  0.29944  0.39625  1.0000
  C   C126      1.0  0.31510  0.28923  0.49957  1.0000
  C  Sn13      1.0  0.29911  0.33329  0.60321  1.0000
  C  Sn14      1.0  0.32245  0.38855  0.60312  1.0000
  C   C127      1.0  0.36121  0.39834  0.49923  1.0000
  C   C128      1.0  0.37693  0.35394  0.39604  1.0000
  H   H65       1.0  0.36604  0.26510  0.31635  1.0000
  O  Te13      1.0  0.26030  0.32235  0.70570  1.0000
  O  Te14      1.0  0.30720  0.43337  0.70543  1.0000
  H   H66       1.0  0.40695  0.36187  0.31600  1.0000
  Mg  Mg7       1.0  0.25276  0.39728  0.82303  1.0000
  C   C129      1.0  0.62879  0.32550  0.08568  1.0000
  C   C130      1.0  0.63470  0.38124  0.02230  1.0000
  C  Sn15      1.0  0.67508  0.39636  0.91785  1.0000
  C  Sn16      1.0  0.70797  0.35107  0.87627  1.0000
  C   C131      1.0  0.70173  0.29544  0.94023  1.0000
  C   C132      1.0  0.66120  0.28079  0.04468  1.0000
  H   H67       1.0  0.59908  0.31701  0.16643  1.0000
  O  Te15      1.0  0.68046  0.45231  0.85565  1.0000
  O  Te16      1.0  0.74650  0.36129  0.77209  1.0000
  H   H68       1.0  0.65662  0.23762  0.09366  1.0000
  Mg  Mg8       1.0  0.73867  0.44474  0.71851  1.0000
