data_image0
_chemical_formula_structural       C4N4H4S4C9HC3HC3HC3HC2HC2HC4N4H4S4C9HC3HC3HC3HC2HC2HC2Sn2C2HTe2HMgC2Sn2C2HTe2HMgC2Sn2C2HTe2HMgC2Sn2C2HTe2HMgC2Sn2C2HTe2HMgC2Sn2C2HTe2HMgC2Sn2C2HTe2HMgC2Sn2C2HTe2HMgC2Sn2C2HTe2HMgC2Sn2C2HTe2HMgC2Sn2C2HTe2HMgC2Sn2C2HTe2HMgC2Sn2C2HTe2HMgC2Sn2C2HTe2HMgC2Sn2C2HTe2HMgC2Sn2C2HTe2HMg
_chemical_formula_sum              "C116 N8 H52 S8 Sn32 Te32 Mg16"
_cell_length_a       27.464
_cell_length_b       22.9146
_cell_length_c       8.36245
_cell_angle_alpha    90.5793
_cell_angle_beta     90.4016
_cell_angle_gamma    90.0621

_symmetry_space_group_name_H-M    'P1'
_space_group_IT_number       1

loop_
  _space_group_symop_operation_xyz
  'x, y, z'

loop_
  _atom_site_type_symbol
  _atom_site_label
  _atom_site_symmetry_multiplicity
  _atom_site_fract_x
  _atom_site_fract_y
  _atom_site_fract_z
  _atom_site_occupancy
  C   C1        1.0  0.73245  0.20293  0.03376  1.0000
  C   C2        1.0  0.26787  0.79609  0.05522  1.0000
  C   C3        1.0  0.27110  0.20133  0.96368  1.0000
  C   C4        1.0  0.72837  0.79982  0.98971  1.0000
  N   N1        1.0  0.73219  0.24879  0.94473  1.0000
  N   N2        1.0  0.26785  0.74937  0.96701  1.0000
  N   N3        1.0  0.26651  0.25200  0.03190  1.0000
  N   N4        1.0  0.73482  0.74908  0.05377  1.0000
  H   H1        1.0  0.70678  0.19623  0.13229  1.0000
  H   H2        1.0  0.29407  0.80394  0.15315  1.0000
  H   H3        1.0  0.30310  0.18859  0.89305  1.0000
  H   H4        1.0  0.69451  0.81265  0.92844  1.0000
  S   S1        1.0  0.94067  0.93541  0.98970  1.0000
  S   S2        1.0  0.06022  0.06380  0.98177  1.0000
  S   S3        1.0  0.06001  0.93565  0.99064  1.0000
  S   S4        1.0  0.94084  0.06349  0.97284  1.0000
  C   C5        1.0  0.97560  0.99961  0.98578  1.0000
  C   C6        1.0  0.02520  0.99976  0.98811  1.0000
  C   C7        1.0  0.88298  0.96990  0.99564  1.0000
  C   C8        1.0  0.11785  0.02974  0.99413  1.0000
  C   C9        1.0  0.11761  0.96973  0.99357  1.0000
  C   C10       1.0  0.88341  0.02979  0.98643  1.0000
  C   C11       1.0  0.60546  0.44595  0.00122  1.0000
  C   C12       1.0  0.55354  0.44562  0.00232  1.0000
  C   C13       1.0  0.52665  0.60718  0.01594  1.0000
  H   H5        1.0  0.54611  0.64831  0.02387  1.0000
  C   C14       1.0  0.39739  0.55459  0.01108  1.0000
  C   C15       1.0  0.44928  0.55481  0.00966  1.0000
  C   C16       1.0  0.47623  0.39319  0.00796  1.0000
  H   H6        1.0  0.45706  0.35192  0.01419  1.0000
  C   C17       1.0  0.39699  0.44665  0.00854  1.0000
  C   C18       1.0  0.44887  0.44602  0.00821  1.0000
  C   C19       1.0  0.47696  0.60744  0.00810  1.0000
  H   H7        1.0  0.45801  0.64882  0.00203  1.0000
  C   C20       1.0  0.60560  0.55360  0.01276  1.0000
  C   C21       1.0  0.55377  0.55421  0.01172  1.0000
  C   C22       1.0  0.52588  0.39294  0.99876  1.0000
  H   H8        1.0  0.54475  0.35149  0.98931  1.0000
  C   C23       1.0  0.62954  0.49982  0.00655  1.0000
  C   C24       1.0  0.52751  0.50001  0.00698  1.0000
  H   H9        1.0  0.66915  0.50011  0.00608  1.0000
  C   C25       1.0  0.37343  0.50071  0.01083  1.0000
  C   C26       1.0  0.47513  0.50028  0.00816  1.0000
  H   H10       1.0  0.33388  0.50077  0.01095  1.0000
  C   C27       1.0  0.72713  0.20321  0.52572  1.0000
  C   C28       1.0  0.26643  0.79555  0.54390  1.0000
  C   C29       1.0  0.27240  0.19766  0.46429  1.0000
  C   C30       1.0  0.73320  0.79683  0.47071  1.0000
  N   N5        1.0  0.73161  0.25280  0.45396  1.0000
  N   N6        1.0  0.26323  0.74667  0.46530  1.0000
  N   N7        1.0  0.26793  0.24829  0.53235  1.0000
  N   N8        1.0  0.73193  0.75243  0.56492  1.0000
  H   H11       1.0  0.69596  0.19202  0.60142  1.0000
  H   H12       1.0  0.29636  0.80614  0.62743  1.0000
  H   H13       1.0  0.30393  0.18498  0.39126  1.0000
  H   H14       1.0  0.70821  0.80196  0.36841  1.0000
  S   S5        1.0  0.93921  0.93898  0.50719  1.0000
  S   S6        1.0  0.06002  0.06499  0.48485  1.0000
  S   S7        1.0  0.05738  0.93676  0.49445  1.0000
  S   S8        1.0  0.93946  0.06673  0.47843  1.0000
  C   C31       1.0  0.97422  0.00280  0.49520  1.0000
  C   C32       1.0  0.02381  0.00198  0.49356  1.0000
  C   C33       1.0  0.88205  0.97333  0.51147  1.0000
  C   C34       1.0  0.11690  0.02934  0.49807  1.0000
  C   C35       1.0  0.11561  0.96935  0.49742  1.0000
  C   C36       1.0  0.88161  0.03316  0.49791  1.0000
  C   C37       1.0  0.60383  0.44942  0.48646  1.0000
  C   C38       1.0  0.55200  0.44814  0.48359  1.0000
  C   C39       1.0  0.52263  0.60877  0.50829  1.0000
  H   H15       1.0  0.54113  0.65039  0.52116  1.0000
  C   C40       1.0  0.39419  0.55287  0.49327  1.0000
  C   C41       1.0  0.44607  0.55449  0.49518  1.0000
  C   C42       1.0  0.47570  0.39362  0.48214  1.0000
  H   H16       1.0  0.45721  0.35184  0.48294  1.0000
  C   C43       1.0  0.39561  0.44503  0.49078  1.0000
  C   C44       1.0  0.44751  0.44579  0.48795  1.0000
  C   C45       1.0  0.47289  0.60781  0.50074  1.0000
  H   H17       1.0  0.45310  0.64876  0.50103  1.0000
  C   C46       1.0  0.60286  0.55704  0.49989  1.0000
  C   C47       1.0  0.55088  0.55666  0.49928  1.0000
  C   C48       1.0  0.52532  0.39485  0.47380  1.0000
  H   H18       1.0  0.54518  0.35422  0.46071  1.0000
  C   C49       1.0  0.62725  0.50354  0.49258  1.0000
  C   C50       1.0  0.52529  0.50191  0.49075  1.0000
  H   H19       1.0  0.66683  0.50402  0.49385  1.0000
  C   C51       1.0  0.37101  0.49847  0.49133  1.0000
  C   C52       1.0  0.47289  0.50073  0.49081  1.0000
  H   H20       1.0  0.33142  0.49783  0.49096  1.0000
  C   C53       1.0  0.62879  0.32550  0.08568  1.0000
  C   C54       1.0  0.63470  0.38124  0.02230  1.0000
  C  Sn1       1.0  0.67508  0.39636  0.91785  1.0000
  C  Sn2       1.0  0.70797  0.35107  0.87627  1.0000
  C   C55       1.0  0.70173  0.29544  0.94023  1.0000
  C   C56       1.0  0.66120  0.28079  0.04468  1.0000
  H   H21       1.0  0.59908  0.31701  0.16643  1.0000
  O  Te1       1.0  0.68046  0.45231  0.85565  1.0000
  O  Te2       1.0  0.74650  0.36129  0.77209  1.0000
  H   H22       1.0  0.65662  0.23762  0.09366  1.0000
  Mg  Mg1       1.0  0.73867  0.44474  0.71851  1.0000
  C   C57       1.0  0.31104  0.61094  0.90146  1.0000
  C   C58       1.0  0.35672  0.60674  0.97512  1.0000
  C  Sn3       1.0  0.37259  0.64922  0.06862  1.0000
  C  Sn4       1.0  0.34426  0.70048  0.08856  1.0000
  C   C59       1.0  0.29859  0.70423  0.01447  1.0000
  C   C60       1.0  0.28306  0.66147  0.92112  1.0000
  H   H23       1.0  0.29736  0.57498  0.82931  1.0000
  O  Te3       1.0  0.41831  0.64431  0.14131  1.0000
  O  Te4       1.0  0.36137  0.74727  0.18141  1.0000
  H   H24       1.0  0.24768  0.66472  0.86420  1.0000
  Mg  Mg2       1.0  0.42587  0.71981  0.25625  1.0000
  C   C61       1.0  0.37316  0.32677  0.91135  1.0000
  C   C62       1.0  0.36734  0.38234  0.97886  1.0000
  C  Sn5       1.0  0.32586  0.39043  0.07911  1.0000
  C  Sn6       1.0  0.29177  0.34564  0.11219  1.0000
  C   C63       1.0  0.29794  0.29018  0.04415  1.0000
  C   C64       1.0  0.33957  0.28257  0.94397  1.0000
  H   H25       1.0  0.40373  0.31801  0.83390  1.0000
  O  Te5       1.0  0.32059  0.44619  0.14551  1.0000
  O  Te6       1.0  0.25213  0.35622  0.21201  1.0000
  H   H26       1.0  0.34408  0.23953  0.89180  1.0000
  Mg  Mg3       1.0  0.26059  0.43925  0.27405  1.0000
  C   C65       1.0  0.68958  0.61274  0.13734  1.0000
  C   C66       1.0  0.64501  0.60679  0.05717  1.0000
  C  Sn7       1.0  0.63064  0.65443  0.95571  1.0000
  C  Sn8       1.0  0.65938  0.70521  0.93433  1.0000
  C   C67       1.0  0.70180  0.70703  0.01499  1.0000
  C   C68       1.0  0.71796  0.66280  0.11627  1.0000
  H   H27       1.0  0.70210  0.57851  0.21563  1.0000
  O  Te7       1.0  0.58601  0.64779  0.87658  1.0000
  O  Te8       1.0  0.64377  0.74979  0.83360  1.0000
  H   H28       1.0  0.75249  0.66740  0.17825  1.0000
  Mg  Mg4       1.0  0.58034  0.72056  0.75197  1.0000
  C   C69       1.0  0.78412  0.93603  0.91122  1.0000
  C   C70       1.0  0.82964  0.93421  0.98670  1.0000
  C  Sn9       1.0  0.84267  0.88006  0.06504  1.0000
  C  Sn10      1.0  0.81161  0.83057  0.06763  1.0000
  C   C71       1.0  0.76828  0.83650  0.99166  1.0000
  C   C72       1.0  0.75347  0.88722  0.91366  1.0000
  H   H29       1.0  0.77266  0.97525  0.85079  1.0000
  O  Te9       1.0  0.88826  0.87900  0.13990  1.0000
  O  Te10      1.0  0.82586  0.77957  0.14501  1.0000
  H   H30       1.0  0.71823  0.88860  0.85514  1.0000
  Mg  Mg5       1.0  0.89137  0.79943  0.22978  1.0000
  C   C73       1.0  0.21466  0.06425  0.89657  1.0000
  C   C74       1.0  0.17122  0.06569  0.98256  1.0000
  C  Sn11      1.0  0.15509  0.11284  0.06349  1.0000
  C  Sn12      1.0  0.18521  0.16312  0.05798  1.0000
  C   C75       1.0  0.23072  0.16494  0.97153  1.0000
  C   C76       1.0  0.24438  0.11383  0.89103  1.0000
  H   H31       1.0  0.22522  0.02472  0.83421  1.0000
  O  Te11      1.0  0.11158  0.11352  0.14888  1.0000
  O  Te12      1.0  0.17209  0.21452  0.13773  1.0000
  H   H32       1.0  0.27800  0.11274  0.82438  1.0000
  Mg  Mg6       1.0  0.10937  0.19388  0.23804  1.0000
  C   C77       1.0  0.21105  0.93287  0.11781  1.0000
  C   C78       1.0  0.17047  0.93337  0.01607  1.0000
  C  Sn13      1.0  0.16114  0.88800  0.92261  1.0000
  C  Sn14      1.0  0.19092  0.83755  0.93148  1.0000
  C   C79       1.0  0.22927  0.83378  0.03372  1.0000
  C   C80       1.0  0.24042  0.88312  0.12667  1.0000
  H   H33       1.0  0.21967  0.97103  0.18979  1.0000
  O  Te13      1.0  0.12048  0.88925  0.82156  1.0000
  O  Te14      1.0  0.18028  0.78791  0.83944  1.0000
  H   H34       1.0  0.27183  0.88271  0.20551  1.0000
  Mg  Mg7       1.0  0.12097  0.81083  0.71974  1.0000
  C   C81       1.0  0.79104  0.06893  0.11108  1.0000
  C   C82       1.0  0.83120  0.06669  0.00953  1.0000
  C  Sn15      1.0  0.84371  0.11723  0.90966  1.0000
  C  Sn16      1.0  0.81325  0.16721  0.91181  1.0000
  C   C83       1.0  0.77104  0.16535  0.01391  1.0000
  C   C84       1.0  0.76099  0.11821  0.11331  1.0000
  H   H35       1.0  0.78327  0.03248  0.18805  1.0000
  O  Te15      1.0  0.88397  0.11427  0.80890  1.0000
  O  Te16      1.0  0.82279  0.21466  0.81328  1.0000
  H   H36       1.0  0.72990  0.11998  0.19200  1.0000
  Mg  Mg8       1.0  0.88193  0.18996  0.69678  1.0000
  C   C85       1.0  0.62691  0.33046  0.58070  1.0000
  C   C86       1.0  0.63325  0.38550  0.51341  1.0000
  C  Sn17      1.0  0.67240  0.39596  0.41180  1.0000
  C  Sn18      1.0  0.70575  0.35039  0.37710  1.0000
  C   C87       1.0  0.69906  0.29547  0.44492  1.0000
  C   C88       1.0  0.65977  0.28548  0.54648  1.0000
  H   H37       1.0  0.59649  0.32271  0.65921  1.0000
  O  Te17      1.0  0.67821  0.45122  0.34564  1.0000
  O  Te18      1.0  0.74518  0.35965  0.27589  1.0000
  H   H38       1.0  0.65485  0.24285  0.59848  1.0000
  Mg  Mg9       1.0  0.73765  0.44243  0.21482  1.0000
  C   C89       1.0  0.30894  0.61068  0.37766  1.0000
  C   C90       1.0  0.35337  0.60493  0.45839  1.0000
  C  Sn19      1.0  0.36926  0.64850  0.56460  1.0000
  C  Sn20      1.0  0.34004  0.69871  0.59024  1.0000
  C   C91       1.0  0.29563  0.70403  0.50898  1.0000
  C   C92       1.0  0.28009  0.66017  0.40293  1.0000
  H   H39       1.0  0.29690  0.57673  0.29567  1.0000
  O  Te19      1.0  0.41376  0.64207  0.64423  1.0000
  O  Te20      1.0  0.35504  0.74291  0.69578  1.0000
  H   H40       1.0  0.24567  0.66462  0.34052  1.0000
  Mg  Mg10      1.0  0.41852  0.71416  0.77615  1.0000
  C   C93       1.0  0.29673  0.35868  0.62098  1.0000
  C   C94       1.0  0.29649  0.30769  0.52788  1.0000
  C  Sn21      1.0  0.33379  0.29702  0.41871  1.0000
  C  Sn22      1.0  0.37200  0.33823  0.40275  1.0000
  C   C95       1.0  0.37193  0.38909  0.49653  1.0000
  C   C96       1.0  0.33441  0.39934  0.60536  1.0000
  H   H41       1.0  0.26772  0.36660  0.70526  1.0000
  O  Te21      1.0  0.33298  0.24586  0.32658  1.0000
  O  Te22      1.0  0.40974  0.32864  0.29461  1.0000
  H   H42       1.0  0.33462  0.43880  0.67751  1.0000
  Mg  Mg11      1.0  0.39254  0.25243  0.19573  1.0000
  C   C97       1.0  0.64436  0.70352  0.42808  1.0000
  C   C98       1.0  0.68429  0.71177  0.53035  1.0000
  C  Sn23      1.0  0.70151  0.66575  0.62328  1.0000
  C  Sn24      1.0  0.67826  0.61050  0.61335  1.0000
  C   C99       1.0  0.63836  0.60268  0.51059  1.0000
  C   C100      1.0  0.62142  0.64903  0.41817  1.0000
  H   H43       1.0  0.63126  0.73937  0.35650  1.0000
  O  Te23      1.0  0.74144  0.67475  0.72488  1.0000
  O  Te24      1.0  0.69473  0.56375  0.70485  1.0000
  H   H44       1.0  0.59052  0.64262  0.33892  1.0000
  Mg  Mg12      1.0  0.75042  0.59761  0.82562  1.0000
  C   C101      1.0  0.78993  0.93156  0.39014  1.0000
  C   C102      1.0  0.82992  0.93550  0.49397  1.0000
  C  Sn25      1.0  0.84097  0.88953  0.59647  1.0000
  C  Sn26      1.0  0.81139  0.83872  0.59469  1.0000
  C   C103      1.0  0.77148  0.83519  0.49029  1.0000
  C   C104      1.0  0.76074  0.88146  0.38826  1.0000
  H   H45       1.0  0.78163  0.96735  0.31113  1.0000
  O  Te25      1.0  0.88105  0.89418  0.69949  1.0000
  O  Te26      1.0  0.82162  0.79212  0.69583  1.0000
  H   H46       1.0  0.72980  0.87839  0.30781  1.0000
  Mg  Mg13      1.0  0.88018  0.81910  0.81476  1.0000
  C   C105      1.0  0.17851  0.16260  0.57619  1.0000
  C   C106      1.0  0.22485  0.15689  0.50987  1.0000
  C  Sn27      1.0  0.23773  0.10578  0.42815  1.0000
  C  Sn28      1.0  0.20350  0.05960  0.41271  1.0000
  C   C107      1.0  0.15723  0.06575  0.47940  1.0000
  C   C108      1.0  0.14473  0.11708  0.56097  1.0000
  H   H47       1.0  0.16882  0.20232  0.63923  1.0000
  O  Te27      1.0  0.28418  0.10079  0.36266  1.0000
  O  Te28      1.0  0.21541  0.00805  0.33160  1.0000
  H   H48       1.0  0.10884  0.12150  0.61222  1.0000
  Mg  Mg14      1.0  0.28327  0.02199  0.26310  1.0000
  C   C109      1.0  0.17442  0.83433  0.41976  1.0000
  C   C110      1.0  0.21992  0.83794  0.49513  1.0000
  C  Sn29      1.0  0.23276  0.88773  0.58360  1.0000
  C  Sn30      1.0  0.19937  0.93471  0.59666  1.0000
  C   C111      1.0  0.15393  0.93066  0.52090  1.0000
  C   C112      1.0  0.14145  0.88064  0.43263  1.0000
  H   H49       1.0  0.16476  0.79562  0.35153  1.0000
  O  Te29      1.0  0.27837  0.89063  0.65810  1.0000
  O  Te30      1.0  0.21126  0.98497  0.68438  1.0000
  H   H50       1.0  0.10621  0.87784  0.37437  1.0000
  Mg  Mg15      1.0  0.27780  0.96829  0.76423  1.0000
  C   C113      1.0  0.78355  0.06612  0.58914  1.0000
  C   C114      1.0  0.82826  0.06875  0.51077  1.0000
  C  Sn31      1.0  0.84263  0.11998  0.43506  1.0000
  C  Sn32      1.0  0.81158  0.16943  0.43811  1.0000
  C   C115      1.0  0.76694  0.16636  0.51693  1.0000
  C   C116      1.0  0.75292  0.11488  0.59226  1.0000
  H   H51       1.0  0.77271  0.02630  0.64750  1.0000
  O  Te31      1.0  0.88741  0.12185  0.35726  1.0000
  O  Te32      1.0  0.82505  0.22118  0.36347  1.0000
  H   H52       1.0  0.71831  0.11287  0.65301  1.0000
  Mg  Mg16      1.0  0.88962  0.20227  0.27291  1.0000
