data_image0
_chemical_formula_structural       C4N4H4S4C9HC3HC3HC3HC2HC2HC4N4H4S4C9HC3HC3HC3HC2HC2HSnCSn2CSnTe4Mg2SnCSn2CSnTe4Mg2SnCSn2CSnTe4Mg2SnCSn2CSnTe4Mg2SnCSn2CSnTe4Mg2SnCSn2CSnTe4Mg2SnCSn2CSnTe4Mg2SnCSn2CSnTe4Mg2SnCSn2CSnTe4Mg2SnCSn2CSnTe4Mg2SnCSn2CSnTe4Mg2SnCSn2CSnTe4Mg2SnCSn2CSnTe4Mg2SnCSn2CSnTe4Mg2SnCSn2CSnTe4Mg2SnCSn2CSnTe4Mg2
_chemical_formula_sum              "C84 N8 H20 S8 Sn64 Te64 Mg32"
_cell_length_a       27.464
_cell_length_b       22.9146
_cell_length_c       8.36245
_cell_angle_alpha    90.5793
_cell_angle_beta     90.4016
_cell_angle_gamma    90.0621

_symmetry_space_group_name_H-M    'P1'
_space_group_IT_number       1

loop_
  _space_group_symop_operation_xyz
  'x, y, z'

loop_
  _atom_site_type_symbol
  _atom_site_label
  _atom_site_symmetry_multiplicity
  _atom_site_fract_x
  _atom_site_fract_y
  _atom_site_fract_z
  _atom_site_occupancy
  C   C1        1.0  0.73245  0.20293  0.03376  1.0000
  C   C2        1.0  0.26787  0.79609  0.05522  1.0000
  C   C3        1.0  0.27110  0.20133  0.96368  1.0000
  C   C4        1.0  0.72837  0.79982  0.98971  1.0000
  N   N1        1.0  0.73219  0.24879  0.94473  1.0000
  N   N2        1.0  0.26785  0.74937  0.96701  1.0000
  N   N3        1.0  0.26651  0.25200  0.03190  1.0000
  N   N4        1.0  0.73482  0.74908  0.05377  1.0000
  H   H1        1.0  0.70678  0.19623  0.13229  1.0000
  H   H2        1.0  0.29407  0.80394  0.15315  1.0000
  H   H3        1.0  0.30310  0.18859  0.89305  1.0000
  H   H4        1.0  0.69451  0.81265  0.92844  1.0000
  S   S1        1.0  0.94067  0.93541  0.98970  1.0000
  S   S2        1.0  0.06022  0.06380  0.98177  1.0000
  S   S3        1.0  0.06001  0.93565  0.99064  1.0000
  S   S4        1.0  0.94084  0.06349  0.97284  1.0000
  C   C5        1.0  0.97560  0.99961  0.98578  1.0000
  C   C6        1.0  0.02520  0.99976  0.98811  1.0000
  C   C7        1.0  0.88298  0.96990  0.99564  1.0000
  C   C8        1.0  0.11785  0.02974  0.99413  1.0000
  C   C9        1.0  0.11761  0.96973  0.99357  1.0000
  C   C10       1.0  0.88341  0.02979  0.98643  1.0000
  C   C11       1.0  0.60546  0.44595  0.00122  1.0000
  C   C12       1.0  0.55354  0.44562  0.00232  1.0000
  C   C13       1.0  0.52665  0.60718  0.01594  1.0000
  H   H5        1.0  0.54611  0.64831  0.02387  1.0000
  C   C14       1.0  0.39739  0.55459  0.01108  1.0000
  C   C15       1.0  0.44928  0.55481  0.00966  1.0000
  C   C16       1.0  0.47623  0.39319  0.00796  1.0000
  H   H6        1.0  0.45706  0.35192  0.01419  1.0000
  C   C17       1.0  0.39699  0.44665  0.00854  1.0000
  C   C18       1.0  0.44887  0.44602  0.00821  1.0000
  C   C19       1.0  0.47696  0.60744  0.00810  1.0000
  H   H7        1.0  0.45801  0.64882  0.00203  1.0000
  C   C20       1.0  0.60560  0.55360  0.01276  1.0000
  C   C21       1.0  0.55377  0.55421  0.01172  1.0000
  C   C22       1.0  0.52588  0.39294  0.99876  1.0000
  H   H8        1.0  0.54475  0.35149  0.98931  1.0000
  C   C23       1.0  0.62954  0.49982  0.00655  1.0000
  C   C24       1.0  0.52751  0.50001  0.00698  1.0000
  H   H9        1.0  0.66915  0.50011  0.00608  1.0000
  C   C25       1.0  0.37343  0.50071  0.01083  1.0000
  C   C26       1.0  0.47513  0.50028  0.00816  1.0000
  H   H10       1.0  0.33388  0.50077  0.01095  1.0000
  C   C27       1.0  0.72713  0.20321  0.52572  1.0000
  C   C28       1.0  0.26643  0.79555  0.54390  1.0000
  C   C29       1.0  0.27240  0.19766  0.46429  1.0000
  C   C30       1.0  0.73320  0.79683  0.47071  1.0000
  N   N5        1.0  0.73161  0.25280  0.45396  1.0000
  N   N6        1.0  0.26323  0.74667  0.46530  1.0000
  N   N7        1.0  0.26793  0.24829  0.53235  1.0000
  N   N8        1.0  0.73193  0.75243  0.56492  1.0000
  H   H11       1.0  0.69596  0.19202  0.60142  1.0000
  H   H12       1.0  0.29636  0.80614  0.62743  1.0000
  H   H13       1.0  0.30393  0.18498  0.39126  1.0000
  H   H14       1.0  0.70821  0.80196  0.36841  1.0000
  S   S5        1.0  0.93921  0.93898  0.50719  1.0000
  S   S6        1.0  0.06002  0.06499  0.48485  1.0000
  S   S7        1.0  0.05738  0.93676  0.49445  1.0000
  S   S8        1.0  0.93946  0.06673  0.47843  1.0000
  C   C31       1.0  0.97422  0.00280  0.49520  1.0000
  C   C32       1.0  0.02381  0.00198  0.49356  1.0000
  C   C33       1.0  0.88205  0.97333  0.51147  1.0000
  C   C34       1.0  0.11690  0.02934  0.49807  1.0000
  C   C35       1.0  0.11561  0.96935  0.49742  1.0000
  C   C36       1.0  0.88161  0.03316  0.49791  1.0000
  C   C37       1.0  0.60383  0.44942  0.48646  1.0000
  C   C38       1.0  0.55200  0.44814  0.48359  1.0000
  C   C39       1.0  0.52263  0.60877  0.50829  1.0000
  H   H15       1.0  0.54113  0.65039  0.52116  1.0000
  C   C40       1.0  0.39419  0.55287  0.49327  1.0000
  C   C41       1.0  0.44607  0.55449  0.49518  1.0000
  C   C42       1.0  0.47570  0.39362  0.48214  1.0000
  H   H16       1.0  0.45721  0.35184  0.48294  1.0000
  C   C43       1.0  0.39561  0.44503  0.49078  1.0000
  C   C44       1.0  0.44751  0.44579  0.48795  1.0000
  C   C45       1.0  0.47289  0.60781  0.50074  1.0000
  H   H17       1.0  0.45310  0.64876  0.50103  1.0000
  C   C46       1.0  0.60286  0.55704  0.49989  1.0000
  C   C47       1.0  0.55088  0.55666  0.49928  1.0000
  C   C48       1.0  0.52532  0.39485  0.47380  1.0000
  H   H18       1.0  0.54518  0.35422  0.46071  1.0000
  C   C49       1.0  0.62725  0.50354  0.49258  1.0000
  C   C50       1.0  0.52529  0.50191  0.49075  1.0000
  H   H19       1.0  0.66683  0.50402  0.49385  1.0000
  C   C51       1.0  0.37101  0.49847  0.49133  1.0000
  C   C52       1.0  0.47289  0.50073  0.49081  1.0000
  H   H20       1.0  0.33142  0.49783  0.49096  1.0000
  C  Sn1       1.0  0.63945  0.33480  0.11863  1.0000
  C   C53       1.0  0.64330  0.38829  0.04086  1.0000
  C  Sn2       1.0  0.67513  0.39747  0.90687  1.0000
  C  Sn3       1.0  0.70149  0.34848  0.84935  1.0000
  C   C54       1.0  0.69762  0.29503  0.92709  1.0000
  C  Sn4       1.0  0.66581  0.28581  0.06112  1.0000
  O  Te1       1.0  0.60955  0.33031  0.25237  1.0000
  O  Te2       1.0  0.67841  0.45140  0.83115  1.0000
  O  Te3       1.0  0.73140  0.35301  0.71551  1.0000
  O  Te4       1.0  0.66251  0.23192  0.13680  1.0000
  Mg  Mg1       1.0  0.72390  0.43564  0.65328  1.0000
  Mg  Mg2       1.0  0.61702  0.24762  0.31462  1.0000
  C  Sn5       1.0  0.32166  0.61923  0.86738  1.0000
  C   C55       1.0  0.36484  0.61395  0.95547  1.0000
  C  Sn6       1.0  0.37337  0.64952  0.07974  1.0000
  C  Sn7       1.0  0.34019  0.69499  0.11680  1.0000
  C   C56       1.0  0.29705  0.70025  0.02876  1.0000
  C  Sn8       1.0  0.28848  0.66470  0.90445  1.0000
  O  Te5       1.0  0.31174  0.57949  0.74367  1.0000
  O  Te6       1.0  0.41677  0.64337  0.16608  1.0000
  O  Te7       1.0  0.35015  0.73474  0.24063  1.0000
  O  Te8       1.0  0.24511  0.67083  0.81816  1.0000
  Mg  Mg3       1.0  0.41399  0.70830  0.32374  1.0000
  Mg  Mg4       1.0  0.24784  0.60591  0.66053  1.0000
  C  Sn9       1.0  0.32138  0.38037  0.14643  1.0000
  C   C57       1.0  0.36438  0.38683  0.05996  1.0000
  C  Sn10      1.0  0.37683  0.35299  0.93200  1.0000
  C  Sn11      1.0  0.34345  0.30807  0.88950  1.0000
  C   C58       1.0  0.30048  0.30163  0.97593  1.0000
  C  Sn12      1.0  0.28801  0.33545  0.10393  1.0000
  O  Te9       1.0  0.31182  0.41840  0.27391  1.0000
  O  Te10      1.0  0.42006  0.36029  0.84737  1.0000
  O  Te11      1.0  0.35305  0.27003  0.76191  1.0000
  O  Te12      1.0  0.24480  0.32817  0.18851  1.0000
  Mg  Mg5       1.0  0.41678  0.29756  0.68308  1.0000
  Mg  Mg6       1.0  0.24803  0.39089  0.35277  1.0000
  C  Sn13      1.0  0.67849  0.62179  0.16868  1.0000
  C   C59       1.0  0.63663  0.61444  0.07463  1.0000
  C  Sn14      1.0  0.63002  0.65448  0.94447  1.0000
  C  Sn15      1.0  0.66384  0.69908  0.90745  1.0000
  C   C60       1.0  0.70354  0.70272  0.00145  1.0000
  C  Sn16      1.0  0.71231  0.66640  0.13166  1.0000
  O  Te13      1.0  0.68650  0.58495  0.29823  1.0000
  O  Te14      1.0  0.58790  0.64629  0.85223  1.0000
  O  Te15      1.0  0.65580  0.73594  0.77778  1.0000
  O  Te16      1.0  0.75440  0.67456  0.22385  1.0000
  Mg  Mg7       1.0  0.59316  0.70753  0.68789  1.0000
  Mg  Mg8       1.0  0.74919  0.61333  0.38815  1.0000
  C  Sn17      1.0  0.81661  0.84449  0.11518  1.0000
  C   C61       1.0  0.77083  0.84794  0.04193  1.0000
  C  Sn18      1.0  0.76311  0.89524  0.93079  1.0000
  C  Sn19      1.0  0.79979  0.93624  0.89196  1.0000
  C   C62       1.0  0.84555  0.93277  0.96517  1.0000
  C  Sn20      1.0  0.85329  0.88549  0.07635  1.0000
  O  Te17      1.0  0.82566  0.80054  0.22593  1.0000
  O  Te18      1.0  0.71705  0.89781  0.85917  1.0000
  O  Te19      1.0  0.79070  0.98021  0.78111  1.0000
  O  Te20      1.0  0.89932  0.88290  0.14793  1.0000
  Mg  Mg9       1.0  0.72233  0.96567  0.71560  1.0000
  Mg  Mg10      1.0  0.89409  0.81505  0.29144  1.0000
  C  Sn21      1.0  0.15274  0.14459  0.02871  1.0000
  C   C63       1.0  0.15519  0.09125  0.96791  1.0000
  C  Sn22      1.0  0.19879  0.06540  0.91960  1.0000
  C  Sn23      1.0  0.24301  0.09719  0.93243  1.0000
  C   C64       1.0  0.24268  0.15418  0.99322  1.0000
  C  Sn24      1.0  0.19695  0.17638  0.04153  1.0000
  O  Te21      1.0  0.10873  0.16956  0.07628  1.0000
  O  Te22      1.0  0.19819  0.00833  0.85915  1.0000
  O  Te23      1.0  0.28703  0.07217  0.88478  1.0000
  O  Te24      1.0  0.19755  0.23341  0.10198  1.0000
  Mg  Mg11      1.0  0.26840  0.99325  0.81015  1.0000
  Mg  Mg12      1.0  0.12827  0.24852  0.15109  1.0000
  C  Sn25      1.0  0.15316  0.85533  0.95255  1.0000
  C   C65       1.0  0.14941  0.90714  0.02309  1.0000
  C  Sn26      1.0  0.19136  0.93191  0.09066  1.0000
  C  Sn27      1.0  0.23585  0.90057  0.08757  1.0000
  C   C66       1.0  0.23745  0.84510  0.01704  1.0000
  C  Sn28      1.0  0.19765  0.82398  0.94946  1.0000
  O  Te25      1.0  0.11078  0.83142  0.88572  1.0000
  O  Te26      1.0  0.18884  0.98746  0.16055  1.0000
  O  Te27      1.0  0.27824  0.92453  0.15448  1.0000
  O  Te28      1.0  0.20015  0.76848  0.87957  1.0000
  Mg  Mg13      1.0  0.25549  0.00151  0.23578  1.0000
  Mg  Mg14      1.0  0.13263  0.75440  0.80424  1.0000
  C  Sn29      1.0  0.84697  0.14268  0.93340  1.0000
  C   C67       1.0  0.84720  0.08501  0.00933  1.0000
  C  Sn30      1.0  0.80591  0.06155  0.08125  1.0000
  C  Sn31      1.0  0.76132  0.09267  0.07710  1.0000
  C   C68       1.0  0.75897  0.14661  0.00118  1.0000
  C  Sn32      1.0  0.80238  0.17381  0.92925  1.0000
  O  Te29      1.0  0.88870  0.16530  0.86228  1.0000
  O  Te30      1.0  0.80917  0.00751  0.15649  1.0000
  O  Te31      1.0  0.71957  0.07001  0.14830  1.0000
  O  Te32      1.0  0.79913  0.22780  0.85402  1.0000
  Mg  Mg15      1.0  0.74322  0.99485  0.23618  1.0000
  Mg  Mg16      1.0  0.86596  0.24049  0.77422  1.0000
  C  Sn33      1.0  0.63724  0.34015  0.61390  1.0000
  C   C69       1.0  0.64168  0.39278  0.53222  1.0000
  C  Sn34      1.0  0.67254  0.39695  0.40075  1.0000
  C  Sn35      1.0  0.69951  0.34749  0.34979  1.0000
  C   C70       1.0  0.69507  0.29490  0.43143  1.0000
  C  Sn36      1.0  0.66422  0.29069  0.56294  1.0000
  O  Te33      1.0  0.60617  0.33698  0.74501  1.0000
  O  Te34      1.0  0.67638  0.45004  0.32103  1.0000
  O  Te35      1.0  0.73060  0.35071  0.21857  1.0000
  O  Te36      1.0  0.66036  0.23764  0.64262  1.0000
  Mg  Mg17      1.0  0.72349  0.43258  0.14896  1.0000
  Mg  Mg18      1.0  0.61325  0.25505  0.81464  1.0000
  C  Sn37      1.0  0.32002  0.62008  0.34753  1.0000
  C   C71       1.0  0.36173  0.61280  0.44191  1.0000
  C  Sn38      1.0  0.36985  0.64849  0.57586  1.0000
  C  Sn39      1.0  0.33557  0.69236  0.61639  1.0000
  C   C72       1.0  0.29389  0.69962  0.52205  1.0000
  C  Sn40      1.0  0.28574  0.66395  0.38805  1.0000
  O  Te37      1.0  0.31264  0.58389  0.21416  1.0000
  O  Te38      1.0  0.41182  0.64040  0.66837  1.0000
  O  Te39      1.0  0.34299  0.72856  0.74988  1.0000
  O  Te40      1.0  0.24380  0.67202  0.29560  1.0000
  Mg  Mg19      1.0  0.40566  0.70057  0.83857  1.0000
  Mg  Mg20      1.0  0.24991  0.61186  0.12542  1.0000
  C  Sn41      1.0  0.32307  0.37723  0.64128  1.0000
  C   C73       1.0  0.36484  0.38418  0.54885  1.0000
  C  Sn42      1.0  0.37376  0.34679  0.41940  1.0000
  C  Sn43      1.0  0.34022  0.30153  0.38146  1.0000
  C   C74       1.0  0.29848  0.29461  0.47384  1.0000
  C  Sn44      1.0  0.28953  0.33198  0.60334  1.0000
  O  Te41      1.0  0.31489  0.41511  0.77015  1.0000
  O  Te42      1.0  0.41578  0.35458  0.32878  1.0000
  O  Te43      1.0  0.34844  0.26364  0.25247  1.0000
  O  Te44      1.0  0.24754  0.32421  0.69390  1.0000
  Mg  Mg21      1.0  0.41084  0.29187  0.16484  1.0000
  Mg  Mg22      1.0  0.25242  0.38691  0.85781  1.0000
  C  Sn45      1.0  0.63598  0.67003  0.39364  1.0000
  C   C75       1.0  0.64045  0.61526  0.46427  1.0000
  C  Sn46      1.0  0.67153  0.60747  0.59525  1.0000
  C  Sn47      1.0  0.69869  0.65542  0.65700  1.0000
  C   C76       1.0  0.69420  0.71015  0.58641  1.0000
  C  Sn48      1.0  0.66314  0.71798  0.45540  1.0000
  O  Te45      1.0  0.60469  0.67682  0.26280  1.0000
  O  Te46      1.0  0.67540  0.55230  0.66381  1.0000
  O  Te47      1.0  0.72999  0.64859  0.78795  1.0000
  O  Te48      1.0  0.65925  0.77311  0.38687  1.0000
  Mg  Mg23      1.0  0.72284  0.56498  0.84017  1.0000
  Mg  Mg24      1.0  0.61182  0.76050  0.21057  1.0000
  C  Sn49      1.0  0.84704  0.86052  0.57422  1.0000
  C   C77       1.0  0.84854  0.91411  0.49613  1.0000
  C  Sn50      1.0  0.80695  0.93598  0.42073  1.0000
  C  Sn51      1.0  0.76291  0.90362  0.42351  1.0000
  C   C78       1.0  0.76142  0.85007  0.50158  1.0000
  C  Sn52      1.0  0.80300  0.82816  0.57700  1.0000
  O  Te49      1.0  0.88906  0.83950  0.64881  1.0000
  O  Te50      1.0  0.80935  0.98966  0.34338  1.0000
  O  Te51      1.0  0.72087  0.92469  0.34883  1.0000
  O  Te52      1.0  0.80061  0.77452  0.65433  1.0000
  Mg  Mg25      1.0  0.74239  0.99997  0.25913  1.0000
  Mg  Mg26      1.0  0.86753  0.76418  0.73869  1.0000
  C  Sn53      1.0  0.21803  0.05683  0.44787  1.0000
  C   C79       1.0  0.17287  0.06251  0.52240  1.0000
  C  Sn54      1.0  0.15557  0.11752  0.56757  1.0000
  C  Sn55      1.0  0.18398  0.16790  0.53753  1.0000
  C   C80       1.0  0.22910  0.16221  0.46302  1.0000
  C  Sn56      1.0  0.24644  0.10722  0.41783  1.0000
  O  Te53      1.0  0.23551  0.00141  0.40373  1.0000
  O  Te54      1.0  0.11032  0.12209  0.64196  1.0000
  O  Te55      1.0  0.16736  0.22335  0.58175  1.0000
  O  Te56      1.0  0.29165  0.10263  0.34346  1.0000
  Mg  Mg27      1.0  0.10342  0.20711  0.67968  1.0000
  Mg  Mg28      1.0  0.29857  0.01764  0.30561  1.0000
  C  Sn57      1.0  0.15013  0.85443  0.45630  1.0000
  C   C81       1.0  0.14954  0.91045  0.52389  1.0000
  C  Sn58      1.0  0.19228  0.93535  0.58531  1.0000
  C  Sn59      1.0  0.23654  0.90361  0.57896  1.0000
  C   C82       1.0  0.23712  0.84763  0.51138  1.0000
  C  Sn60      1.0  0.19439  0.82269  0.44994  1.0000
  O  Te57      1.0  0.10697  0.83041  0.39561  1.0000
  O  Te58      1.0  0.19078  0.99141  0.65236  1.0000
  O  Te59      1.0  0.27972  0.92769  0.63973  1.0000
  O  Te60      1.0  0.19588  0.76667  0.38291  1.0000
  Mg  Mg29      1.0  0.25823  0.00543  0.71915  1.0000
  Mg  Mg30      1.0  0.12755  0.75262  0.31601  1.0000
  C  Sn61      1.0  0.84606  0.14775  0.47079  1.0000
  C   C83       1.0  0.84563  0.09048  0.52670  1.0000
  C  Sn62      1.0  0.80176  0.06368  0.56708  1.0000
  C  Sn63      1.0  0.75738  0.09475  0.55116  1.0000
  C   C84       1.0  0.75782  0.15197  0.49525  1.0000
  C  Sn64      1.0  0.80168  0.17882  0.45487  1.0000
  O  Te61      1.0  0.89034  0.17368  0.43111  1.0000
  O  Te62      1.0  0.80225  0.00640  0.62277  1.0000
  O  Te63      1.0  0.71308  0.06877  0.59090  1.0000
  O  Te64      1.0  0.80119  0.23606  0.39918  1.0000
  Mg  Mg31      1.0  0.73347  0.98992  0.66139  1.0000
  Mg  Mg32      1.0  0.87086  0.25257  0.36045  1.0000
