data_image0
_chemical_formula_structural       C4N4C18H16S4C24H12C3HC3HC3HC3HC2HC2HC4N4H4S4C18H8C3HC3HC3HC3HC2HC2HSnCSn2CSnTe4Mg2SnCSn2CSnTe4Mg2SnCSn2CSnTe4Mg2SnCSn2CSnTe4Mg2SnCSn2CSnTe4Mg2SnCSn2CSnTe4Mg2SnCSn2CSnTe4Mg2SnCSn2CSnTe4Mg2
_chemical_formula_sum              "C116 N8 H52 S8 Sn32 Te32 Mg16"
_cell_length_a       27.464
_cell_length_b       22.9146
_cell_length_c       8.36245
_cell_angle_alpha    90.5793
_cell_angle_beta     90.4016
_cell_angle_gamma    90.0621

_symmetry_space_group_name_H-M    'P1'
_space_group_IT_number       1

loop_
  _space_group_symop_operation_xyz
  'x, y, z'

loop_
  _atom_site_type_symbol
  _atom_site_label
  _atom_site_symmetry_multiplicity
  _atom_site_fract_x
  _atom_site_fract_y
  _atom_site_fract_z
  _atom_site_occupancy
  C   C1        1.0  0.73245  0.20293  0.03376  1.0000
  C   C2        1.0  0.26787  0.79609  0.05522  1.0000
  C   C3        1.0  0.27110  0.20133  0.96368  1.0000
  C   C4        1.0  0.72837  0.79982  0.98971  1.0000
  N   N1        1.0  0.73219  0.24879  0.94473  1.0000
  N   N2        1.0  0.26785  0.74937  0.96701  1.0000
  N   N3        1.0  0.26651  0.25200  0.03190  1.0000
  N   N4        1.0  0.73482  0.74908  0.05377  1.0000
  C   C5        1.0  0.69879  0.29426  0.96746  1.0000
  C   C6        1.0  0.63598  0.39285  0.99115  1.0000
  C   C7        1.0  0.30139  0.29621  0.01836  1.0000
  C   C8        1.0  0.63601  0.60673  0.02418  1.0000
  C   C9        1.0  0.69994  0.70466  0.04175  1.0000
  C   C10       1.0  0.36589  0.39394  0.01064  1.0000
  C   C11       1.0  0.70860  0.34582  0.88349  1.0000
  C   C12       1.0  0.62682  0.34136  0.07751  1.0000
  C   C13       1.0  0.29131  0.34790  0.10431  1.0000
  C   C14       1.0  0.62726  0.65728  0.93333  1.0000
  C   C15       1.0  0.70906  0.65405  0.13140  1.0000
  C   C16       1.0  0.37528  0.34255  0.92119  1.0000
  C   C17       1.0  0.67784  0.39372  0.89463  1.0000
  C   C18       1.0  0.65711  0.29295  0.06493  1.0000
  C   C19       1.0  0.32285  0.39518  0.10152  1.0000
  C   C20       1.0  0.65809  0.70530  0.94302  1.0000
  C   C21       1.0  0.67760  0.60657  0.12375  1.0000
  C   C22       1.0  0.34425  0.29457  0.92618  1.0000
  H   H1        1.0  0.70678  0.19623  0.13229  1.0000
  H   H2        1.0  0.29407  0.80394  0.15315  1.0000
  H   H3        1.0  0.30310  0.18859  0.89305  1.0000
  H   H4        1.0  0.69451  0.81265  0.92844  1.0000
  H   H5        1.0  0.74027  0.34643  0.80615  1.0000
  H   H6        1.0  0.59689  0.34021  0.16181  1.0000
  H   H7        1.0  0.25860  0.34892  0.17675  1.0000
  H   H8        1.0  0.59761  0.65753  0.84660  1.0000
  H   H9        1.0  0.74099  0.65337  0.20893  1.0000
  H   H10       1.0  0.40609  0.34126  0.84037  1.0000
  H   H11       1.0  0.68503  0.43189  0.82214  1.0000
  H   H12       1.0  0.64900  0.25460  0.13558  1.0000
  H   H13       1.0  0.31518  0.43319  0.17599  1.0000
  H   H14       1.0  0.65096  0.74224  0.86586  1.0000
  H   H15       1.0  0.68440  0.56890  0.19874  1.0000
  H   H16       1.0  0.35253  0.25673  0.85167  1.0000
  S   S1        1.0  0.94067  0.93541  0.98970  1.0000
  S   S2        1.0  0.06022  0.06380  0.98177  1.0000
  S   S3        1.0  0.06001  0.93565  0.99064  1.0000
  S   S4        1.0  0.94084  0.06349  0.97284  1.0000
  C   C23       1.0  0.97560  0.99961  0.98578  1.0000
  C   C24       1.0  0.02520  0.99976  0.98811  1.0000
  C   C25       1.0  0.88298  0.96990  0.99564  1.0000
  C   C26       1.0  0.11785  0.02974  0.99413  1.0000
  C   C27       1.0  0.11761  0.96973  0.99357  1.0000
  C   C28       1.0  0.88341  0.02979  0.98643  1.0000
  C   C29       1.0  0.84188  0.92911  0.99919  1.0000
  C   C30       1.0  0.15871  0.07114  0.99337  1.0000
  C   C31       1.0  0.84280  0.07149  0.99127  1.0000
  C   C32       1.0  0.84858  0.87367  0.06946  1.0000
  C   C33       1.0  0.15300  0.12691  0.06538  1.0000
  C   C34       1.0  0.84554  0.12349  0.90217  1.0000
  C   C35       1.0  0.81212  0.83190  0.06656  1.0000
  C   C36       1.0  0.18927  0.16888  0.05776  1.0000
  C   C37       1.0  0.80938  0.16554  0.91221  1.0000
  C   C38       1.0  0.76670  0.84367  0.99465  1.0000
  C   C39       1.0  0.23307  0.15732  0.97651  1.0000
  C   C40       1.0  0.76910  0.15760  0.01308  1.0000
  C   C41       1.0  0.75954  0.89899  0.92585  1.0000
  C   C42       1.0  0.23916  0.10168  0.90614  1.0000
  C   C43       1.0  0.76595  0.10558  0.10069  1.0000
  C   C44       1.0  0.79635  0.94068  0.92678  1.0000
  C   C45       1.0  0.20296  0.05945  0.91505  1.0000
  C   C46       1.0  0.80209  0.06339  0.08985  1.0000
  H   H17       1.0  0.88289  0.86425  0.12977  1.0000
  H   H18       1.0  0.11964  0.13654  0.13001  1.0000
  H   H19       1.0  0.87626  0.13011  0.82279  1.0000
  H   H20       1.0  0.81753  0.78950  0.12113  1.0000
  H   H21       1.0  0.18465  0.21145  0.11419  1.0000
  H   H22       1.0  0.81158  0.20545  0.84334  1.0000
  H   H23       1.0  0.72503  0.90842  0.86653  1.0000
  H   H24       1.0  0.27231  0.09216  0.84021  1.0000
  H   H25       1.0  0.73550  0.09914  0.18138  1.0000
  H   H26       1.0  0.79059  0.98225  0.86845  1.0000
  H   H27       1.0  0.20842  0.01708  0.85903  1.0000
  H   H28       1.0  0.79958  0.02407  0.16040  1.0000
  C   C47       1.0  0.60546  0.44595  0.00122  1.0000
  C   C48       1.0  0.55354  0.44562  0.00232  1.0000
  C   C49       1.0  0.52665  0.60718  0.01594  1.0000
  H   H29       1.0  0.54611  0.64831  0.02387  1.0000
  C   C50       1.0  0.39739  0.55459  0.01108  1.0000
  C   C51       1.0  0.44928  0.55481  0.00966  1.0000
  C   C52       1.0  0.47623  0.39319  0.00796  1.0000
  H   H30       1.0  0.45706  0.35192  0.01419  1.0000
  C   C53       1.0  0.39699  0.44665  0.00854  1.0000
  C   C54       1.0  0.44887  0.44602  0.00821  1.0000
  C   C55       1.0  0.47696  0.60744  0.00810  1.0000
  H   H31       1.0  0.45801  0.64882  0.00203  1.0000
  C   C56       1.0  0.60560  0.55360  0.01276  1.0000
  C   C57       1.0  0.55377  0.55421  0.01172  1.0000
  C   C58       1.0  0.52588  0.39294  0.99876  1.0000
  H   H32       1.0  0.54475  0.35149  0.98931  1.0000
  C   C59       1.0  0.62954  0.49982  0.00655  1.0000
  C   C60       1.0  0.52751  0.50001  0.00698  1.0000
  H   H33       1.0  0.66915  0.50011  0.00608  1.0000
  C   C61       1.0  0.37343  0.50071  0.01083  1.0000
  C   C62       1.0  0.47513  0.50028  0.00816  1.0000
  H   H34       1.0  0.33388  0.50077  0.01095  1.0000
  C   C63       1.0  0.72713  0.20321  0.52572  1.0000
  C   C64       1.0  0.26643  0.79555  0.54390  1.0000
  C   C65       1.0  0.27240  0.19766  0.46429  1.0000
  C   C66       1.0  0.73320  0.79683  0.47071  1.0000
  N   N5        1.0  0.73161  0.25280  0.45396  1.0000
  N   N6        1.0  0.26323  0.74667  0.46530  1.0000
  N   N7        1.0  0.26793  0.24829  0.53235  1.0000
  N   N8        1.0  0.73193  0.75243  0.56492  1.0000
  H   H35       1.0  0.69596  0.19202  0.60142  1.0000
  H   H36       1.0  0.29636  0.80614  0.62743  1.0000
  H   H37       1.0  0.30393  0.18498  0.39126  1.0000
  H   H38       1.0  0.70821  0.80196  0.36841  1.0000
  S   S5        1.0  0.93921  0.93898  0.50719  1.0000
  S   S6        1.0  0.06002  0.06499  0.48485  1.0000
  S   S7        1.0  0.05738  0.93676  0.49445  1.0000
  S   S8        1.0  0.93946  0.06673  0.47843  1.0000
  C   C67       1.0  0.97422  0.00280  0.49520  1.0000
  C   C68       1.0  0.02381  0.00198  0.49356  1.0000
  C   C69       1.0  0.88205  0.97333  0.51147  1.0000
  C   C70       1.0  0.11690  0.02934  0.49807  1.0000
  C   C71       1.0  0.11561  0.96935  0.49742  1.0000
  C   C72       1.0  0.88161  0.03316  0.49791  1.0000
  C   C73       1.0  0.15575  0.92708  0.50249  1.0000
  C   C74       1.0  0.84063  0.07407  0.49972  1.0000
  C   C75       1.0  0.15107  0.87269  0.42196  1.0000
  C   C76       1.0  0.84643  0.13022  0.43265  1.0000
  C   C77       1.0  0.18704  0.83047  0.43317  1.0000
  C   C78       1.0  0.80969  0.17153  0.43855  1.0000
  C   C79       1.0  0.22930  0.84045  0.52597  1.0000
  C   C80       1.0  0.76503  0.15905  0.51277  1.0000
  C   C81       1.0  0.23454  0.89499  0.60359  1.0000
  C   C82       1.0  0.75876  0.10314  0.57860  1.0000
  C   C83       1.0  0.19850  0.93727  0.59238  1.0000
  C   C84       1.0  0.79561  0.06164  0.57243  1.0000
  H   H39       1.0  0.11906  0.86436  0.34765  1.0000
  H   H40       1.0  0.88038  0.14101  0.37329  1.0000
  H   H41       1.0  0.18371  0.78895  0.36985  1.0000
  H   H42       1.0  0.81458  0.21449  0.38684  1.0000
  H   H43       1.0  0.26661  0.90350  0.67760  1.0000
  H   H44       1.0  0.72486  0.09283  0.63896  1.0000
  H   H45       1.0  0.20243  0.97844  0.65629  1.0000
  H   H46       1.0  0.79020  0.01942  0.62724  1.0000
  C   C85       1.0  0.60383  0.44942  0.48646  1.0000
  C   C86       1.0  0.55200  0.44814  0.48359  1.0000
  C   C87       1.0  0.52263  0.60877  0.50829  1.0000
  H   H47       1.0  0.54113  0.65039  0.52116  1.0000
  C   C88       1.0  0.39419  0.55287  0.49327  1.0000
  C   C89       1.0  0.44607  0.55449  0.49518  1.0000
  C   C90       1.0  0.47570  0.39362  0.48214  1.0000
  H   H48       1.0  0.45721  0.35184  0.48294  1.0000
  C   C91       1.0  0.39561  0.44503  0.49078  1.0000
  C   C92       1.0  0.44751  0.44579  0.48795  1.0000
  C   C93       1.0  0.47289  0.60781  0.50074  1.0000
  H   H49       1.0  0.45310  0.64876  0.50103  1.0000
  C   C94       1.0  0.60286  0.55704  0.49989  1.0000
  C   C95       1.0  0.55088  0.55666  0.49928  1.0000
  C   C96       1.0  0.52532  0.39485  0.47380  1.0000
  H   H50       1.0  0.54518  0.35422  0.46071  1.0000
  C   C97       1.0  0.62725  0.50354  0.49258  1.0000
  C   C98       1.0  0.52529  0.50191  0.49075  1.0000
  H   H51       1.0  0.66683  0.50402  0.49385  1.0000
  C   C99       1.0  0.37101  0.49847  0.49133  1.0000
  C   C100      1.0  0.47289  0.50073  0.49081  1.0000
  H   H52       1.0  0.33142  0.49783  0.49096  1.0000
  C  Sn1       1.0  0.32002  0.62008  0.34753  1.0000
  C   C101      1.0  0.36173  0.61280  0.44191  1.0000
  C  Sn2       1.0  0.36985  0.64849  0.57586  1.0000
  C  Sn3       1.0  0.33557  0.69236  0.61639  1.0000
  C   C102      1.0  0.29389  0.69962  0.52205  1.0000
  C  Sn4       1.0  0.28574  0.66395  0.38805  1.0000
  O  Te1       1.0  0.31264  0.58389  0.21416  1.0000
  O  Te2       1.0  0.41182  0.64040  0.66837  1.0000
  O  Te3       1.0  0.34299  0.72856  0.74988  1.0000
  O  Te4       1.0  0.24380  0.67202  0.29560  1.0000
  Mg  Mg1       1.0  0.40566  0.70057  0.83857  1.0000
  Mg  Mg2       1.0  0.24991  0.61186  0.12542  1.0000
  C  Sn5       1.0  0.63805  0.70814  0.47638  1.0000
  C   C103      1.0  0.68080  0.71340  0.56705  1.0000
  C  Sn6       1.0  0.70454  0.66371  0.62334  1.0000
  C  Sn7       1.0  0.68517  0.60759  0.58820  1.0000
  C   C104      1.0  0.64246  0.60235  0.49756  1.0000
  C  Sn8       1.0  0.61868  0.65202  0.44124  1.0000
  O  Te5       1.0  0.61493  0.75841  0.42134  1.0000
  O  Te6       1.0  0.74722  0.67007  0.71380  1.0000
  O  Te7       1.0  0.70834  0.55730  0.64334  1.0000
  O  Te8       1.0  0.57604  0.64568  0.35081  1.0000
  Mg  Mg3       1.0  0.76548  0.58851  0.76186  1.0000
  Mg  Mg4       1.0  0.55776  0.72720  0.30263  1.0000
  C  Sn9       1.0  0.28885  0.63352  0.93699  1.0000
  C   C105      1.0  0.29104  0.68411  0.01348  1.0000
  C  Sn10      1.0  0.33551  0.70173  0.08028  1.0000
  C  Sn11      1.0  0.37652  0.66434  0.07035  1.0000
  C   C106      1.0  0.37432  0.61379  0.99388  1.0000
  C  Sn12      1.0  0.32986  0.59612  0.92706  1.0000
  O  Te9       1.0  0.24405  0.61680  0.87104  1.0000
  O  Te10      1.0  0.33894  0.75619  0.15620  1.0000
  O  Te11      1.0  0.42134  0.68110  0.13638  1.0000
  O  Te12      1.0  0.32643  0.54170  0.85116  1.0000
  Mg  Mg5       1.0  0.40779  0.75942  0.22749  1.0000
  Mg  Mg6       1.0  0.25760  0.53844  0.77975  1.0000
  C  Sn13      1.0  0.21803  0.05683  0.44787  1.0000
  C   C107      1.0  0.17287  0.06251  0.52240  1.0000
  C  Sn14      1.0  0.15557  0.11752  0.56757  1.0000
  C  Sn15      1.0  0.18398  0.16790  0.53753  1.0000
  C   C108      1.0  0.22910  0.16221  0.46302  1.0000
  C  Sn16      1.0  0.24644  0.10722  0.41783  1.0000
  O  Te13      1.0  0.23551  0.00141  0.40373  1.0000
  O  Te14      1.0  0.11032  0.12209  0.64196  1.0000
  O  Te15      1.0  0.16736  0.22335  0.58175  1.0000
  O  Te16      1.0  0.29165  0.10263  0.34346  1.0000
  Mg  Mg7       1.0  0.10342  0.20711  0.67968  1.0000
  Mg  Mg8       1.0  0.29857  0.01764  0.30561  1.0000
  C  Sn17      1.0  0.63875  0.29968  0.53718  1.0000
  C   C109      1.0  0.68155  0.29223  0.44993  1.0000
  C  Sn18      1.0  0.70541  0.34040  0.38571  1.0000
  C  Sn19      1.0  0.68611  0.39720  0.40925  1.0000
  C   C110      1.0  0.64334  0.40462  0.49647  1.0000
  C  Sn20      1.0  0.61945  0.35648  0.56072  1.0000
  O  Te17      1.0  0.61551  0.25090  0.60030  1.0000
  O  Te18      1.0  0.74814  0.33186  0.29888  1.0000
  O  Te19      1.0  0.70939  0.44599  0.34603  1.0000
  O  Te20      1.0  0.57675  0.36500  0.64753  1.0000
  Mg  Mg9       1.0  0.76656  0.41200  0.23662  1.0000
  Mg  Mg10      1.0  0.55831  0.28490  0.70991  1.0000
  C  Sn21      1.0  0.22264  0.90055  0.15292  1.0000
  C   C111      1.0  0.22481  0.84558  0.07940  1.0000
  C  Sn22      1.0  0.19731  0.83619  0.94740  1.0000
  C  Sn23      1.0  0.16483  0.87895  0.88755  1.0000
  C   C112      1.0  0.16267  0.93388  0.96103  1.0000
  C  Sn24      1.0  0.19016  0.94331  0.09307  1.0000
  O  Te21      1.0  0.25261  0.91267  0.28473  1.0000
  O  Te22      1.0  0.20012  0.78092  0.87595  1.0000
  O  Te23      1.0  0.13485  0.86678  0.75564  1.0000
  O  Te24      1.0  0.18736  0.99854  0.16449  1.0000
  Mg  Mg11      1.0  0.15193  0.78527  0.69929  1.0000
  Mg  Mg12      1.0  0.23555  0.99425  0.34110  1.0000
  C  Sn25      1.0  0.36159  0.33383  0.36678  1.0000
  C   C113      1.0  0.35819  0.38701  0.44919  1.0000
  C  Sn26      1.0  0.32869  0.39217  0.58398  1.0000
  C  Sn27      1.0  0.30206  0.34313  0.63761  1.0000
  C   C114      1.0  0.30548  0.28998  0.55524  1.0000
  C  Sn28      1.0  0.33496  0.28479  0.42041  1.0000
  O  Te25      1.0  0.39131  0.32967  0.23232  1.0000
  O  Te26      1.0  0.32585  0.44580  0.66436  1.0000
  O  Te27      1.0  0.27232  0.34733  0.77218  1.0000
  O  Te28      1.0  0.33781  0.23120  0.34007  1.0000
  Mg  Mg13      1.0  0.28045  0.42964  0.84140  1.0000
  Mg  Mg14      1.0  0.38322  0.24730  0.16308  1.0000
  C  Sn29      1.0  0.81147  0.85137  0.64013  1.0000
  C   C115      1.0  0.77028  0.84986  0.54111  1.0000
  C  Sn30      1.0  0.76615  0.88799  0.41246  1.0000
  C  Sn31      1.0  0.80400  0.92847  0.38208  1.0000
  C   C116      1.0  0.84517  0.92996  0.48105  1.0000
  C  Sn32      1.0  0.84932  0.89185  0.60975  1.0000
  O  Te29      1.0  0.81483  0.81284  0.76805  1.0000
  O  Te30      1.0  0.72461  0.88567  0.31517  1.0000
  O  Te31      1.0  0.80061  0.96701  0.25404  1.0000
  O  Te32      1.0  0.89083  0.89415  0.70698  1.0000
  Mg  Mg15      1.0  0.73691  0.94708  0.15554  1.0000
  Mg  Mg16      1.0  0.87858  0.83274  0.86659  1.0000
