data_image0
_chemical_formula_structural       CNC6NC4OC10NC4OC3BCBCONOC2H14CNC6NC4OC10NC4OC3BCBCONOC2H14CNC6NC4OC10NC4OC3BCBCONOC2H20CNC6NC4OC10NC4OC3BCBCONOC2H14CNC6NC4OC10NC4OC3BCBCONOC2H14CNC6NC4OC10NC4OC3BCBCONOC2H20C2Sn2C2HTe2HMgC2Sn2C2HTe2HMgC2Sn2C2HTe2HMgC2Sn2C2HTe2HMgC2Sn2C2HTe2HMgC2Sn2C2HTe2HMgC2Sn2C2HTe2HMgC2Sn2C2HTe2HMgC2Sn2C2HTe2HMgC2Sn2C2HTe2HMgC2Sn2C2HTe2HMgC2Sn2C2HTe2HMg
_chemical_formula_sum              "C240 N24 O24 B12 H120 Sn24 Te24 Mg12"
_cell_length_a       52.4875
_cell_length_b       52.9661
_cell_length_c       8.08235
_cell_angle_alpha    108.569
_cell_angle_beta     101.296
_cell_angle_gamma    119.663

_symmetry_space_group_name_H-M    'P1'
_space_group_IT_number       1

loop_
  _space_group_symop_operation_xyz
  'x, y, z'

loop_
  _atom_site_type_symbol
  _atom_site_label
  _atom_site_symmetry_multiplicity
  _atom_site_fract_x
  _atom_site_fract_y
  _atom_site_fract_z
  _atom_site_occupancy
  C   C1        1.0  0.93428  0.95668  0.00852  1.0000
  N   N1        1.0  0.71647  0.88872  0.04394  1.0000
  C   C2        1.0  0.74640  0.90221  0.03977  1.0000
  C   C3        1.0  0.76252  0.93741  0.12076  1.0000
  C   C4        1.0  0.74168  0.94381  0.16663  1.0000
  C   C5        1.0  0.95768  0.00705  0.98259  1.0000
  C   C6        1.0  0.98472  0.00715  0.98154  1.0000
  C   C7        1.0  0.42580  0.72492  0.01280  1.0000
  N   N2        1.0  0.64183  0.79396  0.95415  1.0000
  C   C8        1.0  0.64763  0.77062  0.90259  1.0000
  C   C9        1.0  0.61411  0.78181  0.98382  1.0000
  C   C10       1.0  0.60246  0.74931  0.95804  1.0000
  C   C11       1.0  0.62268  0.74242  0.90598  1.0000
  O   O1        1.0  0.45444  0.74694  0.00986  1.0000
  C   C12       1.0  0.39825  0.67120  0.99942  1.0000
  C   C13       1.0  0.37389  0.67431  0.02933  1.0000
  C   C14       1.0  0.42299  0.69601  0.98529  1.0000
  C   C15       1.0  0.65711  0.88237  0.12349  1.0000
  C   C16       1.0  0.61825  0.83325  0.06967  1.0000
  C   C17       1.0  0.60691  0.85382  0.11087  1.0000
  C   C18       1.0  0.63137  0.88445  0.14744  1.0000
  C   C19       1.0  0.40223  0.72833  0.03436  1.0000
  C   C20       1.0  0.37503  0.70218  0.03600  1.0000
  C   C21       1.0  0.93320  0.98187  0.99530  1.0000
  N   N3        1.0  0.70951  0.83143  0.92802  1.0000
  C   C22       1.0  0.69891  0.79900  0.85322  1.0000
  C   C23       1.0  0.73783  0.84829  0.90993  1.0000
  C   C24       1.0  0.74472  0.82551  0.81387  1.0000
  C   C25       1.0  0.72060  0.79495  0.78041  1.0000
  O   O2        1.0  0.90500  0.97699  0.00064  1.0000
  C   C26       1.0  0.95995  0.95577  0.00727  1.0000
  C   C27       1.0  0.68599  0.90979  0.14928  1.0000
  C   C28       1.0  0.67208  0.77266  0.85017  1.0000
  B   B1        1.0  0.88886  0.94804  0.01823  1.0000
  C   C29       1.0  0.60094  0.79946  0.02759  1.0000
  B   B2        1.0  0.46883  0.73053  0.97679  1.0000
  C   C30       1.0  0.71253  0.91307  0.12017  1.0000
  O   O3        1.0  0.90662  0.93504  0.02119  1.0000
  N   N4        1.0  0.64868  0.85122  0.07591  1.0000
  O   O4        1.0  0.44888  0.69835  0.95320  1.0000
  C   C31       1.0  0.75745  0.88308  0.97474  1.0000
  C   C32       1.0  0.98572  0.98123  0.99281  1.0000
  H   H1        1.0  0.39730  0.64959  0.98375  1.0000
  H   H2        1.0  0.40473  0.75062  0.04953  1.0000
  H   H3        1.0  0.78688  0.95535  0.14320  1.0000
  H   H4        1.0  0.74587  0.96765  0.22892  1.0000
  H   H5        1.0  0.95594  0.02624  0.97528  1.0000
  H   H6        1.0  0.58190  0.73393  0.98126  1.0000
  H   H7        1.0  0.62116  0.72015  0.87545  1.0000
  H   H8        1.0  0.58367  0.84613  0.11183  1.0000
  H   H9        1.0  0.63190  0.90629  0.18306  1.0000
  H   H10       1.0  0.76474  0.83197  0.77416  1.0000
  H   H11       1.0  0.71720  0.77165  0.70951  1.0000
  H   H12       1.0  0.96026  0.93620  0.02078  1.0000
  H   H13       1.0  0.68832  0.93284  0.20138  1.0000
  H   H14       1.0  0.66984  0.74965  0.79930  1.0000
  C   C33       1.0  0.06608  0.98081  0.98226  1.0000
  N   N5        1.0  0.13304  0.82800  0.94677  1.0000
  C   C34       1.0  0.12118  0.84621  0.95567  1.0000
  C   C35       1.0  0.08968  0.82911  0.96177  1.0000
  C   C36       1.0  0.08209  0.79964  0.94664  1.0000
  C   C37       1.0  0.01369  0.95451  0.99080  1.0000
  C   C38       1.0  0.01332  0.98107  0.98894  1.0000
  C   C39       1.0  0.29775  0.70680  0.07090  1.0000
  N   N6        1.0  0.22306  0.85126  0.07731  1.0000
  C   C40       1.0  0.24867  0.88356  0.14277  1.0000
  C   C41       1.0  0.23660  0.83653  0.12282  1.0000
  C   C42       1.0  0.27174  0.86102  0.23532  1.0000
  C   C43       1.0  0.27925  0.89019  0.24441  1.0000
  O   O5        1.0  0.27586  0.71379  0.08256  1.0000
  C   C44       1.0  0.34811  0.73010  0.03657  1.0000
  C   C45       1.0  0.34844  0.70387  0.04588  1.0000
  C   C46       1.0  0.32271  0.73083  0.04834  1.0000
  C   C47       1.0  0.13459  0.76898  0.92730  1.0000
  C   C48       1.0  0.18453  0.78120  0.98869  1.0000
  C   C49       1.0  0.16181  0.74631  0.92405  1.0000
  C   C50       1.0  0.13170  0.73918  0.89135  1.0000
  C   C51       1.0  0.29681  0.68078  0.07683  1.0000
  C   C52       1.0  0.32212  0.67853  0.05921  1.0000
  C   C53       1.0  0.03970  0.95470  0.98392  1.0000
  N   N7        1.0  0.18862  0.88345  0.01057  1.0000
  C   C54       1.0  0.21973  0.90626  0.04023  1.0000
  C   C55       1.0  0.16954  0.89352  0.97140  1.0000
  C   C56       1.0  0.18928  0.92347  0.96357  1.0000
  C   C57       1.0  0.21987  0.93133  0.00678  1.0000
  O   O6        1.0  0.04507  0.93148  0.98133  1.0000
  C   C58       1.0  0.06663  0.00685  0.97848  1.0000
  C   C59       1.0  0.10964  0.77226  0.91698  1.0000
  C   C60       1.0  0.24680  0.90705  0.10949  1.0000
  B   B3        1.0  0.07579  0.94445  0.98189  1.0000
  C   C61       1.0  0.21877  0.80184  0.06053  1.0000
  B   B4        1.0  0.28780  0.74249  0.06297  1.0000
  C   C62       1.0  0.10935  0.79932  0.93725  1.0000
  O   O7        1.0  0.08922  0.97505  0.98267  1.0000
  N   N8        1.0  0.16662  0.79333  0.98129  1.0000
  O   O8        1.0  0.31683  0.75339  0.04154  1.0000
  C   C63       1.0  0.13767  0.87728  0.95860  1.0000
  C   C64       1.0  0.03976  0.00726  0.98024  1.0000
  H   H15       1.0  0.36692  0.74896  0.01776  1.0000
  H   H16       1.0  0.27704  0.66272  0.09442  1.0000
  H   H17       1.0  0.07600  0.83889  0.98079  1.0000
  H   H18       1.0  0.06089  0.78042  0.94914  1.0000
  H   H19       1.0  0.99398  0.93411  0.99552  1.0000
  H   H20       1.0  0.28800  0.85649  0.30069  1.0000
  H   H21       1.0  0.30294  0.91405  0.31566  1.0000
  H   H22       1.0  0.16767  0.72900  0.90582  1.0000
  H   H23       1.0  0.10923  0.71547  0.84595  1.0000
  H   H24       1.0  0.18095  0.93692  0.92816  1.0000
  H   H25       1.0  0.24084  0.95242  0.01459  1.0000
  H   H26       1.0  0.08722  0.02630  0.97312  1.0000
  H   H27       1.0  0.08709  0.75036  0.89241  1.0000
  H   H28       1.0  0.26986  0.92972  0.14651  1.0000
  C   C65       1.0  0.03603  0.08411  0.94923  1.0000
  N   N9        1.0  0.18461  0.30905  0.02883  1.0000
  C   C66       1.0  0.16830  0.28015  0.03945  1.0000
  C   C67       1.0  0.19150  0.27396  0.09499  1.0000
  C   C68       1.0  0.22026  0.29813  0.10532  1.0000
  C   C69       1.0  0.06491  0.06006  0.96160  1.0000
  C   C70       1.0  0.03892  0.03403  0.97176  1.0000
  C   C71       1.0  0.32105  0.59859  0.06893  1.0000
  N   N10       1.0  0.16190  0.37333  0.96156  1.0000
  C   C72       1.0  0.13130  0.36312  0.94323  1.0000
  C   C73       1.0  0.17953  0.40446  0.97724  1.0000
  C   C74       1.0  0.15863  0.41455  0.96898  1.0000
  C   C75       1.0  0.12926  0.38921  0.94573  1.0000
  O   O9        1.0  0.31561  0.57117  0.08461  1.0000
  C   C76       1.0  0.29401  0.62446  0.05789  1.0000
  C   C77       1.0  0.32117  0.65043  0.05541  1.0000
  C   C78       1.0  0.29445  0.59905  0.06258  1.0000
  C   C79       1.0  0.23940  0.37220  0.02533  1.0000
  C   C80       1.0  0.22816  0.40613  0.00625  1.0000
  C   C81       1.0  0.25924  0.41847  0.99531  1.0000
  C   C82       1.0  0.26627  0.39746  0.00908  1.0000
  C   C83       1.0  0.34714  0.62244  0.05762  1.0000
  C   C84       1.0  0.34728  0.64879  0.04703  1.0000
  C   C85       1.0  0.06281  0.08432  0.94917  1.0000
  N   N11       1.0  0.13001  0.30408  0.97075  1.0000
  C   C86       1.0  0.10526  0.30698  0.93251  1.0000
  C   C87       1.0  0.11672  0.27362  0.96262  1.0000
  C   C88       1.0  0.08205  0.25652  0.91311  1.0000
  C   C89       1.0  0.07522  0.27754  0.89761  1.0000
  O   O10       1.0  0.08468  0.11174  0.93667  1.0000
  C   C90       1.0  0.01053  0.05957  0.96042  1.0000
  C   C91       1.0  0.23937  0.34734  0.05110  1.0000
  C   C92       1.0  0.10644  0.33358  0.92626  1.0000
  B   B5        1.0  0.07054  0.12837  0.93067  1.0000
  C   C93       1.0  0.21209  0.42124  0.00143  1.0000
  B   B6        1.0  0.28450  0.55460  0.08199  1.0000
  C   C94       1.0  0.21599  0.32039  0.06247  1.0000
  O   O11       1.0  0.04022  0.11118  0.93633  1.0000
  N   N12       1.0  0.21625  0.37754  0.01935  1.0000
  O   O12       1.0  0.27104  0.57143  0.06605  1.0000
  C   C95       1.0  0.13483  0.26127  0.99687  1.0000
  C   C96       1.0  0.01155  0.03381  0.97141  1.0000
  H   H29       1.0  0.27324  0.62421  0.05735  1.0000
  H   H30       1.0  0.36716  0.62110  0.06005  1.0000
  H   H31       1.0  0.18669  0.25409  0.12652  1.0000
  H   H32       1.0  0.24281  0.30090  0.14186  1.0000
  H   H33       1.0  0.08596  0.06096  0.96063  1.0000
  H   H34       1.0  0.16550  0.43838  0.98498  1.0000
  H   H35       1.0  0.10800  0.38853  0.93490  1.0000
  H   H36       1.0  0.27301  0.43945  0.97345  1.0000
  H   H37       1.0  0.28711  0.39826  0.00379  1.0000
  H   H38       1.0  0.06513  0.23191  0.89150  1.0000
  H   H39       1.0  0.05206  0.27354  0.86321  1.0000
  H   H40       1.0  0.99017  0.06020  0.95918  1.0000
  H   H41       1.0  0.26148  0.34931  0.06665  1.0000
  H   H42       1.0  0.08391  0.33094  0.90454  1.0000
  H   H43       1.0  0.17887  0.86137  0.01354  1.0000
  H   H44       1.0  0.17760  0.81765  0.01223  1.0000
  H   H45       1.0  0.68027  0.85264  0.52273  1.0000
  H   H46       1.0  0.65532  0.81808  0.97789  1.0000
  H   H47       1.0  0.17297  0.36199  0.97400  1.0000
  H   H48       1.0  0.15545  0.30214  0.50189  1.0000
  C   C97       1.0  0.91169  0.94214  0.51781  1.0000
  N   N13       1.0  0.69587  0.87735  0.55988  1.0000
  C   C98       1.0  0.72538  0.88911  0.55163  1.0000
  C   C99       1.0  0.74231  0.92428  0.62264  1.0000
  C   C100      1.0  0.72209  0.93211  0.66273  1.0000
  C   C101      1.0  0.93531  0.99265  0.49380  1.0000
  C   C102      1.0  0.96195  0.99216  0.48789  1.0000
  C   C103      1.0  0.40258  0.71468  0.52757  1.0000
  N   N14       1.0  0.61968  0.78567  0.48440  1.0000
  C   C104      1.0  0.62431  0.76133  0.43820  1.0000
  C   C105      1.0  0.59175  0.77495  0.51164  1.0000
  C   C106      1.0  0.57843  0.74217  0.48646  1.0000
  C   C107      1.0  0.59819  0.73395  0.44126  1.0000
  O   O13       1.0  0.43051  0.73831  0.52578  1.0000
  C   C108      1.0  0.37928  0.66196  0.52507  1.0000
  C   C109      1.0  0.35273  0.66173  0.54149  1.0000
  C   C110      1.0  0.40333  0.68820  0.51646  1.0000
  C   C111      1.0  0.63736  0.87497  0.63140  1.0000
  C   C112      1.0  0.59816  0.82748  0.59370  1.0000
  C   C113      1.0  0.58729  0.84851  0.62297  1.0000
  C   C114      1.0  0.61192  0.87817  0.64893  1.0000
  C   C115      1.0  0.37681  0.71489  0.53650  1.0000
  C   C116      1.0  0.35103  0.68783  0.54071  1.0000
  C   C117      1.0  0.91081  0.96764  0.50765  1.0000
  N   N15       1.0  0.68615  0.81859  0.44470  1.0000
  C   C118      1.0  0.67485  0.78611  0.37869  1.0000
  C   C119      1.0  0.71372  0.83365  0.41673  1.0000
  C   C120      1.0  0.71883  0.80934  0.31818  1.0000
  C   C121      1.0  0.69499  0.77996  0.29907  1.0000
  O   O14       1.0  0.88275  0.96286  0.51424  1.0000
  C   C122      1.0  0.93702  0.94081  0.51316  1.0000
  C   C123      1.0  0.66642  0.90095  0.64883  1.0000
  C   C124      1.0  0.64820  0.76145  0.38693  1.0000
  B   B7        1.0  0.86588  0.93311  0.52278  1.0000
  C   C125      1.0  0.57981  0.79388  0.55436  1.0000
  B   B8        1.0  0.44804  0.72521  0.50889  1.0000
  C   C126      1.0  0.69263  0.90249  0.62449  1.0000
  O   O15       1.0  0.88404  0.92056  0.53105  1.0000
  N   N16       1.0  0.62846  0.84408  0.59677  1.0000
  O   O16       1.0  0.43133  0.69389  0.50073  1.0000
  C   C127      1.0  0.73453  0.86828  0.47994  1.0000
  C   C128      1.0  0.96271  0.96598  0.49633  1.0000
  H   H49       1.0  0.38082  0.64196  0.51698  1.0000
  H   H50       1.0  0.37678  0.73550  0.54018  1.0000
  H   H51       1.0  0.76661  0.94126  0.64049  1.0000
  H   H52       1.0  0.72699  0.95631  0.71683  1.0000
  H   H53       1.0  0.93383  0.01208  0.48808  1.0000
  H   H54       1.0  0.55683  0.72722  0.50289  1.0000
  H   H55       1.0  0.59544  0.71115  0.41399  1.0000
  H   H56       1.0  0.56388  0.84132  0.61907  1.0000
  H   H57       1.0  0.61274  0.89997  0.67343  1.0000
  H   H58       1.0  0.73737  0.81408  0.26623  1.0000
  H   H59       1.0  0.69065  0.75606  0.23279  1.0000
  H   H60       1.0  0.93724  0.92114  0.52572  1.0000
  H   H61       1.0  0.66931  0.92421  0.68835  1.0000
  H   H62       1.0  0.64506  0.73801  0.34310  1.0000
  C   C129      1.0  0.04269  0.96530  0.47800  1.0000
  N   N17       1.0  0.10787  0.81092  0.41835  1.0000
  C   C130      1.0  0.09584  0.82894  0.42535  1.0000
  C   C131      1.0  0.06302  0.81030  0.41249  1.0000
  C   C132      1.0  0.05513  0.78032  0.38968  1.0000
  C   C133      1.0  0.98994  0.93819  0.48238  1.0000
  C   C134      1.0  0.98983  0.96522  0.48686  1.0000
  C   C135      1.0  0.27065  0.68627  0.57652  1.0000
  N   N18       1.0  0.19740  0.83228  0.53497  1.0000
  C   C136      1.0  0.22270  0.86373  0.58406  1.0000
  C   C137      1.0  0.21137  0.81838  0.58967  1.0000
  C   C138      1.0  0.24664  0.84303  0.69252  1.0000
  C   C139      1.0  0.25368  0.87081  0.68240  1.0000
  O   O17       1.0  0.24787  0.69202  0.59179  1.0000
  C   C140      1.0  0.32073  0.71217  0.54022  1.0000
  C   C141      1.0  0.32297  0.68682  0.54705  1.0000
  C   C142      1.0  0.29472  0.71131  0.55520  1.0000
  C   C143      1.0  0.10864  0.75069  0.37826  1.0000
  C   C144      1.0  0.15897  0.76343  0.45494  1.0000
  C   C145      1.0  0.13593  0.72802  0.37122  1.0000
  C   C146      1.0  0.10547  0.72044  0.32815  1.0000
  C   C147      1.0  0.27149  0.66084  0.57926  1.0000
  C   C148      1.0  0.29766  0.66038  0.56016  1.0000
  C   C149      1.0  0.01610  0.93867  0.47519  1.0000
  N   N19       1.0  0.16345  0.86585  0.47930  1.0000
  C   C150      1.0  0.19390  0.88747  0.49551  1.0000
  C   C151      1.0  0.14495  0.87688  0.45088  1.0000
  C   C152      1.0  0.16451  0.90673  0.44139  1.0000
  C   C153      1.0  0.19428  0.91317  0.46882  1.0000
  O   O18       1.0  0.02133  0.91502  0.46363  1.0000
  C   C154      1.0  0.04311  0.99127  0.47584  1.0000
  C   C155      1.0  0.08341  0.75363  0.36387  1.0000
  C   C156      1.0  0.22046  0.88685  0.54751  1.0000
  B   B9        1.0  0.05193  0.92828  0.46110  1.0000
  C   C157      1.0  0.19339  0.78402  0.53706  1.0000
  B   B10       1.0  0.25847  0.72086  0.57449  1.0000
  C   C158      1.0  0.08333  0.78107  0.39283  1.0000
  O   O19       1.0  0.06578  0.95972  0.47442  1.0000
  N   N20       1.0  0.14116  0.77572  0.44976  1.0000
  O   O20       1.0  0.28754  0.73306  0.55251  1.0000
  C   C159      1.0  0.11299  0.86059  0.43587  1.0000
  C   C160      1.0  0.01629  0.99153  0.47949  1.0000
  H   H63       1.0  0.33888  0.73200  0.52395  1.0000
  H   H64       1.0  0.25258  0.64193  0.59735  1.0000
  H   H65       1.0  0.04813  0.81886  0.41978  1.0000
  H   H66       1.0  0.03275  0.75980  0.37502  1.0000
  H   H67       1.0  0.96989  0.91730  0.48194  1.0000
  H   H68       1.0  0.26349  0.83987  0.76633  1.0000
  H   H69       1.0  0.27730  0.89422  0.74025  1.0000
  H   H70       1.0  0.14194  0.71076  0.34533  1.0000
  H   H71       1.0  0.08257  0.69612  0.26526  1.0000
  H   H72       1.0  0.15626  0.92067  0.41302  1.0000
  H   H73       1.0  0.21484  0.93360  0.46933  1.0000
  H   H74       1.0  0.06352  0.01068  0.46936  1.0000
  H   H75       1.0  0.06019  0.73086  0.32404  1.0000
  H   H76       1.0  0.24312  0.90843  0.57045  1.0000
  C   C161      1.0  0.01329  0.06865  0.45367  1.0000
  N   N21       1.0  0.16630  0.29128  0.53036  1.0000
  C   C162      1.0  0.14886  0.26258  0.54176  1.0000
  C   C163      1.0  0.17093  0.25516  0.59830  1.0000
  C   C164      1.0  0.20024  0.27844  0.60943  1.0000
  C   C165      1.0  0.04187  0.04434  0.46401  1.0000
  C   C166      1.0  0.01571  0.01844  0.47369  1.0000
  C   C167      1.0  0.30414  0.58420  0.57466  1.0000
  N   N22       1.0  0.14812  0.35791  0.46603  1.0000
  C   C168      1.0  0.11758  0.34866  0.44258  1.0000
  C   C169      1.0  0.16726  0.38934  0.48744  1.0000
  C   C170      1.0  0.14774  0.40108  0.48377  1.0000
  C   C171      1.0  0.11747  0.37610  0.45290  1.0000
  O   O21       1.0  0.30126  0.55776  0.59126  1.0000
  C   C172      1.0  0.27278  0.60550  0.55282  1.0000
  C   C173      1.0  0.29907  0.63335  0.55674  1.0000
  C   C174      1.0  0.27570  0.58141  0.55904  1.0000
  C   C175      1.0  0.22339  0.35312  0.52826  1.0000
  C   C176      1.0  0.21413  0.38809  0.50574  1.0000
  C   C177      1.0  0.24498  0.39901  0.49357  1.0000
  C   C178      1.0  0.25092  0.37749  0.51148  1.0000
  C   C179      1.0  0.32936  0.60975  0.56773  1.0000
  C   C180      1.0  0.32689  0.63468  0.55471  1.0000
  C   C181      1.0  0.03997  0.06870  0.45302  1.0000
  N   N23       1.0  0.11246  0.28821  0.46681  1.0000
  C   C182      1.0  0.08797  0.29100  0.41222  1.0000
  C   C183      1.0  0.09793  0.25720  0.45159  1.0000
  C   C184      1.0  0.06274  0.23922  0.37607  1.0000
  C   C185      1.0  0.05675  0.26058  0.35534  1.0000
  O   O22       1.0  0.06213  0.09624  0.44315  1.0000
  C   C186      1.0  0.98774  0.04432  0.46500  1.0000
  C   C187      1.0  0.22187  0.32776  0.55566  1.0000
  C   C188      1.0  0.09094  0.31864  0.41068  1.0000
  B   B11       1.0  0.04807  0.11288  0.43719  1.0000
  C   C189      1.0  0.19943  0.40451  0.50417  1.0000
  B   B12       1.0  0.26946  0.53757  0.57264  1.0000
  C   C190      1.0  0.19745  0.30137  0.56565  1.0000
  O   O23       1.0  0.01772  0.09596  0.44257  1.0000
  N   N24       1.0  0.20104  0.35956  0.52009  1.0000
  O   O24       1.0  0.25356  0.55223  0.55511  1.0000
  C   C191      1.0  0.11531  0.24460  0.49561  1.0000
  C   C192      1.0  0.98858  0.01848  0.47520  1.0000
  H   H77       1.0  0.25068  0.60290  0.54523  1.0000
  H   H78       1.0  0.35082  0.61089  0.57653  1.0000
  H   H79       1.0  0.16523  0.23511  0.62950  1.0000
  H   H80       1.0  0.22224  0.28021  0.64734  1.0000
  H   H81       1.0  0.06286  0.04516  0.46260  1.0000
  H   H82       1.0  0.15580  0.42537  0.50286  1.0000
  H   H83       1.0  0.09678  0.37652  0.44158  1.0000
  H   H84       1.0  0.25927  0.41945  0.46870  1.0000
  H   H85       1.0  0.27140  0.37734  0.50863  1.0000
  H   H86       1.0  0.04509  0.21371  0.33945  1.0000
  H   H87       1.0  0.03349  0.25615  0.30301  1.0000
  H   H88       1.0  0.96764  0.04537  0.46537  1.0000
  H   H89       1.0  0.24346  0.32864  0.57344  1.0000
  H   H90       1.0  0.06866  0.31665  0.37958  1.0000
  H   H91       1.0  0.15340  0.84339  0.47774  1.0000
  H   H92       1.0  0.15239  0.80033  0.48671  1.0000
  H   H93       1.0  0.70175  0.86378  0.00484  1.0000
  H   H94       1.0  0.63420  0.80959  0.50653  1.0000
  H   H95       1.0  0.15801  0.34534  0.47244  1.0000
  H   H96       1.0  0.17266  0.31895  0.99989  1.0000
  C   C193      1.0  0.83513  0.90024  0.07180  1.0000
  C   C194      1.0  0.85106  0.92298  0.00977  1.0000
  C  Sn1       1.0  0.90894  0.02027  0.94322  1.0000
  C  Sn2       1.0  0.87822  0.01064  0.93892  1.0000
  C   C195      1.0  0.79041  0.90395  0.00142  1.0000
  C   C196      1.0  0.80484  0.89073  0.06767  1.0000
  H   H97       1.0  0.84630  0.89003  0.12316  1.0000
  O  Te1       1.0  0.92517  0.04295  0.88171  1.0000
  O  Te2       1.0  0.86348  0.02361  0.87317  1.0000
  H   H98       1.0  0.79251  0.87314  0.11581  1.0000
  Mg  Mg1       1.0  0.89518  0.05371  0.80441  1.0000
  C   C197      1.0  0.53645  0.78768  0.16005  1.0000
  C   C198      1.0  0.50825  0.75709  0.01088  1.0000
  C  Sn3       1.0  0.58218  0.82060  0.86181  1.0000
  C  Sn4       1.0  0.61287  0.83103  0.86253  1.0000
  C   C199      1.0  0.56886  0.77772  0.01249  1.0000
  C   C200      1.0  0.56673  0.79799  0.16091  1.0000
  H   H99       1.0  0.53481  0.80336  0.27495  1.0000
  O  Te3       1.0  0.55376  0.79012  0.71385  1.0000
  O  Te4       1.0  0.61541  0.81109  0.71537  1.0000
  H   H100      1.0  0.58858  0.82166  0.27645  1.0000
  Mg  Mg2       1.0  0.56975  0.77169  0.54536  1.0000
  C   C201      1.0  0.14114  0.93688  0.10385  1.0000
  C   C202      1.0  0.12687  0.90290  0.00662  1.0000
  C  Sn5       1.0  0.16603  0.96400  0.87880  1.0000
  C  Sn6       1.0  0.14712  0.97547  0.84799  1.0000
  C   C203      1.0  0.16163  0.00952  0.94586  1.0000
  C   C204      1.0  0.12250  0.94822  0.07350  1.0000
  H   H101      1.0  0.16664  0.95441  0.20253  1.0000
  O  Te5       1.0  0.15216  0.93013  0.78290  1.0000
  O  Te6       1.0  0.11417  0.95318  0.72098  1.0000
  H   H102      1.0  0.13355  0.97453  0.14866  1.0000
  Mg  Mg3       1.0  0.10631  0.90945  0.62415  1.0000
  C   C205      1.0  0.27134  0.79986  0.02407  1.0000
  C   C206      1.0  0.24217  0.78916  0.04064  1.0000
  C  Sn7       1.0  0.22771  0.76339  0.08446  1.0000
  C  Sn8       1.0  0.24280  0.74811  0.11217  1.0000
  C   C207      1.0  0.27200  0.75901  0.09541  1.0000
  C   C208      1.0  0.28624  0.78481  0.05145  1.0000
  H   H103      1.0  0.35446  0.90378  0.99016  1.0000
  O  Te7       1.0  0.19856  0.75299  0.10042  1.0000
  O  Te8       1.0  0.22889  0.72231  0.15616  1.0000
  H   H104      1.0  0.30884  0.79311  0.03875  1.0000
  Mg  Mg4       1.0  0.18903  0.71689  0.16262  1.0000
  C   C209      1.0  0.07932  0.19085  0.03459  1.0000
  C   C210      1.0  0.15322  0.24936  0.93270  1.0000
  C  Sn9       1.0  0.17624  0.25572  0.85791  1.0000
  C  Sn10      1.0  0.19782  0.28817  0.88591  1.0000
  C   C211      1.0  0.19583  0.31345  0.98816  1.0000
  C   C212      1.0  0.10061  0.22286  0.06234  1.0000
  H   H105      1.0  0.06144  0.18572  0.09208  1.0000
  O  Te9       1.0  0.17772  0.23002  0.75641  1.0000
  O  Te10      1.0  0.22107  0.29521  0.81276  1.0000
  H   H106      1.0  0.09922  0.24257  0.14133  1.0000
  Mg  Mg5       1.0  0.21356  0.25192  0.68440  1.0000
  C   C213      1.0  0.27140  0.48740  0.17670  1.0000
  C   C214      1.0  0.23790  0.46247  0.07991  1.0000
  C  Sn11      1.0  0.28982  0.55010  0.96528  1.0000
  C  Sn12      1.0  0.30352  0.57931  0.94746  1.0000
  C   C215      1.0  0.26498  0.52015  0.04476  1.0000
  C   C216      1.0  0.28494  0.51622  0.15914  1.0000
  H   H107      1.0  0.28684  0.48435  0.26512  1.0000
  O  Te11      1.0  0.25639  0.52495  0.86962  1.0000
  O  Te12      1.0  0.28393  0.58363  0.83378  1.0000
  H   H108      1.0  0.31088  0.53552  0.23397  1.0000
  Mg  Mg6       1.0  0.23976  0.54234  0.73170  1.0000
  C   C217      1.0  0.80458  0.92443  0.43921  1.0000
  C   C218      1.0  0.82817  0.92079  0.51411  1.0000
  C  Sn13      1.0  0.82021  0.89591  0.56524  1.0000
  C  Sn14      1.0  0.78803  0.87430  0.54071  1.0000
  C   C219      1.0  0.76461  0.87813  0.46554  1.0000
  C   C220      1.0  0.77283  0.90312  0.41491  1.0000
  H   H109      1.0  0.81094  0.94376  0.39993  1.0000
  O  Te13      1.0  0.84408  0.89263  0.63993  1.0000
  O  Te14      1.0  0.77942  0.84921  0.59056  1.0000
  H   H110      1.0  0.75456  0.90592  0.35680  1.0000
  Mg  Mg7       1.0  0.82050  0.85466  0.68671  1.0000
  C   C221      1.0  0.49572  0.72763  0.35984  1.0000
  C   C222      1.0  0.48455  0.73726  0.49282  1.0000
  C  Sn15      1.0  0.50486  0.76920  0.65278  1.0000
  C  Sn16      1.0  0.53694  0.79187  0.67969  1.0000
  C   C223      1.0  0.54788  0.78200  0.54575  1.0000
  C   C224      1.0  0.52735  0.74998  0.38623  1.0000
  H   H111      1.0  0.47983  0.70286  0.23635  1.0000
  O  Te15      1.0  0.49332  0.77841  0.78428  1.0000
  O  Te16      1.0  0.55776  0.82395  0.83825  1.0000
  H   H112      1.0  0.53600  0.74254  0.28323  1.0000
  Mg  Mg8       1.0  0.53085  0.82486  0.97762  1.0000
  C   C225      1.0  0.05767  0.86006  0.28881  1.0000
  C   C226      1.0  0.09016  0.87349  0.38708  1.0000
  C  Sn17      1.0  0.11234  0.90686  0.53033  1.0000
  C  Sn18      1.0  0.10174  0.92710  0.57577  1.0000
  C   C227      1.0  0.06918  0.91342  0.47672  1.0000
  C   C228      1.0  0.04719  0.88000  0.33359  1.0000
  H   H113      1.0  0.04065  0.83419  0.17814  1.0000
  O  Te17      1.0  0.14471  0.91989  0.62705  1.0000
  O  Te18      1.0  0.12340  0.96053  0.71835  1.0000
  H   H114      1.0  0.02204  0.86960  0.25762  1.0000
  Mg  Mg9       1.0  0.16504  0.96685  0.80989  1.0000
  C   C229      1.0  0.24619  0.78002  0.53303  1.0000
  C   C230      1.0  0.21654  0.77077  0.53878  1.0000
  C  Sn19      1.0  0.19945  0.74492  0.57802  1.0000
  C  Sn20      1.0  0.21236  0.72807  0.61213  1.0000
  C   C231      1.0  0.24206  0.73753  0.60619  1.0000
  C   C232      1.0  0.25895  0.76342  0.56673  1.0000
  H   H115      1.0  0.25927  0.80006  0.50260  1.0000
  O  Te19      1.0  0.16985  0.73598  0.58315  1.0000
  O  Te20      1.0  0.19580  0.70216  0.65175  1.0000
  H   H116      1.0  0.28192  0.77060  0.56241  1.0000
  Mg  Mg10      1.0  0.15635  0.69908  0.64306  1.0000
  C   C233      1.0  0.06519  0.19212  0.53355  1.0000
  C   C234      1.0  0.09312  0.20946  0.50717  1.0000
  C  Sn21      1.0  0.10613  0.19357  0.43169  1.0000
  C  Sn22      1.0  0.09084  0.15969  0.38178  1.0000
  C   C235      1.0  0.06289  0.14256  0.40859  1.0000
  C   C236      1.0  0.05008  0.15870  0.48429  1.0000
  H   H117      1.0  0.05526  0.20460  0.59202  1.0000
  O  Te21      1.0  0.13406  0.21127  0.40633  1.0000
  O  Te22      1.0  0.10332  0.14321  0.30600  1.0000
  H   H118      1.0  0.02844  0.14527  0.50458  1.0000
  Mg  Mg11      1.0  0.14187  0.17793  0.29822  1.0000
  C   C237      1.0  0.20204  0.45355  0.40939  1.0000
  C   C238      1.0  0.21402  0.43900  0.48157  1.0000
  C  Sn23      1.0  0.24659  0.45814  0.61093  1.0000
  C  Sn24      1.0  0.26748  0.49249  0.66887  1.0000
  C   C239      1.0  0.25526  0.50682  0.59594  1.0000
  C   C240      1.0  0.22263  0.48743  0.46652  1.0000
  H   H119      1.0  0.17680  0.43856  0.30934  1.0000
  O  Te23      1.0  0.25816  0.44320  0.68159  1.0000
  O  Te24      1.0  0.30013  0.51220  0.79803  1.0000
  H   H120      1.0  0.21336  0.49872  0.41076  1.0000
  Mg  Mg12      1.0  0.30451  0.48043  0.85436  1.0000
