data_image0
_chemical_formula_structural       CNC3H3CNC3H3CNC3H3CNC3H3SC2S3C10H4C6H4CNHCNHCNHCNHSC2S3C10H4C6H4SnCSn2CSnTe4Mg2SnCSn2CSnTe4Mg2SnCSn2CSnTe4Mg2SnCSn2CSnTe4Mg2SnCSn2CSnTe4Mg2SnCSn2CSnTe4Mg2
_chemical_formula_sum              "C68 N8 H32 S8 Sn24 Te24 Mg12"
_cell_length_a       24.2473
_cell_length_b       26.883
_cell_length_c       8.20563
_cell_angle_alpha    89.7776
_cell_angle_beta     86.3176
_cell_angle_gamma    57.1764

_symmetry_space_group_name_H-M    'P1'
_space_group_IT_number       1

loop_
  _space_group_symop_operation_xyz
  'x, y, z'

loop_
  _atom_site_type_symbol
  _atom_site_label
  _atom_site_symmetry_multiplicity
  _atom_site_fract_x
  _atom_site_fract_y
  _atom_site_fract_z
  _atom_site_occupancy
  C   C1        1.0  0.36263  0.46826  0.45815  1.0000
  N   N1        1.0  0.36691  0.50220  0.56070  1.0000
  C   C2        1.0  0.42700  0.49725  0.56845  1.0000
  C   C3        1.0  0.42492  0.54986  0.59601  1.0000
  C   C4        1.0  0.48263  0.54913  0.59136  1.0000
  H   H1        1.0  0.40432  0.43712  0.37256  1.0000
  H   H2        1.0  0.37699  0.59086  0.61656  1.0000
  H   H3        1.0  0.48098  0.58993  0.61063  1.0000
  C   C5        1.0  0.60415  0.53280  0.46345  1.0000
  N   N2        1.0  0.60297  0.49405  0.55499  1.0000
  C   C6        1.0  0.54436  0.49540  0.56691  1.0000
  C   C7        1.0  0.54662  0.44202  0.55755  1.0000
  C   C8        1.0  0.48875  0.44303  0.55405  1.0000
  H   H4        1.0  0.56281  0.56195  0.38941  1.0000
  H   H5        1.0  0.59445  0.40050  0.54732  1.0000
  H   H6        1.0  0.49071  0.40176  0.54258  1.0000
  C   C9        1.0  0.35636  0.18175  0.46680  1.0000
  N   N3        1.0  0.36467  0.13502  0.39571  1.0000
  C   C10       1.0  0.42325  0.07990  0.40569  1.0000
  C   C11       1.0  0.41971  0.02935  0.39552  1.0000
  C   C12       1.0  0.47534  0.97288  0.40595  1.0000
  H   H7        1.0  0.39335  0.17970  0.54284  1.0000
  H   H8        1.0  0.37198  0.03597  0.38008  1.0000
  H   H9        1.0  0.47158  0.93449  0.39572  1.0000
  C   C13       1.0  0.59396  0.86585  0.49559  1.0000
  N   N4        1.0  0.59566  0.90886  0.42945  1.0000
  C   C14       1.0  0.53746  0.96445  0.42265  1.0000
  C   C15       1.0  0.54169  0.01478  0.42221  1.0000
  C   C16       1.0  0.48572  0.07143  0.41651  1.0000
  H   H10       1.0  0.54842  0.87261  0.55609  1.0000
  H   H11       1.0  0.59008  0.00786  0.42776  1.0000
  H   H12       1.0  0.49009  0.10964  0.41565  1.0000
  S   S1        1.0  0.05107  0.42556  0.38757  1.0000
  C   C17       1.0  0.00525  0.50348  0.38981  1.0000
  C   C18       1.0  0.93874  0.53695  0.38365  1.0000
  S   S2        1.0  0.89124  0.50649  0.36624  1.0000
  S   S3        1.0  0.89232  0.61460  0.38177  1.0000
  S   S4        1.0  0.05314  0.53434  0.39239  1.0000
  C   C19       1.0  0.12738  0.41664  0.41673  1.0000
  C   C20       1.0  0.12790  0.46740  0.41661  1.0000
  C   C21       1.0  0.81499  0.57230  0.41680  1.0000
  C   C22       1.0  0.81460  0.62359  0.42727  1.0000
  C   C23       1.0  0.76046  0.56278  0.42792  1.0000
  C   C24       1.0  0.76514  0.51754  0.52595  1.0000
  C   C25       1.0  0.71523  0.50668  0.53746  1.0000
  C   C26       1.0  0.65905  0.54069  0.45000  1.0000
  C   C27       1.0  0.65520  0.58459  0.34837  1.0000
  C   C28       1.0  0.70539  0.59517  0.33561  1.0000
  H   H13       1.0  0.80761  0.49231  0.59757  1.0000
  H   H14       1.0  0.71801  0.47288  0.61630  1.0000
  H   H15       1.0  0.61282  0.60970  0.27644  1.0000
  H   H16       1.0  0.70248  0.62808  0.25301  1.0000
  C   C29       1.0  0.18610  0.47097  0.42249  1.0000
  C   C30       1.0  0.18690  0.51114  0.53062  1.0000
  C   C31       1.0  0.24410  0.51053  0.54343  1.0000
  C   C32       1.0  0.30175  0.47051  0.44580  1.0000
  C   C33       1.0  0.29998  0.43242  0.33231  1.0000
  C   C34       1.0  0.24283  0.43294  0.32045  1.0000
  H   H17       1.0  0.14291  0.54094  0.60879  1.0000
  H   H18       1.0  0.24572  0.54035  0.62929  1.0000
  H   H19       1.0  0.34345  0.40295  0.25175  1.0000
  H   H20       1.0  0.24123  0.40366  0.23313  1.0000
  C   C35       1.0  0.40562  0.45132  0.93612  1.0000
  N   N5        1.0  0.40081  0.49635  0.00893  1.0000
  H   H21       1.0  0.45281  0.41469  0.87925  1.0000
  C   C36       1.0  0.63108  0.54615  0.95423  1.0000
  N   N6        1.0  0.62599  0.50668  0.03242  1.0000
  H   H22       1.0  0.59100  0.58046  0.88495  1.0000
  C   C37       1.0  0.39078  0.12975  0.97583  1.0000
  N   N7        1.0  0.39642  0.08532  0.89764  1.0000
  H   H23       1.0  0.42898  0.12309  0.05512  1.0000
  C   C38       1.0  0.65221  0.82611  0.98235  1.0000
  N   N8        1.0  0.64016  0.86786  0.88391  1.0000
  H   H24       1.0  0.61724  0.83283  0.08575  1.0000
  S   S5        1.0  0.10601  0.38519  0.87810  1.0000
  C   C39       1.0  0.06270  0.46228  0.86411  1.0000
  C   C40       1.0  0.99720  0.49741  0.84296  1.0000
  S   S6        1.0  0.94392  0.47222  0.83521  1.0000
  S   S7        1.0  0.95751  0.57445  0.82613  1.0000
  S   S8        1.0  0.11177  0.49151  0.87756  1.0000
  C   C41       1.0  0.18310  0.37412  0.91039  1.0000
  C   C42       1.0  0.18633  0.42375  0.90712  1.0000
  C   C43       1.0  0.87128  0.54249  0.88438  1.0000
  C   C44       1.0  0.87834  0.58977  0.88038  1.0000
  C   C45       1.0  0.23518  0.31175  0.93234  1.0000
  C   C46       1.0  0.23448  0.26589  0.85001  1.0000
  C   C47       1.0  0.28359  0.20669  0.86550  1.0000
  C   C48       1.0  0.33574  0.19076  0.96423  1.0000
  C   C49       1.0  0.33607  0.23609  0.04864  1.0000
  C   C50       1.0  0.28647  0.29524  0.03465  1.0000
  H   H25       1.0  0.19613  0.27721  0.76775  1.0000
  H   H26       1.0  0.28368  0.17186  0.79804  1.0000
  H   H27       1.0  0.37552  0.22448  0.12746  1.0000
  H   H28       1.0  0.28729  0.32894  0.10473  1.0000
  C   C51       1.0  0.82508  0.65185  0.91397  1.0000
  C   C52       1.0  0.81682  0.69732  0.81142  1.0000
  C   C53       1.0  0.76144  0.75438  0.83555  1.0000
  C   C54       1.0  0.71293  0.76768  0.96240  1.0000
  C   C55       1.0  0.72295  0.72294  0.06935  1.0000
  C   C56       1.0  0.77874  0.66614  0.04660  1.0000
  H   H29       1.0  0.85288  0.68702  0.70956  1.0000
  H   H30       1.0  0.75328  0.78933  0.75383  1.0000
  H   H31       1.0  0.68672  0.73292  0.17051  1.0000
  H   H32       1.0  0.78698  0.63151  0.12923  1.0000
  C  Sn1       1.0  0.80249  0.48616  0.95584  1.0000
  C   C57       1.0  0.81254  0.52806  0.88363  1.0000
  C  Sn2       1.0  0.75896  0.58420  0.85128  1.0000
  C  Sn3       1.0  0.69398  0.59877  0.89204  1.0000
  C   C58       1.0  0.68397  0.55689  0.96422  1.0000
  C  Sn4       1.0  0.73752  0.50073  0.99659  1.0000
  O  Te1       1.0  0.85678  0.43031  0.98708  1.0000
  O  Te2       1.0  0.77024  0.62534  0.77897  1.0000
  O  Te3       1.0  0.63968  0.65467  0.86073  1.0000
  O  Te4       1.0  0.75603  0.44624  0.06889  1.0000
  Mg  Mg1       1.0  0.68030  0.69558  0.76060  1.0000
  Mg  Mg2       1.0  0.84593  0.37600  0.08738  1.0000
  C  Sn5       1.0  0.32457  0.37629  0.88977  1.0000
  C   C59       1.0  0.25825  0.41668  0.93853  1.0000
  C  Sn6       1.0  0.23449  0.47650  0.96619  1.0000
  C  Sn7       1.0  0.27793  0.49638  0.94457  1.0000
  C   C60       1.0  0.34421  0.45600  0.89581  1.0000
  C  Sn8       1.0  0.36801  0.39617  0.86815  1.0000
  O  Te5       1.0  0.34724  0.31670  0.86279  1.0000
  O  Te6       1.0  0.19776  0.50267  0.01493  1.0000
  O  Te7       1.0  0.25520  0.55603  0.97160  1.0000
  O  Te8       1.0  0.43446  0.35664  0.81942  1.0000
  Mg  Mg3       1.0  0.19029  0.57947  0.03655  1.0000
  Mg  Mg4       1.0  0.44198  0.27985  0.79767  1.0000
  C  Sn9       1.0  0.53213  0.44541  0.09019  1.0000
  C   C61       1.0  0.46660  0.49058  0.07338  1.0000
  C  Sn10      1.0  0.45068  0.54634  0.02349  1.0000
  C  Sn11      1.0  0.47153  0.57054  0.98960  1.0000
  C   C62       1.0  0.56677  0.51201  0.00638  1.0000
  C  Sn12      1.0  0.58275  0.45624  0.05629  1.0000
  O  Te9       1.0  0.54692  0.39001  0.14021  1.0000
  O  Te10      1.0  0.38481  0.59080  0.00762  1.0000
  O  Te11      1.0  0.45668  0.62599  0.93955  1.0000
  O  Te12      1.0  0.64857  0.41179  0.07214  1.0000
  Mg  Mg5       1.0  0.35968  0.67228  0.93575  1.0000
  Mg  Mg6       1.0  0.64399  0.34366  0.14391  1.0000
  C  Sn13      1.0  0.56655  0.98871  0.91907  1.0000
  C   C63       1.0  0.57709  0.93231  0.92955  1.0000
  C  Sn14      1.0  0.52582  0.92402  0.90884  1.0000
  C  Sn15      1.0  0.46271  0.97312  0.87689  1.0000
  C   C64       1.0  0.05318  0.02947  0.86640  1.0000
  C  Sn16      1.0  0.10442  0.03780  0.88712  1.0000
  O  Te13      1.0  0.61851  0.99596  0.94017  1.0000
  O  Te14      1.0  0.53755  0.86722  0.91992  1.0000
  O  Te15      1.0  0.41074  0.96582  0.85580  1.0000
  O  Te16      1.0  0.09272  0.09456  0.87603  1.0000
  Mg  Mg7       1.0  0.45107  0.87984  0.88203  1.0000
  Mg  Mg8       1.0  0.17916  0.08199  0.91381  1.0000
  C  Sn17      1.0  0.23795  0.26291  0.32224  1.0000
  C   C65       1.0  0.29345  0.24499  0.40791  1.0000
  C  Sn18      1.0  0.29223  0.28278  0.52651  1.0000
  C  Sn19      1.0  0.23433  0.33965  0.56026  1.0000
  C   C66       1.0  0.17888  0.35754  0.47464  1.0000
  C  Sn20      1.0  0.18005  0.31978  0.35599  1.0000
  O  Te17      1.0  0.24027  0.22441  0.20421  1.0000
  O  Te18      1.0  0.34833  0.26389  0.61052  1.0000
  O  Te19      1.0  0.23205  0.37816  0.67840  1.0000
  O  Te20      1.0  0.12399  0.33865  0.27203  1.0000
  Mg  Mg9       1.0  0.32097  0.33227  0.76027  1.0000
  Mg  Mg10      1.0  0.15129  0.27030  0.12233  1.0000
  C  Sn21      1.0  0.67805  0.71025  0.49170  1.0000
  C   C67       1.0  0.74291  0.68822  0.43274  1.0000
  C  Sn22      1.0  0.76567  0.72601  0.41648  1.0000
  C  Sn23      1.0  0.72271  0.78708  0.46013  1.0000
  C   C68       1.0  0.65790  0.80908  0.51907  1.0000
  C  Sn24      1.0  0.63509  0.77132  0.53536  1.0000
  O  Te21      1.0  0.65635  0.67167  0.50697  1.0000
  O  Te22      1.0  0.83071  0.70296  0.35721  1.0000
  O  Te23      1.0  0.74447  0.82566  0.44481  1.0000
  O  Te24      1.0  0.57009  0.79434  0.59461  1.0000
  Mg  Mg11      1.0  0.83727  0.77322  0.35839  1.0000
  Mg  Mg12      1.0  0.56349  0.72411  0.59355  1.0000
