data_image0
_chemical_formula_structural       CNHCNHCNHCNHSC2S3C5NHCNHCNHCNHSC2S3C4SnCSn2CSnTe4Mg2SnCSn2CSnTe4Mg2SnCSn2CSnTe4Mg2SnCSn2CSnTe4Mg2SnCSn2CSnTe4Mg2SnCSn2CSnTe4Mg2SnCSn2CSnTe4Mg2SnCSn2CSnTe4Mg2SnCSn2CSnTe4Mg2SnCSn2CSnTe4Mg2SnCSn2CSnTe4Mg2SnCSn2CSnTe4Mg2
_chemical_formula_sum              "C44 N8 H8 S8 Sn48 Te48 Mg24"
_cell_length_a       24.2473
_cell_length_b       26.883
_cell_length_c       8.20563
_cell_angle_alpha    89.7776
_cell_angle_beta     86.3176
_cell_angle_gamma    57.1764

_symmetry_space_group_name_H-M    'P1'
_space_group_IT_number       1

loop_
  _space_group_symop_operation_xyz
  'x, y, z'

loop_
  _atom_site_type_symbol
  _atom_site_label
  _atom_site_symmetry_multiplicity
  _atom_site_fract_x
  _atom_site_fract_y
  _atom_site_fract_z
  _atom_site_occupancy
  C   C1        1.0  0.36263  0.46826  0.45815  1.0000
  N   N1        1.0  0.36691  0.50220  0.56070  1.0000
  H   H1        1.0  0.40432  0.43712  0.37256  1.0000
  C   C2        1.0  0.60415  0.53280  0.46345  1.0000
  N   N2        1.0  0.60297  0.49405  0.55499  1.0000
  H   H2        1.0  0.56281  0.56195  0.38941  1.0000
  C   C3        1.0  0.35636  0.18175  0.46680  1.0000
  N   N3        1.0  0.36467  0.13502  0.39571  1.0000
  H   H3        1.0  0.39335  0.17970  0.54284  1.0000
  C   C4        1.0  0.59396  0.86585  0.49559  1.0000
  N   N4        1.0  0.59566  0.90886  0.42945  1.0000
  H   H4        1.0  0.54842  0.87261  0.55609  1.0000
  S   S1        1.0  0.05107  0.42556  0.38757  1.0000
  C   C5        1.0  0.00525  0.50348  0.38981  1.0000
  C   C6        1.0  0.93874  0.53695  0.38365  1.0000
  S   S2        1.0  0.89124  0.50649  0.36624  1.0000
  S   S3        1.0  0.89232  0.61460  0.38177  1.0000
  S   S4        1.0  0.05314  0.53434  0.39239  1.0000
  C   C7        1.0  0.12738  0.41664  0.41673  1.0000
  C   C8        1.0  0.12790  0.46740  0.41661  1.0000
  C   C9        1.0  0.81499  0.57230  0.41680  1.0000
  C   C10       1.0  0.81460  0.62359  0.42727  1.0000
  C   C11       1.0  0.40562  0.45132  0.93612  1.0000
  N   N5        1.0  0.40081  0.49635  0.00893  1.0000
  H   H5        1.0  0.45281  0.41469  0.87925  1.0000
  C   C12       1.0  0.63108  0.54615  0.95423  1.0000
  N   N6        1.0  0.62599  0.50668  0.03242  1.0000
  H   H6        1.0  0.59100  0.58046  0.88495  1.0000
  C   C13       1.0  0.39078  0.12975  0.97583  1.0000
  N   N7        1.0  0.39642  0.08532  0.89764  1.0000
  H   H7        1.0  0.42898  0.12309  0.05512  1.0000
  C   C14       1.0  0.65221  0.82611  0.98235  1.0000
  N   N8        1.0  0.64016  0.86786  0.88391  1.0000
  H   H8        1.0  0.61724  0.83283  0.08575  1.0000
  S   S5        1.0  0.10601  0.38519  0.87810  1.0000
  C   C15       1.0  0.06270  0.46228  0.86411  1.0000
  C   C16       1.0  0.99720  0.49741  0.84296  1.0000
  S   S6        1.0  0.94392  0.47222  0.83521  1.0000
  S   S7        1.0  0.95751  0.57445  0.82613  1.0000
  S   S8        1.0  0.11177  0.49151  0.87756  1.0000
  C   C17       1.0  0.18310  0.37412  0.91039  1.0000
  C   C18       1.0  0.18633  0.42375  0.90712  1.0000
  C   C19       1.0  0.87128  0.54249  0.88438  1.0000
  C   C20       1.0  0.87834  0.58977  0.88038  1.0000
  C  Sn1       1.0  0.46818  0.55167  0.64277  1.0000
  C   C21       1.0  0.53291  0.50298  0.61739  1.0000
  C  Sn2       1.0  0.54583  0.44917  0.55441  1.0000
  C  Sn3       1.0  0.49295  0.44393  0.51590  1.0000
  C   C22       1.0  0.42827  0.49261  0.54125  1.0000
  C  Sn4       1.0  0.41531  0.54644  0.60425  1.0000
  O  Te1       1.0  0.45642  0.60504  0.70584  1.0000
  O  Te2       1.0  0.61095  0.40110  0.53016  1.0000
  O  Te3       1.0  0.50477  0.39051  0.45278  1.0000
  O  Te4       1.0  0.35023  0.59449  0.62848  1.0000
  Mg  Mg1       1.0  0.60189  0.33771  0.44136  1.0000
  Mg  Mg2       1.0  0.35924  0.65791  0.71719  1.0000
  C  Sn5       1.0  0.46393  0.98219  0.35394  1.0000
  C   C23       1.0  0.52844  0.96599  0.37286  1.0000
  C  Sn6       1.0  0.14220  0.00816  0.42294  1.0000
  C  Sn7       1.0  0.08939  0.06777  0.45488  1.0000
  C   C24       1.0  0.02492  0.08394  0.43598  1.0000
  C  Sn8       1.0  0.01210  0.04179  0.38587  1.0000
  O  Te5       1.0  0.45230  0.93929  0.30376  1.0000
  O  Te6       1.0  0.60614  0.99091  0.44095  1.0000
  O  Te7       1.0  0.10108  0.11068  0.50509  1.0000
  O  Te8       1.0  0.94723  0.05902  0.36789  1.0000
  Mg  Mg3       1.0  0.19792  0.06550  0.51216  1.0000
  Mg  Mg4       1.0  0.35538  0.98446  0.29677  1.0000
  C  Sn9       1.0  0.25845  0.33819  0.49143  1.0000
  C   C25       1.0  0.20058  0.35536  0.41767  1.0000
  C  Sn10      1.0  0.18747  0.31307  0.37091  1.0000
  C  Sn11      1.0  0.23313  0.25235  0.39854  1.0000
  C   C26       1.0  0.29096  0.23521  0.47227  1.0000
  C  Sn12      1.0  0.30411  0.27747  0.51905  1.0000
  O  Te9       1.0  0.27054  0.38122  0.53719  1.0000
  O  Te10      1.0  0.12929  0.33131  0.29733  1.0000
  O  Te11      1.0  0.22099  0.20932  0.35270  1.0000
  O  Te12      1.0  0.36224  0.25926  0.59261  1.0000
  Mg  Mg5       1.0  0.13489  0.25609  0.25673  1.0000
  Mg  Mg6       1.0  0.35668  0.33444  0.63334  1.0000
  C  Sn13      1.0  0.68328  0.60825  0.36822  1.0000
  C   C27       1.0  0.74250  0.57848  0.44393  1.0000
  C  Sn14      1.0  0.76390  0.52429  0.51569  1.0000
  C  Sn15      1.0  0.72534  0.49931  0.51162  1.0000
  C   C28       1.0  0.66616  0.52907  0.43593  1.0000
  C  Sn16      1.0  0.64471  0.58327  0.36415  1.0000
  O  Te13      1.0  0.66284  0.66237  0.29725  1.0000
  O  Te14      1.0  0.82327  0.49537  0.59071  1.0000
  O  Te15      1.0  0.74583  0.44515  0.58268  1.0000
  O  Te16      1.0  0.58539  0.61218  0.28915  1.0000
  Mg  Mg7       1.0  0.83027  0.42267  0.67026  1.0000
  Mg  Mg8       1.0  0.57837  0.68487  0.20949  1.0000
  C  Sn17      1.0  0.76309  0.74707  0.45771  1.0000
  C   C29       1.0  0.76399  0.69593  0.49572  1.0000
  C  Sn18      1.0  0.70516  0.69828  0.52348  1.0000
  C  Sn19      1.0  0.64415  0.75288  0.51293  1.0000
  C   C30       1.0  0.64327  0.80398  0.47491  1.0000
  C  Sn20      1.0  0.70209  0.80167  0.44716  1.0000
  O  Te17      1.0  0.82250  0.74368  0.43043  1.0000
  O  Te18      1.0  0.70730  0.64657  0.56135  1.0000
  O  Te19      1.0  0.58472  0.75623  0.54026  1.0000
  O  Te20      1.0  0.69996  0.85334  0.40928  1.0000
  Mg  Mg9       1.0  0.61318  0.67373  0.58805  1.0000
  Mg  Mg10      1.0  0.79404  0.82623  0.38247  1.0000
  C  Sn21      1.0  0.26308  0.41733  0.34852  1.0000
  C   C31       1.0  0.20210  0.45375  0.43536  1.0000
  C  Sn22      1.0  0.18805  0.50475  0.52024  1.0000
  C  Sn23      1.0  0.23592  0.51968  0.51822  1.0000
  C   C32       1.0  0.29685  0.48328  0.43140  1.0000
  C  Sn24      1.0  0.31095  0.43226  0.34650  1.0000
  O  Te21      1.0  0.27606  0.36656  0.26453  1.0000
  O  Te22      1.0  0.12675  0.54046  0.60623  1.0000
  O  Te23      1.0  0.22289  0.57049  0.60231  1.0000
  O  Te24      1.0  0.37220  0.39657  0.26053  1.0000
  Mg  Mg11      1.0  0.13227  0.60503  0.70158  1.0000
  Mg  Mg12      1.0  0.36672  0.33201  0.16507  1.0000
  C  Sn25      1.0  0.53896  0.45826  0.99666  1.0000
  C   C33       1.0  0.53970  0.50988  0.99811  1.0000
  C  Sn26      1.0  0.51114  0.55168  0.03039  1.0000
  C  Sn27      1.0  0.45082  0.55535  0.06199  1.0000
  C   C34       1.0  0.45010  0.50375  0.06056  1.0000
  C  Sn28      1.0  0.50841  0.44855  0.02826  1.0000
  O  Te25      1.0  0.59787  0.40357  0.96411  1.0000
  O  Te26      1.0  0.51311  0.60267  0.03112  1.0000
  O  Te27      1.0  0.39189  0.61009  0.09455  1.0000
  O  Te28      1.0  0.50646  0.39758  0.02755  1.0000
  Mg  Mg13      1.0  0.41987  0.66692  0.08198  1.0000
  Mg  Mg14      1.0  0.56990  0.34668  0.97678  1.0000
  C  Sn29      1.0  0.53140  0.01683  0.82449  1.0000
  C   C35       1.0  0.46817  0.02787  0.85232  1.0000
  C  Sn30      1.0  0.85826  0.98435  0.91680  1.0000
  C  Sn31      1.0  0.91368  0.92863  0.95435  1.0000
  C   C36       1.0  0.97686  0.91761  0.92654  1.0000
  C  Sn32      1.0  0.98584  0.96111  0.86204  1.0000
  O  Te29      1.0  0.53918  0.06099  0.75996  1.0000
  O  Te30      1.0  0.79457  0.99642  0.94351  1.0000
  O  Te31      1.0  0.93562  0.87109  0.01893  1.0000
  O  Te32      1.0  0.04949  0.94907  0.83536  1.0000
  Mg  Mg15      1.0  0.83906  0.90867  0.03357  1.0000
  Mg  Mg16      1.0  0.63580  0.02341  0.74539  1.0000
  C  Sn33      1.0  0.23203  0.25126  0.88451  1.0000
  C   C37       1.0  0.22592  0.30147  0.95459  1.0000
  C  Sn34      1.0  0.30903  0.28396  0.02434  1.0000
  C  Sn35      1.0  0.36977  0.22848  0.02395  1.0000
  C   C38       1.0  0.34610  0.19168  0.95387  1.0000
  C  Sn36      1.0  0.29277  0.19578  0.88412  1.0000
  O  Te33      1.0  0.17806  0.25643  0.81547  1.0000
  O  Te34      1.0  0.30172  0.33478  0.09372  1.0000
  O  Te35      1.0  0.42376  0.22335  0.09307  1.0000
  O  Te36      1.0  0.30007  0.14501  0.81474  1.0000
  Mg  Mg17      1.0  0.38950  0.30520  0.17263  1.0000
  Mg  Mg18      1.0  0.21233  0.17454  0.73573  1.0000
  C  Sn37      1.0  0.80249  0.48616  0.95584  1.0000
  C   C39       1.0  0.81254  0.52806  0.88363  1.0000
  C  Sn38      1.0  0.75896  0.58420  0.85128  1.0000
  C  Sn39      1.0  0.69398  0.59877  0.89204  1.0000
  C   C40       1.0  0.68397  0.55689  0.96422  1.0000
  C  Sn40      1.0  0.73752  0.50073  0.99659  1.0000
  O  Te37      1.0  0.85678  0.43031  0.98708  1.0000
  O  Te38      1.0  0.77024  0.62534  0.77897  1.0000
  O  Te39      1.0  0.63968  0.65467  0.86073  1.0000
  O  Te40      1.0  0.75603  0.44624  0.06889  1.0000
  Mg  Mg19      1.0  0.68030  0.69558  0.76060  1.0000
  Mg  Mg20      1.0  0.84593  0.37600  0.08738  1.0000
  C  Sn41      1.0  0.76478  0.73931  0.79194  1.0000
  C   C41       1.0  0.71452  0.76073  0.91701  1.0000
  C  Sn42      1.0  0.75281  0.71483  0.05686  1.0000
  C  Sn43      1.0  0.81283  0.65975  0.07209  1.0000
  C   C42       1.0  0.83328  0.65174  0.94709  1.0000
  C  Sn44      1.0  0.82480  0.68423  0.80716  1.0000
  O  Te41      1.0  0.75519  0.77258  0.65321  1.0000
  O  Te42      1.0  0.70185  0.73714  0.18025  1.0000
  O  Te43      1.0  0.82239  0.62649  0.21096  1.0000
  O  Te44      1.0  0.87572  0.66195  0.68385  1.0000
  Mg  Mg21      1.0  0.73845  0.67554  0.34579  1.0000
  Mg  Mg22      1.0  0.83919  0.72353  0.51829  1.0000
  C  Sn45      1.0  0.30464  0.47335  0.02582  1.0000
  C   C43       1.0  0.34038  0.44787  0.96716  1.0000
  C  Sn46      1.0  0.35774  0.40013  0.86156  1.0000
  C  Sn47      1.0  0.30860  0.39104  0.81350  1.0000
  C   C44       1.0  0.24313  0.42989  0.87213  1.0000
  C  Sn48      1.0  0.22572  0.47764  0.97776  1.0000
  O  Te45      1.0  0.28840  0.52079  0.13126  1.0000
  O  Te46      1.0  0.42357  0.36186  0.80457  1.0000
  O  Te47      1.0  0.32489  0.34356  0.70798  1.0000
  O  Te48      1.0  0.18971  0.50252  0.03471  1.0000
  Mg  Mg23      1.0  0.42122  0.30363  0.66315  1.0000
  Mg  Mg24      1.0  0.19200  0.56079  0.17606  1.0000
