data_image0
_chemical_formula_structural       CNHCNHCNHCNHSC2S3C5NHCNHCNHCNHSC2S3C6Sn2C2HTe2HMgC2Sn2C2HTe2HMgC2Sn2C2HTe2HMgC2Sn2C2HTe2HMgC2Sn2C2HTe2HMgC2Sn2C2HTe2HMgC2Sn2C2HTe2HMgC2Sn2C2HTe2HMgC2Sn2C2HTe2HMgC2Sn2C2HTe2HMgC2Sn2C2HTe2HMgC2Sn2C2HTe2HMg
_chemical_formula_sum              "C68 N8 H32 S8 Sn24 Te24 Mg12"
_cell_length_a       24.2473
_cell_length_b       26.883
_cell_length_c       8.20563
_cell_angle_alpha    89.7776
_cell_angle_beta     86.3176
_cell_angle_gamma    57.1764

_symmetry_space_group_name_H-M    'P1'
_space_group_IT_number       1

loop_
  _space_group_symop_operation_xyz
  'x, y, z'

loop_
  _atom_site_type_symbol
  _atom_site_label
  _atom_site_symmetry_multiplicity
  _atom_site_fract_x
  _atom_site_fract_y
  _atom_site_fract_z
  _atom_site_occupancy
  C   C1        1.0  0.36263  0.46826  0.45815  1.0000
  N   N1        1.0  0.36691  0.50220  0.56070  1.0000
  H   H1        1.0  0.40432  0.43712  0.37256  1.0000
  C   C2        1.0  0.60415  0.53280  0.46345  1.0000
  N   N2        1.0  0.60297  0.49405  0.55499  1.0000
  H   H2        1.0  0.56281  0.56195  0.38941  1.0000
  C   C3        1.0  0.35636  0.18175  0.46680  1.0000
  N   N3        1.0  0.36467  0.13502  0.39571  1.0000
  H   H3        1.0  0.39335  0.17970  0.54284  1.0000
  C   C4        1.0  0.59396  0.86585  0.49559  1.0000
  N   N4        1.0  0.59566  0.90886  0.42945  1.0000
  H   H4        1.0  0.54842  0.87261  0.55609  1.0000
  S   S1        1.0  0.05107  0.42556  0.38757  1.0000
  C   C5        1.0  0.00525  0.50348  0.38981  1.0000
  C   C6        1.0  0.93874  0.53695  0.38365  1.0000
  S   S2        1.0  0.89124  0.50649  0.36624  1.0000
  S   S3        1.0  0.89232  0.61460  0.38177  1.0000
  S   S4        1.0  0.05314  0.53434  0.39239  1.0000
  C   C7        1.0  0.12738  0.41664  0.41673  1.0000
  C   C8        1.0  0.12790  0.46740  0.41661  1.0000
  C   C9        1.0  0.81499  0.57230  0.41680  1.0000
  C   C10       1.0  0.81460  0.62359  0.42727  1.0000
  C   C11       1.0  0.40562  0.45132  0.93612  1.0000
  N   N5        1.0  0.40081  0.49635  0.00893  1.0000
  H   H5        1.0  0.45281  0.41469  0.87925  1.0000
  C   C12       1.0  0.63108  0.54615  0.95423  1.0000
  N   N6        1.0  0.62599  0.50668  0.03242  1.0000
  H   H6        1.0  0.59100  0.58046  0.88495  1.0000
  C   C13       1.0  0.39078  0.12975  0.97583  1.0000
  N   N7        1.0  0.39642  0.08532  0.89764  1.0000
  H   H7        1.0  0.42898  0.12309  0.05512  1.0000
  C   C14       1.0  0.65221  0.82611  0.98235  1.0000
  N   N8        1.0  0.64016  0.86786  0.88391  1.0000
  H   H8        1.0  0.61724  0.83283  0.08575  1.0000
  S   S5        1.0  0.10601  0.38519  0.87810  1.0000
  C   C15       1.0  0.06270  0.46228  0.86411  1.0000
  C   C16       1.0  0.99720  0.49741  0.84296  1.0000
  S   S6        1.0  0.94392  0.47222  0.83521  1.0000
  S   S7        1.0  0.95751  0.57445  0.82613  1.0000
  S   S8        1.0  0.11177  0.49151  0.87756  1.0000
  C   C17       1.0  0.18310  0.37412  0.91039  1.0000
  C   C18       1.0  0.18633  0.42375  0.90712  1.0000
  C   C19       1.0  0.87128  0.54249  0.88438  1.0000
  C   C20       1.0  0.87834  0.58977  0.88038  1.0000
  C   C21       1.0  0.50713  0.43433  0.54743  1.0000
  C   C22       1.0  0.44198  0.48218  0.57425  1.0000
  C  Sn1       1.0  0.42788  0.53958  0.59591  1.0000
  C  Sn2       1.0  0.48007  0.54911  0.59053  1.0000
  C   C23       1.0  0.54507  0.50095  0.56352  1.0000
  C   C24       1.0  0.55863  0.44369  0.54204  1.0000
  H   H9        1.0  0.51762  0.39003  0.53073  1.0000
  O  Te1       1.0  0.36252  0.58689  0.62264  1.0000
  O  Te2       1.0  0.46737  0.60603  0.61174  1.0000
  H   H10       1.0  0.60907  0.40666  0.52118  1.0000
  Mg  Mg1       1.0  0.37019  0.65622  0.64472  1.0000
  C   C25       1.0  0.50361  0.06191  0.42385  1.0000
  C   C26       1.0  0.43918  0.07912  0.39894  1.0000
  C  Sn3       1.0  0.42288  0.03674  0.39012  1.0000
  C  Sn4       1.0  0.87112  0.97604  0.40663  1.0000
  C   C27       1.0  0.93542  0.95928  0.43163  1.0000
  C   C28       1.0  0.95120  0.00205  0.44021  1.0000
  H   H11       1.0  0.51582  0.09500  0.43058  1.0000
  O  Te3       1.0  0.35828  0.05470  0.36512  1.0000
  O  Te4       1.0  0.85617  0.93277  0.39836  1.0000
  H   H12       1.0  0.00108  0.98872  0.45961  1.0000
  Mg  Mg2       1.0  0.76113  0.97921  0.36262  1.0000
  C   C29       1.0  0.19713  0.29089  0.34820  1.0000
  C   C30       1.0  0.18164  0.34385  0.42411  1.0000
  C  Sn5       1.0  0.22725  0.34513  0.51680  1.0000
  C  Sn6       1.0  0.28948  0.29235  0.53353  1.0000
  C   C31       1.0  0.30452  0.23961  0.45701  1.0000
  C   C32       1.0  0.25851  0.23882  0.36460  1.0000
  H   H13       1.0  0.16155  0.29029  0.27662  1.0000
  O  Te5       1.0  0.21096  0.39841  0.59187  1.0000
  O  Te6       1.0  0.33599  0.29238  0.62541  1.0000
  H   H14       1.0  0.27053  0.19782  0.30575  1.0000
  Mg  Mg3       1.0  0.29080  0.37596  0.70440  1.0000
  C   C33       1.0  0.66120  0.59412  0.33318  1.0000
  C   C34       1.0  0.65771  0.55060  0.41793  1.0000
  C  Sn7       1.0  0.70762  0.51252  0.51712  1.0000
  C  Sn8       1.0  0.76196  0.51823  0.53152  1.0000
  C   C35       1.0  0.76497  0.56194  0.44632  1.0000
  C   C36       1.0  0.71477  0.59980  0.34736  1.0000
  H   H15       1.0  0.62234  0.62344  0.25668  1.0000
  O  Te7       1.0  0.70337  0.46927  0.60090  1.0000
  O  Te8       1.0  0.81251  0.48077  0.62986  1.0000
  H   H16       1.0  0.71747  0.63351  0.28184  1.0000
  Mg  Mg4       1.0  0.78450  0.42873  0.71978  1.0000
  C   C37       1.0  0.75948  0.74810  0.40404  1.0000
  C   C38       1.0  0.76341  0.69681  0.45641  1.0000
  C  Sn9       1.0  0.70757  0.69991  0.52686  1.0000
  C  Sn10      1.0  0.64673  0.75545  0.54503  1.0000
  C   C39       1.0  0.64330  0.80649  0.49215  1.0000
  C   C40       1.0  0.69949  0.80289  0.42186  1.0000
  H   H17       1.0  0.80294  0.74531  0.34957  1.0000
  O  Te9       1.0  0.71237  0.64824  0.57857  1.0000
  O  Te10      1.0  0.59015  0.75981  0.61498  1.0000
  H   H18       1.0  0.69642  0.84260  0.38123  1.0000
  Mg  Mg5       1.0  0.62157  0.67690  0.66658  1.0000
  C   C41       1.0  0.22607  0.51798  0.55502  1.0000
  C   C42       1.0  0.28841  0.47997  0.47616  1.0000
  C  Sn11      1.0  0.29824  0.43790  0.35868  1.0000
  C  Sn12      1.0  0.24455  0.43393  0.31966  1.0000
  C   C43       1.0  0.18236  0.47218  0.39916  1.0000
  C   C44       1.0  0.17308  0.51410  0.51656  1.0000
  H   H19       1.0  0.21888  0.55044  0.64579  1.0000
  O  Te11      1.0  0.36085  0.40026  0.28110  1.0000
  O  Te12      1.0  0.25299  0.39230  0.20269  1.0000
  H   H20       1.0  0.12480  0.54355  0.57752  1.0000
  Mg  Mg6       1.0  0.34766  0.35082  0.13036  1.0000
  C   C45       1.0  0.53897  0.43930  0.03730  1.0000
  C   C46       1.0  0.47231  0.48414  0.03750  1.0000
  C  Sn13      1.0  0.45284  0.54342  0.03147  1.0000
  C  Sn14      1.0  0.50111  0.55795  0.02508  1.0000
  C   C47       1.0  0.56768  0.51277  0.02482  1.0000
  C   C48       1.0  0.58662  0.45360  0.03094  1.0000
  H   H21       1.0  0.55364  0.39352  0.04194  1.0000
  O  Te13      1.0  0.38603  0.58766  0.03182  1.0000
  O  Te14      1.0  0.48302  0.61684  0.01891  1.0000
  H   H22       1.0  0.63824  0.41889  0.03067  1.0000
  Mg  Mg7       1.0  0.38584  0.66139  0.02208  1.0000
  C   C49       1.0  0.50044  0.93230  0.92279  1.0000
  C   C50       1.0  0.56419  0.92001  0.89447  1.0000
  C  Sn15      1.0  0.57428  0.96610  0.87132  1.0000
  C  Sn16      1.0  0.12042  0.02554  0.87673  1.0000
  C   C51       1.0  0.05685  0.03738  0.90526  1.0000
  C   C52       1.0  0.44633  0.99092  0.92822  1.0000
  H   H23       1.0  0.49306  0.89636  0.94065  1.0000
  O  Te15      1.0  0.63829  0.95304  0.84309  1.0000
  O  Te16      1.0  0.12911  0.07245  0.85405  1.0000
  H   H24       1.0  0.39698  0.00045  0.95025  1.0000
  Mg  Mg8       1.0  0.22587  0.03216  0.81934  1.0000
  C   C53       1.0  0.26730  0.21780  0.84979  1.0000
  C   C54       1.0  0.32403  0.19337  0.93498  1.0000
  C  Sn17      1.0  0.36465  0.21642  0.03035  1.0000
  C  Sn18      1.0  0.31774  0.27844  0.04040  1.0000
  C   C55       1.0  0.23134  0.31581  0.95480  1.0000
  C   C56       1.0  0.22099  0.27896  0.85969  1.0000
  H   H25       1.0  0.25926  0.18929  0.77627  1.0000
  O  Te17      1.0  0.42161  0.19129  0.11462  1.0000
  O  Te18      1.0  0.32734  0.31586  0.13486  1.0000
  H   H26       1.0  0.17704  0.29788  0.79383  1.0000
  Mg  Mg9       1.0  0.41265  0.26062  0.22720  1.0000
  C   C57       1.0  0.76782  0.49144  0.01174  1.0000
  C   C58       1.0  0.67511  0.54836  0.96877  1.0000
  C  Sn19      1.0  0.66496  0.59778  0.88556  1.0000
  C  Sn20      1.0  0.71892  0.60358  0.84473  1.0000
  C   C59       1.0  0.78170  0.55975  0.88816  1.0000
  C   C60       1.0  0.79130  0.51049  0.97146  1.0000
  H   H27       1.0  0.77526  0.45331  0.07611  1.0000
  O  Te19      1.0  0.60174  0.64088  0.84360  1.0000
  O  Te20      1.0  0.71016  0.65251  0.76154  1.0000
  H   H28       1.0  0.86982  0.46340  0.00462  1.0000
  Mg  Mg10      1.0  0.61468  0.69948  0.73085  1.0000
  C   C61       1.0  0.77795  0.74428  0.81342  1.0000
  C   C62       1.0  0.72383  0.76527  0.92699  1.0000
  C  Sn21      1.0  0.75290  0.71468  0.04522  1.0000
  C  Sn22      1.0  0.80747  0.65535  0.04956  1.0000
  C   C63       1.0  0.83162  0.64816  0.93547  1.0000
  C   C64       1.0  0.83180  0.68578  0.81765  1.0000
  H   H29       1.0  0.77811  0.77340  0.72231  1.0000
  O  Te21      1.0  0.69843  0.73636  0.15773  1.0000
  O  Te22      1.0  0.80806  0.61720  0.16646  1.0000
  H   H30       1.0  0.87373  0.66952  0.72980  1.0000
  Mg  Mg11      1.0  0.72235  0.66733  0.29362  1.0000
  C   C65       1.0  0.32457  0.37995  0.83592  1.0000
  C   C66       1.0  0.25935  0.41707  0.89904  1.0000
  C  Sn23      1.0  0.23769  0.47258  0.96922  1.0000
  C  Sn24      1.0  0.28226  0.49114  0.97611  1.0000
  C   C67       1.0  0.34740  0.45369  0.91252  1.0000
  C   C68       1.0  0.36856  0.39824  0.84261  1.0000
  H   H31       1.0  0.34094  0.33706  0.78174  1.0000
  O  Te23      1.0  0.20214  0.49573  0.03176  1.0000
  O  Te24      1.0  0.29168  0.53303  0.04552  1.0000
  H   H32       1.0  0.41904  0.36952  0.79365  1.0000
  Mg  Mg12      1.0  0.19779  0.56700  0.11434  1.0000
