data_image0
_chemical_formula_structural       CNC3H3CNC3H3CNHCNHSC2S3C10H4C6H4CNHCNHCNC3H3CNC3H3SC2S3C10H4C6H4C2Sn2C2HTe2HMgC2Sn2C2HTe2HMgC2Sn2C2HTe2HMgC2Sn2C2HTe2HMgC2Sn2C2HTe2HMgC2Sn2C2HTe2HMg
_chemical_formula_sum              "C80 N8 H44 S8 Sn12 Te12 Mg6"
_cell_length_a       24.2473
_cell_length_b       26.883
_cell_length_c       8.20563
_cell_angle_alpha    89.7776
_cell_angle_beta     86.3176
_cell_angle_gamma    57.1764

_symmetry_space_group_name_H-M    'P1'
_space_group_IT_number       1

loop_
  _space_group_symop_operation_xyz
  'x, y, z'

loop_
  _atom_site_type_symbol
  _atom_site_label
  _atom_site_symmetry_multiplicity
  _atom_site_fract_x
  _atom_site_fract_y
  _atom_site_fract_z
  _atom_site_occupancy
  C   C1        1.0  0.36263  0.46826  0.45815  1.0000
  N   N1        1.0  0.36691  0.50220  0.56070  1.0000
  C   C2        1.0  0.42700  0.49725  0.56845  1.0000
  C   C3        1.0  0.42492  0.54986  0.59601  1.0000
  C   C4        1.0  0.48263  0.54913  0.59136  1.0000
  H   H1        1.0  0.40432  0.43712  0.37256  1.0000
  H   H2        1.0  0.37699  0.59086  0.61656  1.0000
  H   H3        1.0  0.48098  0.58993  0.61063  1.0000
  C   C5        1.0  0.60415  0.53280  0.46345  1.0000
  N   N2        1.0  0.60297  0.49405  0.55499  1.0000
  C   C6        1.0  0.54436  0.49540  0.56691  1.0000
  C   C7        1.0  0.54662  0.44202  0.55755  1.0000
  C   C8        1.0  0.48875  0.44303  0.55405  1.0000
  H   H4        1.0  0.56281  0.56195  0.38941  1.0000
  H   H5        1.0  0.59445  0.40050  0.54732  1.0000
  H   H6        1.0  0.49071  0.40176  0.54258  1.0000
  C   C9        1.0  0.35636  0.18175  0.46680  1.0000
  N   N3        1.0  0.36467  0.13502  0.39571  1.0000
  H   H7        1.0  0.39335  0.17970  0.54284  1.0000
  C   C10       1.0  0.59396  0.86585  0.49559  1.0000
  N   N4        1.0  0.59566  0.90886  0.42945  1.0000
  H   H8        1.0  0.54842  0.87261  0.55609  1.0000
  S   S1        1.0  0.05107  0.42556  0.38757  1.0000
  C   C11       1.0  0.00525  0.50348  0.38981  1.0000
  C   C12       1.0  0.93874  0.53695  0.38365  1.0000
  S   S2        1.0  0.89124  0.50649  0.36624  1.0000
  S   S3        1.0  0.89232  0.61460  0.38177  1.0000
  S   S4        1.0  0.05314  0.53434  0.39239  1.0000
  C   C13       1.0  0.12738  0.41664  0.41673  1.0000
  C   C14       1.0  0.12790  0.46740  0.41661  1.0000
  C   C15       1.0  0.81499  0.57230  0.41680  1.0000
  C   C16       1.0  0.81460  0.62359  0.42727  1.0000
  C   C17       1.0  0.18385  0.35627  0.43554  1.0000
  C   C18       1.0  0.18768  0.30683  0.36243  1.0000
  C   C19       1.0  0.24310  0.25002  0.37195  1.0000
  C   C20       1.0  0.29705  0.24028  0.45488  1.0000
  C   C21       1.0  0.29231  0.28933  0.53199  1.0000
  C   C22       1.0  0.23669  0.34586  0.52502  1.0000
  H   H9        1.0  0.14740  0.31361  0.29330  1.0000
  H   H10       1.0  0.24643  0.21225  0.31285  1.0000
  H   H11       1.0  0.33292  0.28219  0.60042  1.0000
  H   H12       1.0  0.23360  0.38244  0.58977  1.0000
  C   C23       1.0  0.18610  0.47097  0.42249  1.0000
  C   C24       1.0  0.18690  0.51114  0.53062  1.0000
  C   C25       1.0  0.24410  0.51053  0.54343  1.0000
  C   C26       1.0  0.30175  0.47051  0.44580  1.0000
  C   C27       1.0  0.29998  0.43242  0.33231  1.0000
  C   C28       1.0  0.24283  0.43294  0.32045  1.0000
  H   H13       1.0  0.14291  0.54094  0.60879  1.0000
  H   H14       1.0  0.24572  0.54035  0.62929  1.0000
  H   H15       1.0  0.34345  0.40295  0.25175  1.0000
  H   H16       1.0  0.24123  0.40366  0.23313  1.0000
  C   C29       1.0  0.40562  0.45132  0.93612  1.0000
  N   N5        1.0  0.40081  0.49635  0.00893  1.0000
  H   H17       1.0  0.45281  0.41469  0.87925  1.0000
  C   C30       1.0  0.63108  0.54615  0.95423  1.0000
  N   N6        1.0  0.62599  0.50668  0.03242  1.0000
  H   H18       1.0  0.59100  0.58046  0.88495  1.0000
  C   C31       1.0  0.39078  0.12975  0.97583  1.0000
  N   N7        1.0  0.39642  0.08532  0.89764  1.0000
  C   C32       1.0  0.45683  0.03103  0.89885  1.0000
  C   C33       1.0  0.45881  0.97787  0.91328  1.0000
  C   C34       1.0  0.51880  0.92386  0.91587  1.0000
  H   H19       1.0  0.42898  0.12309  0.05512  1.0000
  H   H20       1.0  0.41262  0.98002  0.92432  1.0000
  H   H21       1.0  0.52023  0.88286  0.92842  1.0000
  C   C35       1.0  0.65221  0.82611  0.98235  1.0000
  N   N8        1.0  0.64016  0.86786  0.88391  1.0000
  C   C36       1.0  0.57873  0.92101  0.89491  1.0000
  C   C37       1.0  0.57662  0.97383  0.87060  1.0000
  C   C38       1.0  0.51688  0.02787  0.87620  1.0000
  H   H22       1.0  0.61724  0.83283  0.08575  1.0000
  H   H23       1.0  0.62289  0.97104  0.84767  1.0000
  H   H24       1.0  0.51550  0.06850  0.85572  1.0000
  S   S5        1.0  0.10601  0.38519  0.87810  1.0000
  C   C39       1.0  0.06270  0.46228  0.86411  1.0000
  C   C40       1.0  0.99720  0.49741  0.84296  1.0000
  S   S6        1.0  0.94392  0.47222  0.83521  1.0000
  S   S7        1.0  0.95751  0.57445  0.82613  1.0000
  S   S8        1.0  0.11177  0.49151  0.87756  1.0000
  C   C41       1.0  0.18310  0.37412  0.91039  1.0000
  C   C42       1.0  0.18633  0.42375  0.90712  1.0000
  C   C43       1.0  0.87128  0.54249  0.88438  1.0000
  C   C44       1.0  0.87834  0.58977  0.88038  1.0000
  C   C45       1.0  0.23518  0.31175  0.93234  1.0000
  C   C46       1.0  0.23448  0.26589  0.85001  1.0000
  C   C47       1.0  0.28359  0.20669  0.86550  1.0000
  C   C48       1.0  0.33574  0.19076  0.96423  1.0000
  C   C49       1.0  0.33607  0.23609  0.04864  1.0000
  C   C50       1.0  0.28647  0.29524  0.03465  1.0000
  H   H25       1.0  0.19613  0.27721  0.76775  1.0000
  H   H26       1.0  0.28368  0.17186  0.79804  1.0000
  H   H27       1.0  0.37552  0.22448  0.12746  1.0000
  H   H28       1.0  0.28729  0.32894  0.10473  1.0000
  C   C51       1.0  0.82508  0.65185  0.91397  1.0000
  C   C52       1.0  0.81682  0.69732  0.81142  1.0000
  C   C53       1.0  0.76144  0.75438  0.83555  1.0000
  C   C54       1.0  0.71293  0.76768  0.96240  1.0000
  C   C55       1.0  0.72295  0.72294  0.06935  1.0000
  C   C56       1.0  0.77874  0.66614  0.04660  1.0000
  H   H29       1.0  0.85288  0.68702  0.70956  1.0000
  H   H30       1.0  0.75328  0.78933  0.75383  1.0000
  H   H31       1.0  0.68672  0.73292  0.17051  1.0000
  H   H32       1.0  0.78698  0.63151  0.12923  1.0000
  C   C57       1.0  0.82813  0.47925  0.00871  1.0000
  C   C58       1.0  0.81137  0.53057  0.92269  1.0000
  C  Sn1       1.0  0.76092  0.58005  0.84936  1.0000
  C  Sn2       1.0  0.69629  0.59164  0.86264  1.0000
  C   C59       1.0  0.68378  0.55344  0.94906  1.0000
  C   C60       1.0  0.76440  0.49067  0.02192  1.0000
  H   H33       1.0  0.86746  0.44105  0.06516  1.0000
  O  Te1       1.0  0.77477  0.61749  0.76382  1.0000
  O  Te2       1.0  0.64495  0.64079  0.79059  1.0000
  H   H34       1.0  0.75430  0.46132  0.08860  1.0000
  Mg  Mg1       1.0  0.68837  0.67878  0.68681  1.0000
  C   C61       1.0  0.75948  0.74810  0.40404  1.0000
  C   C62       1.0  0.76341  0.69681  0.45641  1.0000
  C  Sn3       1.0  0.70757  0.69991  0.52686  1.0000
  C  Sn4       1.0  0.64673  0.75545  0.54503  1.0000
  C   C63       1.0  0.64330  0.80649  0.49215  1.0000
  C   C64       1.0  0.69949  0.80289  0.42186  1.0000
  H   H35       1.0  0.80294  0.74531  0.34957  1.0000
  O  Te3       1.0  0.71237  0.64824  0.57857  1.0000
  O  Te4       1.0  0.59015  0.75981  0.61498  1.0000
  H   H36       1.0  0.69642  0.84260  0.38123  1.0000
  Mg  Mg2       1.0  0.62157  0.67690  0.66658  1.0000
  C   C65       1.0  0.35325  0.38323  0.84748  1.0000
  C   C66       1.0  0.35276  0.43331  0.89534  1.0000
  C  Sn5       1.0  0.29452  0.48385  0.96012  1.0000
  C  Sn6       1.0  0.23575  0.48412  0.97720  1.0000
  C   C67       1.0  0.23676  0.43378  0.92907  1.0000
  C   C68       1.0  0.29531  0.38345  0.86435  1.0000
  H   H37       1.0  0.39856  0.34428  0.79749  1.0000
  O  Te5       1.0  0.32466  0.52014  0.00726  1.0000
  O  Te6       1.0  0.20663  0.52065  0.04163  1.0000
  H   H38       1.0  0.29569  0.34467  0.82741  1.0000
  Mg  Mg3       1.0  0.23208  0.57749  0.08839  1.0000
  C   C69       1.0  0.75769  0.50993  0.54704  1.0000
  C   C70       1.0  0.76527  0.54802  0.44562  1.0000
  C  Sn7       1.0  0.71580  0.58552  0.34464  1.0000
  C  Sn8       1.0  0.65771  0.58478  0.34552  1.0000
  C   C71       1.0  0.65059  0.54654  0.44752  1.0000
  C   C72       1.0  0.70041  0.50919  0.54803  1.0000
  H   H39       1.0  0.79622  0.48105  0.62489  1.0000
  O  Te7       1.0  0.72417  0.62329  0.24401  1.0000
  O  Te8       1.0  0.60748  0.62182  0.24586  1.0000
  H   H40       1.0  0.69451  0.47972  0.62663  1.0000
  Mg  Mg4       1.0  0.64183  0.66544  0.13006  1.0000
  C   C73       1.0  0.53897  0.43930  0.03730  1.0000
  C   C74       1.0  0.47231  0.48414  0.03750  1.0000
  C  Sn9       1.0  0.45284  0.54342  0.03147  1.0000
  C  Sn10      1.0  0.50111  0.55795  0.02508  1.0000
  C   C75       1.0  0.56768  0.51277  0.02482  1.0000
  C   C76       1.0  0.58662  0.45360  0.03094  1.0000
  H   H41       1.0  0.55364  0.39352  0.04194  1.0000
  O  Te9       1.0  0.38603  0.58766  0.03182  1.0000
  O  Te10      1.0  0.48302  0.61684  0.01891  1.0000
  H   H42       1.0  0.63824  0.41889  0.03067  1.0000
  Mg  Mg5       1.0  0.38584  0.66139  0.02208  1.0000
  C   C77       1.0  0.42729  0.01298  0.39172  1.0000
  C   C78       1.0  0.42107  0.06759  0.40680  1.0000
  C  Sn11      1.0  0.47670  0.06998  0.42110  1.0000
  C  Sn12      1.0  0.53967  0.01662  0.42020  1.0000
  C   C79       1.0  0.94440  0.96220  0.40494  1.0000
  C   C80       1.0  0.88840  0.96033  0.39076  1.0000
  H   H43       1.0  0.38396  0.01152  0.38066  1.0000
  O  Te11      1.0  0.46961  0.12492  0.43612  1.0000
  O  Te12      1.0  0.59610  0.01772  0.43424  1.0000
  H   H44       1.0  0.89324  0.91803  0.37899  1.0000
  Mg  Mg6       1.0  0.56114  0.10346  0.45189  1.0000
