data_image0
_chemical_formula_structural       C36O12B6H12C6N3C6NC6NC6NH16C36O12B6H12NC6N4C6NH8SnCSn2CSnTe4Mg2SnCSn2CSnTe4Mg2SnCSn2CSnTe4Mg2SnCSn2CSnTe4Mg2SnCSn2CSnTe4Mg2SnCSn2CSnTe4Mg2
_chemical_formula_sum              "C120 O24 B12 H48 N12 Sn24 Te24 Mg12"
_cell_length_a       40.8865
_cell_length_b       40.9419
_cell_length_c       7.9806
_cell_angle_alpha    100.924
_cell_angle_beta     87.9631
_cell_angle_gamma    119.921

_symmetry_space_group_name_H-M    'P1'
_space_group_IT_number       1

loop_
  _space_group_symop_operation_xyz
  'x, y, z'

loop_
  _atom_site_type_symbol
  _atom_site_label
  _atom_site_symmetry_multiplicity
  _atom_site_fract_x
  _atom_site_fract_y
  _atom_site_fract_z
  _atom_site_occupancy
  C   C1        1.0  0.70302  0.33518  0.25469  1.0000
  C   C2        1.0  0.70254  0.36976  0.25302  1.0000
  C   C3        1.0  0.73678  0.40438  0.24727  1.0000
  C   C4        1.0  0.73812  0.33587  0.24873  1.0000
  C   C5        1.0  0.77001  0.40393  0.24828  1.0000
  C   C6        1.0  0.77067  0.37007  0.24679  1.0000
  C   C7        1.0  0.66780  0.29944  0.25939  1.0000
  C   C8        1.0  0.63253  0.29868  0.25580  1.0000
  C   C9        1.0  0.59815  0.26323  0.25253  1.0000
  C   C10       1.0  0.66878  0.26561  0.26523  1.0000
  C   C11       1.0  0.60043  0.23102  0.25745  1.0000
  C   C12       1.0  0.63521  0.23232  0.26537  1.0000
  C   C13       1.0  0.66668  0.36929  0.25372  1.0000
  C   C14       1.0  0.63215  0.33429  0.25764  1.0000
  C   C15       1.0  0.59760  0.33451  0.26318  1.0000
  C   C16       1.0  0.66612  0.40377  0.25587  1.0000
  C   C17       1.0  0.59833  0.36829  0.26149  1.0000
  C   C18       1.0  0.63198  0.40270  0.25881  1.0000
  C   C19       1.0  0.29637  0.66438  0.26362  1.0000
  C   C20       1.0  0.29839  0.63019  0.25184  1.0000
  C   C21       1.0  0.26456  0.59445  0.25388  1.0000
  C   C22       1.0  0.26089  0.66244  0.27402  1.0000
  C   C23       1.0  0.23062  0.59363  0.25812  1.0000
  C   C24       1.0  0.22891  0.62728  0.27007  1.0000
  C   C25       1.0  0.33074  0.70080  0.25765  1.0000
  C   C26       1.0  0.36639  0.70240  0.24292  1.0000
  C   C27       1.0  0.39961  0.73742  0.23097  1.0000
  C   C28       1.0  0.32907  0.73494  0.26925  1.0000
  C   C29       1.0  0.39681  0.76963  0.24049  1.0000
  C   C30       1.0  0.36212  0.76840  0.26073  1.0000
  C   C31       1.0  0.33500  0.63216  0.24469  1.0000
  C   C32       1.0  0.36868  0.66799  0.24218  1.0000
  C   C33       1.0  0.40460  0.67031  0.24032  1.0000
  C   C34       1.0  0.33774  0.59890  0.23690  1.0000
  C   C35       1.0  0.40575  0.63711  0.23007  1.0000
  C   C36       1.0  0.37270  0.60203  0.23194  1.0000
  O   O1        1.0  0.80772  0.37778  0.23928  1.0000
  O   O2        1.0  0.62959  0.19642  0.27245  1.0000
  O   O3        1.0  0.62371  0.43177  0.25942  1.0000
  O   O4        1.0  0.80619  0.43383  0.23985  1.0000
  O   O5        1.0  0.57157  0.19366  0.25682  1.0000
  O   O6        1.0  0.56808  0.37453  0.26739  1.0000
  O   O7        1.0  0.19170  0.61857  0.27885  1.0000
  O   O8        1.0  0.36792  0.80498  0.26844  1.0000
  O   O9        1.0  0.38206  0.57371  0.23219  1.0000
  O   O10       1.0  0.19442  0.56252  0.25651  1.0000
  O   O11       1.0  0.42514  0.80672  0.23708  1.0000
  O   O12       1.0  0.43674  0.63191  0.22598  1.0000
  B   B1        1.0  0.82915  0.41725  0.23507  1.0000
  B   B2        1.0  0.58403  0.41371  0.26582  1.0000
  B   B3        1.0  0.59004  0.17276  0.26585  1.0000
  B   B4        1.0  0.17075  0.57856  0.26945  1.0000
  B   B5        1.0  0.42158  0.59253  0.22439  1.0000
  B   B6        1.0  0.40712  0.82860  0.25671  1.0000
  H   H1        1.0  0.73770  0.43094  0.23308  1.0000
  H   H2        1.0  0.57073  0.26124  0.24960  1.0000
  H   H3        1.0  0.57060  0.30896  0.26846  1.0000
  H   H4        1.0  0.73982  0.31018  0.24186  1.0000
  H   H5        1.0  0.69509  0.26532  0.26966  1.0000
  H   H6        1.0  0.69206  0.43071  0.25948  1.0000
  H   H7        1.0  0.26496  0.56798  0.25581  1.0000
  H   H8        1.0  0.42690  0.73939  0.21171  1.0000
  H   H9        1.0  0.43070  0.69740  0.25238  1.0000
  H   H10       1.0  0.25769  0.68757  0.28014  1.0000
  H   H11       1.0  0.30276  0.73518  0.28622  1.0000
  H   H12       1.0  0.31296  0.57080  0.22968  1.0000
  C   C37       1.0  0.12763  0.55555  0.26648  1.0000
  C   C38       1.0  0.10533  0.57105  0.22906  1.0000
  C   C39       1.0  0.10955  0.51786  0.29499  1.0000
  C   C40       1.0  0.06620  0.54902  0.21629  1.0000
  C   C41       1.0  0.07031  0.49609  0.28783  1.0000
  C   C42       1.0  0.04838  0.51141  0.24695  1.0000
  N   N1        1.0  0.00883  0.48672  0.24145  1.0000
  N   N2        1.0  0.49141  0.48292  0.25364  1.0000
  N   N3        1.0  0.50874  0.51858  0.24787  1.0000
  C   C43       1.0  0.42776  0.87165  0.25316  1.0000
  C   C44       1.0  0.40733  0.88902  0.21612  1.0000
  C   C45       1.0  0.46771  0.89388  0.27893  1.0000
  C   C46       1.0  0.42611  0.92775  0.20641  1.0000
  C   C47       1.0  0.48656  0.93282  0.27347  1.0000
  C   C48       1.0  0.46551  0.95001  0.24036  1.0000
  N   N4        1.0  0.48040  0.98913  0.23125  1.0000
  C   C49       1.0  0.87204  0.43975  0.23203  1.0000
  C   C50       1.0  0.89245  0.41996  0.22010  1.0000
  C   C51       1.0  0.89161  0.48012  0.24420  1.0000
  C   C52       1.0  0.93133  0.43954  0.21744  1.0000
  C   C53       1.0  0.93082  0.50014  0.24244  1.0000
  C   C54       1.0  0.95053  0.47982  0.22912  1.0000
  N   N5        1.0  0.98999  0.50348  0.23069  1.0000
  C   C55       1.0  0.56992  0.12954  0.26362  1.0000
  C   C56       1.0  0.59004  0.11045  0.28163  1.0000
  C   C57       1.0  0.52994  0.10761  0.24843  1.0000
  C   C58       1.0  0.57086  0.07127  0.28261  1.0000
  C   C59       1.0  0.51067  0.06834  0.24818  1.0000
  C   C60       1.0  0.53118  0.04950  0.26344  1.0000
  N   N6        1.0  0.51603  0.00998  0.26688  1.0000
  H   H13       1.0  0.11893  0.60073  0.21191  1.0000
  H   H14       1.0  0.12635  0.50562  0.32538  1.0000
  H   H15       1.0  0.04878  0.56020  0.18220  1.0000
  H   H16       1.0  0.05568  0.46706  0.31142  1.0000
  H   H17       1.0  0.37673  0.87132  0.19393  1.0000
  H   H18       1.0  0.48337  0.87992  0.30409  1.0000
  H   H19       1.0  0.41092  0.94148  0.17243  1.0000
  H   H20       1.0  0.51724  0.95024  0.29274  1.0000
  H   H21       1.0  0.87647  0.38864  0.20731  1.0000
  H   H22       1.0  0.87601  0.49544  0.25472  1.0000
  H   H23       1.0  0.94770  0.42476  0.20214  1.0000
  H   H24       1.0  0.94748  0.53132  0.25442  1.0000
  H   H25       1.0  0.62090  0.12651  0.29613  1.0000
  H   H26       1.0  0.51406  0.12224  0.24044  1.0000
  H   H27       1.0  0.58588  0.05601  0.29549  1.0000
  H   H28       1.0  0.48001  0.05194  0.24300  1.0000
  C   C61       1.0  0.70277  0.33432  0.75698  1.0000
  C   C62       1.0  0.70054  0.36764  0.74439  1.0000
  C   C63       1.0  0.73389  0.40257  0.73303  1.0000
  C   C64       1.0  0.73860  0.33630  0.75601  1.0000
  C   C65       1.0  0.76774  0.40352  0.73915  1.0000
  C   C66       1.0  0.77052  0.37096  0.74651  1.0000
  C   C67       1.0  0.66764  0.29838  0.76212  1.0000
  C   C68       1.0  0.63168  0.29604  0.74297  1.0000
  C   C69       1.0  0.59776  0.25998  0.72868  1.0000
  C   C70       1.0  0.66880  0.26496  0.77798  1.0000
  C   C71       1.0  0.60024  0.22806  0.73848  1.0000
  C   C72       1.0  0.63519  0.23100  0.76758  1.0000
  C   C73       1.0  0.66428  0.36635  0.74427  1.0000
  C   C74       1.0  0.62988  0.33084  0.74252  1.0000
  C   C75       1.0  0.59470  0.33015  0.74290  1.0000
  C   C76       1.0  0.66341  0.40067  0.74641  1.0000
  C   C77       1.0  0.59511  0.36394  0.74254  1.0000
  C   C78       1.0  0.62886  0.39860  0.74201  1.0000
  C   C79       1.0  0.29722  0.66555  0.77095  1.0000
  C   C80       1.0  0.29887  0.63108  0.74780  1.0000
  C   C81       1.0  0.26496  0.59501  0.72513  1.0000
  C   C82       1.0  0.26149  0.66335  0.78120  1.0000
  C   C83       1.0  0.23106  0.59422  0.74355  1.0000
  C   C84       1.0  0.22947  0.62809  0.77202  1.0000
  C   C85       1.0  0.33174  0.70216  0.77155  1.0000
  C   C86       1.0  0.36705  0.70317  0.74477  1.0000
  C   C87       1.0  0.39972  0.73806  0.72549  1.0000
  C   C88       1.0  0.32987  0.73633  0.78658  1.0000
  C   C89       1.0  0.39668  0.77036  0.74260  1.0000
  C   C90       1.0  0.36252  0.76984  0.77621  1.0000
  C   C91       1.0  0.33552  0.63308  0.74717  1.0000
  C   C92       1.0  0.36930  0.66861  0.74157  1.0000
  C   C93       1.0  0.40478  0.67013  0.73540  1.0000
  C   C94       1.0  0.33752  0.59973  0.75097  1.0000
  C   C95       1.0  0.40530  0.63679  0.73048  1.0000
  C   C96       1.0  0.37226  0.60225  0.74182  1.0000
  O   O13       1.0  0.80842  0.38143  0.74725  1.0000
  O   O14       1.0  0.62973  0.19552  0.78335  1.0000
  O   O15       1.0  0.62048  0.42740  0.73716  1.0000
  O   O16       1.0  0.80302  0.43487  0.73522  1.0000
  O   O17       1.0  0.57165  0.19026  0.73123  1.0000
  O   O18       1.0  0.56481  0.37032  0.74638  1.0000
  O   O19       1.0  0.19210  0.61937  0.78011  1.0000
  O   O20       1.0  0.36811  0.80659  0.78849  1.0000
  O   O21       1.0  0.38108  0.57380  0.74203  1.0000
  O   O22       1.0  0.19469  0.56308  0.73394  1.0000
  O   O23       1.0  0.42457  0.80729  0.73279  1.0000
  O   O24       1.0  0.43583  0.63075  0.72042  1.0000
  B   B7        1.0  0.82820  0.42113  0.74230  1.0000
  B   B8        1.0  0.58089  0.40958  0.74086  1.0000
  B   B9        1.0  0.59031  0.17047  0.76064  1.0000
  B   B10       1.0  0.17105  0.57909  0.75836  1.0000
  B   B11       1.0  0.42044  0.59171  0.72775  1.0000
  B   B12       1.0  0.40657  0.82917  0.75974  1.0000
  H   H29       1.0  0.73383  0.42843  0.71688  1.0000
  H   H30       1.0  0.57022  0.25692  0.70676  1.0000
  H   H31       1.0  0.56777  0.30411  0.74531  1.0000
  H   H32       1.0  0.74085  0.31098  0.75973  1.0000
  H   H33       1.0  0.69487  0.26553  0.80713  1.0000
  H   H34       1.0  0.68910  0.42804  0.74985  1.0000
  H   H35       1.0  0.26561  0.56850  0.69220  1.0000
  H   H36       1.0  0.42659  0.73989  0.69358  1.0000
  H   H37       1.0  0.43122  0.69653  0.73100  1.0000
  H   H38       1.0  0.25811  0.68832  0.78752  1.0000
  H   H39       1.0  0.30340  0.73648  0.80303  1.0000
  H   H40       1.0  0.31275  0.57250  0.75948  1.0000
  N   N7        1.0  0.00810  0.48960  0.73433  1.0000
  C   C97       1.0  0.55783  0.42994  0.74227  1.0000
  C   C98       1.0  0.57562  0.46930  0.73218  1.0000
  C   C99       1.0  0.51832  0.41004  0.75819  1.0000
  C   C100      1.0  0.55523  0.48808  0.73403  1.0000
  C   C101      1.0  0.49757  0.42876  0.76394  1.0000
  C   C102      1.0  0.51594  0.46789  0.75139  1.0000
  N   N8        1.0  0.49256  0.48419  0.75294  1.0000
  N   N9        1.0  0.51041  0.52045  0.75809  1.0000
  N   N10       1.0  0.48361  0.98961  0.73372  1.0000
  N   N11       1.0  0.99045  0.50796  0.73090  1.0000
  C   C103      1.0  0.57079  0.12747  0.76681  1.0000
  C   C104      1.0  0.59130  0.11111  0.81567  1.0000
  C   C105      1.0  0.53165  0.10367  0.71998  1.0000
  C   C106      1.0  0.57323  0.07225  0.82208  1.0000
  C   C107      1.0  0.51326  0.06474  0.72333  1.0000
  C   C108      1.0  0.53426  0.04900  0.77469  1.0000
  N   N12       1.0  0.51854  0.00996  0.78407  1.0000
  H   H41       1.0  0.60602  0.48514  0.71902  1.0000
  H   H42       1.0  0.50404  0.37969  0.76450  1.0000
  H   H43       1.0  0.56841  0.51829  0.72299  1.0000
  H   H44       1.0  0.46703  0.41362  0.77642  1.0000
  H   H45       1.0  0.62154  0.12914  0.85232  1.0000
  H   H46       1.0  0.51591  0.11611  0.67849  1.0000
  H   H47       1.0  0.58834  0.05918  0.86395  1.0000
  H   H48       1.0  0.48348  0.04611  0.68387  1.0000
  C  Sn1       1.0  0.42726  0.52643  0.77203  1.0000
  C   C109      1.0  0.44031  0.56542  0.77944  1.0000
  C  Sn2       1.0  0.47811  0.59033  0.75429  1.0000
  C  Sn3       1.0  0.50338  0.57596  0.72093  1.0000
  C   C110      1.0  0.49032  0.53700  0.71350  1.0000
  C  Sn4       1.0  0.45253  0.51207  0.73867  1.0000
  O  Te1       1.0  0.38936  0.50206  0.79756  1.0000
  O  Te2       1.0  0.49050  0.62920  0.76237  1.0000
  O  Te3       1.0  0.54130  0.60038  0.69540  1.0000
  O  Te4       1.0  0.44013  0.47322  0.73057  1.0000
  Mg  Mg1       1.0  0.54471  0.65101  0.71880  1.0000
  Mg  Mg2       1.0  0.38592  0.45138  0.77403  1.0000
  C  Sn5       1.0  0.09841  0.57341  0.80842  1.0000
  C   C111      1.0  0.12362  0.55954  0.79874  1.0000
  C  Sn6       1.0  0.11046  0.52019  0.74862  1.0000
  C  Sn7       1.0  0.07129  0.49416  0.70719  1.0000
  C   C112      1.0  0.04610  0.50803  0.71684  1.0000
  C  Sn8       1.0  0.05923  0.54738  0.76699  1.0000
  O  Te5       1.0  0.11219  0.61286  0.85882  1.0000
  O  Te6       1.0  0.13621  0.50700  0.73996  1.0000
  O  Te7       1.0  0.05752  0.45468  0.65676  1.0000
  O  Te8       1.0  0.03351  0.56057  0.77563  1.0000
  Mg  Mg3       1.0  0.10371  0.45068  0.66443  1.0000
  Mg  Mg4       1.0  0.06598  0.61689  0.85104  1.0000
  C  Sn9       1.0  0.51174  0.41025  0.24072  1.0000
  C   C113      1.0  0.55038  0.42576  0.21818  1.0000
  C  Sn10      1.0  0.57386  0.46537  0.23171  1.0000
  C  Sn11      1.0  0.55841  0.49000  0.26865  1.0000
  C   C114      1.0  0.51980  0.47448  0.29120  1.0000
  C  Sn12      1.0  0.49630  0.43487  0.27766  1.0000
  O  Te9       1.0  0.48880  0.37056  0.22662  1.0000
  O  Te10      1.0  0.61239  0.48021  0.20859  1.0000
  O  Te11      1.0  0.58139  0.52971  0.28273  1.0000
  O  Te12      1.0  0.45779  0.42003  0.30079  1.0000
  Mg  Mg5       1.0  0.63211  0.53621  0.24058  1.0000
  Mg  Mg6       1.0  0.43805  0.36405  0.26892  1.0000
  C  Sn13      1.0  0.92187  0.43683  0.69081  1.0000
  C   C115      1.0  0.94558  0.47575  0.68751  1.0000
  C  Sn14      1.0  0.93242  0.50166  0.73106  1.0000
  C  Sn15      1.0  0.89479  0.48839  0.77901  1.0000
  C   C116      1.0  0.87111  0.44949  0.78232  1.0000
  C  Sn16      1.0  0.88424  0.42356  0.73876  1.0000
  O  Te13      1.0  0.93562  0.41144  0.64679  1.0000
  O  Te14      1.0  0.95664  0.54044  0.72676  1.0000
  O  Te15      1.0  0.88106  0.51382  0.82305  1.0000
  O  Te16      1.0  0.86005  0.38481  0.74307  1.0000
  Mg  Mg7       1.0  0.92484  0.56388  0.79775  1.0000
  Mg  Mg8       1.0  0.89182  0.36134  0.67220  1.0000
  C  Sn17      1.0  0.48591  0.92143  0.72017  1.0000
  C   C117      1.0  0.47095  0.94489  0.70374  1.0000
  C  Sn18      1.0  0.43286  0.93254  0.72856  1.0000
  C  Sn19      1.0  0.40922  0.89600  0.77079  1.0000
  C   C118      1.0  0.42419  0.87257  0.78722  1.0000
  C  Sn20      1.0  0.46228  0.88489  0.76239  1.0000
  O  Te17      1.0  0.52408  0.93436  0.69479  1.0000
  O  Te18      1.0  0.41854  0.95650  0.71139  1.0000
  O  Te19      1.0  0.37103  0.88308  0.79616  1.0000
  O  Te20      1.0  0.47659  0.86096  0.77958  1.0000
  Mg  Mg9       1.0  0.36472  0.92610  0.75856  1.0000
  Mg  Mg10      1.0  0.53041  0.89134  0.73252  1.0000
  C  Sn21      1.0  0.50209  0.58209  0.30282  1.0000
  C   C119      1.0  0.48759  0.54254  0.28427  1.0000
  C  Sn22      1.0  0.45035  0.51655  0.21920  1.0000
  C  Sn23      1.0  0.42711  0.53037  0.17157  1.0000
  C   C120      1.0  0.44160  0.56990  0.19009  1.0000
  C  Sn24      1.0  0.47885  0.59591  0.25518  1.0000
  O  Te21      1.0  0.53941  0.60754  0.36814  1.0000
  O  Te22      1.0  0.43648  0.47714  0.20189  1.0000
  O  Te23      1.0  0.38976  0.50488  0.10621  1.0000
  O  Te24      1.0  0.49271  0.63530  0.27247  1.0000
  Mg  Mg11      1.0  0.38380  0.45385  0.10663  1.0000
  Mg  Mg12      1.0  0.54540  0.65861  0.36763  1.0000
