data_image0
_chemical_formula_structural       C36O12B6H12N6C36O12B6H12N6SnCSn2CSnTe4Mg2SnCSn2CSnTe4Mg2SnCSn2CSnTe4Mg2SnCSn2CSnTe4Mg2SnCSn2CSnTe4Mg2SnCSn2CSnTe4Mg2SnCSn2CSnTe4Mg2SnCSn2CSnTe4Mg2SnCSn2CSnTe4Mg2SnCSn2CSnTe4Mg2SnCSn2CSnTe4Mg2SnCSn2CSnTe4Mg2
_chemical_formula_sum              "C96 O24 B12 H24 N12 Sn48 Te48 Mg24"
_cell_length_a       40.8865
_cell_length_b       40.9419
_cell_length_c       7.9806
_cell_angle_alpha    100.924
_cell_angle_beta     87.9631
_cell_angle_gamma    119.921

_symmetry_space_group_name_H-M    'P1'
_space_group_IT_number       1

loop_
  _space_group_symop_operation_xyz
  'x, y, z'

loop_
  _atom_site_type_symbol
  _atom_site_label
  _atom_site_symmetry_multiplicity
  _atom_site_fract_x
  _atom_site_fract_y
  _atom_site_fract_z
  _atom_site_occupancy
  C   C1        1.0  0.70302  0.33518  0.25469  1.0000
  C   C2        1.0  0.70254  0.36976  0.25302  1.0000
  C   C3        1.0  0.73678  0.40438  0.24727  1.0000
  C   C4        1.0  0.73812  0.33587  0.24873  1.0000
  C   C5        1.0  0.77001  0.40393  0.24828  1.0000
  C   C6        1.0  0.77067  0.37007  0.24679  1.0000
  C   C7        1.0  0.66780  0.29944  0.25939  1.0000
  C   C8        1.0  0.63253  0.29868  0.25580  1.0000
  C   C9        1.0  0.59815  0.26323  0.25253  1.0000
  C   C10       1.0  0.66878  0.26561  0.26523  1.0000
  C   C11       1.0  0.60043  0.23102  0.25745  1.0000
  C   C12       1.0  0.63521  0.23232  0.26537  1.0000
  C   C13       1.0  0.66668  0.36929  0.25372  1.0000
  C   C14       1.0  0.63215  0.33429  0.25764  1.0000
  C   C15       1.0  0.59760  0.33451  0.26318  1.0000
  C   C16       1.0  0.66612  0.40377  0.25587  1.0000
  C   C17       1.0  0.59833  0.36829  0.26149  1.0000
  C   C18       1.0  0.63198  0.40270  0.25881  1.0000
  C   C19       1.0  0.29637  0.66438  0.26362  1.0000
  C   C20       1.0  0.29839  0.63019  0.25184  1.0000
  C   C21       1.0  0.26456  0.59445  0.25388  1.0000
  C   C22       1.0  0.26089  0.66244  0.27402  1.0000
  C   C23       1.0  0.23062  0.59363  0.25812  1.0000
  C   C24       1.0  0.22891  0.62728  0.27007  1.0000
  C   C25       1.0  0.33074  0.70080  0.25765  1.0000
  C   C26       1.0  0.36639  0.70240  0.24292  1.0000
  C   C27       1.0  0.39961  0.73742  0.23097  1.0000
  C   C28       1.0  0.32907  0.73494  0.26925  1.0000
  C   C29       1.0  0.39681  0.76963  0.24049  1.0000
  C   C30       1.0  0.36212  0.76840  0.26073  1.0000
  C   C31       1.0  0.33500  0.63216  0.24469  1.0000
  C   C32       1.0  0.36868  0.66799  0.24218  1.0000
  C   C33       1.0  0.40460  0.67031  0.24032  1.0000
  C   C34       1.0  0.33774  0.59890  0.23690  1.0000
  C   C35       1.0  0.40575  0.63711  0.23007  1.0000
  C   C36       1.0  0.37270  0.60203  0.23194  1.0000
  O   O1        1.0  0.80772  0.37778  0.23928  1.0000
  O   O2        1.0  0.62959  0.19642  0.27245  1.0000
  O   O3        1.0  0.62371  0.43177  0.25942  1.0000
  O   O4        1.0  0.80619  0.43383  0.23985  1.0000
  O   O5        1.0  0.57157  0.19366  0.25682  1.0000
  O   O6        1.0  0.56808  0.37453  0.26739  1.0000
  O   O7        1.0  0.19170  0.61857  0.27885  1.0000
  O   O8        1.0  0.36792  0.80498  0.26844  1.0000
  O   O9        1.0  0.38206  0.57371  0.23219  1.0000
  O   O10       1.0  0.19442  0.56252  0.25651  1.0000
  O   O11       1.0  0.42514  0.80672  0.23708  1.0000
  O   O12       1.0  0.43674  0.63191  0.22598  1.0000
  B   B1        1.0  0.82915  0.41725  0.23507  1.0000
  B   B2        1.0  0.58403  0.41371  0.26582  1.0000
  B   B3        1.0  0.59004  0.17276  0.26585  1.0000
  B   B4        1.0  0.17075  0.57856  0.26945  1.0000
  B   B5        1.0  0.42158  0.59253  0.22439  1.0000
  B   B6        1.0  0.40712  0.82860  0.25671  1.0000
  H   H1        1.0  0.73770  0.43094  0.23308  1.0000
  H   H2        1.0  0.57073  0.26124  0.24960  1.0000
  H   H3        1.0  0.57060  0.30896  0.26846  1.0000
  H   H4        1.0  0.73982  0.31018  0.24186  1.0000
  H   H5        1.0  0.69509  0.26532  0.26966  1.0000
  H   H6        1.0  0.69206  0.43071  0.25948  1.0000
  H   H7        1.0  0.26496  0.56798  0.25581  1.0000
  H   H8        1.0  0.42690  0.73939  0.21171  1.0000
  H   H9        1.0  0.43070  0.69740  0.25238  1.0000
  H   H10       1.0  0.25769  0.68757  0.28014  1.0000
  H   H11       1.0  0.30276  0.73518  0.28622  1.0000
  H   H12       1.0  0.31296  0.57080  0.22968  1.0000
  N   N1        1.0  0.00883  0.48672  0.24145  1.0000
  N   N2        1.0  0.49141  0.48292  0.25364  1.0000
  N   N3        1.0  0.50874  0.51858  0.24787  1.0000
  N   N4        1.0  0.48040  0.98913  0.23125  1.0000
  N   N5        1.0  0.98999  0.50348  0.23069  1.0000
  N   N6        1.0  0.51603  0.00998  0.26688  1.0000
  C   C37       1.0  0.70277  0.33432  0.75698  1.0000
  C   C38       1.0  0.70054  0.36764  0.74439  1.0000
  C   C39       1.0  0.73389  0.40257  0.73303  1.0000
  C   C40       1.0  0.73860  0.33630  0.75601  1.0000
  C   C41       1.0  0.76774  0.40352  0.73915  1.0000
  C   C42       1.0  0.77052  0.37096  0.74651  1.0000
  C   C43       1.0  0.66764  0.29838  0.76212  1.0000
  C   C44       1.0  0.63168  0.29604  0.74297  1.0000
  C   C45       1.0  0.59776  0.25998  0.72868  1.0000
  C   C46       1.0  0.66880  0.26496  0.77798  1.0000
  C   C47       1.0  0.60024  0.22806  0.73848  1.0000
  C   C48       1.0  0.63519  0.23100  0.76758  1.0000
  C   C49       1.0  0.66428  0.36635  0.74427  1.0000
  C   C50       1.0  0.62988  0.33084  0.74252  1.0000
  C   C51       1.0  0.59470  0.33015  0.74290  1.0000
  C   C52       1.0  0.66341  0.40067  0.74641  1.0000
  C   C53       1.0  0.59511  0.36394  0.74254  1.0000
  C   C54       1.0  0.62886  0.39860  0.74201  1.0000
  C   C55       1.0  0.29722  0.66555  0.77095  1.0000
  C   C56       1.0  0.29887  0.63108  0.74780  1.0000
  C   C57       1.0  0.26496  0.59501  0.72513  1.0000
  C   C58       1.0  0.26149  0.66335  0.78120  1.0000
  C   C59       1.0  0.23106  0.59422  0.74355  1.0000
  C   C60       1.0  0.22947  0.62809  0.77202  1.0000
  C   C61       1.0  0.33174  0.70216  0.77155  1.0000
  C   C62       1.0  0.36705  0.70317  0.74477  1.0000
  C   C63       1.0  0.39972  0.73806  0.72549  1.0000
  C   C64       1.0  0.32987  0.73633  0.78658  1.0000
  C   C65       1.0  0.39668  0.77036  0.74260  1.0000
  C   C66       1.0  0.36252  0.76984  0.77621  1.0000
  C   C67       1.0  0.33552  0.63308  0.74717  1.0000
  C   C68       1.0  0.36930  0.66861  0.74157  1.0000
  C   C69       1.0  0.40478  0.67013  0.73540  1.0000
  C   C70       1.0  0.33752  0.59973  0.75097  1.0000
  C   C71       1.0  0.40530  0.63679  0.73048  1.0000
  C   C72       1.0  0.37226  0.60225  0.74182  1.0000
  O   O13       1.0  0.80842  0.38143  0.74725  1.0000
  O   O14       1.0  0.62973  0.19552  0.78335  1.0000
  O   O15       1.0  0.62048  0.42740  0.73716  1.0000
  O   O16       1.0  0.80302  0.43487  0.73522  1.0000
  O   O17       1.0  0.57165  0.19026  0.73123  1.0000
  O   O18       1.0  0.56481  0.37032  0.74638  1.0000
  O   O19       1.0  0.19210  0.61937  0.78011  1.0000
  O   O20       1.0  0.36811  0.80659  0.78849  1.0000
  O   O21       1.0  0.38108  0.57380  0.74203  1.0000
  O   O22       1.0  0.19469  0.56308  0.73394  1.0000
  O   O23       1.0  0.42457  0.80729  0.73279  1.0000
  O   O24       1.0  0.43583  0.63075  0.72042  1.0000
  B   B7        1.0  0.82820  0.42113  0.74230  1.0000
  B   B8        1.0  0.58089  0.40958  0.74086  1.0000
  B   B9        1.0  0.59031  0.17047  0.76064  1.0000
  B   B10       1.0  0.17105  0.57909  0.75836  1.0000
  B   B11       1.0  0.42044  0.59171  0.72775  1.0000
  B   B12       1.0  0.40657  0.82917  0.75974  1.0000
  H   H13       1.0  0.73383  0.42843  0.71688  1.0000
  H   H14       1.0  0.57022  0.25692  0.70676  1.0000
  H   H15       1.0  0.56777  0.30411  0.74531  1.0000
  H   H16       1.0  0.74085  0.31098  0.75973  1.0000
  H   H17       1.0  0.69487  0.26553  0.80713  1.0000
  H   H18       1.0  0.68910  0.42804  0.74985  1.0000
  H   H19       1.0  0.26561  0.56850  0.69220  1.0000
  H   H20       1.0  0.42659  0.73989  0.69358  1.0000
  H   H21       1.0  0.43122  0.69653  0.73100  1.0000
  H   H22       1.0  0.25811  0.68832  0.78752  1.0000
  H   H23       1.0  0.30340  0.73648  0.80303  1.0000
  H   H24       1.0  0.31275  0.57250  0.75948  1.0000
  N   N7        1.0  0.00810  0.48960  0.73433  1.0000
  N   N8        1.0  0.49256  0.48419  0.75294  1.0000
  N   N9        1.0  0.51041  0.52045  0.75809  1.0000
  N   N10       1.0  0.48361  0.98961  0.73372  1.0000
  N   N11       1.0  0.99045  0.50796  0.73090  1.0000
  N   N12       1.0  0.51854  0.00996  0.78407  1.0000
  C  Sn1       1.0  0.09639  0.57233  0.27265  1.0000
  C   C73       1.0  0.12251  0.56187  0.31198  1.0000
  C  Sn2       1.0  0.11136  0.52321  0.30095  1.0000
  C  Sn3       1.0  0.07331  0.49439  0.24945  1.0000
  C   C74       1.0  0.04721  0.50485  0.21013  1.0000
  C  Sn4       1.0  0.05834  0.54351  0.22115  1.0000
  O  Te1       1.0  0.10816  0.61115  0.28455  1.0000
  O  Te2       1.0  0.13798  0.51346  0.34097  1.0000
  O  Te3       1.0  0.06155  0.45554  0.23758  1.0000
  O  Te4       1.0  0.03174  0.55326  0.18113  1.0000
  Mg  Mg1       1.0  0.10826  0.45667  0.30530  1.0000
  Mg  Mg2       1.0  0.06143  0.61004  0.21668  1.0000
  C  Sn5       1.0  0.42729  0.52754  0.26414  1.0000
  C   C75       1.0  0.44192  0.56671  0.26893  1.0000
  C  Sn6       1.0  0.48007  0.59027  0.24423  1.0000
  C  Sn7       1.0  0.50409  0.57433  0.21401  1.0000
  C   C76       1.0  0.48946  0.53517  0.20921  1.0000
  C  Sn8       1.0  0.45131  0.51160  0.23393  1.0000
  O  Te5       1.0  0.38906  0.50453  0.28917  1.0000
  O  Te6       1.0  0.49405  0.62935  0.24964  1.0000
  O  Te7       1.0  0.54234  0.59737  0.18898  1.0000
  O  Te8       1.0  0.43732  0.47254  0.22850  1.0000
  Mg  Mg3       1.0  0.54811  0.64892  0.20799  1.0000
  Mg  Mg4       1.0  0.38327  0.45294  0.27004  1.0000
  C  Sn9       1.0  0.56011  0.48299  0.18057  1.0000
  C   C77       1.0  0.52129  0.46713  0.19886  1.0000
  C  Sn10      1.0  0.50151  0.43454  0.27132  1.0000
  C  Sn11      1.0  0.52094  0.41746  0.32675  1.0000
  C   C78       1.0  0.55973  0.43333  0.30848  1.0000
  C  Sn12      1.0  0.57953  0.46591  0.23600  1.0000
  O  Te9       1.0  0.57931  0.51558  0.10778  1.0000
  O  Te10      1.0  0.46271  0.41920  0.28822  1.0000
  O  Te11      1.0  0.50169  0.38485  0.39958  1.0000
  O  Te12      1.0  0.61831  0.48126  0.21912  1.0000
  Mg  Mg5       1.0  0.44898  0.37457  0.39536  1.0000
  Mg  Mg6       1.0  0.63207  0.52590  0.11208  1.0000
  C  Sn13      1.0  0.40993  0.89403  0.16039  1.0000
  C   C79       1.0  0.42554  0.87286  0.20296  1.0000
  C  Sn14      1.0  0.46239  0.89157  0.27765  1.0000
  C  Sn15      1.0  0.48408  0.93230  0.31058  1.0000
  C   C80       1.0  0.46847  0.95345  0.26805  1.0000
  C  Sn16      1.0  0.43162  0.93476  0.19332  1.0000
  O  Te13      1.0  0.37303  0.87471  0.08583  1.0000
  O  Te14      1.0  0.47738  0.86979  0.31903  1.0000
  O  Te15      1.0  0.52100  0.95161  0.38520  1.0000
  O  Te16      1.0  0.41662  0.95652  0.15198  1.0000
  Mg  Mg7       1.0  0.52892  0.90930  0.41861  1.0000
  Mg  Mg8       1.0  0.36509  0.91704  0.05248  1.0000
  C  Sn17      1.0  0.89910  0.48539  0.19377  1.0000
  C   C81       1.0  0.87511  0.44599  0.18501  1.0000
  C  Sn18      1.0  0.88967  0.42297  0.21428  1.0000
  C  Sn19      1.0  0.92904  0.43967  0.25323  1.0000
  C   C82       1.0  0.95300  0.47905  0.26201  1.0000
  C  Sn20      1.0  0.93847  0.50210  0.23272  1.0000
  O  Te17      1.0  0.88392  0.50786  0.16404  1.0000
  O  Te18      1.0  0.86513  0.38364  0.20476  1.0000
  O  Te19      1.0  0.94420  0.41716  0.28296  1.0000
  O  Te20      1.0  0.96299  0.54140  0.24226  1.0000
  Mg  Mg9       1.0  0.89931  0.36501  0.25551  1.0000
  Mg  Mg10      1.0  0.92883  0.56006  0.19161  1.0000
  C  Sn21      1.0  0.57710  0.08194  0.33549  1.0000
  C   C83       1.0  0.53809  0.05647  0.31660  1.0000
  C  Sn22      1.0  0.51372  0.06694  0.25579  1.0000
  C  Sn23      1.0  0.52866  0.10363  0.21286  1.0000
  C   C84       1.0  0.56766  0.12908  0.23173  1.0000
  C  Sn24      1.0  0.59205  0.11863  0.29256  1.0000
  O  Te21      1.0  0.60093  0.07086  0.39650  1.0000
  O  Te22      1.0  0.47481  0.04099  0.23805  1.0000
  O  Te23      1.0  0.50479  0.11470  0.15182  1.0000
  O  Te24      1.0  0.63093  0.14455  0.31028  1.0000
  Mg  Mg11      1.0  0.45387  0.06933  0.14973  1.0000
  Mg  Mg12      1.0  0.65190  0.11624  0.39850  1.0000
  C  Sn25      1.0  0.09841  0.57341  0.80842  1.0000
  C   C85       1.0  0.12362  0.55954  0.79874  1.0000
  C  Sn26      1.0  0.11046  0.52019  0.74862  1.0000
  C  Sn27      1.0  0.07129  0.49416  0.70719  1.0000
  C   C86       1.0  0.04610  0.50803  0.71684  1.0000
  C  Sn28      1.0  0.05923  0.54738  0.76699  1.0000
  O  Te25      1.0  0.11219  0.61286  0.85882  1.0000
  O  Te26      1.0  0.13621  0.50700  0.73996  1.0000
  O  Te27      1.0  0.05752  0.45468  0.65676  1.0000
  O  Te28      1.0  0.03351  0.56057  0.77563  1.0000
  Mg  Mg13      1.0  0.10371  0.45068  0.66443  1.0000
  Mg  Mg14      1.0  0.06598  0.61689  0.85104  1.0000
  C  Sn29      1.0  0.42726  0.52643  0.77203  1.0000
  C   C87       1.0  0.44031  0.56542  0.77944  1.0000
  C  Sn30      1.0  0.47811  0.59033  0.75429  1.0000
  C  Sn31      1.0  0.50338  0.57596  0.72093  1.0000
  C   C88       1.0  0.49032  0.53700  0.71350  1.0000
  C  Sn32      1.0  0.45253  0.51207  0.73867  1.0000
  O  Te29      1.0  0.38936  0.50206  0.79756  1.0000
  O  Te30      1.0  0.49050  0.62920  0.76237  1.0000
  O  Te31      1.0  0.54130  0.60038  0.69540  1.0000
  O  Te32      1.0  0.44013  0.47322  0.73057  1.0000
  Mg  Mg15      1.0  0.54471  0.65101  0.71880  1.0000
  Mg  Mg16      1.0  0.38592  0.45138  0.77403  1.0000
  C  Sn33      1.0  0.57529  0.47877  0.78304  1.0000
  C   C89       1.0  0.56215  0.44040  0.79073  1.0000
  C  Sn34      1.0  0.52359  0.41335  0.76256  1.0000
  C  Sn35      1.0  0.49762  0.42489  0.72584  1.0000
  C   C90       1.0  0.51076  0.46324  0.71813  1.0000
  C  Sn36      1.0  0.54932  0.49032  0.74631  1.0000
  O  Te33      1.0  0.61395  0.50532  0.81162  1.0000
  O  Te34      1.0  0.51113  0.37516  0.77098  1.0000
  O  Te35      1.0  0.45893  0.39830  0.69725  1.0000
  O  Te36      1.0  0.56178  0.52849  0.73788  1.0000
  Mg  Mg17      1.0  0.45574  0.34964  0.72248  1.0000
  Mg  Mg18      1.0  0.61717  0.55402  0.78627  1.0000
  C  Sn37      1.0  0.42055  0.92479  0.77618  1.0000
  C   C91       1.0  0.45972  0.94903  0.78319  1.0000
  C  Sn38      1.0  0.48378  0.93373  0.76385  1.0000
  C  Sn39      1.0  0.46837  0.89335  0.73682  1.0000
  C   C92       1.0  0.42922  0.86913  0.72978  1.0000
  C  Sn40      1.0  0.40513  0.88441  0.74915  1.0000
  O  Te37      1.0  0.39703  0.94071  0.79584  1.0000
  O  Te38      1.0  0.52285  0.95854  0.77140  1.0000
  O  Te39      1.0  0.49192  0.87743  0.71716  1.0000
  O  Te40      1.0  0.36609  0.85962  0.74158  1.0000
  Mg  Mg19      1.0  0.54323  0.92306  0.73726  1.0000
  Mg  Mg20      1.0  0.34568  0.89506  0.77561  1.0000
  C  Sn41      1.0  0.92187  0.43683  0.69081  1.0000
  C   C93       1.0  0.94558  0.47575  0.68751  1.0000
  C  Sn42      1.0  0.93242  0.50166  0.73106  1.0000
  C  Sn43      1.0  0.89479  0.48839  0.77901  1.0000
  C   C94       1.0  0.87111  0.44949  0.78232  1.0000
  C  Sn44      1.0  0.88424  0.42356  0.73876  1.0000
  O  Te41      1.0  0.93562  0.41144  0.64679  1.0000
  O  Te42      1.0  0.95664  0.54044  0.72676  1.0000
  O  Te43      1.0  0.88106  0.51382  0.82305  1.0000
  O  Te44      1.0  0.86005  0.38481  0.74307  1.0000
  Mg  Mg21      1.0  0.92484  0.56388  0.79775  1.0000
  Mg  Mg22      1.0  0.89182  0.36134  0.67220  1.0000
  C  Sn45      1.0  0.52296  0.09731  0.76552  1.0000
  C   C95       1.0  0.56120  0.12465  0.80535  1.0000
  C  Sn46      1.0  0.58779  0.11309  0.81675  1.0000
  C  Sn47      1.0  0.57592  0.07337  0.78763  1.0000
  C   C96       1.0  0.53770  0.04605  0.74781  1.0000
  C  Sn48      1.0  0.51109  0.05759  0.73641  1.0000
  O  Te45      1.0  0.49686  0.10952  0.75479  1.0000
  O  Te46      1.0  0.62586  0.14096  0.85680  1.0000
  O  Te47      1.0  0.60205  0.06117  0.79840  1.0000
  O  Te48      1.0  0.97252  0.02974  0.69635  1.0000
  Mg  Mg23      1.0  0.65071  0.11002  0.85661  1.0000
  Mg  Mg24      1.0  0.44817  0.06065  0.69642  1.0000
