data_image0
_chemical_formula_structural       N2H2C8H4N2C8H4C10O2N4H2C2O2H2C6O2N4H2C2O2H2N2H2C8H4N2C8H4C10O2N4H2C2O2H2C6O2N4H2C2O2H2C2Sn2C2HTe2HMgC2Sn2C2HTe2HMgC2Sn2C2HTe2HMgC2Sn2C2HTe2HMgC2Sn2C2HTe2HMgC2Sn2C2HTe2HMgC2Sn2C2HTe2HMgC2Sn2C2HTe2HMg
_chemical_formula_sum              "N24 H52 C104 O16 Sn16 Te16 Mg8"
_cell_length_a       29.0623
_cell_length_b       29.078
_cell_length_c       8.50491
_cell_angle_alpha    84.7535
_cell_angle_beta     82.4014
_cell_angle_gamma    89.8135

_symmetry_space_group_name_H-M    'P1'
_space_group_IT_number       1

loop_
  _space_group_symop_operation_xyz
  'x, y, z'

loop_
  _atom_site_type_symbol
  _atom_site_label
  _atom_site_symmetry_multiplicity
  _atom_site_fract_x
  _atom_site_fract_y
  _atom_site_fract_z
  _atom_site_occupancy
  N   N1        1.0  0.04339  0.94410  0.24162  1.0000
  N   N2        1.0  0.95515  0.06082  0.25014  1.0000
  H   H1        1.0  0.02222  0.97207  0.25294  1.0000
  H   H2        1.0  0.97561  0.03215  0.25530  1.0000
  C   C1        1.0  0.09105  0.94536  0.23793  1.0000
  C   C2        1.0  0.90791  0.05986  0.24246  1.0000
  C   C3        1.0  0.02828  0.90015  0.22505  1.0000
  C   C4        1.0  0.97167  0.10580  0.23396  1.0000
  C   C5        1.0  0.10705  0.89942  0.21421  1.0000
  C   C6        1.0  0.89391  0.10706  0.21738  1.0000
  C   C7        1.0  0.06902  0.87246  0.20354  1.0000
  C   C8        1.0  0.93237  0.13481  0.21288  1.0000
  H   H3        1.0  0.14288  0.88848  0.20774  1.0000
  H   H4        1.0  0.85908  0.11865  0.20262  1.0000
  H   H5        1.0  0.06832  0.83638  0.18366  1.0000
  H   H6        1.0  0.93279  0.17220  0.19679  1.0000
  N   N3        1.0  0.05645  0.04385  0.24238  1.0000
  N   N4        1.0  0.94264  0.96174  0.24051  1.0000
  C   C9        1.0  0.10103  0.03018  0.25765  1.0000
  C   C10       1.0  0.89658  0.97420  0.26369  1.0000
  C   C11       1.0  0.94240  0.91421  0.25425  1.0000
  C   C12       1.0  0.05659  0.09092  0.24870  1.0000
  C   C13       1.0  0.12978  0.06944  0.27988  1.0000
  C   C14       1.0  0.86666  0.93350  0.29917  1.0000
  C   C15       1.0  0.89506  0.89629  0.29375  1.0000
  C   C16       1.0  0.10237  0.10739  0.27287  1.0000
  H   H7        1.0  0.16578  0.06771  0.29894  1.0000
  H   H8        1.0  0.82922  0.93370  0.32474  1.0000
  H   H9        1.0  0.88503  0.86029  0.31466  1.0000
  H   H10       1.0  0.11191  0.14275  0.28481  1.0000
  C   C17       1.0  0.11810  0.98464  0.25201  1.0000
  C   C18       1.0  0.87938  0.02000  0.25679  1.0000
  C   C19       1.0  0.98176  0.88505  0.23611  1.0000
  C   C20       1.0  0.01786  0.12020  0.23720  1.0000
  C   C21       1.0  0.99559  0.53737  0.27196  1.0000
  C   C22       1.0  0.99576  0.46588  0.27271  1.0000
  C   C23       1.0  0.03192  0.50141  0.28586  1.0000
  C   C24       1.0  0.95991  0.50174  0.25083  1.0000
  C   C25       1.0  0.99838  0.58500  0.28318  1.0000
  C   C26       1.0  0.99101  0.41776  0.27896  1.0000
  O   O1        1.0  0.07305  0.50191  0.30100  1.0000
  O   O2        1.0  0.91944  0.50062  0.22711  1.0000
  N   N5        1.0  0.96455  0.61210  0.24205  1.0000
  N   N6        1.0  0.02737  0.39072  0.28577  1.0000
  N   N7        1.0  0.97204  0.65689  0.25249  1.0000
  N   N8        1.0  0.01926  0.34561  0.28210  1.0000
  H   H11       1.0  0.00175  0.66693  0.29211  1.0000
  H   H12       1.0  0.98643  0.33348  0.27570  1.0000
  C   C27       1.0  0.94278  0.69090  0.19171  1.0000
  C   C28       1.0  0.05659  0.31481  0.24999  1.0000
  O   O3        1.0  0.91097  0.68026  0.12136  1.0000
  O   O4        1.0  0.09710  0.32695  0.22376  1.0000
  H   H13       1.0  0.95615  0.40402  0.27174  1.0000
  H   H14       1.0  0.02986  0.59972  0.32000  1.0000
  C   C29       1.0  0.53727  0.99583  0.19295  1.0000
  C   C30       1.0  0.46627  0.99710  0.18431  1.0000
  C   C31       1.0  0.50194  0.95969  0.18269  1.0000
  C   C32       1.0  0.50236  0.03372  0.18735  1.0000
  C   C33       1.0  0.58414  0.99077  0.21253  1.0000
  C   C34       1.0  0.41792  0.00079  0.19446  1.0000
  O   O5        1.0  0.50415  0.91788  0.17443  1.0000
  O   O6        1.0  0.50188  0.07566  0.18854  1.0000
  N   N9        1.0  0.60787  0.02605  0.24879  1.0000
  N   N10       1.0  0.39038  0.96409  0.22455  1.0000
  N   N11       1.0  0.65279  0.01838  0.25554  1.0000
  N   N12       1.0  0.34518  0.97345  0.23055  1.0000
  H   H15       1.0  0.66782  0.98880  0.21657  1.0000
  H   H16       1.0  0.33488  0.00696  0.20834  1.0000
  C   C35       1.0  0.68043  0.05143  0.31150  1.0000
  C   C36       1.0  0.31106  0.93921  0.28870  1.0000
  O   O7        1.0  0.66369  0.08571  0.37028  1.0000
  O   O8        1.0  0.32122  0.90113  0.34596  1.0000
  H   H17       1.0  0.40383  0.03589  0.18043  1.0000
  H   H18       1.0  0.59928  0.95620  0.19994  1.0000
  N   N13       1.0  0.04282  0.94223  0.73944  1.0000
  N   N14       1.0  0.95879  0.06032  0.74216  1.0000
  H   H19       1.0  0.02099  0.96908  0.76222  1.0000
  H   H20       1.0  0.97873  0.03277  0.77207  1.0000
  C   C37       1.0  0.09047  0.94414  0.73126  1.0000
  C   C38       1.0  0.91290  0.05813  0.71848  1.0000
  C   C39       1.0  0.02828  0.89953  0.70567  1.0000
  C   C40       1.0  0.97534  0.10506  0.71574  1.0000
  C   C41       1.0  0.10719  0.90053  0.68221  1.0000
  C   C42       1.0  0.90023  0.10392  0.66523  1.0000
  C   C43       1.0  0.06959  0.87415  0.66116  1.0000
  C   C44       1.0  0.93778  0.13247  0.66650  1.0000
  H   H21       1.0  0.14336  0.89074  0.66628  1.0000
  H   H22       1.0  0.86694  0.11368  0.62910  1.0000
  H   H23       1.0  0.07048  0.84026  0.61819  1.0000
  H   H24       1.0  0.93846  0.16940  0.63817  1.0000
  N   N15       1.0  0.05586  0.04147  0.75787  1.0000
  N   N16       1.0  0.94476  0.96007  0.74888  1.0000
  C   C45       1.0  0.09862  0.02610  0.79178  1.0000
  C   C46       1.0  0.89962  0.97367  0.78513  1.0000
  C   C47       1.0  0.94354  0.91282  0.77340  1.0000
  C   C48       1.0  0.05548  0.08789  0.77792  1.0000
  C   C49       1.0  0.12432  0.06300  0.84652  1.0000
  C   C50       1.0  0.86963  0.93443  0.84701  1.0000
  C   C51       1.0  0.89695  0.89645  0.83913  1.0000
  C   C52       1.0  0.09766  0.10143  0.83750  1.0000
  H   H25       1.0  0.15752  0.05973  0.88965  1.0000
  H   H26       1.0  0.83306  0.93560  0.89163  1.0000
  H   H27       1.0  0.88613  0.86118  0.87552  1.0000
  H   H28       1.0  0.10544  0.13515  0.87143  1.0000
  C   C53       1.0  0.11682  0.98168  0.76699  1.0000
  C   C54       1.0  0.88358  0.01902  0.75543  1.0000
  C   C55       1.0  0.98180  0.88366  0.73403  1.0000
  C   C56       1.0  0.01991  0.11918  0.74182  1.0000
  C   C57       1.0  0.00049  0.53580  0.76988  1.0000
  C   C58       1.0  0.00068  0.46393  0.78065  1.0000
  C   C59       1.0  0.03593  0.49972  0.79987  1.0000
  C   C60       1.0  0.96480  0.49961  0.75883  1.0000
  C   C61       1.0  0.00519  0.58412  0.75976  1.0000
  C   C62       1.0  0.99735  0.41631  0.77043  1.0000
  O   O9        1.0  0.07595  0.50015  0.83025  1.0000
  O   O10       1.0  0.92374  0.49847  0.73988  1.0000
  N   N17       1.0  0.97055  0.61156  0.72765  1.0000
  N   N18       1.0  0.03452  0.39006  0.76662  1.0000
  N   N19       1.0  0.97722  0.65661  0.73704  1.0000
  N   N20       1.0  0.02699  0.34585  0.74634  1.0000
  H   H29       1.0  0.00609  0.66779  0.78042  1.0000
  H   H30       1.0  0.99411  0.33508  0.73299  1.0000
  C   C63       1.0  0.94293  0.68926  0.70147  1.0000
  C   C64       1.0  0.06412  0.31396  0.73009  1.0000
  O   O11       1.0  0.90793  0.67836  0.64869  1.0000
  O   O12       1.0  0.10492  0.32426  0.72392  1.0000
  H   H31       1.0  0.96288  0.40196  0.76060  1.0000
  H   H32       1.0  0.03892  0.59749  0.78296  1.0000
  C   C65       1.0  0.53732  0.99987  0.72374  1.0000
  C   C66       1.0  0.46605  0.99978  0.71376  1.0000
  C   C67       1.0  0.50253  0.96326  0.71165  1.0000
  C   C68       1.0  0.50099  0.03643  0.71930  1.0000
  C   C69       1.0  0.58475  0.99504  0.73751  1.0000
  C   C70       1.0  0.41786  0.00475  0.71815  1.0000
  O   O13       1.0  0.50372  0.92117  0.70684  1.0000
  O   O14       1.0  0.49935  0.07858  0.72164  1.0000
  N   N21       1.0  0.61049  0.02986  0.76629  1.0000
  N   N22       1.0  0.39011  0.96832  0.74325  1.0000
  N   N23       1.0  0.65544  0.02044  0.76793  1.0000
  N   N24       1.0  0.34496  0.97691  0.74478  1.0000
  H   H33       1.0  0.66846  0.98927  0.73512  1.0000
  H   H34       1.0  0.33365  0.01005  0.72142  1.0000
  C   C71       1.0  0.68569  0.05406  0.80919  1.0000
  C   C72       1.0  0.31209  0.94040  0.78626  1.0000
  O   O15       1.0  0.67108  0.09037  0.85830  1.0000
  O   O16       1.0  0.32367  0.90124  0.83073  1.0000
  H   H35       1.0  0.40428  0.04016  0.70333  1.0000
  H   H36       1.0  0.59995  0.96059  0.72441  1.0000
  C   C73       1.0  0.18958  0.93234  0.38597  1.0000
  C   C74       1.0  0.17079  0.96853  0.29583  1.0000
  C  Sn1       1.0  0.20293  0.99735  0.18455  1.0000
  C  Sn2       1.0  0.24825  0.98971  0.16336  1.0000
  C   C75       1.0  0.26671  0.95339  0.25405  1.0000
  C   C76       1.0  0.23749  0.92476  0.36510  1.0000
  H   H37       1.0  0.16698  0.91018  0.47183  1.0000
  O  Te1       1.0  0.18358  0.03336  0.09552  1.0000
  O  Te2       1.0  0.28117  0.01798  0.05294  1.0000
  H   H38       1.0  0.25205  0.89673  0.43480  1.0000
  Mg  Mg1       1.0  0.19968  0.03592  0.95989  1.0000
  C   C77       1.0  0.76975  0.06947  0.38910  1.0000
  C   C78       1.0  0.73787  0.05149  0.30091  1.0000
  C  Sn3       1.0  0.75167  0.01826  0.19594  1.0000
  C  Sn4       1.0  0.79827  0.00280  0.17925  1.0000
  C   C79       1.0  0.82989  0.02098  0.26811  1.0000
  C   C80       1.0  0.81571  0.05423  0.37276  1.0000
  H   H39       1.0  0.75877  0.09518  0.47014  1.0000
  O  Te3       1.0  0.71938  0.00067  0.10869  1.0000
  O  Te4       1.0  0.80974  0.96961  0.07525  1.0000
  H   H40       1.0  0.84039  0.06812  0.44111  1.0000
  Mg  Mg2       1.0  0.71425  0.92941  0.98227  1.0000
  C   C81       1.0  0.93466  0.81118  0.11925  1.0000
  C   C82       1.0  0.96402  0.83230  0.20920  1.0000
  C  Sn5       1.0  0.99121  0.80548  0.30538  1.0000
  C  Sn6       1.0  0.98889  0.75661  0.31134  1.0000
  C   C83       1.0  0.95942  0.73581  0.22081  1.0000
  C   C84       1.0  0.93236  0.76298  0.12501  1.0000
  H   H41       1.0  0.91373  0.83220  0.04506  1.0000
  O  Te5       1.0  0.02035  0.82714  0.39453  1.0000
  O  Te6       1.0  0.01569  0.72897  0.40641  1.0000
  H   H42       1.0  0.90965  0.74661  0.05530  1.0000
  Mg  Mg3       1.0  0.05009  0.77463  0.50615  1.0000
  C   C85       1.0  0.07101  0.23055  0.10884  1.0000
  C   C86       1.0  0.04917  0.26073  0.21334  1.0000
  C  Sn7       1.0  0.01440  0.24450  0.33501  1.0000
  C  Sn8       1.0  0.00134  0.19715  0.35211  1.0000
  C   C87       1.0  0.02342  0.16722  0.24703  1.0000
  C   C88       1.0  0.05816  0.18384  0.12566  1.0000
  H   H43       1.0  0.09791  0.24339  0.01499  1.0000
  O  Te7       1.0  0.99293  0.27513  0.43835  1.0000
  O  Te8       1.0  0.96671  0.18001  0.47271  1.0000
  H   H44       1.0  0.07508  0.16045  0.04483  1.0000
  Mg  Mg4       1.0  0.94764  0.23530  0.58391  1.0000
  C   C89       1.0  0.24282  0.99946  0.66592  1.0000
  C   C90       1.0  0.26083  0.96547  0.75786  1.0000
  C  Sn9       1.0  0.23392  0.93272  0.86041  1.0000
  C  Sn10      1.0  0.18482  0.93409  0.87081  1.0000
  C   C91       1.0  0.16387  0.96821  0.77825  1.0000
  C   C92       1.0  0.19438  0.00083  0.67607  1.0000
  H   H45       1.0  0.26390  0.02469  0.58679  1.0000
  O  Te9       1.0  0.25574  0.89900  0.95146  1.0000
  O  Te10      1.0  0.15709  0.90176  0.97228  1.0000
  H   H46       1.0  0.17790  0.02712  0.60482  1.0000
  Mg  Mg5       1.0  0.24164  0.88914  0.07230  1.0000
  C   C93       1.0  0.77626  0.07390  0.87566  1.0000
  C   C94       1.0  0.74321  0.05290  0.79970  1.0000
  C  Sn11      1.0  0.75550  0.01570  0.71029  1.0000
  C  Sn12      1.0  0.80176  0.99929  0.69693  1.0000
  C   C95       1.0  0.83456  0.02052  0.77347  1.0000
  C   C96       1.0  0.82189  0.05773  0.86260  1.0000
  H   H47       1.0  0.76645  0.10268  0.94470  1.0000
  O  Te11      1.0  0.72206  0.99512  0.63512  1.0000
  O  Te12      1.0  0.81173  0.96216  0.60837  1.0000
  H   H48       1.0  0.84748  0.07397  0.92148  1.0000
  Mg  Mg6       1.0  0.75367  0.94556  0.52782  1.0000
  C   C97       1.0  0.00394  0.78765  0.80974  1.0000
  C   C98       1.0  0.98131  0.82579  0.74414  1.0000
  C  Sn13      1.0  0.94225  0.81953  0.66844  1.0000
  C  Sn14      1.0  0.92561  0.77421  0.65845  1.0000
  C   C99       1.0  0.94848  0.73628  0.72456  1.0000
  C   C100      1.0  0.98754  0.74293  0.80000  1.0000
  H   H49       1.0  0.03414  0.79279  0.86819  1.0000
  O  Te13      1.0  0.92007  0.85802  0.60348  1.0000
  O  Te14      1.0  0.88664  0.76698  0.58351  1.0000
  H   H50       1.0  0.00503  0.71340  0.85087  1.0000
  Mg  Mg7       1.0  0.86830  0.83042  0.51324  1.0000
  C   C101      1.0  0.99359  0.21129  0.81850  1.0000
  C   C102      1.0  0.01924  0.17715  0.74166  1.0000
  C  Sn15      1.0  0.06269  0.18771  0.65450  1.0000
  C  Sn16      1.0  0.08072  0.23333  0.64432  1.0000
  C   C103      1.0  0.05481  0.26723  0.72172  1.0000
  C   C104      1.0  0.01136  0.25629  0.80858  1.0000
  H   H51       1.0  0.95999  0.20282  0.88578  1.0000
  O  Te15      1.0  0.08784  0.15319  0.57840  1.0000
  O  Te16      1.0  0.12406  0.24483  0.55806  1.0000
  H   H52       1.0  0.99153  0.28272  0.86815  1.0000
  Mg  Mg8       1.0  0.14522  0.18582  0.47509  1.0000
