data_image0
_chemical_formula_structural       N4H4C16H8N4C16H8C12N8H2C4O2H2O2H2C4N8H2C4O2H2O2H6N4H4C16H8N4C16H8C12N8H2C4O2H2O2H2C4N8H2C4O2H2O2H6C2Sn2C2HTe2HMgC2Sn2C2HTe2HMgC2Sn2C2HTe2HMgC2Sn2C2HTe2HMgC2Sn2C2HTe2HMgC2Sn2C2HTe2HMgC2Sn2C2HTe2HMgC2Sn2C2HTe2HMgC2Sn2C2HTe2HMgC2Sn2C2HTe2HMgC2Sn2C2HTe2HMgC2Sn2C2HTe2HMgC2Sn2C2HTe2HMgC2Sn2C2HTe2HMgC2Sn2C2HTe2HMgC2Sn2C2HTe2HMgC2Sn2C2HTe2HMgC2Sn2C2HTe2HMgC2Sn2C2HTe2HMgC2Sn2C2HTe2HMgC2Sn2C2HTe2HMgC2Sn2C2HTe2HMgC2Sn2C2HTe2HMgC2Sn2C2HTe2HMg
_chemical_formula_sum              "N48 H120 C208 O16 Sn48 Te48 Mg24"
_cell_length_a       42.8402
_cell_length_b       41.3476
_cell_length_c       9.23621
_cell_angle_alpha    90.2263
_cell_angle_beta     95.7054
_cell_angle_gamma    90.1875

_symmetry_space_group_name_H-M    'P1'
_space_group_IT_number       1

loop_
  _space_group_symop_operation_xyz
  'x, y, z'

loop_
  _atom_site_type_symbol
  _atom_site_label
  _atom_site_symmetry_multiplicity
  _atom_site_fract_x
  _atom_site_fract_y
  _atom_site_fract_z
  _atom_site_occupancy
  N   N1        1.0  0.50670  0.45090  0.24798  1.0000
  N   N2        1.0  0.49081  0.55168  0.22851  1.0000
  N   N3        1.0  0.00842  0.95192  0.26849  1.0000
  N   N4        1.0  0.99101  0.05169  0.24872  1.0000
  H   H1        1.0  0.50351  0.47522  0.25970  1.0000
  H   H2        1.0  0.49469  0.52768  0.24900  1.0000
  H   H3        1.0  0.00501  0.97487  0.22986  1.0000
  H   H4        1.0  0.99272  0.02723  0.23516  1.0000
  C   C1        1.0  0.48316  0.42804  0.24494  1.0000
  C   C2        1.0  0.51399  0.57438  0.21544  1.0000
  C   C3        1.0  0.98535  0.93085  0.30226  1.0000
  C   C4        1.0  0.01526  0.07371  0.24925  1.0000
  C   C5        1.0  0.53474  0.43676  0.22186  1.0000
  C   C6        1.0  0.46149  0.56537  0.20259  1.0000
  C   C7        1.0  0.03777  0.93846  0.29846  1.0000
  C   C8        1.0  0.96384  0.06660  0.28199  1.0000
  C   C9        1.0  0.49694  0.39776  0.21083  1.0000
  C   C10       1.0  0.49835  0.60393  0.17267  1.0000
  C   C11       1.0  0.00111  0.90331  0.36773  1.0000
  C   C12       1.0  0.00293  0.10416  0.29186  1.0000
  C   C13       1.0  0.52810  0.40315  0.19401  1.0000
  C   C14       1.0  0.46645  0.59842  0.16422  1.0000
  C   C15       1.0  0.03303  0.90827  0.36882  1.0000
  C   C16       1.0  0.97184  0.09977  0.31336  1.0000
  H   H5        1.0  0.48431  0.37504  0.19971  1.0000
  H   H6        1.0  0.51023  0.62626  0.15072  1.0000
  H   H7        1.0  0.98944  0.88268  0.41029  1.0000
  H   H8        1.0  0.01628  0.12643  0.30433  1.0000
  H   H9        1.0  0.54509  0.38560  0.16485  1.0000
  H   H10       1.0  0.44786  0.61550  0.13449  1.0000
  H   H11       1.0  0.05158  0.89275  0.41631  1.0000
  H   H12       1.0  0.95579  0.11769  0.34814  1.0000
  N   N5        1.0  0.95305  0.99515  0.26655  1.0000
  N   N6        1.0  0.04537  0.00760  0.23020  1.0000
  N   N7        1.0  0.45228  0.49337  0.24479  1.0000
  N   N8        1.0  0.54530  0.50925  0.24007  1.0000
  C   C17       1.0  0.93827  0.96578  0.24190  1.0000
  C   C18       1.0  0.05728  0.03605  0.18255  1.0000
  C   C19       1.0  0.43836  0.46484  0.27980  1.0000
  C   C20       1.0  0.56051  0.53835  0.26635  1.0000
  C   C21       1.0  0.06601  0.98402  0.19556  1.0000
  C   C22       1.0  0.92972  0.01780  0.24966  1.0000
  C   C23       1.0  0.56834  0.48623  0.25740  1.0000
  C   C24       1.0  0.42973  0.51661  0.25391  1.0000
  C   C25       1.0  0.90498  0.97030  0.19595  1.0000
  C   C26       1.0  0.08473  0.03007  0.10515  1.0000
  C   C27       1.0  0.40683  0.47051  0.32134  1.0000
  C   C28       1.0  0.59372  0.53331  0.31236  1.0000
  C   C29       1.0  0.08975  0.99756  0.11019  1.0000
  C   C30       1.0  0.89954  0.00269  0.20372  1.0000
  C   C31       1.0  0.59868  0.50086  0.30468  1.0000
  C   C32       1.0  0.40131  0.50271  0.30355  1.0000
  H   H13       1.0  0.88824  0.95145  0.16172  1.0000
  H   H14       1.0  0.09757  0.04800  0.04974  1.0000
  H   H15       1.0  0.39145  0.45244  0.36067  1.0000
  H   H16       1.0  0.61069  0.55192  0.34688  1.0000
  H   H17       1.0  0.10690  0.98411  0.05622  1.0000
  H   H18       1.0  0.87753  0.01522  0.17828  1.0000
  H   H19       1.0  0.62044  0.48793  0.33115  1.0000
  H   H20       1.0  0.38046  0.51596  0.32437  1.0000
  C   C33       1.0  0.45179  0.43376  0.27098  1.0000
  C   C34       1.0  0.54656  0.56919  0.24434  1.0000
  C   C35       1.0  0.95269  0.93539  0.26938  1.0000
  C   C36       1.0  0.04548  0.06734  0.20843  1.0000
  C   C37       1.0  0.56408  0.45257  0.23239  1.0000
  C   C38       1.0  0.43285  0.54980  0.22107  1.0000
  C   C39       1.0  0.06519  0.95163  0.24657  1.0000
  C   C40       1.0  0.93413  0.05152  0.27398  1.0000
  C   C41       1.0  0.20748  0.80092  0.33223  1.0000
  C   C42       1.0  0.79013  0.19969  0.19259  1.0000
  C   C43       1.0  0.30171  0.70719  0.23905  1.0000
  C   C44       1.0  0.70852  0.30521  0.29918  1.0000
  N   N9        1.0  0.20345  0.82469  0.24088  1.0000
  N   N10       1.0  0.79665  0.17800  0.29239  1.0000
  N   N11       1.0  0.29748  0.67647  0.25748  1.0000
  N   N12       1.0  0.70168  0.32700  0.20023  1.0000
  N   N13       1.0  0.17978  0.84566  0.26490  1.0000
  N   N14       1.0  0.81695  0.15427  0.25904  1.0000
  N   N15       1.0  0.32131  0.65673  0.22909  1.0000
  N   N16       1.0  0.68137  0.35048  0.23610  1.0000
  H   H21       1.0  0.17145  0.84652  0.36685  1.0000
  H   H22       1.0  0.82009  0.14913  0.15071  1.0000
  C   C45       1.0  0.17347  0.87107  0.17267  1.0000
  C   C46       1.0  0.82693  0.13193  0.36313  1.0000
  C   C47       1.0  0.31764  0.62302  0.21976  1.0000
  C   C48       1.0  0.67099  0.37295  0.13366  1.0000
  O   O1        1.0  0.18754  0.87662  0.06382  1.0000
  O   O2        1.0  0.81595  0.13006  0.48294  1.0000
  H   H23       1.0  0.34158  0.66636  0.19728  1.0000
  H   H24       1.0  0.67826  0.35469  0.34508  1.0000
  O   O3        1.0  0.29248  0.60901  0.22184  1.0000
  O   O4        1.0  0.68117  0.37487  0.01221  1.0000
  H   H25       1.0  0.32302  0.71663  0.19649  1.0000
  H   H26       1.0  0.69841  0.30549  0.40389  1.0000
  C   C49       1.0  0.19854  0.20698  0.29719  1.0000
  C   C50       1.0  0.80516  0.79176  0.30512  1.0000
  C   C51       1.0  0.30171  0.29153  0.21135  1.0000
  C   C52       1.0  0.69873  0.70784  0.19021  1.0000
  N   N17       1.0  0.17649  0.20221  0.19203  1.0000
  N   N18       1.0  0.82424  0.79707  0.20681  1.0000
  N   N19       1.0  0.32424  0.29657  0.31402  1.0000
  N   N20       1.0  0.67969  0.70302  0.28915  1.0000
  N   N21       1.0  0.15317  0.18135  0.22239  1.0000
  N   N22       1.0  0.84812  0.81834  0.24841  1.0000
  N   N23       1.0  0.34748  0.31694  0.27845  1.0000
  N   N24       1.0  0.65506  0.68257  0.24893  1.0000
  H   H27       1.0  0.14954  0.17687  0.33038  1.0000
  H   H28       1.0  0.85429  0.82201  0.35964  1.0000
  C   C53       1.0  0.12953  0.17383  0.11619  1.0000
  C   C54       1.0  0.86914  0.82630  0.15253  1.0000
  C   C55       1.0  0.37074  0.32621  0.38359  1.0000
  C   C56       1.0  0.63431  0.67538  0.34743  1.0000
  O   O5        1.0  0.12677  0.18652  0.99335  1.0000
  O   O6        1.0  0.86893  0.81372  0.02934  1.0000
  H   H29       1.0  0.35091  0.32051  0.16965  1.0000
  H   H30       1.0  0.64814  0.67910  0.13813  1.0000
  O   O7        1.0  0.37328  0.31505  0.50928  1.0000
  O   O8        1.0  0.63581  0.68806  0.47087  1.0000
  H   H31       1.0  0.30130  0.30346  0.10518  1.0000
  H   H32       1.0  0.69545  0.69618  0.08281  1.0000
  H   H33       1.0  0.19252  0.79741  0.42071  1.0000
  H   H34       1.0  0.19876  0.19465  0.40240  1.0000
  H   H35       1.0  0.80043  0.19918  0.08836  1.0000
  H   H36       1.0  0.80802  0.80361  0.41210  1.0000
  N   N25       1.0  0.50832  0.44772  0.74286  1.0000
  N   N26       1.0  0.49232  0.54799  0.70790  1.0000
  N   N27       1.0  0.00844  0.94911  0.77244  1.0000
  N   N28       1.0  0.99359  0.04994  0.75436  1.0000
  H   H37       1.0  0.50563  0.47217  0.75195  1.0000
  H   H38       1.0  0.49570  0.52403  0.73110  1.0000
  H   H39       1.0  0.00522  0.97346  0.75937  1.0000
  H   H40       1.0  0.99633  0.02557  0.74213  1.0000
  C   C57       1.0  0.48449  0.42522  0.74203  1.0000
  C   C58       1.0  0.51573  0.57039  0.69490  1.0000
  C   C59       1.0  0.98485  0.92656  0.78024  1.0000
  C   C60       1.0  0.01742  0.07244  0.75505  1.0000
  C   C61       1.0  0.53623  0.43302  0.71901  1.0000
  C   C62       1.0  0.46322  0.56223  0.68445  1.0000
  C   C63       1.0  0.03724  0.93410  0.77738  1.0000
  C   C64       1.0  0.96570  0.06473  0.77827  1.0000
  C   C65       1.0  0.49794  0.39455  0.71143  1.0000
  C   C66       1.0  0.50047  0.60008  0.65134  1.0000
  C   C67       1.0  0.99990  0.89578  0.80083  1.0000
  C   C68       1.0  0.00396  0.10319  0.78419  1.0000
  C   C69       1.0  0.52920  0.39936  0.69472  1.0000
  C   C70       1.0  0.46853  0.59508  0.64426  1.0000
  C   C71       1.0  0.03159  0.90023  0.79575  1.0000
  C   C72       1.0  0.97271  0.09844  0.80111  1.0000
  H   H41       1.0  0.48500  0.37198  0.70241  1.0000
  H   H42       1.0  0.51263  0.62222  0.62904  1.0000
  H   H43       1.0  0.98778  0.87321  0.81527  1.0000
  H   H44       1.0  0.01695  0.12574  0.79242  1.0000
  H   H45       1.0  0.54597  0.38137  0.66761  1.0000
  H   H46       1.0  0.45015  0.61245  0.61552  1.0000
  H   H47       1.0  0.04950  0.88179  0.80214  1.0000
  H   H48       1.0  0.95588  0.11645  0.82749  1.0000
  N   N29       1.0  0.95427  0.99228  0.76597  1.0000
  N   N30       1.0  0.04734  0.00618  0.74481  1.0000
  N   N31       1.0  0.45378  0.49105  0.73555  1.0000
  N   N32       1.0  0.54695  0.50535  0.72856  1.0000
  C   C73       1.0  0.93861  0.96339  0.74133  1.0000
  C   C74       1.0  0.06242  0.03512  0.72819  1.0000
  C   C75       1.0  0.44008  0.46278  0.77498  1.0000
  C   C76       1.0  0.56208  0.53453  0.75356  1.0000
  C   C77       1.0  0.07004  0.98295  0.73881  1.0000
  C   C78       1.0  0.93148  0.01558  0.75007  1.0000
  C   C79       1.0  0.56996  0.48241  0.74967  1.0000
  C   C80       1.0  0.43150  0.51449  0.74727  1.0000
  C   C81       1.0  0.90532  0.96876  0.69913  1.0000
  C   C82       1.0  0.09537  0.03000  0.70724  1.0000
  C   C83       1.0  0.40902  0.46877  0.82132  1.0000
  C   C84       1.0  0.59517  0.52970  0.80236  1.0000
  C   C85       1.0  0.10027  0.99758  0.71692  1.0000
  C   C86       1.0  0.90079  0.00129  0.70653  1.0000
  C   C87       1.0  0.60020  0.49722  0.79756  1.0000
  C   C88       1.0  0.40362  0.50098  0.80347  1.0000
  H   H49       1.0  0.88805  0.95029  0.66671  1.0000
  H   H50       1.0  0.11224  0.04866  0.68841  1.0000
  H   H51       1.0  0.39393  0.45089  0.86418  1.0000
  H   H52       1.0  0.61197  0.54849  0.83662  1.0000
  H   H53       1.0  0.12208  0.98478  0.71060  1.0000
  H   H54       1.0  0.87913  0.01448  0.68202  1.0000
  H   H55       1.0  0.62194  0.48441  0.82627  1.0000
  H   H56       1.0  0.38316  0.51443  0.82818  1.0000
  C   C89       1.0  0.45324  0.43154  0.76757  1.0000
  C   C90       1.0  0.54816  0.56521  0.72842  1.0000
  C   C91       1.0  0.95234  0.93240  0.75829  1.0000
  C   C92       1.0  0.04896  0.06619  0.73459  1.0000
  C   C93       1.0  0.56568  0.44862  0.72863  1.0000
  C   C94       1.0  0.43468  0.54746  0.71091  1.0000
  C   C95       1.0  0.06590  0.94932  0.75629  1.0000
  C   C96       1.0  0.93623  0.04928  0.77165  1.0000
  C   C97       1.0  0.21444  0.80277  0.86751  1.0000
  C   C98       1.0  0.78965  0.19454  0.70003  1.0000
  C   C99       1.0  0.29971  0.70354  0.72576  1.0000
  C   C100      1.0  0.70895  0.30048  0.80967  1.0000
  N   N33       1.0  0.20322  0.82104  0.76111  1.0000
  N   N34       1.0  0.79709  0.17331  0.80081  1.0000
  N   N35       1.0  0.30055  0.67500  0.78361  1.0000
  N   N36       1.0  0.70260  0.32228  0.71025  1.0000
  N   N37       1.0  0.18253  0.84466  0.79154  1.0000
  N   N38       1.0  0.81758  0.14988  0.76611  1.0000
  N   N39       1.0  0.32348  0.65501  0.74421  1.0000
  N   N40       1.0  0.68306  0.34652  0.74526  1.0000
  H   H57       1.0  0.18275  0.85399  0.89646  1.0000
  H   H58       1.0  0.82062  0.14518  0.65749  1.0000
  C   C101      1.0  0.16670  0.86014  0.67480  1.0000
  C   C102      1.0  0.82893  0.12833  0.87063  1.0000
  C   C103      1.0  0.32239  0.62169  0.76555  1.0000
  C   C104      1.0  0.67263  0.36850  0.64057  1.0000
  O   O9        1.0  0.17175  0.85375  0.54750  1.0000
  O   O10       1.0  0.81918  0.12676  0.99319  1.0000
  H   H59       1.0  0.34002  0.66370  0.68146  1.0000
  H   H60       1.0  0.68044  0.35192  0.85386  1.0000
  O   O11       1.0  0.29997  0.60724  0.80781  1.0000
  O   O12       1.0  0.68279  0.36985  0.51885  1.0000
  H   H61       1.0  0.31546  0.71020  0.64352  1.0000
  H   H62       1.0  0.69901  0.30129  0.91474  1.0000
  C   C105      1.0  0.19628  0.21187  0.80583  1.0000
  C   C106      1.0  0.80264  0.79161  0.81160  1.0000
  C   C107      1.0  0.30232  0.29007  0.69782  1.0000
  C   C108      1.0  0.69648  0.70777  0.69569  1.0000
  N   N41       1.0  0.17593  0.20389  0.69788  1.0000
  N   N42       1.0  0.82175  0.79610  0.71270  1.0000
  N   N43       1.0  0.32316  0.29735  0.80489  1.0000
  N   N44       1.0  0.67710  0.70300  0.79322  1.0000
  N   N45       1.0  0.15189  0.18437  0.73139  1.0000
  N   N46       1.0  0.84605  0.81694  0.75181  1.0000
  N   N47       1.0  0.34744  0.31642  0.77049  1.0000
  N   N48       1.0  0.65325  0.68172  0.75197  1.0000
  H   H63       1.0  0.14602  0.18293  0.83809  1.0000
  H   H64       1.0  0.85278  0.82090  0.86232  1.0000
  C   C109      1.0  0.13185  0.17189  0.61995  1.0000
  C   C110      1.0  0.86653  0.82466  0.65310  1.0000
  C   C111      1.0  0.36877  0.32728  0.88065  1.0000
  C   C112      1.0  0.63228  0.67383  0.84799  1.0000
  O   O13       1.0  0.13280  0.17994  0.49068  1.0000
  O   O14       1.0  0.86550  0.81190  0.52989  1.0000
  H   H65       1.0  0.35290  0.31812  0.66318  1.0000
  H   H66       1.0  0.64722  0.67786  0.64085  1.0000
  O   O15       1.0  0.36874  0.31828  0.00919  1.0000
  O   O16       1.0  0.63263  0.68647  0.97120  1.0000
  H   H67       1.0  0.30392  0.29891  0.58681  1.0000
  H   H68       1.0  0.69388  0.69548  0.58969  1.0000
  H   H69       1.0  0.20766  0.80502  0.97878  1.0000
  H   H70       1.0  0.19458  0.20325  0.91715  1.0000
  H   H71       1.0  0.79927  0.19389  0.59417  1.0000
  H   H72       1.0  0.80570  0.80376  0.91793  1.0000
  C   C113      1.0  0.93948  0.87167  0.15249  1.0000
  C   C114      1.0  0.93529  0.89985  0.23218  1.0000
  C  Sn1       1.0  0.90861  0.90357  0.30613  1.0000
  C  Sn2       1.0  0.88575  0.87857  0.30002  1.0000
  C   C115      1.0  0.89017  0.85045  0.22008  1.0000
  C   C116      1.0  0.91695  0.84699  0.14645  1.0000
  H   H73       1.0  0.96020  0.86897  0.09557  1.0000
  O  Te1       1.0  0.90478  0.93189  0.38520  1.0000
  O  Te2       1.0  0.85887  0.88165  0.37296  1.0000
  H   H74       1.0  0.92019  0.82515  0.08484  1.0000
  Mg  Mg1       1.0  0.86422  0.92478  0.46621  1.0000
  C   C117      1.0  0.11589  0.11388  0.26293  1.0000
  C   C118      1.0  0.11137  0.14081  0.17240  1.0000
  C  Sn3       1.0  0.08237  0.14596  0.09273  1.0000
  C  Sn4       1.0  0.05746  0.12370  0.10416  1.0000
  C   C119      1.0  0.06221  0.09685  0.19511  1.0000
  C   C120      1.0  0.09133  0.09192  0.27431  1.0000
  H   H75       1.0  0.13841  0.11007  0.32427  1.0000
  O  Te3       1.0  0.07826  0.17298  0.00276  1.0000
  O  Te4       1.0  0.02823  0.12827  0.02579  1.0000
  H   H76       1.0  0.09482  0.07108  0.34446  1.0000
  Mg  Mg2       1.0  0.05557  0.16969  0.91772  1.0000
  C   C121      1.0  0.39491  0.39677  0.19858  1.0000
  C   C122      1.0  0.42376  0.40547  0.27273  1.0000
  C  Sn5       1.0  0.43783  0.38571  0.38276  1.0000
  C  Sn6       1.0  0.42268  0.35669  0.41896  1.0000
  C   C123      1.0  0.39383  0.34819  0.34407  1.0000
  C   C124      1.0  0.37996  0.36815  0.23418  1.0000
  H   H77       1.0  0.38418  0.41220  0.11351  1.0000
  O  Te5       1.0  0.46665  0.39477  0.45579  1.0000
  O  Te6       1.0  0.43622  0.33649  0.52844  1.0000
  H   H78       1.0  0.35763  0.36139  0.17673  1.0000
  Mg  Mg3       1.0  0.47572  0.35925  0.59679  1.0000
  C   C125      1.0  0.57470  0.64616  0.37706  1.0000
  C   C126      1.0  0.60399  0.65015  0.32498  1.0000
  C  Sn7       1.0  0.61441  0.62792  0.22629  1.0000
  C  Sn8       1.0  0.59508  0.60122  0.17904  1.0000
  C   C127      1.0  0.56581  0.59745  0.23170  1.0000
  C   C128      1.0  0.55562  0.61984  0.33046  1.0000
  H   H79       1.0  0.56681  0.66349  0.45341  1.0000
  O  Te7       1.0  0.64375  0.63227  0.17539  1.0000
  O  Te8       1.0  0.60491  0.57864  0.08043  1.0000
  H   H80       1.0  0.53293  0.61675  0.37069  1.0000
  Mg  Mg4       1.0  0.64679  0.59500  0.04220  1.0000
  C   C129      1.0  0.09328  0.88893  0.20634  1.0000
  C   C130      1.0  0.09171  0.92212  0.23378  1.0000
  C  Sn9       1.0  0.11903  0.94087  0.24826  1.0000
  C  Sn10      1.0  0.14845  0.92607  0.23493  1.0000
  C   C131      1.0  0.14977  0.89285  0.20737  1.0000
  C   C132      1.0  0.12228  0.87431  0.19311  1.0000
  H   H81       1.0  0.07201  0.87458  0.19523  1.0000
  O  Te9       1.0  0.11704  0.97400  0.27572  1.0000
  O  Te10      1.0  0.17612  0.94425  0.24886  1.0000
  H   H82       1.0  0.12351  0.84862  0.17178  1.0000
  Mg  Mg5       1.0  0.16131  0.98854  0.28606  1.0000
  C   C133      1.0  0.89693  0.10895  0.20591  1.0000
  C   C134      1.0  0.90631  0.08002  0.27461  1.0000
  C  Sn11      1.0  0.88759  0.06547  0.37164  1.0000
  C  Sn12      1.0  0.85896  0.08021  0.40016  1.0000
  C   C135      1.0  0.84977  0.10913  0.33079  1.0000
  C   C136      1.0  0.86869  0.12349  0.23394  1.0000
  H   H83       1.0  0.91156  0.12005  0.13091  1.0000
  O  Te11      1.0  0.89732  0.03658  0.43938  1.0000
  O  Te12      1.0  0.83979  0.06618  0.49660  1.0000
  H   H84       1.0  0.86141  0.14587  0.18069  1.0000
  Mg  Mg6       1.0  0.86315  0.02677  0.56216  1.0000
  C   C137      1.0  0.62179  0.44185  0.10493  1.0000
  C   C138      1.0  0.59693  0.43537  0.18772  1.0000
  C  Sn13      1.0  0.59709  0.40746  0.27253  1.0000
  C  Sn14      1.0  0.62265  0.38568  0.27431  1.0000
  C   C139      1.0  0.64742  0.39239  0.19119  1.0000
  C   C140      1.0  0.64702  0.42039  0.10667  1.0000
  H   H85       1.0  0.62149  0.46352  0.03960  1.0000
  O  Te13      1.0  0.57205  0.40134  0.35455  1.0000
  O  Te14      1.0  0.62341  0.35761  0.35815  1.0000
  H   H86       1.0  0.66628  0.42542  0.04266  1.0000
  Mg  Mg7       1.0  0.58380  0.35987  0.45143  1.0000
  C   C141      1.0  0.35372  0.57209  0.10525  1.0000
  C   C142      1.0  0.34709  0.59794  0.19508  1.0000
  C  Sn15      1.0  0.37062  0.61105  0.29387  1.0000
  C  Sn16      1.0  0.40133  0.59800  0.30261  1.0000
  C   C143      1.0  0.40773  0.57215  0.21219  1.0000
  C   C144      1.0  0.38401  0.55921  0.11376  1.0000
  H   H87       1.0  0.33537  0.56209  0.02903  1.0000
  O  Te15      1.0  0.36358  0.63686  0.38285  1.0000
  O  Te16      1.0  0.42529  0.61065  0.40033  1.0000
  H   H88       1.0  0.38916  0.53922  0.04415  1.0000
  Mg  Mg8       1.0  0.40414  0.64580  0.49868  1.0000
  C   C145      1.0  0.23097  0.73655  0.35967  1.0000
  C   C146      1.0  0.23188  0.76999  0.33904  1.0000
  C  Sn17      1.0  0.25669  0.78411  0.27436  1.0000
  C  Sn18      1.0  0.28099  0.76432  0.22958  1.0000
  C   C147      1.0  0.27985  0.73089  0.25061  1.0000
  C   C148      1.0  0.25492  0.71701  0.31548  1.0000
  H   H89       1.0  0.21167  0.72581  0.40979  1.0000
  O  Te17      1.0  0.25725  0.81756  0.25461  1.0000
  O  Te18      1.0  0.30605  0.77780  0.16460  1.0000
  H   H90       1.0  0.25421  0.69112  0.33135  1.0000
  Mg  Mg9       1.0  0.29635  0.82459  0.16106  1.0000
  C   C149      1.0  0.75986  0.27902  0.15714  1.0000
  C   C150      1.0  0.73452  0.28004  0.24135  1.0000
  C  Sn19      1.0  0.72702  0.25305  0.32177  1.0000
  C  Sn20      1.0  0.74528  0.22455  0.31764  1.0000
  C   C151      1.0  0.77060  0.22379  0.23314  1.0000
  C   C152      1.0  0.77789  0.25093  0.15305  1.0000
  H   H91       1.0  0.76551  0.30003  0.09523  1.0000
  O  Te19      1.0  0.70162  0.25447  0.40529  1.0000
  O  Te20      1.0  0.73831  0.19723  0.39701  1.0000
  H   H92       1.0  0.79752  0.25015  0.08794  1.0000
  Mg  Mg10      1.0  0.70140  0.21100  0.49452  1.0000
  C   C153      1.0  0.22388  0.26211  0.15904  1.0000
  C   C154      1.0  0.22313  0.23457  0.24585  1.0000
  C  Sn21      1.0  0.24978  0.22529  0.33537  1.0000
  C  Sn22      1.0  0.27766  0.24398  0.33783  1.0000
  C   C155      1.0  0.27816  0.27151  0.25066  1.0000
  C   C156      1.0  0.25137  0.28057  0.16144  1.0000
  H   H93       1.0  0.20314  0.26914  0.09007  1.0000
  O  Te21      1.0  0.24862  0.19770  0.42137  1.0000
  O  Te22      1.0  0.30463  0.23526  0.42634  1.0000
  H   H94       1.0  0.25195  0.30191  0.09432  1.0000
  Mg  Mg11      1.0  0.29143  0.19565  0.52389  1.0000
  C   C157      1.0  0.73016  0.76049  0.34915  1.0000
  C   C158      1.0  0.72429  0.73666  0.24208  1.0000
  C  Sn23      1.0  0.74752  0.72817  0.15308  1.0000
  C  Sn24      1.0  0.77716  0.74387  0.17191  1.0000
  C   C159      1.0  0.78281  0.76766  0.27941  1.0000
  C   C160      1.0  0.75939  0.77597  0.36784  1.0000
  H   H95       1.0  0.71205  0.76691  0.41763  1.0000
  O  Te23      1.0  0.74126  0.70433  0.04660  1.0000
  O  Te24      1.0  0.80080  0.73585  0.08450  1.0000
  H   H96       1.0  0.76395  0.79440  0.45079  1.0000
  Mg  Mg12      1.0  0.80243  0.70277  0.95434  1.0000
  C   C161      1.0  0.88704  0.88203  0.82228  1.0000
  C   C162      1.0  0.88660  0.85727  0.71870  1.0000
  C  Sn25      1.0  0.91082  0.85465  0.62864  1.0000
  C  Sn26      1.0  0.93592  0.87728  0.64282  1.0000
  C   C163      1.0  0.93615  0.90195  0.74686  1.0000
  C   C164      1.0  0.91179  0.90435  0.83638  1.0000
  H   H97       1.0  0.86820  0.88388  0.89161  1.0000
  O  Te25      1.0  0.91001  0.82976  0.52568  1.0000
  O  Te26      1.0  0.96044  0.87521  0.55425  1.0000
  H   H98       1.0  0.91215  0.92352  0.91664  1.0000
  Mg  Mg13      1.0  0.94881  0.83704  0.43011  1.0000
  C   C165      1.0  0.06308  0.12355  0.57759  1.0000
  C   C166      1.0  0.06715  0.09927  0.68256  1.0000
  C  Sn27      1.0  0.09326  0.09976  0.78601  1.0000
  C  Sn28      1.0  0.11568  0.12505  0.78408  1.0000
  C   C167      1.0  0.11138  0.14924  0.67867  1.0000
  C   C168      1.0  0.08517  0.14851  0.57564  1.0000
  H   H99       1.0  0.04279  0.12300  0.49792  1.0000
  O  Te27      1.0  0.09697  0.07531  0.89009  1.0000
  O  Te28      1.0  0.14198  0.12613  0.88622  1.0000
  H   H100      1.0  0.08202  0.16732  0.49444  1.0000
  Mg  Mg14      1.0  0.11525  0.08637  0.00639  1.0000
  C   C169      1.0  0.39606  0.39567  0.69235  1.0000
  C   C170      1.0  0.42462  0.40411  0.76985  1.0000
  C  Sn29      1.0  0.43749  0.38469  0.88388  1.0000
  C  Sn30      1.0  0.42141  0.35630  0.92071  1.0000
  C   C171      1.0  0.39286  0.34804  0.84244  1.0000
  C   C172      1.0  0.38019  0.36766  0.72857  1.0000
  H   H101      1.0  0.38626  0.41083  0.60419  1.0000
  O  Te29      1.0  0.46604  0.39349  0.96022  1.0000
  O  Te30      1.0  0.41231  0.33549  0.03415  1.0000
  H   H102      1.0  0.35808  0.36110  0.66852  1.0000
  Mg  Mg15      1.0  0.45190  0.35768  0.10604  1.0000
  C   C173      1.0  0.61471  0.61521  0.68394  1.0000
  C   C174      1.0  0.61114  0.64286  0.76810  1.0000
  C  Sn31      1.0  0.58533  0.64584  0.84846  1.0000
  C  Sn32      1.0  0.56272  0.62062  0.84429  1.0000
  C   C175      1.0  0.56651  0.59304  0.75983  1.0000
  C   C176      1.0  0.59242  0.59032  0.67981  1.0000
  H   H103      1.0  0.63477  0.61309  0.62208  1.0000
  O  Te31      1.0  0.58212  0.67364  0.93193  1.0000
  O  Te32      1.0  0.53670  0.62296  0.92359  1.0000
  H   H104      1.0  0.59519  0.56889  0.61473  1.0000
  Mg  Mg16      1.0  0.52121  0.66463  0.02107  1.0000
  C   C177      1.0  0.12715  0.91266  0.58109  1.0000
  C   C178      1.0  0.14185  0.89081  0.68058  1.0000
  C  Sn33      1.0  0.13066  0.88636  0.81613  1.0000
  C  Sn34      1.0  0.10424  0.90415  0.85243  1.0000
  C   C179      1.0  0.08968  0.92594  0.75210  1.0000
  C   C180      1.0  0.10109  0.93021  0.61678  1.0000
  H   H105      1.0  0.13596  0.91596  0.47636  1.0000
  O  Te33      1.0  0.14563  0.86444  0.91426  1.0000
  O  Te34      1.0  0.09256  0.90017  0.98712  1.0000
  H   H106      1.0  0.08969  0.94712  0.53974  1.0000
  Mg  Mg17      1.0  0.09955  0.86650  0.08422  1.0000
  C   C181      1.0  0.88356  0.11607  0.71448  1.0000
  C   C182      1.0  0.85933  0.11003  0.80156  1.0000
  C  Sn35      1.0  0.86025  0.08274  0.89056  1.0000
  C  Sn36      1.0  0.88595  0.06114  0.89220  1.0000
  C   C183      1.0  0.91009  0.06741  0.80475  1.0000
  C   C184      1.0  0.90892  0.09479  0.71608  1.0000
  H   H107      1.0  0.88267  0.13727  0.64593  1.0000
  O  Te35      1.0  0.83584  0.07706  0.97684  1.0000
  O  Te36      1.0  0.88748  0.03368  0.98016  1.0000
  H   H108      1.0  0.92770  0.09947  0.64874  1.0000
  Mg  Mg18      1.0  0.82709  0.03541  0.07839  1.0000
  C   C185      1.0  0.61806  0.38190  0.79436  1.0000
  C   C186      1.0  0.64045  0.38554  0.69536  1.0000
  C  Sn37      1.0  0.64050  0.41315  0.60867  1.0000
  C  Sn38      1.0  0.61770  0.43753  0.62162  1.0000
  C   C187      1.0  0.59542  0.43366  0.72106  1.0000
  C   C188      1.0  0.59557  0.40593  0.80724  1.0000
  H   H109      1.0  0.61819  0.36045  0.86110  1.0000
  O  Te37      1.0  0.66302  0.41640  0.51027  1.0000
  O  Te38      1.0  0.61722  0.46537  0.53635  1.0000
  H   H110      1.0  0.57825  0.40313  0.88395  1.0000
  Mg  Mg19      1.0  0.65276  0.45872  0.41797  1.0000
  C   C189      1.0  0.40436  0.60431  0.81047  1.0000
  C   C190      1.0  0.40735  0.57456  0.74092  1.0000
  C  Sn39      1.0  0.38162  0.56074  0.65800  1.0000
  C  Sn40      1.0  0.35240  0.57706  0.64464  1.0000
  C   C191      1.0  0.34967  0.60682  0.71456  1.0000
  C   C192      1.0  0.37555  0.62043  0.79730  1.0000
  H   H111      1.0  0.42439  0.61485  0.87442  1.0000
  O  Te39      1.0  0.38501  0.53100  0.58928  1.0000
  O  Te40      1.0  0.32632  0.56380  0.56240  1.0000
  H   H112      1.0  0.37324  0.64347  0.85106  1.0000
  Mg  Mg20      1.0  0.34265  0.52274  0.48930  1.0000
  C   C193      1.0  0.24163  0.74008  0.92074  1.0000
  C   C194      1.0  0.23822  0.77137  0.86484  1.0000
  C  Sn41      1.0  0.25457  0.78085  0.74840  1.0000
  C  Sn42      1.0  0.27468  0.75854  0.68699  1.0000
  C   C195      1.0  0.27791  0.72729  0.74362  1.0000
  C   C196      1.0  0.26145  0.71806  0.86019  1.0000
  H   H113      1.0  0.20745  0.73197  0.01088  1.0000
  O  Te41      1.0  0.25089  0.81221  0.69392  1.0000
  O  Te42      1.0  0.29128  0.76738  0.57052  1.0000
  H   H114      1.0  0.26408  0.69383  0.90338  1.0000
  Mg  Mg21      1.0  0.27851  0.81284  0.53421  1.0000
  C   C197      1.0  0.74047  0.22177  0.85289  1.0000
  C   C198      1.0  0.76171  0.21880  0.74820  1.0000
  C  Sn43      1.0  0.76796  0.24518  0.66140  1.0000
  C  Sn44      1.0  0.75263  0.27506  0.68002  1.0000
  C   C199      1.0  0.73143  0.27779  0.78512  1.0000
  C   C200      1.0  0.72534  0.25124  0.87137  1.0000
  H   H115      1.0  0.73577  0.20123  0.91968  1.0000
  O  Te43      1.0  0.78924  0.24179  0.55728  1.0000
  O  Te44      1.0  0.75845  0.30182  0.59476  1.0000
  H   H116      1.0  0.70891  0.25355  0.95248  1.0000
  Mg  Mg22      1.0  0.78938  0.28520  0.46741  1.0000
  C   C201      1.0  0.27326  0.24316  0.86968  1.0000
  C   C202      1.0  0.27719  0.26338  0.75194  1.0000
  C  Sn45      1.0  0.25208  0.26927  0.64697  1.0000
  C  Sn46      1.0  0.22253  0.25461  0.66044  1.0000
  C   C203      1.0  0.21883  0.23443  0.77868  1.0000
  C   C204      1.0  0.24411  0.22870  0.88307  1.0000
  H   H117      1.0  0.29281  0.23873  0.95049  1.0000
  O  Te45      1.0  0.25642  0.28954  0.53001  1.0000
  O  Te46      1.0  0.19704  0.26009  0.55712  1.0000
  H   H118      1.0  0.24106  0.21305  0.97426  1.0000
  Mg  Mg23      1.0  0.21460  0.28957  0.41723  1.0000
  C   C205      1.0  0.74072  0.77287  0.86266  1.0000
  C   C206      1.0  0.77005  0.77076  0.80929  1.0000
  C  Sn47      1.0  0.77532  0.74776  0.70331  1.0000
  C  Sn48      1.0  0.75072  0.72650  0.64994  1.0000
  C   C207      1.0  0.72145  0.72882  0.70395  1.0000
  C   C208      1.0  0.71644  0.75193  0.81003  1.0000
  H   H119      1.0  0.73684  0.79076  0.94468  1.0000
  O  Te47      1.0  0.80477  0.74598  0.65122  1.0000
  O  Te48      1.0  0.75534  0.70329  0.54398  1.0000
  H   H120      1.0  0.69372  0.75356  0.85126  1.0000
  Mg  Mg24      1.0  0.79959  0.71030  0.50700  1.0000
