data_image0
_chemical_formula_structural       N4H4C16H8N4C16H8C14H4C4H4C6N8H2C4O2H2O2H2C14H4C2H4N8H2C4O2H2O2H6N4H4C16H8N4C16H8C23H10C10H10C19H4C2H4N8H2C4O2H2O2H2C8H2C2H2N8H2C4O2H2O2H6SnCSn2CSnTe4Mg2SnCSn2CSnTe4Mg2SnCSn2CSnTe4Mg2SnCSn2CSnTe4Mg2SnCSn2CSnTe4Mg2SnCSn2CSnTe4Mg2SnCSn2CSnTe4Mg2SnCSn2CSnTe4Mg2SnCSn2CSnTe4Mg2SnCSn2CSnTe4Mg2SnCSn2CSnTe4Mg2SnCSn2CSnTe4Mg2
_chemical_formula_sum              "N48 H120 C208 O16 Sn48 Te48 Mg24"
_cell_length_a       42.8402
_cell_length_b       41.3476
_cell_length_c       9.23621
_cell_angle_alpha    90.2263
_cell_angle_beta     95.7054
_cell_angle_gamma    90.1875

_symmetry_space_group_name_H-M    'P1'
_space_group_IT_number       1

loop_
  _space_group_symop_operation_xyz
  'x, y, z'

loop_
  _atom_site_type_symbol
  _atom_site_label
  _atom_site_symmetry_multiplicity
  _atom_site_fract_x
  _atom_site_fract_y
  _atom_site_fract_z
  _atom_site_occupancy
  N   N1        1.0  0.50670  0.45090  0.24798  1.0000
  N   N2        1.0  0.49081  0.55168  0.22851  1.0000
  N   N3        1.0  0.00842  0.95192  0.26849  1.0000
  N   N4        1.0  0.99101  0.05169  0.24872  1.0000
  H   H1        1.0  0.50351  0.47522  0.25970  1.0000
  H   H2        1.0  0.49469  0.52768  0.24900  1.0000
  H   H3        1.0  0.00501  0.97487  0.22986  1.0000
  H   H4        1.0  0.99272  0.02723  0.23516  1.0000
  C   C1        1.0  0.48316  0.42804  0.24494  1.0000
  C   C2        1.0  0.51399  0.57438  0.21544  1.0000
  C   C3        1.0  0.98535  0.93085  0.30226  1.0000
  C   C4        1.0  0.01526  0.07371  0.24925  1.0000
  C   C5        1.0  0.53474  0.43676  0.22186  1.0000
  C   C6        1.0  0.46149  0.56537  0.20259  1.0000
  C   C7        1.0  0.03777  0.93846  0.29846  1.0000
  C   C8        1.0  0.96384  0.06660  0.28199  1.0000
  C   C9        1.0  0.49694  0.39776  0.21083  1.0000
  C   C10       1.0  0.49835  0.60393  0.17267  1.0000
  C   C11       1.0  0.00111  0.90331  0.36773  1.0000
  C   C12       1.0  0.00293  0.10416  0.29186  1.0000
  C   C13       1.0  0.52810  0.40315  0.19401  1.0000
  C   C14       1.0  0.46645  0.59842  0.16422  1.0000
  C   C15       1.0  0.03303  0.90827  0.36882  1.0000
  C   C16       1.0  0.97184  0.09977  0.31336  1.0000
  H   H5        1.0  0.48431  0.37504  0.19971  1.0000
  H   H6        1.0  0.51023  0.62626  0.15072  1.0000
  H   H7        1.0  0.98944  0.88268  0.41029  1.0000
  H   H8        1.0  0.01628  0.12643  0.30433  1.0000
  H   H9        1.0  0.54509  0.38560  0.16485  1.0000
  H   H10       1.0  0.44786  0.61550  0.13449  1.0000
  H   H11       1.0  0.05158  0.89275  0.41631  1.0000
  H   H12       1.0  0.95579  0.11769  0.34814  1.0000
  N   N5        1.0  0.95305  0.99515  0.26655  1.0000
  N   N6        1.0  0.04537  0.00760  0.23020  1.0000
  N   N7        1.0  0.45228  0.49337  0.24479  1.0000
  N   N8        1.0  0.54530  0.50925  0.24007  1.0000
  C   C17       1.0  0.93827  0.96578  0.24190  1.0000
  C   C18       1.0  0.05728  0.03605  0.18255  1.0000
  C   C19       1.0  0.43836  0.46484  0.27980  1.0000
  C   C20       1.0  0.56051  0.53835  0.26635  1.0000
  C   C21       1.0  0.06601  0.98402  0.19556  1.0000
  C   C22       1.0  0.92972  0.01780  0.24966  1.0000
  C   C23       1.0  0.56834  0.48623  0.25740  1.0000
  C   C24       1.0  0.42973  0.51661  0.25391  1.0000
  C   C25       1.0  0.90498  0.97030  0.19595  1.0000
  C   C26       1.0  0.08473  0.03007  0.10515  1.0000
  C   C27       1.0  0.40683  0.47051  0.32134  1.0000
  C   C28       1.0  0.59372  0.53331  0.31236  1.0000
  C   C29       1.0  0.08975  0.99756  0.11019  1.0000
  C   C30       1.0  0.89954  0.00269  0.20372  1.0000
  C   C31       1.0  0.59868  0.50086  0.30468  1.0000
  C   C32       1.0  0.40131  0.50271  0.30355  1.0000
  H   H13       1.0  0.88824  0.95145  0.16172  1.0000
  H   H14       1.0  0.09757  0.04800  0.04974  1.0000
  H   H15       1.0  0.39145  0.45244  0.36067  1.0000
  H   H16       1.0  0.61069  0.55192  0.34688  1.0000
  H   H17       1.0  0.10690  0.98411  0.05622  1.0000
  H   H18       1.0  0.87753  0.01522  0.17828  1.0000
  H   H19       1.0  0.62044  0.48793  0.33115  1.0000
  H   H20       1.0  0.38046  0.51596  0.32437  1.0000
  C   C33       1.0  0.45179  0.43376  0.27098  1.0000
  C   C34       1.0  0.54656  0.56919  0.24434  1.0000
  C   C35       1.0  0.95269  0.93539  0.26938  1.0000
  C   C36       1.0  0.04548  0.06734  0.20843  1.0000
  C   C37       1.0  0.56408  0.45257  0.23239  1.0000
  C   C38       1.0  0.43285  0.54980  0.22107  1.0000
  C   C39       1.0  0.06519  0.95163  0.24657  1.0000
  C   C40       1.0  0.93413  0.05152  0.27398  1.0000
  C   C41       1.0  0.93276  0.90594  0.25687  1.0000
  C   C42       1.0  0.06642  0.09544  0.19157  1.0000
  C   C43       1.0  0.90451  0.90386  0.32233  1.0000
  C   C44       1.0  0.09728  0.09559  0.26026  1.0000
  C   C45       1.0  0.05647  0.12228  0.10565  1.0000
  C   C46       1.0  0.94085  0.87992  0.16874  1.0000
  H   H21       1.0  0.89849  0.92316  0.39487  1.0000
  H   H22       1.0  0.10510  0.07527  0.32884  1.0000
  H   H23       1.0  0.03288  0.12209  0.04996  1.0000
  H   H24       1.0  0.96252  0.88139  0.11677  1.0000
  C   C47       1.0  0.88439  0.87751  0.29520  1.0000
  C   C48       1.0  0.11750  0.12148  0.24302  1.0000
  C   C49       1.0  0.07684  0.14778  0.08548  1.0000
  C   C50       1.0  0.92056  0.85383  0.13984  1.0000
  H   H25       1.0  0.86242  0.87672  0.34487  1.0000
  H   H26       1.0  0.14126  0.12096  0.29681  1.0000
  H   H27       1.0  0.06962  0.16766  0.01313  1.0000
  H   H28       1.0  0.92602  0.83476  0.06500  1.0000
  C   C51       1.0  0.89187  0.85248  0.20136  1.0000
  C   C52       1.0  0.10762  0.14775  0.15404  1.0000
  C   C53       1.0  0.20748  0.80092  0.33223  1.0000
  C   C54       1.0  0.79013  0.19969  0.19259  1.0000
  C   C55       1.0  0.30171  0.70719  0.23905  1.0000
  C   C56       1.0  0.70852  0.30521  0.29918  1.0000
  N   N9        1.0  0.20345  0.82469  0.24088  1.0000
  N   N10       1.0  0.79665  0.17800  0.29239  1.0000
  N   N11       1.0  0.29748  0.67647  0.25748  1.0000
  N   N12       1.0  0.70168  0.32700  0.20023  1.0000
  N   N13       1.0  0.17978  0.84566  0.26490  1.0000
  N   N14       1.0  0.81695  0.15427  0.25904  1.0000
  N   N15       1.0  0.32131  0.65673  0.22909  1.0000
  N   N16       1.0  0.68137  0.35048  0.23610  1.0000
  H   H29       1.0  0.17145  0.84652  0.36685  1.0000
  H   H30       1.0  0.82009  0.14913  0.15071  1.0000
  C   C57       1.0  0.17347  0.87107  0.17267  1.0000
  C   C58       1.0  0.82693  0.13193  0.36313  1.0000
  C   C59       1.0  0.31764  0.62302  0.21976  1.0000
  C   C60       1.0  0.67099  0.37295  0.13366  1.0000
  O   O1        1.0  0.18754  0.87662  0.06382  1.0000
  O   O2        1.0  0.81595  0.13006  0.48294  1.0000
  H   H31       1.0  0.34158  0.66636  0.19728  1.0000
  H   H32       1.0  0.67826  0.35469  0.34508  1.0000
  O   O3        1.0  0.29248  0.60901  0.22184  1.0000
  O   O4        1.0  0.68117  0.37487  0.01221  1.0000
  H   H33       1.0  0.32302  0.71663  0.19649  1.0000
  H   H34       1.0  0.69841  0.30549  0.40389  1.0000
  C   C61       1.0  0.22441  0.22904  0.27667  1.0000
  C   C62       1.0  0.77868  0.76972  0.27564  1.0000
  C   C63       1.0  0.25373  0.22462  0.35792  1.0000
  C   C64       1.0  0.75220  0.77388  0.35301  1.0000
  C   C65       1.0  0.27904  0.24458  0.33695  1.0000
  C   C66       1.0  0.72597  0.75419  0.32522  1.0000
  C   C67       1.0  0.27570  0.26995  0.23520  1.0000
  C   C68       1.0  0.72564  0.72937  0.22019  1.0000
  C   C69       1.0  0.24628  0.27457  0.15499  1.0000
  C   C70       1.0  0.75218  0.72512  0.14329  1.0000
  C   C71       1.0  0.22098  0.25460  0.17592  1.0000
  C   C72       1.0  0.77843  0.74481  0.17107  1.0000
  C   C73       1.0  0.19854  0.20698  0.29719  1.0000
  C   C74       1.0  0.80516  0.79176  0.30512  1.0000
  H   H35       1.0  0.25649  0.20525  0.43764  1.0000
  H   H36       1.0  0.75245  0.79286  0.43510  1.0000
  H   H37       1.0  0.30175  0.24096  0.39859  1.0000
  H   H38       1.0  0.70545  0.75752  0.38408  1.0000
  C   C75       1.0  0.30171  0.29153  0.21135  1.0000
  C   C76       1.0  0.69873  0.70784  0.19021  1.0000
  H   H39       1.0  0.24343  0.29402  0.07573  1.0000
  H   H40       1.0  0.75193  0.70618  0.06102  1.0000
  H   H41       1.0  0.19825  0.25825  0.11458  1.0000
  H   H42       1.0  0.79894  0.74149  0.11213  1.0000
  N   N17       1.0  0.17649  0.20221  0.19203  1.0000
  N   N18       1.0  0.82424  0.79707  0.20681  1.0000
  N   N19       1.0  0.32424  0.29657  0.31402  1.0000
  N   N20       1.0  0.67969  0.70302  0.28915  1.0000
  N   N21       1.0  0.15317  0.18135  0.22239  1.0000
  N   N22       1.0  0.84812  0.81834  0.24841  1.0000
  N   N23       1.0  0.34748  0.31694  0.27845  1.0000
  N   N24       1.0  0.65506  0.68257  0.24893  1.0000
  H   H43       1.0  0.14954  0.17687  0.33038  1.0000
  H   H44       1.0  0.85429  0.82201  0.35964  1.0000
  C   C77       1.0  0.12953  0.17383  0.11619  1.0000
  C   C78       1.0  0.86914  0.82630  0.15253  1.0000
  C   C79       1.0  0.37074  0.32621  0.38359  1.0000
  C   C80       1.0  0.63431  0.67538  0.34743  1.0000
  O   O5        1.0  0.12677  0.18652  0.99335  1.0000
  O   O6        1.0  0.86893  0.81372  0.02934  1.0000
  H   H45       1.0  0.35091  0.32051  0.16965  1.0000
  H   H46       1.0  0.64814  0.67910  0.13813  1.0000
  O   O7        1.0  0.37328  0.31505  0.50928  1.0000
  O   O8        1.0  0.63581  0.68806  0.47087  1.0000
  H   H47       1.0  0.30130  0.30346  0.10518  1.0000
  H   H48       1.0  0.69545  0.69618  0.08281  1.0000
  H   H49       1.0  0.19252  0.79741  0.42071  1.0000
  H   H50       1.0  0.19876  0.19465  0.40240  1.0000
  H   H51       1.0  0.80043  0.19918  0.08836  1.0000
  H   H52       1.0  0.80802  0.80361  0.41210  1.0000
  N   N25       1.0  0.50832  0.44772  0.74286  1.0000
  N   N26       1.0  0.49232  0.54799  0.70790  1.0000
  N   N27       1.0  0.00844  0.94911  0.77244  1.0000
  N   N28       1.0  0.99359  0.04994  0.75436  1.0000
  H   H53       1.0  0.50563  0.47217  0.75195  1.0000
  H   H54       1.0  0.49570  0.52403  0.73110  1.0000
  H   H55       1.0  0.00522  0.97346  0.75937  1.0000
  H   H56       1.0  0.99633  0.02557  0.74213  1.0000
  C   C81       1.0  0.48449  0.42522  0.74203  1.0000
  C   C82       1.0  0.51573  0.57039  0.69490  1.0000
  C   C83       1.0  0.98485  0.92656  0.78024  1.0000
  C   C84       1.0  0.01742  0.07244  0.75505  1.0000
  C   C85       1.0  0.53623  0.43302  0.71901  1.0000
  C   C86       1.0  0.46322  0.56223  0.68445  1.0000
  C   C87       1.0  0.03724  0.93410  0.77738  1.0000
  C   C88       1.0  0.96570  0.06473  0.77827  1.0000
  C   C89       1.0  0.49794  0.39455  0.71143  1.0000
  C   C90       1.0  0.50047  0.60008  0.65134  1.0000
  C   C91       1.0  0.99990  0.89578  0.80083  1.0000
  C   C92       1.0  0.00396  0.10319  0.78419  1.0000
  C   C93       1.0  0.52920  0.39936  0.69472  1.0000
  C   C94       1.0  0.46853  0.59508  0.64426  1.0000
  C   C95       1.0  0.03159  0.90023  0.79575  1.0000
  C   C96       1.0  0.97271  0.09844  0.80111  1.0000
  H   H57       1.0  0.48500  0.37198  0.70241  1.0000
  H   H58       1.0  0.51263  0.62222  0.62904  1.0000
  H   H59       1.0  0.98778  0.87321  0.81527  1.0000
  H   H60       1.0  0.01695  0.12574  0.79242  1.0000
  H   H61       1.0  0.54597  0.38137  0.66761  1.0000
  H   H62       1.0  0.45015  0.61245  0.61552  1.0000
  H   H63       1.0  0.04950  0.88179  0.80214  1.0000
  H   H64       1.0  0.95588  0.11645  0.82749  1.0000
  N   N29       1.0  0.95427  0.99228  0.76597  1.0000
  N   N30       1.0  0.04734  0.00618  0.74481  1.0000
  N   N31       1.0  0.45378  0.49105  0.73555  1.0000
  N   N32       1.0  0.54695  0.50535  0.72856  1.0000
  C   C97       1.0  0.93861  0.96339  0.74133  1.0000
  C   C98       1.0  0.06242  0.03512  0.72819  1.0000
  C   C99       1.0  0.44008  0.46278  0.77498  1.0000
  C   C100      1.0  0.56208  0.53453  0.75356  1.0000
  C   C101      1.0  0.07004  0.98295  0.73881  1.0000
  C   C102      1.0  0.93148  0.01558  0.75007  1.0000
  C   C103      1.0  0.56996  0.48241  0.74967  1.0000
  C   C104      1.0  0.43150  0.51449  0.74727  1.0000
  C   C105      1.0  0.90532  0.96876  0.69913  1.0000
  C   C106      1.0  0.09537  0.03000  0.70724  1.0000
  C   C107      1.0  0.40902  0.46877  0.82132  1.0000
  C   C108      1.0  0.59517  0.52970  0.80236  1.0000
  C   C109      1.0  0.10027  0.99758  0.71692  1.0000
  C   C110      1.0  0.90079  0.00129  0.70653  1.0000
  C   C111      1.0  0.60020  0.49722  0.79756  1.0000
  C   C112      1.0  0.40362  0.50098  0.80347  1.0000
  H   H65       1.0  0.88805  0.95029  0.66671  1.0000
  H   H66       1.0  0.11224  0.04866  0.68841  1.0000
  H   H67       1.0  0.39393  0.45089  0.86418  1.0000
  H   H68       1.0  0.61197  0.54849  0.83662  1.0000
  H   H69       1.0  0.12208  0.98478  0.71060  1.0000
  H   H70       1.0  0.87913  0.01448  0.68202  1.0000
  H   H71       1.0  0.62194  0.48441  0.82627  1.0000
  H   H72       1.0  0.38316  0.51443  0.82818  1.0000
  C   C113      1.0  0.45324  0.43154  0.76757  1.0000
  C   C114      1.0  0.54816  0.56521  0.72842  1.0000
  C   C115      1.0  0.95234  0.93240  0.75829  1.0000
  C   C116      1.0  0.04896  0.06619  0.73459  1.0000
  C   C117      1.0  0.56568  0.44862  0.72863  1.0000
  C   C118      1.0  0.43468  0.54746  0.71091  1.0000
  C   C119      1.0  0.06590  0.94932  0.75629  1.0000
  C   C120      1.0  0.93623  0.04928  0.77165  1.0000
  C   C121      1.0  0.56852  0.59436  0.74512  1.0000
  C   C122      1.0  0.93142  0.90362  0.74404  1.0000
  C   C123      1.0  0.06933  0.09477  0.71538  1.0000
  C   C124      1.0  0.40669  0.56840  0.71219  1.0000
  C   C125      1.0  0.90826  0.06940  0.78875  1.0000
  C   C126      1.0  0.90503  0.90089  0.82272  1.0000
  C   C127      1.0  0.09698  0.10054  0.80697  1.0000
  C   C128      1.0  0.06173  0.11604  0.59866  1.0000
  C   C129      1.0  0.93695  0.87869  0.64545  1.0000
  C   C130      1.0  0.56135  0.61955  0.83955  1.0000
  C   C131      1.0  0.59599  0.59707  0.67413  1.0000
  C   C132      1.0  0.90213  0.09816  0.71023  1.0000
  C   C133      1.0  0.88700  0.05984  0.88782  1.0000
  C   C134      1.0  0.37791  0.55953  0.63478  1.0000
  C   C135      1.0  0.40785  0.59660  0.79821  1.0000
  H   H73       1.0  0.54040  0.61747  0.89651  1.0000
  H   H74       1.0  0.60137  0.57829  0.59772  1.0000
  H   H75       1.0  0.90077  0.91946  0.90206  1.0000
  H   H76       1.0  0.10294  0.08485  0.89965  1.0000
  H   H77       1.0  0.04045  0.11155  0.52696  1.0000
  H   H78       1.0  0.95688  0.88083  0.58197  1.0000
  H   H79       1.0  0.37711  0.53824  0.56489  1.0000
  H   H80       1.0  0.42972  0.60306  0.86191  1.0000
  H   H81       1.0  0.91766  0.10540  0.62984  1.0000
  H   H82       1.0  0.89188  0.03796  0.95100  1.0000
  C   C136      1.0  0.58158  0.64569  0.86728  1.0000
  C   C137      1.0  0.61618  0.62338  0.70092  1.0000
  C   C138      1.0  0.88438  0.87484  0.79951  1.0000
  C   C139      1.0  0.11684  0.12609  0.78045  1.0000
  C   C140      1.0  0.08169  0.14139  0.57072  1.0000
  C   C141      1.0  0.91651  0.85265  0.62244  1.0000
  C   C142      1.0  0.35080  0.57727  0.64879  1.0000
  C   C143      1.0  0.38097  0.61505  0.80852  1.0000
  C   C144      1.0  0.87603  0.11694  0.73150  1.0000
  C   C145      1.0  0.86098  0.07859  0.90942  1.0000
  H   H83       1.0  0.57680  0.66428  0.94568  1.0000
  H   H84       1.0  0.63757  0.62463  0.64685  1.0000
  H   H85       1.0  0.86379  0.87366  0.85925  1.0000
  H   H86       1.0  0.13836  0.12965  0.85143  1.0000
  H   H87       1.0  0.07647  0.15697  0.47680  1.0000
  H   H88       1.0  0.92022  0.83418  0.54188  1.0000
  H   H89       1.0  0.32842  0.56985  0.59211  1.0000
  H   H90       1.0  0.38194  0.63618  0.87946  1.0000
  H   H91       1.0  0.87206  0.13916  0.67003  1.0000
  H   H92       1.0  0.84524  0.07178  0.98961  1.0000
  C   C146      1.0  0.60949  0.64771  0.79981  1.0000
  C   C147      1.0  0.88967  0.85064  0.69761  1.0000
  C   C148      1.0  0.10958  0.14664  0.66134  1.0000
  C   C149      1.0  0.35213  0.60510  0.73656  1.0000
  C   C150      1.0  0.85519  0.10748  0.83191  1.0000
  C   C151      1.0  0.23671  0.77763  0.83520  1.0000
  C   C152      1.0  0.76842  0.22088  0.72739  1.0000
  C   C153      1.0  0.23903  0.74868  0.91594  1.0000
  C   C154      1.0  0.77063  0.25024  0.65198  1.0000
  C   C155      1.0  0.25902  0.72412  0.88031  1.0000
  C   C156      1.0  0.75165  0.27627  0.67918  1.0000
  C   C157      1.0  0.27796  0.72822  0.76521  1.0000
  C   C158      1.0  0.72953  0.27362  0.78167  1.0000
  C   C159      1.0  0.27609  0.75742  0.68648  1.0000
  C   C160      1.0  0.72719  0.24419  0.85659  1.0000
  C   C161      1.0  0.25555  0.78159  0.71989  1.0000
  C   C162      1.0  0.74620  0.21815  0.82945  1.0000
  C   C163      1.0  0.21444  0.80277  0.86751  1.0000
  C   C164      1.0  0.78965  0.19454  0.70003  1.0000
  H   H93       1.0  0.22482  0.74544  0.00622  1.0000
  H   H94       1.0  0.78757  0.25246  0.57220  1.0000
  H   H95       1.0  0.26058  0.70164  0.94140  1.0000
  H   H96       1.0  0.75349  0.29902  0.62188  1.0000
  C   C165      1.0  0.29971  0.70354  0.72576  1.0000
  C   C166      1.0  0.70895  0.30048  0.80967  1.0000
  H   H97       1.0  0.29060  0.76079  0.59731  1.0000
  H   H98       1.0  0.71029  0.24199  0.93656  1.0000
  H   H99       1.0  0.25366  0.80395  0.65807  1.0000
  H   H100      1.0  0.74434  0.19542  0.88686  1.0000
  N   N33       1.0  0.20322  0.82104  0.76111  1.0000
  N   N34       1.0  0.79709  0.17331  0.80081  1.0000
  N   N35       1.0  0.30055  0.67500  0.78361  1.0000
  N   N36       1.0  0.70260  0.32228  0.71025  1.0000
  N   N37       1.0  0.18253  0.84466  0.79154  1.0000
  N   N38       1.0  0.81758  0.14988  0.76611  1.0000
  N   N39       1.0  0.32348  0.65501  0.74421  1.0000
  N   N40       1.0  0.68306  0.34652  0.74526  1.0000
  H   H101      1.0  0.18275  0.85399  0.89646  1.0000
  H   H102      1.0  0.82062  0.14518  0.65749  1.0000
  C   C167      1.0  0.16670  0.86014  0.67480  1.0000
  C   C168      1.0  0.82893  0.12833  0.87063  1.0000
  C   C169      1.0  0.32239  0.62169  0.76555  1.0000
  C   C170      1.0  0.67263  0.36850  0.64057  1.0000
  O   O9        1.0  0.17175  0.85375  0.54750  1.0000
  O   O10       1.0  0.81918  0.12676  0.99319  1.0000
  H   H103      1.0  0.34002  0.66370  0.68146  1.0000
  H   H104      1.0  0.68044  0.35192  0.85386  1.0000
  O   O11       1.0  0.29997  0.60724  0.80781  1.0000
  O   O12       1.0  0.68279  0.36985  0.51885  1.0000
  H   H105      1.0  0.31546  0.71020  0.64352  1.0000
  H   H106      1.0  0.69901  0.30129  0.91474  1.0000
  C   C171      1.0  0.77586  0.76997  0.78223  1.0000
  C   C172      1.0  0.74915  0.77448  0.85761  1.0000
  C   C173      1.0  0.72296  0.75476  0.82915  1.0000
  C   C174      1.0  0.72299  0.72969  0.72548  1.0000
  C   C175      1.0  0.74969  0.72523  0.64998  1.0000
  C   C176      1.0  0.77587  0.74493  0.67846  1.0000
  C   C177      1.0  0.19628  0.21187  0.80583  1.0000
  C   C178      1.0  0.80264  0.79161  0.81160  1.0000
  H   H107      1.0  0.74923  0.79361  0.93895  1.0000
  H   H108      1.0  0.70228  0.75810  0.88689  1.0000
  C   C179      1.0  0.30232  0.29007  0.69782  1.0000
  C   C180      1.0  0.69648  0.70777  0.69569  1.0000
  H   H109      1.0  0.74965  0.70603  0.56902  1.0000
  H   H110      1.0  0.79661  0.74152  0.62114  1.0000
  N   N41       1.0  0.17593  0.20389  0.69788  1.0000
  N   N42       1.0  0.82175  0.79610  0.71270  1.0000
  N   N43       1.0  0.32316  0.29735  0.80489  1.0000
  N   N44       1.0  0.67710  0.70300  0.79322  1.0000
  N   N45       1.0  0.15189  0.18437  0.73139  1.0000
  N   N46       1.0  0.84605  0.81694  0.75181  1.0000
  N   N47       1.0  0.34744  0.31642  0.77049  1.0000
  N   N48       1.0  0.65325  0.68172  0.75197  1.0000
  H   H111      1.0  0.14602  0.18293  0.83809  1.0000
  H   H112      1.0  0.85278  0.82090  0.86232  1.0000
  C   C181      1.0  0.13185  0.17189  0.61995  1.0000
  C   C182      1.0  0.86653  0.82466  0.65310  1.0000
  C   C183      1.0  0.36877  0.32728  0.88065  1.0000
  C   C184      1.0  0.63228  0.67383  0.84799  1.0000
  O   O13       1.0  0.13280  0.17994  0.49068  1.0000
  O   O14       1.0  0.86550  0.81190  0.52989  1.0000
  H   H113      1.0  0.35290  0.31812  0.66318  1.0000
  H   H114      1.0  0.64722  0.67786  0.64085  1.0000
  O   O15       1.0  0.36874  0.31828  0.00919  1.0000
  O   O16       1.0  0.63263  0.68647  0.97120  1.0000
  H   H115      1.0  0.30392  0.29891  0.58681  1.0000
  H   H116      1.0  0.69388  0.69548  0.58969  1.0000
  H   H117      1.0  0.20766  0.80502  0.97878  1.0000
  H   H118      1.0  0.19458  0.20325  0.91715  1.0000
  H   H119      1.0  0.79927  0.19389  0.59417  1.0000
  H   H120      1.0  0.80570  0.80376  0.91793  1.0000
  C  Sn1       1.0  0.55995  0.63540  0.32640  1.0000
  C   C185      1.0  0.56210  0.60810  0.23832  1.0000
  C  Sn2       1.0  0.59063  0.59984  0.18713  1.0000
  C  Sn3       1.0  0.61759  0.61925  0.22484  1.0000
  C   C186      1.0  0.61544  0.64653  0.31289  1.0000
  C  Sn4       1.0  0.58691  0.65482  0.36411  1.0000
  O  Te1       1.0  0.53118  0.64321  0.37635  1.0000
  O  Te2       1.0  0.59220  0.57243  0.09918  1.0000
  O  Te3       1.0  0.64637  0.61142  0.17480  1.0000
  O  Te4       1.0  0.58534  0.68220  0.45203  1.0000
  Mg  Mg1       1.0  0.63667  0.57176  0.05806  1.0000
  Mg  Mg2       1.0  0.54088  0.68289  0.49327  1.0000
  C  Sn5       1.0  0.61238  0.38224  0.24965  1.0000
  C   C187      1.0  0.63597  0.38832  0.15904  1.0000
  C  Sn6       1.0  0.64001  0.41932  0.10412  1.0000
  C  Sn7       1.0  0.62008  0.44478  0.14059  1.0000
  C   C188      1.0  0.59651  0.43870  0.23116  1.0000
  C  Sn8       1.0  0.59244  0.40771  0.28612  1.0000
  O  Te5       1.0  0.60876  0.35107  0.30331  1.0000
  O  Te6       1.0  0.66376  0.42481  0.01370  1.0000
  O  Te7       1.0  0.62371  0.47598  0.08684  1.0000
  O  Te8       1.0  0.56872  0.40222  0.37650  1.0000
  Mg  Mg3       1.0  0.68084  0.47236  0.96779  1.0000
  Mg  Mg4       1.0  0.57306  0.35563  0.42253  1.0000
  C  Sn9       1.0  0.60878  0.39819  0.82739  1.0000
  C   C189      1.0  0.60037  0.42761  0.76081  1.0000
  C  Sn10      1.0  0.61376  0.43729  0.63601  1.0000
  C  Sn11      1.0  0.63600  0.41712  0.57644  1.0000
  C   C190      1.0  0.64439  0.38771  0.64299  1.0000
  C  Sn12      1.0  0.63102  0.37802  0.76782  1.0000
  O  Te9       1.0  0.59509  0.38900  0.95207  1.0000
  O  Te10      1.0  0.60499  0.46682  0.57141  1.0000
  O  Te11      1.0  0.64968  0.42633  0.45166  1.0000
  O  Te12      1.0  0.63977  0.34850  0.83240  1.0000
  Mg  Mg5       1.0  0.63015  0.46874  0.40304  1.0000
  Mg  Mg6       1.0  0.59317  0.34559  0.00071  1.0000
  C  Sn13      1.0  0.39356  0.40136  0.73145  1.0000
  C   C191      1.0  0.42352  0.40738  0.80086  1.0000
  C  Sn14      1.0  0.43938  0.38346  0.88514  1.0000
  C  Sn15      1.0  0.42501  0.35288  0.90030  1.0000
  C   C192      1.0  0.39507  0.34686  0.83090  1.0000
  C  Sn16      1.0  0.37919  0.37078  0.74661  1.0000
  O  Te13      1.0  0.37814  0.42563  0.64773  1.0000
  O  Te14      1.0  0.46930  0.39005  0.95353  1.0000
  O  Te15      1.0  0.44046  0.32860  0.98411  1.0000
  O  Te16      1.0  0.34928  0.36419  0.67823  1.0000
  Mg  Mg7       1.0  0.45942  0.34823  0.05591  1.0000
  Mg  Mg8       1.0  0.33771  0.40504  0.57577  1.0000
  C  Sn17      1.0  0.25485  0.24042  0.89887  1.0000
  C   C193      1.0  0.22552  0.23891  0.81802  1.0000
  C  Sn18      1.0  0.22148  0.25121  0.67677  1.0000
  C  Sn19      1.0  0.24730  0.26528  0.61499  1.0000
  C   C194      1.0  0.27661  0.26678  0.69580  1.0000
  C  Sn20      1.0  0.28067  0.25450  0.83708  1.0000
  O  Te17      1.0  0.23692  0.22702  0.03988  1.0000
  O  Te18      1.0  0.19193  0.24944  0.59809  1.0000
  O  Te19      1.0  0.24377  0.27773  0.47386  1.0000
  O  Te20      1.0  0.31020  0.25626  0.91573  1.0000
  Mg  Mg9       1.0  0.19893  0.26969  0.41008  1.0000
  Mg  Mg10      1.0  0.28180  0.23504  0.10371  1.0000
  C  Sn21      1.0  0.42383  0.36521  0.45102  1.0000
  C   C195      1.0  0.39425  0.35795  0.38040  1.0000
  C  Sn22      1.0  0.38400  0.37274  0.24856  1.0000
  C  Sn23      1.0  0.40373  0.39525  0.18593  1.0000
  C   C196      1.0  0.43329  0.40249  0.25653  1.0000
  C  Sn24      1.0  0.44356  0.38771  0.38840  1.0000
  O  Te21      1.0  0.43359  0.35013  0.58274  1.0000
  O  Te22      1.0  0.35432  0.36511  0.18001  1.0000
  O  Te23      1.0  0.39394  0.41033  0.05411  1.0000
  O  Te24      1.0  0.47322  0.39534  0.45691  1.0000
  Mg  Mg11      1.0  0.35155  0.39198  0.00229  1.0000
  Mg  Mg12      1.0  0.47602  0.36846  0.63459  1.0000
  C  Sn25      1.0  0.87221  0.05969  0.35600  1.0000
  C   C197      1.0  0.89705  0.06623  0.27312  1.0000
  C  Sn26      1.0  0.90188  0.09752  0.22316  1.0000
  C  Sn27      1.0  0.88148  0.12281  0.25681  1.0000
  C   C198      1.0  0.85666  0.11627  0.33967  1.0000
  C  Sn28      1.0  0.85181  0.08498  0.38965  1.0000
  O  Te25      1.0  0.86782  0.02824  0.40481  1.0000
  O  Te26      1.0  0.92687  0.10346  0.14043  1.0000
  O  Te27      1.0  0.88588  0.15428  0.20792  1.0000
  O  Te28      1.0  0.82684  0.07904  0.47235  1.0000
  Mg  Mg13      1.0  0.92320  0.15031  0.09889  1.0000
  Mg  Mg14      1.0  0.83049  0.03220  0.51401  1.0000
  C  Sn29      1.0  0.77531  0.26579  0.17970  1.0000
  C   C199      1.0  0.77480  0.23450  0.23608  1.0000
  C  Sn30      1.0  0.74910  0.22376  0.30486  1.0000
  C  Sn31      1.0  0.72336  0.24473  0.31749  1.0000
  C   C200      1.0  0.72388  0.27599  0.26112  1.0000
  C  Sn32      1.0  0.74958  0.28676  0.19233  1.0000
  O  Te29      1.0  0.80125  0.27602  0.11136  1.0000
  O  Te30      1.0  0.74912  0.19238  0.36041  1.0000
  O  Te31      1.0  0.69741  0.23447  0.38591  1.0000
  O  Te32      1.0  0.74956  0.31812  0.13679  1.0000
  Mg  Mg15      1.0  0.70841  0.18959  0.44408  1.0000
  Mg  Mg16      1.0  0.79025  0.32092  0.05304  1.0000
  C  Sn33      1.0  0.35136  0.56760  0.14739  1.0000
  C   C201      1.0  0.34624  0.59546  0.22771  1.0000
  C  Sn34      1.0  0.37157  0.61314  0.29459  1.0000
  C  Sn35      1.0  0.40267  0.60276  0.28084  1.0000
  C   C202      1.0  0.40777  0.57491  0.20054  1.0000
  C  Sn36      1.0  0.38245  0.55722  0.13363  1.0000
  O  Te33      1.0  0.32568  0.55030  0.08144  1.0000
  O  Te34      1.0  0.36587  0.64091  0.37437  1.0000
  O  Te35      1.0  0.42835  0.62008  0.34687  1.0000
  O  Te36      1.0  0.38814  0.52946  0.05388  1.0000
  Mg  Mg17      1.0  0.40856  0.65632  0.44404  1.0000
  Mg  Mg18      1.0  0.36690  0.51500  0.98410  1.0000
  C  Sn37      1.0  0.13414  0.91856  0.61020  1.0000
  C   C203      1.0  0.14633  0.89456  0.70563  1.0000
  C  Sn38      1.0  0.12977  0.88453  0.82045  1.0000
  C  Sn39      1.0  0.10041  0.89877  0.84028  1.0000
  C   C204      1.0  0.08824  0.92275  0.74488  1.0000
  C  Sn40      1.0  0.10479  0.93280  0.63002  1.0000
  O  Te37      1.0  0.15110  0.92822  0.49615  1.0000
  O  Te38      1.0  0.14243  0.86049  0.91447  1.0000
  O  Te39      1.0  0.08346  0.88909  0.95445  1.0000
  O  Te40      1.0  0.09214  0.95682  0.53603  1.0000
  Mg  Mg19      1.0  0.08903  0.85453  0.05362  1.0000
  Mg  Mg20      1.0  0.12407  0.96183  0.39681  1.0000
  C  Sn41      1.0  0.24041  0.72338  0.30666  1.0000
  C   C205      1.0  0.26855  0.72779  0.24444  1.0000
  C  Sn42      1.0  0.28082  0.75882  0.23004  1.0000
  C  Sn43      1.0  0.26465  0.78602  0.27894  1.0000
  C   C206      1.0  0.23654  0.78160  0.34114  1.0000
  C  Sn44      1.0  0.22424  0.75058  0.35556  1.0000
  O  Te41      1.0  0.22858  0.69214  0.31997  1.0000
  O  Te42      1.0  0.30898  0.76262  0.16744  1.0000
  O  Te43      1.0  0.27651  0.81727  0.26558  1.0000
  O  Te44      1.0  0.19611  0.74677  0.41814  1.0000
  Mg  Mg21      1.0  0.31566  0.81003  0.17309  1.0000
  Mg  Mg22      1.0  0.18942  0.69938  0.41261  1.0000
  C  Sn45      1.0  0.14681  0.92815  0.28130  1.0000
  C   C207      1.0  0.14734  0.89565  0.23959  1.0000
  C  Sn46      1.0  0.11967  0.87983  0.18641  1.0000
  C  Sn47      1.0  0.09085  0.89687  0.17458  1.0000
  C   C208      1.0  0.09032  0.92935  0.21626  1.0000
  C  Sn48      1.0  0.11799  0.94518  0.26948  1.0000
  O  Te45      1.0  0.17476  0.94347  0.33416  1.0000
  O  Te46      1.0  0.12079  0.84733  0.14543  1.0000
  O  Te47      1.0  0.06288  0.88152  0.12167  1.0000
  O  Te48      1.0  0.11687  0.97767  0.31041  1.0000
  Mg  Mg23      1.0  0.07646  0.83703  0.07973  1.0000
  Mg  Mg24      1.0  0.16119  0.98800  0.37605  1.0000
