data_image0
_chemical_formula_structural       N2H2C8H4N2C8H4C13H6C6H6C9O2N4H2C2O2H2C6O2N4H2C2O2H2N2H2C8H4N2C8H4C7H2C2H2C7O2N4H2C2O2H2C6O2N4H2C2O2H2C2Sn2C2HTe2HMgC2Sn2C2HTe2HMgC2Sn2C2HTe2HMgC2Sn2C2HTe2HMg
_chemical_formula_sum              "N24 H60 C112 O16 Sn8 Te8 Mg4"
_cell_length_a       29.0623
_cell_length_b       29.078
_cell_length_c       8.50491
_cell_angle_alpha    84.7535
_cell_angle_beta     82.4014
_cell_angle_gamma    89.8135

_symmetry_space_group_name_H-M    'P1'
_space_group_IT_number       1

loop_
  _space_group_symop_operation_xyz
  'x, y, z'

loop_
  _atom_site_type_symbol
  _atom_site_label
  _atom_site_symmetry_multiplicity
  _atom_site_fract_x
  _atom_site_fract_y
  _atom_site_fract_z
  _atom_site_occupancy
  N   N1        1.0  0.04339  0.94410  0.24162  1.0000
  N   N2        1.0  0.95515  0.06082  0.25014  1.0000
  H   H1        1.0  0.02222  0.97207  0.25294  1.0000
  H   H2        1.0  0.97561  0.03215  0.25530  1.0000
  C   C1        1.0  0.09105  0.94536  0.23793  1.0000
  C   C2        1.0  0.90791  0.05986  0.24246  1.0000
  C   C3        1.0  0.02828  0.90015  0.22505  1.0000
  C   C4        1.0  0.97167  0.10580  0.23396  1.0000
  C   C5        1.0  0.10705  0.89942  0.21421  1.0000
  C   C6        1.0  0.89391  0.10706  0.21738  1.0000
  C   C7        1.0  0.06902  0.87246  0.20354  1.0000
  C   C8        1.0  0.93237  0.13481  0.21288  1.0000
  H   H3        1.0  0.14288  0.88848  0.20774  1.0000
  H   H4        1.0  0.85908  0.11865  0.20262  1.0000
  H   H5        1.0  0.06832  0.83638  0.18366  1.0000
  H   H6        1.0  0.93279  0.17220  0.19679  1.0000
  N   N3        1.0  0.05645  0.04385  0.24238  1.0000
  N   N4        1.0  0.94264  0.96174  0.24051  1.0000
  C   C9        1.0  0.10103  0.03018  0.25765  1.0000
  C   C10       1.0  0.89658  0.97420  0.26369  1.0000
  C   C11       1.0  0.94240  0.91421  0.25425  1.0000
  C   C12       1.0  0.05659  0.09092  0.24870  1.0000
  C   C13       1.0  0.12978  0.06944  0.27988  1.0000
  C   C14       1.0  0.86666  0.93350  0.29917  1.0000
  C   C15       1.0  0.89506  0.89629  0.29375  1.0000
  C   C16       1.0  0.10237  0.10739  0.27287  1.0000
  H   H7        1.0  0.16578  0.06771  0.29894  1.0000
  H   H8        1.0  0.82922  0.93370  0.32474  1.0000
  H   H9        1.0  0.88503  0.86029  0.31466  1.0000
  H   H10       1.0  0.11191  0.14275  0.28481  1.0000
  C   C17       1.0  0.11810  0.98464  0.25201  1.0000
  C   C18       1.0  0.87938  0.02000  0.25679  1.0000
  C   C19       1.0  0.98176  0.88505  0.23611  1.0000
  C   C20       1.0  0.01786  0.12020  0.23720  1.0000
  C   C21       1.0  0.16802  0.97615  0.26243  1.0000
  C   C22       1.0  0.82844  0.02746  0.26796  1.0000
  C   C23       1.0  0.02541  0.17089  0.23354  1.0000
  C   C24       1.0  0.20365  0.00076  0.16264  1.0000
  C   C25       1.0  0.80027  0.00183  0.18393  1.0000
  C   C26       1.0  0.80609  0.06037  0.36347  1.0000
  C   C27       1.0  0.18095  0.94054  0.37030  1.0000
  C   C28       1.0  0.00023  0.19588  0.34924  1.0000
  C   C29       1.0  0.05867  0.19481  0.12028  1.0000
  H   H11       1.0  0.19491  0.02729  0.07396  1.0000
  H   H12       1.0  0.81620  0.97841  0.10060  1.0000
  H   H13       1.0  0.82601  0.07996  0.43449  1.0000
  H   H14       1.0  0.15331  0.92214  0.44844  1.0000
  H   H15       1.0  0.97608  0.17676  0.43935  1.0000
  H   H16       1.0  0.07724  0.17647  0.02595  1.0000
  C   C30       1.0  0.25000  0.98997  0.17081  1.0000
  C   C31       1.0  0.75234  0.00736  0.19990  1.0000
  C   C32       1.0  0.75869  0.06751  0.37245  1.0000
  C   C33       1.0  0.22704  0.92933  0.37825  1.0000
  C   C34       1.0  0.00733  0.24306  0.35401  1.0000
  C   C35       1.0  0.06777  0.24142  0.12788  1.0000
  H   H17       1.0  0.27646  0.00823  0.08649  1.0000
  H   H18       1.0  0.73302  0.98670  0.13034  1.0000
  H   H19       1.0  0.74142  0.09294  0.44509  1.0000
  H   H20       1.0  0.23688  0.90157  0.46136  1.0000
  H   H21       1.0  0.98873  0.26051  0.45113  1.0000
  H   H22       1.0  0.09526  0.25945  0.04523  1.0000
  C   C36       1.0  0.26243  0.95428  0.27860  1.0000
  C   C37       1.0  0.73082  0.04078  0.29319  1.0000
  C   C38       1.0  0.04176  0.26608  0.24347  1.0000
  C   C39       1.0  0.99559  0.53737  0.27196  1.0000
  C   C40       1.0  0.99576  0.46588  0.27271  1.0000
  C   C41       1.0  0.03192  0.50141  0.28586  1.0000
  C   C42       1.0  0.95991  0.50174  0.25083  1.0000
  C   C43       1.0  0.99838  0.58500  0.28318  1.0000
  C   C44       1.0  0.99101  0.41776  0.27896  1.0000
  O   O1        1.0  0.07305  0.50191  0.30100  1.0000
  O   O2        1.0  0.91944  0.50062  0.22711  1.0000
  N   N5        1.0  0.96455  0.61210  0.24205  1.0000
  N   N6        1.0  0.02737  0.39072  0.28577  1.0000
  N   N7        1.0  0.97204  0.65689  0.25249  1.0000
  N   N8        1.0  0.01926  0.34561  0.28210  1.0000
  H   H23       1.0  0.00175  0.66693  0.29211  1.0000
  H   H24       1.0  0.98643  0.33348  0.27570  1.0000
  C   C45       1.0  0.94278  0.69090  0.19171  1.0000
  C   C46       1.0  0.05659  0.31481  0.24999  1.0000
  O   O3        1.0  0.91097  0.68026  0.12136  1.0000
  O   O4        1.0  0.09710  0.32695  0.22376  1.0000
  H   H25       1.0  0.95615  0.40402  0.27174  1.0000
  H   H26       1.0  0.02986  0.59972  0.32000  1.0000
  C   C47       1.0  0.53727  0.99583  0.19295  1.0000
  C   C48       1.0  0.46627  0.99710  0.18431  1.0000
  C   C49       1.0  0.50194  0.95969  0.18269  1.0000
  C   C50       1.0  0.50236  0.03372  0.18735  1.0000
  C   C51       1.0  0.58414  0.99077  0.21253  1.0000
  C   C52       1.0  0.41792  0.00079  0.19446  1.0000
  O   O5        1.0  0.50415  0.91788  0.17443  1.0000
  O   O6        1.0  0.50188  0.07566  0.18854  1.0000
  N   N9        1.0  0.60787  0.02605  0.24879  1.0000
  N   N10       1.0  0.39038  0.96409  0.22455  1.0000
  N   N11       1.0  0.65279  0.01838  0.25554  1.0000
  N   N12       1.0  0.34518  0.97345  0.23055  1.0000
  H   H27       1.0  0.66782  0.98880  0.21657  1.0000
  H   H28       1.0  0.33488  0.00696  0.20834  1.0000
  C   C53       1.0  0.68043  0.05143  0.31150  1.0000
  C   C54       1.0  0.31106  0.93921  0.28870  1.0000
  O   O7        1.0  0.66369  0.08571  0.37028  1.0000
  O   O8        1.0  0.32122  0.90113  0.34596  1.0000
  H   H29       1.0  0.40383  0.03589  0.18043  1.0000
  H   H30       1.0  0.59928  0.95620  0.19994  1.0000
  N   N13       1.0  0.04282  0.94223  0.73944  1.0000
  N   N14       1.0  0.95879  0.06032  0.74216  1.0000
  H   H31       1.0  0.02099  0.96908  0.76222  1.0000
  H   H32       1.0  0.97873  0.03277  0.77207  1.0000
  C   C55       1.0  0.09047  0.94414  0.73126  1.0000
  C   C56       1.0  0.91290  0.05813  0.71848  1.0000
  C   C57       1.0  0.02828  0.89953  0.70567  1.0000
  C   C58       1.0  0.97534  0.10506  0.71574  1.0000
  C   C59       1.0  0.10719  0.90053  0.68221  1.0000
  C   C60       1.0  0.90023  0.10392  0.66523  1.0000
  C   C61       1.0  0.06959  0.87415  0.66116  1.0000
  C   C62       1.0  0.93778  0.13247  0.66650  1.0000
  H   H33       1.0  0.14336  0.89074  0.66628  1.0000
  H   H34       1.0  0.86694  0.11368  0.62910  1.0000
  H   H35       1.0  0.07048  0.84026  0.61819  1.0000
  H   H36       1.0  0.93846  0.16940  0.63817  1.0000
  N   N15       1.0  0.05586  0.04147  0.75787  1.0000
  N   N16       1.0  0.94476  0.96007  0.74888  1.0000
  C   C63       1.0  0.09862  0.02610  0.79178  1.0000
  C   C64       1.0  0.89962  0.97367  0.78513  1.0000
  C   C65       1.0  0.94354  0.91282  0.77340  1.0000
  C   C66       1.0  0.05548  0.08789  0.77792  1.0000
  C   C67       1.0  0.12432  0.06300  0.84652  1.0000
  C   C68       1.0  0.86963  0.93443  0.84701  1.0000
  C   C69       1.0  0.89695  0.89645  0.83913  1.0000
  C   C70       1.0  0.09766  0.10143  0.83750  1.0000
  H   H37       1.0  0.15752  0.05973  0.88965  1.0000
  H   H38       1.0  0.83306  0.93560  0.89163  1.0000
  H   H39       1.0  0.88613  0.86118  0.87552  1.0000
  H   H40       1.0  0.10544  0.13515  0.87143  1.0000
  C   C71       1.0  0.11682  0.98168  0.76699  1.0000
  C   C72       1.0  0.88358  0.01902  0.75543  1.0000
  C   C73       1.0  0.98180  0.88366  0.73403  1.0000
  C   C74       1.0  0.01991  0.11918  0.74182  1.0000
  C   C75       1.0  0.97297  0.83386  0.72986  1.0000
  C   C76       1.0  0.00113  0.79988  0.79690  1.0000
  C   C77       1.0  0.93459  0.81859  0.66261  1.0000
  H   H41       1.0  0.02910  0.81028  0.85938  1.0000
  H   H42       1.0  0.91308  0.84413  0.60652  1.0000
  C   C78       1.0  0.99234  0.75308  0.79091  1.0000
  C   C79       1.0  0.92491  0.77192  0.66220  1.0000
  H   H43       1.0  0.01464  0.72839  0.84709  1.0000
  H   H44       1.0  0.89516  0.76030  0.61108  1.0000
  C   C80       1.0  0.95438  0.73820  0.72224  1.0000
  C   C81       1.0  0.00049  0.53580  0.76988  1.0000
  C   C82       1.0  0.00068  0.46393  0.78065  1.0000
  C   C83       1.0  0.03593  0.49972  0.79987  1.0000
  C   C84       1.0  0.96480  0.49961  0.75883  1.0000
  C   C85       1.0  0.00519  0.58412  0.75976  1.0000
  C   C86       1.0  0.99735  0.41631  0.77043  1.0000
  O   O9        1.0  0.07595  0.50015  0.83025  1.0000
  O   O10       1.0  0.92374  0.49847  0.73988  1.0000
  N   N17       1.0  0.97055  0.61156  0.72765  1.0000
  N   N18       1.0  0.03452  0.39006  0.76662  1.0000
  N   N19       1.0  0.97722  0.65661  0.73704  1.0000
  N   N20       1.0  0.02699  0.34585  0.74634  1.0000
  H   H45       1.0  0.00609  0.66779  0.78042  1.0000
  H   H46       1.0  0.99411  0.33508  0.73299  1.0000
  C   C87       1.0  0.94293  0.68926  0.70147  1.0000
  C   C88       1.0  0.06412  0.31396  0.73009  1.0000
  O   O11       1.0  0.90793  0.67836  0.64869  1.0000
  O   O12       1.0  0.10492  0.32426  0.72392  1.0000
  H   H47       1.0  0.96288  0.40196  0.76060  1.0000
  H   H48       1.0  0.03892  0.59749  0.78296  1.0000
  C   C89       1.0  0.53732  0.99987  0.72374  1.0000
  C   C90       1.0  0.46605  0.99978  0.71376  1.0000
  C   C91       1.0  0.50253  0.96326  0.71165  1.0000
  C   C92       1.0  0.50099  0.03643  0.71930  1.0000
  C   C93       1.0  0.58475  0.99504  0.73751  1.0000
  C   C94       1.0  0.41786  0.00475  0.71815  1.0000
  O   O13       1.0  0.50372  0.92117  0.70684  1.0000
  O   O14       1.0  0.49935  0.07858  0.72164  1.0000
  N   N21       1.0  0.61049  0.02986  0.76629  1.0000
  N   N22       1.0  0.39011  0.96832  0.74325  1.0000
  N   N23       1.0  0.65544  0.02044  0.76793  1.0000
  N   N24       1.0  0.34496  0.97691  0.74478  1.0000
  H   H49       1.0  0.66846  0.98927  0.73512  1.0000
  H   H50       1.0  0.33365  0.01005  0.72142  1.0000
  C   C95       1.0  0.68569  0.05406  0.80919  1.0000
  C   C96       1.0  0.31209  0.94040  0.78626  1.0000
  O   O15       1.0  0.67108  0.09037  0.85830  1.0000
  O   O16       1.0  0.32367  0.90124  0.83073  1.0000
  H   H51       1.0  0.40428  0.04016  0.70333  1.0000
  H   H52       1.0  0.59995  0.96059  0.72441  1.0000
  C   C97       1.0  0.80255  0.07130  0.86034  1.0000
  C   C98       1.0  0.82840  0.03520  0.79645  1.0000
  C  Sn1       1.0  0.80737  0.00299  0.71591  1.0000
  C  Sn2       1.0  0.75956  0.00710  0.69916  1.0000
  C   C99       1.0  0.73400  0.04336  0.76340  1.0000
  C   C100      1.0  0.75540  0.07539  0.84382  1.0000
  H   H53       1.0  0.81910  0.09610  0.92248  1.0000
  O  Te1       1.0  0.83045  0.96712  0.65286  1.0000
  O  Te2       1.0  0.73441  0.97539  0.61918  1.0000
  H   H54       1.0  0.73538  0.10335  0.89318  1.0000
  Mg  Mg1       1.0  0.78497  0.93251  0.55404  1.0000
  C   C101      1.0  0.21402  0.00611  0.67092  1.0000
  C   C102      1.0  0.17529  0.98039  0.74474  1.0000
  C  Sn3       1.0  0.17767  0.94037  0.84421  1.0000
  C  Sn4       1.0  0.22296  0.92593  0.87007  1.0000
  C   C103      1.0  0.26148  0.95193  0.79577  1.0000
  C   C104      1.0  0.25870  0.99191  0.69642  1.0000
  H   H55       1.0  0.20935  0.03706  0.59412  1.0000
  O  Te3       1.0  0.13861  0.91507  0.91697  1.0000
  O  Te4       1.0  0.22959  0.88609  0.96896  1.0000
  H   H56       1.0  0.28869  0.01183  0.63937  1.0000
  Mg  Mg2       1.0  0.20411  0.88983  0.04136  1.0000
  C   C105      1.0  0.99845  0.78818  0.33267  1.0000
  C   C106      1.0  0.98007  0.82660  0.25236  1.0000
  C  Sn5       1.0  0.94684  0.82082  0.15099  1.0000
  C  Sn6       1.0  0.93179  0.77569  0.12991  1.0000
  C   C107      1.0  0.95035  0.73748  0.21088  1.0000
  C   C108      1.0  0.98360  0.74366  0.31199  1.0000
  H   H57       1.0  0.02415  0.79296  0.41097  1.0000
  O  Te5       1.0  0.92886  0.85958  0.07162  1.0000
  O  Te6       1.0  0.89860  0.76892  0.02935  1.0000
  H   H58       1.0  0.99780  0.71390  0.37423  1.0000
  Mg  Mg3       1.0  0.84579  0.80598  0.94728  1.0000
  C   C109      1.0  0.07906  0.19866  0.63384  1.0000
  C   C110      1.0  0.04122  0.17302  0.71511  1.0000
  C  Sn7       1.0  0.00444  0.19512  0.79987  1.0000
  C  Sn8       1.0  0.00564  0.24380  0.80306  1.0000
  C   C111      1.0  0.04364  0.26914  0.72127  1.0000
  C   C112      1.0  0.08027  0.24668  0.63687  1.0000
  H   H59       1.0  0.10739  0.18128  0.56846  1.0000
  O  Te7       1.0  0.96691  0.16897  0.88046  1.0000
  O  Te8       1.0  0.96933  0.26676  0.88679  1.0000
  H   H60       1.0  0.10954  0.26654  0.57387  1.0000
  Mg  Mg4       1.0  0.92579  0.21605  0.97788  1.0000
