data_image0
_chemical_formula_structural       N4H4C16H8N4C16H8C12N8H2C4O2H2O2H2C4N8H2C4O2H2O2H6N4H4C16H8N4C16H8C12N8H2C4O2H2O2H2C4N8H2C4O2H2O2H6SnCSn2CSnTe4Mg2SnCSn2CSnTe4Mg2SnCSn2CSnTe4Mg2SnCSn2CSnTe4Mg2SnCSn2CSnTe4Mg2SnCSn2CSnTe4Mg2SnCSn2CSnTe4Mg2SnCSn2CSnTe4Mg2SnCSn2CSnTe4Mg2SnCSn2CSnTe4Mg2SnCSn2CSnTe4Mg2SnCSn2CSnTe4Mg2SnCSn2CSnTe4Mg2SnCSn2CSnTe4Mg2SnCSn2CSnTe4Mg2SnCSn2CSnTe4Mg2SnCSn2CSnTe4Mg2SnCSn2CSnTe4Mg2SnCSn2CSnTe4Mg2SnCSn2CSnTe4Mg2SnCSn2CSnTe4Mg2SnCSn2CSnTe4Mg2SnCSn2CSnTe4Mg2SnCSn2CSnTe4Mg2
_chemical_formula_sum              "N48 H72 C160 O16 Sn96 Te96 Mg48"
_cell_length_a       42.8402
_cell_length_b       41.3476
_cell_length_c       9.23621
_cell_angle_alpha    90.2263
_cell_angle_beta     95.7054
_cell_angle_gamma    90.1875

_symmetry_space_group_name_H-M    'P1'
_space_group_IT_number       1

loop_
  _space_group_symop_operation_xyz
  'x, y, z'

loop_
  _atom_site_type_symbol
  _atom_site_label
  _atom_site_symmetry_multiplicity
  _atom_site_fract_x
  _atom_site_fract_y
  _atom_site_fract_z
  _atom_site_occupancy
  N   N1        1.0  0.50670  0.45090  0.24798  1.0000
  N   N2        1.0  0.49081  0.55168  0.22851  1.0000
  N   N3        1.0  0.00842  0.95192  0.26849  1.0000
  N   N4        1.0  0.99101  0.05169  0.24872  1.0000
  H   H1        1.0  0.50351  0.47522  0.25970  1.0000
  H   H2        1.0  0.49469  0.52768  0.24900  1.0000
  H   H3        1.0  0.00501  0.97487  0.22986  1.0000
  H   H4        1.0  0.99272  0.02723  0.23516  1.0000
  C   C1        1.0  0.48316  0.42804  0.24494  1.0000
  C   C2        1.0  0.51399  0.57438  0.21544  1.0000
  C   C3        1.0  0.98535  0.93085  0.30226  1.0000
  C   C4        1.0  0.01526  0.07371  0.24925  1.0000
  C   C5        1.0  0.53474  0.43676  0.22186  1.0000
  C   C6        1.0  0.46149  0.56537  0.20259  1.0000
  C   C7        1.0  0.03777  0.93846  0.29846  1.0000
  C   C8        1.0  0.96384  0.06660  0.28199  1.0000
  C   C9        1.0  0.49694  0.39776  0.21083  1.0000
  C   C10       1.0  0.49835  0.60393  0.17267  1.0000
  C   C11       1.0  0.00111  0.90331  0.36773  1.0000
  C   C12       1.0  0.00293  0.10416  0.29186  1.0000
  C   C13       1.0  0.52810  0.40315  0.19401  1.0000
  C   C14       1.0  0.46645  0.59842  0.16422  1.0000
  C   C15       1.0  0.03303  0.90827  0.36882  1.0000
  C   C16       1.0  0.97184  0.09977  0.31336  1.0000
  H   H5        1.0  0.48431  0.37504  0.19971  1.0000
  H   H6        1.0  0.51023  0.62626  0.15072  1.0000
  H   H7        1.0  0.98944  0.88268  0.41029  1.0000
  H   H8        1.0  0.01628  0.12643  0.30433  1.0000
  H   H9        1.0  0.54509  0.38560  0.16485  1.0000
  H   H10       1.0  0.44786  0.61550  0.13449  1.0000
  H   H11       1.0  0.05158  0.89275  0.41631  1.0000
  H   H12       1.0  0.95579  0.11769  0.34814  1.0000
  N   N5        1.0  0.95305  0.99515  0.26655  1.0000
  N   N6        1.0  0.04537  0.00760  0.23020  1.0000
  N   N7        1.0  0.45228  0.49337  0.24479  1.0000
  N   N8        1.0  0.54530  0.50925  0.24007  1.0000
  C   C17       1.0  0.93827  0.96578  0.24190  1.0000
  C   C18       1.0  0.05728  0.03605  0.18255  1.0000
  C   C19       1.0  0.43836  0.46484  0.27980  1.0000
  C   C20       1.0  0.56051  0.53835  0.26635  1.0000
  C   C21       1.0  0.06601  0.98402  0.19556  1.0000
  C   C22       1.0  0.92972  0.01780  0.24966  1.0000
  C   C23       1.0  0.56834  0.48623  0.25740  1.0000
  C   C24       1.0  0.42973  0.51661  0.25391  1.0000
  C   C25       1.0  0.90498  0.97030  0.19595  1.0000
  C   C26       1.0  0.08473  0.03007  0.10515  1.0000
  C   C27       1.0  0.40683  0.47051  0.32134  1.0000
  C   C28       1.0  0.59372  0.53331  0.31236  1.0000
  C   C29       1.0  0.08975  0.99756  0.11019  1.0000
  C   C30       1.0  0.89954  0.00269  0.20372  1.0000
  C   C31       1.0  0.59868  0.50086  0.30468  1.0000
  C   C32       1.0  0.40131  0.50271  0.30355  1.0000
  H   H13       1.0  0.88824  0.95145  0.16172  1.0000
  H   H14       1.0  0.09757  0.04800  0.04974  1.0000
  H   H15       1.0  0.39145  0.45244  0.36067  1.0000
  H   H16       1.0  0.61069  0.55192  0.34688  1.0000
  H   H17       1.0  0.10690  0.98411  0.05622  1.0000
  H   H18       1.0  0.87753  0.01522  0.17828  1.0000
  H   H19       1.0  0.62044  0.48793  0.33115  1.0000
  H   H20       1.0  0.38046  0.51596  0.32437  1.0000
  C   C33       1.0  0.45179  0.43376  0.27098  1.0000
  C   C34       1.0  0.54656  0.56919  0.24434  1.0000
  C   C35       1.0  0.95269  0.93539  0.26938  1.0000
  C   C36       1.0  0.04548  0.06734  0.20843  1.0000
  C   C37       1.0  0.56408  0.45257  0.23239  1.0000
  C   C38       1.0  0.43285  0.54980  0.22107  1.0000
  C   C39       1.0  0.06519  0.95163  0.24657  1.0000
  C   C40       1.0  0.93413  0.05152  0.27398  1.0000
  C   C41       1.0  0.20748  0.80092  0.33223  1.0000
  C   C42       1.0  0.79013  0.19969  0.19259  1.0000
  C   C43       1.0  0.30171  0.70719  0.23905  1.0000
  C   C44       1.0  0.70852  0.30521  0.29918  1.0000
  N   N9        1.0  0.20345  0.82469  0.24088  1.0000
  N   N10       1.0  0.79665  0.17800  0.29239  1.0000
  N   N11       1.0  0.29748  0.67647  0.25748  1.0000
  N   N12       1.0  0.70168  0.32700  0.20023  1.0000
  N   N13       1.0  0.17978  0.84566  0.26490  1.0000
  N   N14       1.0  0.81695  0.15427  0.25904  1.0000
  N   N15       1.0  0.32131  0.65673  0.22909  1.0000
  N   N16       1.0  0.68137  0.35048  0.23610  1.0000
  H   H21       1.0  0.17145  0.84652  0.36685  1.0000
  H   H22       1.0  0.82009  0.14913  0.15071  1.0000
  C   C45       1.0  0.17347  0.87107  0.17267  1.0000
  C   C46       1.0  0.82693  0.13193  0.36313  1.0000
  C   C47       1.0  0.31764  0.62302  0.21976  1.0000
  C   C48       1.0  0.67099  0.37295  0.13366  1.0000
  O   O1        1.0  0.18754  0.87662  0.06382  1.0000
  O   O2        1.0  0.81595  0.13006  0.48294  1.0000
  H   H23       1.0  0.34158  0.66636  0.19728  1.0000
  H   H24       1.0  0.67826  0.35469  0.34508  1.0000
  O   O3        1.0  0.29248  0.60901  0.22184  1.0000
  O   O4        1.0  0.68117  0.37487  0.01221  1.0000
  H   H25       1.0  0.32302  0.71663  0.19649  1.0000
  H   H26       1.0  0.69841  0.30549  0.40389  1.0000
  C   C49       1.0  0.19854  0.20698  0.29719  1.0000
  C   C50       1.0  0.80516  0.79176  0.30512  1.0000
  C   C51       1.0  0.30171  0.29153  0.21135  1.0000
  C   C52       1.0  0.69873  0.70784  0.19021  1.0000
  N   N17       1.0  0.17649  0.20221  0.19203  1.0000
  N   N18       1.0  0.82424  0.79707  0.20681  1.0000
  N   N19       1.0  0.32424  0.29657  0.31402  1.0000
  N   N20       1.0  0.67969  0.70302  0.28915  1.0000
  N   N21       1.0  0.15317  0.18135  0.22239  1.0000
  N   N22       1.0  0.84812  0.81834  0.24841  1.0000
  N   N23       1.0  0.34748  0.31694  0.27845  1.0000
  N   N24       1.0  0.65506  0.68257  0.24893  1.0000
  H   H27       1.0  0.14954  0.17687  0.33038  1.0000
  H   H28       1.0  0.85429  0.82201  0.35964  1.0000
  C   C53       1.0  0.12953  0.17383  0.11619  1.0000
  C   C54       1.0  0.86914  0.82630  0.15253  1.0000
  C   C55       1.0  0.37074  0.32621  0.38359  1.0000
  C   C56       1.0  0.63431  0.67538  0.34743  1.0000
  O   O5        1.0  0.12677  0.18652  0.99335  1.0000
  O   O6        1.0  0.86893  0.81372  0.02934  1.0000
  H   H29       1.0  0.35091  0.32051  0.16965  1.0000
  H   H30       1.0  0.64814  0.67910  0.13813  1.0000
  O   O7        1.0  0.37328  0.31505  0.50928  1.0000
  O   O8        1.0  0.63581  0.68806  0.47087  1.0000
  H   H31       1.0  0.30130  0.30346  0.10518  1.0000
  H   H32       1.0  0.69545  0.69618  0.08281  1.0000
  H   H33       1.0  0.19252  0.79741  0.42071  1.0000
  H   H34       1.0  0.19876  0.19465  0.40240  1.0000
  H   H35       1.0  0.80043  0.19918  0.08836  1.0000
  H   H36       1.0  0.80802  0.80361  0.41210  1.0000
  N   N25       1.0  0.50832  0.44772  0.74286  1.0000
  N   N26       1.0  0.49232  0.54799  0.70790  1.0000
  N   N27       1.0  0.00844  0.94911  0.77244  1.0000
  N   N28       1.0  0.99359  0.04994  0.75436  1.0000
  H   H37       1.0  0.50563  0.47217  0.75195  1.0000
  H   H38       1.0  0.49570  0.52403  0.73110  1.0000
  H   H39       1.0  0.00522  0.97346  0.75937  1.0000
  H   H40       1.0  0.99633  0.02557  0.74213  1.0000
  C   C57       1.0  0.48449  0.42522  0.74203  1.0000
  C   C58       1.0  0.51573  0.57039  0.69490  1.0000
  C   C59       1.0  0.98485  0.92656  0.78024  1.0000
  C   C60       1.0  0.01742  0.07244  0.75505  1.0000
  C   C61       1.0  0.53623  0.43302  0.71901  1.0000
  C   C62       1.0  0.46322  0.56223  0.68445  1.0000
  C   C63       1.0  0.03724  0.93410  0.77738  1.0000
  C   C64       1.0  0.96570  0.06473  0.77827  1.0000
  C   C65       1.0  0.49794  0.39455  0.71143  1.0000
  C   C66       1.0  0.50047  0.60008  0.65134  1.0000
  C   C67       1.0  0.99990  0.89578  0.80083  1.0000
  C   C68       1.0  0.00396  0.10319  0.78419  1.0000
  C   C69       1.0  0.52920  0.39936  0.69472  1.0000
  C   C70       1.0  0.46853  0.59508  0.64426  1.0000
  C   C71       1.0  0.03159  0.90023  0.79575  1.0000
  C   C72       1.0  0.97271  0.09844  0.80111  1.0000
  H   H41       1.0  0.48500  0.37198  0.70241  1.0000
  H   H42       1.0  0.51263  0.62222  0.62904  1.0000
  H   H43       1.0  0.98778  0.87321  0.81527  1.0000
  H   H44       1.0  0.01695  0.12574  0.79242  1.0000
  H   H45       1.0  0.54597  0.38137  0.66761  1.0000
  H   H46       1.0  0.45015  0.61245  0.61552  1.0000
  H   H47       1.0  0.04950  0.88179  0.80214  1.0000
  H   H48       1.0  0.95588  0.11645  0.82749  1.0000
  N   N29       1.0  0.95427  0.99228  0.76597  1.0000
  N   N30       1.0  0.04734  0.00618  0.74481  1.0000
  N   N31       1.0  0.45378  0.49105  0.73555  1.0000
  N   N32       1.0  0.54695  0.50535  0.72856  1.0000
  C   C73       1.0  0.93861  0.96339  0.74133  1.0000
  C   C74       1.0  0.06242  0.03512  0.72819  1.0000
  C   C75       1.0  0.44008  0.46278  0.77498  1.0000
  C   C76       1.0  0.56208  0.53453  0.75356  1.0000
  C   C77       1.0  0.07004  0.98295  0.73881  1.0000
  C   C78       1.0  0.93148  0.01558  0.75007  1.0000
  C   C79       1.0  0.56996  0.48241  0.74967  1.0000
  C   C80       1.0  0.43150  0.51449  0.74727  1.0000
  C   C81       1.0  0.90532  0.96876  0.69913  1.0000
  C   C82       1.0  0.09537  0.03000  0.70724  1.0000
  C   C83       1.0  0.40902  0.46877  0.82132  1.0000
  C   C84       1.0  0.59517  0.52970  0.80236  1.0000
  C   C85       1.0  0.10027  0.99758  0.71692  1.0000
  C   C86       1.0  0.90079  0.00129  0.70653  1.0000
  C   C87       1.0  0.60020  0.49722  0.79756  1.0000
  C   C88       1.0  0.40362  0.50098  0.80347  1.0000
  H   H49       1.0  0.88805  0.95029  0.66671  1.0000
  H   H50       1.0  0.11224  0.04866  0.68841  1.0000
  H   H51       1.0  0.39393  0.45089  0.86418  1.0000
  H   H52       1.0  0.61197  0.54849  0.83662  1.0000
  H   H53       1.0  0.12208  0.98478  0.71060  1.0000
  H   H54       1.0  0.87913  0.01448  0.68202  1.0000
  H   H55       1.0  0.62194  0.48441  0.82627  1.0000
  H   H56       1.0  0.38316  0.51443  0.82818  1.0000
  C   C89       1.0  0.45324  0.43154  0.76757  1.0000
  C   C90       1.0  0.54816  0.56521  0.72842  1.0000
  C   C91       1.0  0.95234  0.93240  0.75829  1.0000
  C   C92       1.0  0.04896  0.06619  0.73459  1.0000
  C   C93       1.0  0.56568  0.44862  0.72863  1.0000
  C   C94       1.0  0.43468  0.54746  0.71091  1.0000
  C   C95       1.0  0.06590  0.94932  0.75629  1.0000
  C   C96       1.0  0.93623  0.04928  0.77165  1.0000
  C   C97       1.0  0.21444  0.80277  0.86751  1.0000
  C   C98       1.0  0.78965  0.19454  0.70003  1.0000
  C   C99       1.0  0.29971  0.70354  0.72576  1.0000
  C   C100      1.0  0.70895  0.30048  0.80967  1.0000
  N   N33       1.0  0.20322  0.82104  0.76111  1.0000
  N   N34       1.0  0.79709  0.17331  0.80081  1.0000
  N   N35       1.0  0.30055  0.67500  0.78361  1.0000
  N   N36       1.0  0.70260  0.32228  0.71025  1.0000
  N   N37       1.0  0.18253  0.84466  0.79154  1.0000
  N   N38       1.0  0.81758  0.14988  0.76611  1.0000
  N   N39       1.0  0.32348  0.65501  0.74421  1.0000
  N   N40       1.0  0.68306  0.34652  0.74526  1.0000
  H   H57       1.0  0.18275  0.85399  0.89646  1.0000
  H   H58       1.0  0.82062  0.14518  0.65749  1.0000
  C   C101      1.0  0.16670  0.86014  0.67480  1.0000
  C   C102      1.0  0.82893  0.12833  0.87063  1.0000
  C   C103      1.0  0.32239  0.62169  0.76555  1.0000
  C   C104      1.0  0.67263  0.36850  0.64057  1.0000
  O   O9        1.0  0.17175  0.85375  0.54750  1.0000
  O   O10       1.0  0.81918  0.12676  0.99319  1.0000
  H   H59       1.0  0.34002  0.66370  0.68146  1.0000
  H   H60       1.0  0.68044  0.35192  0.85386  1.0000
  O   O11       1.0  0.29997  0.60724  0.80781  1.0000
  O   O12       1.0  0.68279  0.36985  0.51885  1.0000
  H   H61       1.0  0.31546  0.71020  0.64352  1.0000
  H   H62       1.0  0.69901  0.30129  0.91474  1.0000
  C   C105      1.0  0.19628  0.21187  0.80583  1.0000
  C   C106      1.0  0.80264  0.79161  0.81160  1.0000
  C   C107      1.0  0.30232  0.29007  0.69782  1.0000
  C   C108      1.0  0.69648  0.70777  0.69569  1.0000
  N   N41       1.0  0.17593  0.20389  0.69788  1.0000
  N   N42       1.0  0.82175  0.79610  0.71270  1.0000
  N   N43       1.0  0.32316  0.29735  0.80489  1.0000
  N   N44       1.0  0.67710  0.70300  0.79322  1.0000
  N   N45       1.0  0.15189  0.18437  0.73139  1.0000
  N   N46       1.0  0.84605  0.81694  0.75181  1.0000
  N   N47       1.0  0.34744  0.31642  0.77049  1.0000
  N   N48       1.0  0.65325  0.68172  0.75197  1.0000
  H   H63       1.0  0.14602  0.18293  0.83809  1.0000
  H   H64       1.0  0.85278  0.82090  0.86232  1.0000
  C   C109      1.0  0.13185  0.17189  0.61995  1.0000
  C   C110      1.0  0.86653  0.82466  0.65310  1.0000
  C   C111      1.0  0.36877  0.32728  0.88065  1.0000
  C   C112      1.0  0.63228  0.67383  0.84799  1.0000
  O   O13       1.0  0.13280  0.17994  0.49068  1.0000
  O   O14       1.0  0.86550  0.81190  0.52989  1.0000
  H   H65       1.0  0.35290  0.31812  0.66318  1.0000
  H   H66       1.0  0.64722  0.67786  0.64085  1.0000
  O   O15       1.0  0.36874  0.31828  0.00919  1.0000
  O   O16       1.0  0.63263  0.68647  0.97120  1.0000
  H   H67       1.0  0.30392  0.29891  0.58681  1.0000
  H   H68       1.0  0.69388  0.69548  0.58969  1.0000
  H   H69       1.0  0.20766  0.80502  0.97878  1.0000
  H   H70       1.0  0.19458  0.20325  0.91715  1.0000
  H   H71       1.0  0.79927  0.19389  0.59417  1.0000
  H   H72       1.0  0.80570  0.80376  0.91793  1.0000
  C  Sn1       1.0  0.93067  0.85360  0.17413  1.0000
  C   C113      1.0  0.90132  0.84861  0.22430  1.0000
  C  Sn2       1.0  0.88582  0.87407  0.28626  1.0000
  C  Sn3       1.0  0.89994  0.90516  0.29825  1.0000
  C   C114      1.0  0.92927  0.91014  0.24808  1.0000
  C  Sn4       1.0  0.94479  0.88469  0.18612  1.0000
  O  Te1       1.0  0.94573  0.82780  0.11256  1.0000
  O  Te2       1.0  0.85650  0.86849  0.33568  1.0000
  O  Te3       1.0  0.88485  0.93096  0.35988  1.0000
  O  Te4       1.0  0.97409  0.89026  0.13670  1.0000
  Mg  Mg1       1.0  0.84524  0.91132  0.41131  1.0000
  Mg  Mg2       1.0  0.98535  0.84745  0.06099  1.0000
  C  Sn5       1.0  0.10009  0.10455  0.29751  1.0000
  C   C115      1.0  0.06944  0.10014  0.23312  1.0000
  C  Sn6       1.0  0.05806  0.11875  0.11356  1.0000
  C  Sn7       1.0  0.07773  0.14225  0.05712  1.0000
  C   C116      1.0  0.10835  0.14665  0.12148  1.0000
  C  Sn8       1.0  0.11975  0.12805  0.24107  1.0000
  O  Te5       1.0  0.11097  0.08568  0.41694  1.0000
  O  Te6       1.0  0.02734  0.11390  0.05105  1.0000
  O  Te7       1.0  0.08825  0.16208  0.93759  1.0000
  O  Te8       1.0  0.15046  0.13288  0.30355  1.0000
  Mg  Mg3       1.0  0.04469  0.14650  0.89004  1.0000
  Mg  Mg4       1.0  0.15458  0.10124  0.46451  1.0000
  C  Sn9       1.0  0.38920  0.37642  0.19174  1.0000
  C   C117      1.0  0.39439  0.35176  0.29426  1.0000
  C  Sn10      1.0  0.41821  0.35473  0.40835  1.0000
  C  Sn11      1.0  0.43723  0.38294  0.42027  1.0000
  C   C118      1.0  0.43203  0.40758  0.31781  1.0000
  C  Sn12      1.0  0.40822  0.40463  0.20366  1.0000
  O  Te9       1.0  0.36525  0.37294  0.07858  1.0000
  O  Te10      1.0  0.42297  0.32975  0.50950  1.0000
  O  Te11      1.0  0.46120  0.38641  0.53355  1.0000
  O  Te12      1.0  0.40346  0.42959  0.10257  1.0000
  Mg  Mg5       1.0  0.45852  0.34578  0.64433  1.0000
  Mg  Mg6       1.0  0.38934  0.41455  0.96775  1.0000
  C  Sn13      1.0  0.55995  0.63540  0.32640  1.0000
  C   C119      1.0  0.56210  0.60810  0.23832  1.0000
  C  Sn14      1.0  0.59063  0.59984  0.18713  1.0000
  C  Sn15      1.0  0.61759  0.61925  0.22484  1.0000
  C   C120      1.0  0.61544  0.64653  0.31289  1.0000
  C  Sn16      1.0  0.58691  0.65482  0.36411  1.0000
  O  Te13      1.0  0.53118  0.64321  0.37635  1.0000
  O  Te14      1.0  0.59220  0.57243  0.09918  1.0000
  O  Te15      1.0  0.64637  0.61142  0.17480  1.0000
  O  Te16      1.0  0.58534  0.68220  0.45203  1.0000
  Mg  Mg7       1.0  0.63667  0.57176  0.05806  1.0000
  Mg  Mg8       1.0  0.54088  0.68289  0.49327  1.0000
  C  Sn17      1.0  0.12888  0.94333  0.20583  1.0000
  C   C121      1.0  0.09784  0.93346  0.21304  1.0000
  C  Sn18      1.0  0.09058  0.90073  0.22668  1.0000
  C  Sn19      1.0  0.11484  0.87736  0.23335  1.0000
  C   C122      1.0  0.14585  0.88723  0.22617  1.0000
  C  Sn20      1.0  0.15314  0.91996  0.21250  1.0000
  O  Te17      1.0  0.13561  0.97618  0.19220  1.0000
  O  Te18      1.0  0.05937  0.89145  0.23363  1.0000
  O  Te19      1.0  0.10809  0.84449  0.24699  1.0000
  O  Te20      1.0  0.18433  0.92924  0.20558  1.0000
  Mg  Mg9       1.0  0.06201  0.84382  0.25216  1.0000
  Mg  Mg10      1.0  0.18172  0.97686  0.18713  1.0000
  C  Sn21      1.0  0.90207  0.11184  0.24919  1.0000
  C   C123      1.0  0.90923  0.08134  0.30784  1.0000
  C  Sn22      1.0  0.88650  0.06345  0.37134  1.0000
  C  Sn23      1.0  0.85597  0.07631  0.37625  1.0000
  C   C124      1.0  0.84883  0.10679  0.31761  1.0000
  C  Sn24      1.0  0.87154  0.12470  0.25410  1.0000
  O  Te21      1.0  0.92516  0.12929  0.18623  1.0000
  O  Te22      1.0  0.89422  0.03302  0.42930  1.0000
  O  Te23      1.0  0.83288  0.05883  0.43929  1.0000
  O  Te24      1.0  0.86384  0.15511  0.19615  1.0000
  Mg  Mg11      1.0  0.85473  0.01849  0.50351  1.0000
  Mg  Mg12      1.0  0.90331  0.16965  0.12186  1.0000
  C  Sn25      1.0  0.61511  0.43541  0.07682  1.0000
  C   C125      1.0  0.59223  0.42998  0.17190  1.0000
  C  Sn26      1.0  0.59715  0.40715  0.28280  1.0000
  C  Sn27      1.0  0.62554  0.38938  0.29908  1.0000
  C   C126      1.0  0.64840  0.39481  0.20405  1.0000
  C  Sn28      1.0  0.64349  0.41764  0.09310  1.0000
  O  Te25      1.0  0.63112  0.45932  0.96673  1.0000
  O  Te26      1.0  0.57394  0.40214  0.37649  1.0000
  O  Te27      1.0  0.63094  0.36641  0.40927  1.0000
  O  Te28      1.0  0.68813  0.42361  0.99946  1.0000
  Mg  Mg13      1.0  0.59226  0.36826  0.50966  1.0000
  Mg  Mg14      1.0  0.66984  0.45749  0.86631  1.0000
  C  Sn29      1.0  0.35136  0.56760  0.14739  1.0000
  C   C127      1.0  0.34624  0.59546  0.22771  1.0000
  C  Sn30      1.0  0.37157  0.61314  0.29459  1.0000
  C  Sn31      1.0  0.40267  0.60276  0.28084  1.0000
  C   C128      1.0  0.40777  0.57491  0.20054  1.0000
  C  Sn32      1.0  0.38245  0.55722  0.13363  1.0000
  O  Te29      1.0  0.32568  0.55030  0.08144  1.0000
  O  Te30      1.0  0.36587  0.64091  0.37437  1.0000
  O  Te31      1.0  0.42835  0.62008  0.34687  1.0000
  O  Te32      1.0  0.38814  0.52946  0.05388  1.0000
  Mg  Mg15      1.0  0.40856  0.65632  0.44404  1.0000
  Mg  Mg16      1.0  0.36690  0.51500  0.98410  1.0000
  C  Sn33      1.0  0.26133  0.78107  0.20269  1.0000
  C   C129      1.0  0.23344  0.77677  0.26703  1.0000
  C  Sn34      1.0  0.22888  0.74917  0.34919  1.0000
  C  Sn35      1.0  0.25271  0.72538  0.36751  1.0000
  C   C130      1.0  0.28058  0.72968  0.30322  1.0000
  C  Sn36      1.0  0.28516  0.75728  0.22102  1.0000
  O  Te33      1.0  0.26539  0.80885  0.12102  1.0000
  O  Te34      1.0  0.20080  0.74540  0.41241  1.0000
  O  Te35      1.0  0.24863  0.69758  0.44926  1.0000
  O  Te36      1.0  0.31323  0.76105  0.15784  1.0000
  Mg  Mg17      1.0  0.20632  0.70342  0.51390  1.0000
  Mg  Mg18      1.0  0.30774  0.80303  0.05639  1.0000
  C  Sn37      1.0  0.73444  0.22433  0.29589  1.0000
  C   C131      1.0  0.75874  0.22348  0.20560  1.0000
  C  Sn38      1.0  0.77115  0.25218  0.15576  1.0000
  C  Sn39      1.0  0.75904  0.28235  0.19709  1.0000
  C   C132      1.0  0.73476  0.28319  0.28734  1.0000
  C  Sn40      1.0  0.72232  0.25451  0.33722  1.0000
  O  Te37      1.0  0.72238  0.19535  0.34443  1.0000
  O  Te38      1.0  0.79543  0.25071  0.06555  1.0000
  O  Te39      1.0  0.77111  0.31135  0.14845  1.0000
  O  Te40      1.0  0.69806  0.25596  0.42739  1.0000
  Mg  Mg19      1.0  0.80409  0.29681  0.02758  1.0000
  Mg  Mg20      1.0  0.68939  0.20988  0.46548  1.0000
  C  Sn41      1.0  0.25792  0.23376  0.39184  1.0000
  C   C133      1.0  0.22761  0.23438  0.32029  1.0000
  C  Sn42      1.0  0.22139  0.25160  0.19087  1.0000
  C  Sn43      1.0  0.24597  0.26853  0.13167  1.0000
  C   C134      1.0  0.27626  0.26790  0.20319  1.0000
  C  Sn44      1.0  0.28250  0.25070  0.33264  1.0000
  O  Te41      1.0  0.26360  0.21639  0.52108  1.0000
  O  Te42      1.0  0.19089  0.25187  0.12134  1.0000
  O  Te43      1.0  0.24026  0.28591  0.00232  1.0000
  O  Te44      1.0  0.31297  0.25042  0.40214  1.0000
  Mg  Mg21      1.0  0.21630  0.27995  0.94790  1.0000
  Mg  Mg22      1.0  0.30903  0.22329  0.57553  1.0000
  C  Sn45      1.0  0.77033  0.74575  0.12687  1.0000
  C   C135      1.0  0.77505  0.77056  0.22998  1.0000
  C  Sn46      1.0  0.75544  0.77337  0.34150  1.0000
  C  Sn47      1.0  0.73062  0.75090  0.35021  1.0000
  C   C136      1.0  0.72592  0.72611  0.24716  1.0000
  C  Sn48      1.0  0.74550  0.72328  0.13558  1.0000
  O  Te45      1.0  0.79021  0.74340  0.01633  1.0000
  O  Te46      1.0  0.76061  0.79839  0.44329  1.0000
  O  Te47      1.0  0.71073  0.75327  0.46088  1.0000
  O  Te48      1.0  0.74035  0.69828  0.03385  1.0000
  Mg  Mg23      1.0  0.72724  0.79149  0.57377  1.0000
  Mg  Mg24      1.0  0.79515  0.70609  0.90339  1.0000
  C  Sn49      1.0  0.88248  0.88631  0.78043  1.0000
  C   C137      1.0  0.88431  0.85996  0.68649  1.0000
  C  Sn50      1.0  0.91235  0.85301  0.62768  1.0000
  C  Sn51      1.0  0.93913  0.87281  0.66358  1.0000
  C   C138      1.0  0.93729  0.89914  0.75749  1.0000
  C  Sn52      1.0  0.90925  0.90611  0.81633  1.0000
  O  Te49      1.0  0.85421  0.89280  0.83796  1.0000
  O  Te50      1.0  0.91361  0.82654  0.53397  1.0000
  O  Te51      1.0  0.96741  0.86629  0.60596  1.0000
  O  Te52      1.0  0.90799  0.93255  0.91001  1.0000
  Mg  Mg25      1.0  0.95745  0.82753  0.48340  1.0000
  Mg  Mg26      1.0  0.86418  0.93157  0.96070  1.0000
  C  Sn53      1.0  0.09793  0.11124  0.83488  1.0000
  C   C139      1.0  0.07004  0.10188  0.75396  1.0000
  C  Sn54      1.0  0.06273  0.11341  0.61274  1.0000
  C  Sn55      1.0  0.08374  0.13471  0.55106  1.0000
  C   C140      1.0  0.11161  0.14406  0.63196  1.0000
  C  Sn56      1.0  0.11894  0.13255  0.77321  1.0000
  O  Te53      1.0  0.10477  0.09941  0.97586  1.0000
  O  Te54      1.0  0.03470  0.10372  0.53398  1.0000
  O  Te55      1.0  0.07688  0.14654  0.40997  1.0000
  O  Te56      1.0  0.14695  0.14222  0.85194  1.0000
  Mg  Mg27      1.0  0.03584  0.12635  0.34605  1.0000
  Mg  Mg28      1.0  0.12441  0.11864  0.03984  1.0000
  C  Sn57      1.0  0.44220  0.36810  0.87859  1.0000
  C   C141      1.0  0.43766  0.39303  0.77703  1.0000
  C  Sn58      1.0  0.40766  0.39974  0.71064  1.0000
  C  Sn59      1.0  0.38166  0.38115  0.74657  1.0000
  C   C142      1.0  0.38621  0.35624  0.84809  1.0000
  C  Sn60      1.0  0.41620  0.34951  0.91452  1.0000
  O  Te57      1.0  0.47240  0.36182  0.94362  1.0000
  O  Te58      1.0  0.40371  0.42477  0.60940  1.0000
  O  Te59      1.0  0.35145  0.38745  0.68143  1.0000
  O  Te60      1.0  0.39872  0.32354  0.01572  1.0000
  Mg  Mg29      1.0  0.35800  0.42405  0.55023  1.0000
  Mg  Mg30      1.0  0.44441  0.32425  0.07501  1.0000
  C  Sn61      1.0  0.58063  0.63609  0.90120  1.0000
  C   C143      1.0  0.60837  0.64266  0.83879  1.0000
  C  Sn62      1.0  0.61514  0.62636  0.71296  1.0000
  C  Sn63      1.0  0.59373  0.60301  0.64810  1.0000
  C   C144      1.0  0.56602  0.59646  0.71049  1.0000
  C  Sn64      1.0  0.55923  0.61275  0.83634  1.0000
  O  Te61      1.0  0.55291  0.65173  0.02700  1.0000
  O  Te62      1.0  0.64302  0.63332  0.65259  1.0000
  O  Te63      1.0  0.60005  0.58642  0.52221  1.0000
  O  Te64      1.0  0.53136  0.60580  0.89668  1.0000
  Mg  Mg31      1.0  0.64110  0.60436  0.48069  1.0000
  Mg  Mg32      1.0  0.51182  0.63380  0.06853  1.0000
  C  Sn65      1.0  0.11535  0.88096  0.82927  1.0000
  C   C145      1.0  0.13309  0.87797  0.71091  1.0000
  C  Sn66      1.0  0.13332  0.90273  0.60858  1.0000
  C  Sn67      1.0  0.11545  0.93110  0.62493  1.0000
  C   C146      1.0  0.09772  0.93409  0.74323  1.0000
  C  Sn68      1.0  0.09748  0.90933  0.84561  1.0000
  O  Te65      1.0  0.11547  0.85590  0.93025  1.0000
  O  Te66      1.0  0.15123  0.89918  0.49114  1.0000
  O  Te67      1.0  0.11534  0.95616  0.52382  1.0000
  O  Te68      1.0  0.07958  0.91287  0.96300  1.0000
  Mg  Mg33      1.0  0.14348  0.94001  0.38240  1.0000
  Mg  Mg34      1.0  0.06589  0.87112  0.07185  1.0000
  C  Sn69      1.0  0.87110  0.07815  0.94354  1.0000
  C   C147      1.0  0.86118  0.10658  0.87194  1.0000
  C  Sn70      1.0  0.87331  0.11546  0.74288  1.0000
  C  Sn71      1.0  0.89582  0.09549  0.68408  1.0000
  C   C148      1.0  0.90573  0.06708  0.75565  1.0000
  C  Sn72      1.0  0.89361  0.05819  0.88474  1.0000
  O  Te69      1.0  0.83722  0.06879  0.07242  1.0000
  O  Te70      1.0  0.86304  0.14399  0.67329  1.0000
  O  Te71      1.0  0.90826  0.10392  0.55509  1.0000
  O  Te72      1.0  0.90387  0.02967  0.95430  1.0000
  Mg  Mg35      1.0  0.88689  0.14510  0.50044  1.0000
  Mg  Mg36      1.0  0.85858  0.02757  0.12710  1.0000
  C  Sn73      1.0  0.60878  0.39819  0.82739  1.0000
  C   C149      1.0  0.60037  0.42761  0.76081  1.0000
  C  Sn74      1.0  0.61376  0.43729  0.63601  1.0000
  C  Sn75      1.0  0.63600  0.41712  0.57644  1.0000
  C   C150      1.0  0.64439  0.38771  0.64299  1.0000
  C  Sn76      1.0  0.63102  0.37802  0.76782  1.0000
  O  Te73      1.0  0.59509  0.38900  0.95207  1.0000
  O  Te74      1.0  0.60499  0.46682  0.57141  1.0000
  O  Te75      1.0  0.64968  0.42633  0.45166  1.0000
  O  Te76      1.0  0.63977  0.34850  0.83240  1.0000
  Mg  Mg37      1.0  0.63015  0.46874  0.40304  1.0000
  Mg  Mg38      1.0  0.59317  0.34559  0.00071  1.0000
  C  Sn77      1.0  0.39005  0.61803  0.77923  1.0000
  C   C151      1.0  0.35980  0.61244  0.71226  1.0000
  C  Sn78      1.0  0.35166  0.58227  0.65088  1.0000
  C  Sn79      1.0  0.37422  0.55716  0.65663  1.0000
  C   C152      1.0  0.40445  0.56275  0.72358  1.0000
  C  Sn80      1.0  0.41261  0.59292  0.78498  1.0000
  O  Te77      1.0  0.39767  0.64838  0.83989  1.0000
  O  Te78      1.0  0.32128  0.57725  0.58447  1.0000
  O  Te79      1.0  0.36658  0.52679  0.59589  1.0000
  O  Te80      1.0  0.44298  0.59794  0.85138  1.0000
  Mg  Mg39      1.0  0.32216  0.53175  0.51745  1.0000
  Mg  Mg40      1.0  0.44211  0.64342  0.91849  1.0000
  C  Sn81      1.0  0.24713  0.72413  0.86833  1.0000
  C   C153      1.0  0.26754  0.72421  0.75933  1.0000
  C  Sn82      1.0  0.27515  0.75316  0.69351  1.0000
  C  Sn83      1.0  0.26210  0.78266  0.73762  1.0000
  C   C154      1.0  0.24171  0.78257  0.84656  1.0000
  C  Sn84      1.0  0.23408  0.75363  0.91243  1.0000
  O  Te81      1.0  0.23985  0.69491  0.93263  1.0000
  O  Te82      1.0  0.29560  0.75262  0.58475  1.0000
  O  Te83      1.0  0.26940  0.81189  0.67320  1.0000
  O  Te84      1.0  0.19221  0.75321  0.02115  1.0000
  Mg  Mg41      1.0  0.29839  0.79871  0.52989  1.0000
  Mg  Mg42      1.0  0.18942  0.70714  0.07613  1.0000
  C  Sn85      1.0  0.73681  0.24053  0.88940  1.0000
  C   C155      1.0  0.73547  0.27093  0.82352  1.0000
  C  Sn86      1.0  0.74908  0.27596  0.69414  1.0000
  C  Sn87      1.0  0.76435  0.25006  0.62920  1.0000
  C   C156      1.0  0.76568  0.21968  0.69506  1.0000
  C  Sn88      1.0  0.75208  0.21463  0.82446  1.0000
  O  Te85      1.0  0.70160  0.23509  0.01872  1.0000
  O  Te86      1.0  0.74745  0.30657  0.63034  1.0000
  O  Te87      1.0  0.77813  0.25456  0.49978  1.0000
  O  Te88      1.0  0.75370  0.18404  0.88824  1.0000
  Mg  Mg43      1.0  0.76974  0.30065  0.45437  1.0000
  Mg  Mg44      1.0  0.70997  0.18897  0.06415  1.0000
  C  Sn89      1.0  0.27563  0.23655  0.83319  1.0000
  C   C157      1.0  0.27797  0.25919  0.72281  1.0000
  C  Sn90      1.0  0.25097  0.27120  0.64417  1.0000
  C  Sn91      1.0  0.22101  0.26037  0.67659  1.0000
  C   C158      1.0  0.21868  0.23775  0.78693  1.0000
  C  Sn92      1.0  0.24566  0.22572  0.86561  1.0000
  O  Te89      1.0  0.30293  0.22488  0.91042  1.0000
  O  Te90      1.0  0.25390  0.29381  0.53427  1.0000
  O  Te91      1.0  0.19370  0.27207  0.59925  1.0000
  O  Te92      1.0  0.24274  0.20313  0.97546  1.0000
  Mg  Mg45      1.0  0.20983  0.30259  0.45962  1.0000
  Mg  Mg46      1.0  0.26536  0.19340  0.05023  1.0000
  C  Sn93      1.0  0.74606  0.76524  0.88985  1.0000
  C   C159      1.0  0.77404  0.76476  0.82393  1.0000
  C  Sn94      1.0  0.77581  0.74796  0.69349  1.0000
  C  Sn95      1.0  0.74906  0.73132  0.62752  1.0000
  C   C160      1.0  0.72110  0.73180  0.69341  1.0000
  C  Sn96      1.0  0.71930  0.74859  0.82387  1.0000
  O  Te93      1.0  0.72338  0.78123  0.02023  1.0000
  O  Te94      1.0  0.80404  0.74783  0.62967  1.0000
  O  Te95      1.0  0.75032  0.71436  0.49704  1.0000
  O  Te96      1.0  0.69109  0.74874  0.88767  1.0000
  Mg  Mg47      1.0  0.79405  0.72131  0.45204  1.0000
  Mg  Mg48      1.0  0.67962  0.77430  0.06525  1.0000
