data_image0
_chemical_formula_structural       N2H2C8H4N2C8H4C10O2N4H2C2O2H2C6O2N4H2C2O2H2N2H2C8H4N2C8H4C10O2N4H2C2O2H2C6O2N4H2C2O2H2SnCSn2CSnTe4Mg2SnCSn2CSnTe4Mg2SnCSn2CSnTe4Mg2SnCSn2CSnTe4Mg2SnCSn2CSnTe4Mg2SnCSn2CSnTe4Mg2SnCSn2CSnTe4Mg2SnCSn2CSnTe4Mg2
_chemical_formula_sum              "N24 H36 C88 O16 Sn32 Te32 Mg16"
_cell_length_a       29.0623
_cell_length_b       29.078
_cell_length_c       8.50491
_cell_angle_alpha    84.7535
_cell_angle_beta     82.4014
_cell_angle_gamma    89.8135

_symmetry_space_group_name_H-M    'P1'
_space_group_IT_number       1

loop_
  _space_group_symop_operation_xyz
  'x, y, z'

loop_
  _atom_site_type_symbol
  _atom_site_label
  _atom_site_symmetry_multiplicity
  _atom_site_fract_x
  _atom_site_fract_y
  _atom_site_fract_z
  _atom_site_occupancy
  N   N1        1.0  0.04339  0.94410  0.24162  1.0000
  N   N2        1.0  0.95515  0.06082  0.25014  1.0000
  H   H1        1.0  0.02222  0.97207  0.25294  1.0000
  H   H2        1.0  0.97561  0.03215  0.25530  1.0000
  C   C1        1.0  0.09105  0.94536  0.23793  1.0000
  C   C2        1.0  0.90791  0.05986  0.24246  1.0000
  C   C3        1.0  0.02828  0.90015  0.22505  1.0000
  C   C4        1.0  0.97167  0.10580  0.23396  1.0000
  C   C5        1.0  0.10705  0.89942  0.21421  1.0000
  C   C6        1.0  0.89391  0.10706  0.21738  1.0000
  C   C7        1.0  0.06902  0.87246  0.20354  1.0000
  C   C8        1.0  0.93237  0.13481  0.21288  1.0000
  H   H3        1.0  0.14288  0.88848  0.20774  1.0000
  H   H4        1.0  0.85908  0.11865  0.20262  1.0000
  H   H5        1.0  0.06832  0.83638  0.18366  1.0000
  H   H6        1.0  0.93279  0.17220  0.19679  1.0000
  N   N3        1.0  0.05645  0.04385  0.24238  1.0000
  N   N4        1.0  0.94264  0.96174  0.24051  1.0000
  C   C9        1.0  0.10103  0.03018  0.25765  1.0000
  C   C10       1.0  0.89658  0.97420  0.26369  1.0000
  C   C11       1.0  0.94240  0.91421  0.25425  1.0000
  C   C12       1.0  0.05659  0.09092  0.24870  1.0000
  C   C13       1.0  0.12978  0.06944  0.27988  1.0000
  C   C14       1.0  0.86666  0.93350  0.29917  1.0000
  C   C15       1.0  0.89506  0.89629  0.29375  1.0000
  C   C16       1.0  0.10237  0.10739  0.27287  1.0000
  H   H7        1.0  0.16578  0.06771  0.29894  1.0000
  H   H8        1.0  0.82922  0.93370  0.32474  1.0000
  H   H9        1.0  0.88503  0.86029  0.31466  1.0000
  H   H10       1.0  0.11191  0.14275  0.28481  1.0000
  C   C17       1.0  0.11810  0.98464  0.25201  1.0000
  C   C18       1.0  0.87938  0.02000  0.25679  1.0000
  C   C19       1.0  0.98176  0.88505  0.23611  1.0000
  C   C20       1.0  0.01786  0.12020  0.23720  1.0000
  C   C21       1.0  0.99559  0.53737  0.27196  1.0000
  C   C22       1.0  0.99576  0.46588  0.27271  1.0000
  C   C23       1.0  0.03192  0.50141  0.28586  1.0000
  C   C24       1.0  0.95991  0.50174  0.25083  1.0000
  C   C25       1.0  0.99838  0.58500  0.28318  1.0000
  C   C26       1.0  0.99101  0.41776  0.27896  1.0000
  O   O1        1.0  0.07305  0.50191  0.30100  1.0000
  O   O2        1.0  0.91944  0.50062  0.22711  1.0000
  N   N5        1.0  0.96455  0.61210  0.24205  1.0000
  N   N6        1.0  0.02737  0.39072  0.28577  1.0000
  N   N7        1.0  0.97204  0.65689  0.25249  1.0000
  N   N8        1.0  0.01926  0.34561  0.28210  1.0000
  H   H11       1.0  0.00175  0.66693  0.29211  1.0000
  H   H12       1.0  0.98643  0.33348  0.27570  1.0000
  C   C27       1.0  0.94278  0.69090  0.19171  1.0000
  C   C28       1.0  0.05659  0.31481  0.24999  1.0000
  O   O3        1.0  0.91097  0.68026  0.12136  1.0000
  O   O4        1.0  0.09710  0.32695  0.22376  1.0000
  H   H13       1.0  0.95615  0.40402  0.27174  1.0000
  H   H14       1.0  0.02986  0.59972  0.32000  1.0000
  C   C29       1.0  0.53727  0.99583  0.19295  1.0000
  C   C30       1.0  0.46627  0.99710  0.18431  1.0000
  C   C31       1.0  0.50194  0.95969  0.18269  1.0000
  C   C32       1.0  0.50236  0.03372  0.18735  1.0000
  C   C33       1.0  0.58414  0.99077  0.21253  1.0000
  C   C34       1.0  0.41792  0.00079  0.19446  1.0000
  O   O5        1.0  0.50415  0.91788  0.17443  1.0000
  O   O6        1.0  0.50188  0.07566  0.18854  1.0000
  N   N9        1.0  0.60787  0.02605  0.24879  1.0000
  N   N10       1.0  0.39038  0.96409  0.22455  1.0000
  N   N11       1.0  0.65279  0.01838  0.25554  1.0000
  N   N12       1.0  0.34518  0.97345  0.23055  1.0000
  H   H15       1.0  0.66782  0.98880  0.21657  1.0000
  H   H16       1.0  0.33488  0.00696  0.20834  1.0000
  C   C35       1.0  0.68043  0.05143  0.31150  1.0000
  C   C36       1.0  0.31106  0.93921  0.28870  1.0000
  O   O7        1.0  0.66369  0.08571  0.37028  1.0000
  O   O8        1.0  0.32122  0.90113  0.34596  1.0000
  H   H17       1.0  0.40383  0.03589  0.18043  1.0000
  H   H18       1.0  0.59928  0.95620  0.19994  1.0000
  N   N13       1.0  0.04282  0.94223  0.73944  1.0000
  N   N14       1.0  0.95879  0.06032  0.74216  1.0000
  H   H19       1.0  0.02099  0.96908  0.76222  1.0000
  H   H20       1.0  0.97873  0.03277  0.77207  1.0000
  C   C37       1.0  0.09047  0.94414  0.73126  1.0000
  C   C38       1.0  0.91290  0.05813  0.71848  1.0000
  C   C39       1.0  0.02828  0.89953  0.70567  1.0000
  C   C40       1.0  0.97534  0.10506  0.71574  1.0000
  C   C41       1.0  0.10719  0.90053  0.68221  1.0000
  C   C42       1.0  0.90023  0.10392  0.66523  1.0000
  C   C43       1.0  0.06959  0.87415  0.66116  1.0000
  C   C44       1.0  0.93778  0.13247  0.66650  1.0000
  H   H21       1.0  0.14336  0.89074  0.66628  1.0000
  H   H22       1.0  0.86694  0.11368  0.62910  1.0000
  H   H23       1.0  0.07048  0.84026  0.61819  1.0000
  H   H24       1.0  0.93846  0.16940  0.63817  1.0000
  N   N15       1.0  0.05586  0.04147  0.75787  1.0000
  N   N16       1.0  0.94476  0.96007  0.74888  1.0000
  C   C45       1.0  0.09862  0.02610  0.79178  1.0000
  C   C46       1.0  0.89962  0.97367  0.78513  1.0000
  C   C47       1.0  0.94354  0.91282  0.77340  1.0000
  C   C48       1.0  0.05548  0.08789  0.77792  1.0000
  C   C49       1.0  0.12432  0.06300  0.84652  1.0000
  C   C50       1.0  0.86963  0.93443  0.84701  1.0000
  C   C51       1.0  0.89695  0.89645  0.83913  1.0000
  C   C52       1.0  0.09766  0.10143  0.83750  1.0000
  H   H25       1.0  0.15752  0.05973  0.88965  1.0000
  H   H26       1.0  0.83306  0.93560  0.89163  1.0000
  H   H27       1.0  0.88613  0.86118  0.87552  1.0000
  H   H28       1.0  0.10544  0.13515  0.87143  1.0000
  C   C53       1.0  0.11682  0.98168  0.76699  1.0000
  C   C54       1.0  0.88358  0.01902  0.75543  1.0000
  C   C55       1.0  0.98180  0.88366  0.73403  1.0000
  C   C56       1.0  0.01991  0.11918  0.74182  1.0000
  C   C57       1.0  0.00049  0.53580  0.76988  1.0000
  C   C58       1.0  0.00068  0.46393  0.78065  1.0000
  C   C59       1.0  0.03593  0.49972  0.79987  1.0000
  C   C60       1.0  0.96480  0.49961  0.75883  1.0000
  C   C61       1.0  0.00519  0.58412  0.75976  1.0000
  C   C62       1.0  0.99735  0.41631  0.77043  1.0000
  O   O9        1.0  0.07595  0.50015  0.83025  1.0000
  O   O10       1.0  0.92374  0.49847  0.73988  1.0000
  N   N17       1.0  0.97055  0.61156  0.72765  1.0000
  N   N18       1.0  0.03452  0.39006  0.76662  1.0000
  N   N19       1.0  0.97722  0.65661  0.73704  1.0000
  N   N20       1.0  0.02699  0.34585  0.74634  1.0000
  H   H29       1.0  0.00609  0.66779  0.78042  1.0000
  H   H30       1.0  0.99411  0.33508  0.73299  1.0000
  C   C63       1.0  0.94293  0.68926  0.70147  1.0000
  C   C64       1.0  0.06412  0.31396  0.73009  1.0000
  O   O11       1.0  0.90793  0.67836  0.64869  1.0000
  O   O12       1.0  0.10492  0.32426  0.72392  1.0000
  H   H31       1.0  0.96288  0.40196  0.76060  1.0000
  H   H32       1.0  0.03892  0.59749  0.78296  1.0000
  C   C65       1.0  0.53732  0.99987  0.72374  1.0000
  C   C66       1.0  0.46605  0.99978  0.71376  1.0000
  C   C67       1.0  0.50253  0.96326  0.71165  1.0000
  C   C68       1.0  0.50099  0.03643  0.71930  1.0000
  C   C69       1.0  0.58475  0.99504  0.73751  1.0000
  C   C70       1.0  0.41786  0.00475  0.71815  1.0000
  O   O13       1.0  0.50372  0.92117  0.70684  1.0000
  O   O14       1.0  0.49935  0.07858  0.72164  1.0000
  N   N21       1.0  0.61049  0.02986  0.76629  1.0000
  N   N22       1.0  0.39011  0.96832  0.74325  1.0000
  N   N23       1.0  0.65544  0.02044  0.76793  1.0000
  N   N24       1.0  0.34496  0.97691  0.74478  1.0000
  H   H33       1.0  0.66846  0.98927  0.73512  1.0000
  H   H34       1.0  0.33365  0.01005  0.72142  1.0000
  C   C71       1.0  0.68569  0.05406  0.80919  1.0000
  C   C72       1.0  0.31209  0.94040  0.78626  1.0000
  O   O15       1.0  0.67108  0.09037  0.85830  1.0000
  O   O16       1.0  0.32367  0.90124  0.83073  1.0000
  H   H35       1.0  0.40428  0.04016  0.70333  1.0000
  H   H36       1.0  0.59995  0.96059  0.72441  1.0000
  C  Sn1       1.0  0.19055  0.94495  0.41286  1.0000
  C   C73       1.0  0.17233  0.97832  0.30986  1.0000
  C  Sn2       1.0  0.20314  0.99789  0.17323  1.0000
  C  Sn3       1.0  0.24662  0.98378  0.13876  1.0000
  C   C74       1.0  0.26481  0.95043  0.24169  1.0000
  C  Sn4       1.0  0.23728  0.93084  0.37838  1.0000
  O  Te1       1.0  0.16237  0.92585  0.54876  1.0000
  O  Te2       1.0  0.18416  0.03120  0.07209  1.0000
  O  Te3       1.0  0.27805  0.00291  0.00272  1.0000
  O  Te4       1.0  0.25623  0.89754  0.47947  1.0000
  Mg  Mg1       1.0  0.19778  0.02044  0.90156  1.0000
  Mg  Mg2       1.0  0.20403  0.88164  0.64998  1.0000
  C  Sn5       1.0  0.79111  0.01018  0.14283  1.0000
  C   C75       1.0  0.82344  0.03335  0.21552  1.0000
  C  Sn6       1.0  0.80889  0.05790  0.34667  1.0000
  C  Sn7       1.0  0.76103  0.05928  0.40650  1.0000
  C   C76       1.0  0.72873  0.03611  0.33386  1.0000
  C  Sn8       1.0  0.74325  0.01157  0.20267  1.0000
  O  Te5       1.0  0.80318  0.98585  0.01186  1.0000
  O  Te6       1.0  0.84186  0.08081  0.41730  1.0000
  O  Te7       1.0  0.74572  0.08364  0.53758  1.0000
  O  Te8       1.0  0.70705  0.98866  0.13207  1.0000
  Mg  Mg3       1.0  0.80388  0.10926  0.59300  1.0000
  Mg  Mg4       1.0  0.70638  0.93356  0.95643  1.0000
  C  Sn9       1.0  0.98124  0.76255  0.35465  1.0000
  C   C77       1.0  0.95307  0.74236  0.25843  1.0000
  C  Sn10      1.0  0.93621  0.76881  0.13324  1.0000
  C  Sn11      1.0  0.94777  0.81644  0.10353  1.0000
  C   C78       1.0  0.97593  0.83661  0.19970  1.0000
  C  Sn12      1.0  0.99280  0.81018  0.32494  1.0000
  O  Te9       1.0  0.99771  0.73544  0.47914  1.0000
  O  Te10      1.0  0.90809  0.74785  0.03871  1.0000
  O  Te11      1.0  0.89266  0.81693  0.97892  1.0000
  O  Te12      1.0  0.02091  0.83112  0.41943  1.0000
  Mg  Mg5       1.0  0.85555  0.77262  0.88329  1.0000
  Mg  Mg6       1.0  0.03488  0.77976  0.57481  1.0000
  C  Sn13      1.0  0.07264  0.20082  0.14314  1.0000
  C   C79       1.0  0.03861  0.17279  0.23661  1.0000
  C  Sn14      1.0  0.00268  0.19240  0.33371  1.0000
  C  Sn15      1.0  0.00071  0.24104  0.33739  1.0000
  C   C80       1.0  0.03472  0.26903  0.24393  1.0000
  C  Sn16      1.0  0.07067  0.24945  0.14681  1.0000
  O  Te13      1.0  0.10823  0.18047  0.04695  1.0000
  O  Te14      1.0  0.96907  0.16367  0.42614  1.0000
  O  Te15      1.0  0.96508  0.26137  0.43369  1.0000
  O  Te16      1.0  0.10426  0.27815  0.05440  1.0000
  Mg  Mg7       1.0  0.92741  0.20774  0.53792  1.0000
  Mg  Mg8       1.0  0.10730  0.20751  0.94253  1.0000
  C  Sn17      1.0  0.21748  0.91645  0.83631  1.0000
  C   C81       1.0  0.25565  0.94139  0.75411  1.0000
  C  Sn18      1.0  0.25359  0.98663  0.68866  1.0000
  C  Sn19      1.0  0.20919  0.00738  0.70580  1.0000
  C   C82       1.0  0.17105  0.98245  0.78797  1.0000
  C  Sn20      1.0  0.17308  0.93721  0.85345  1.0000
  O  Te17      1.0  0.22360  0.87128  0.90078  1.0000
  O  Te18      1.0  0.29227  0.01086  0.60695  1.0000
  O  Te19      1.0  0.20310  0.05259  0.64124  1.0000
  O  Te20      1.0  0.13443  0.91298  0.93514  1.0000
  Mg  Mg9       1.0  0.26632  0.07150  0.54042  1.0000
  Mg  Mg10      1.0  0.19895  0.87897  0.00178  1.0000
  C  Sn21      1.0  0.77774  0.08090  0.82551  1.0000
  C   C83       1.0  0.74446  0.05629  0.76200  1.0000
  C  Sn22      1.0  0.75451  0.01254  0.71160  1.0000
  C  Sn23      1.0  0.79875  0.99298  0.72503  1.0000
  C   C84       1.0  0.83200  0.01759  0.78852  1.0000
  C  Sn24      1.0  0.82197  0.06134  0.83894  1.0000
  O  Te21      1.0  0.76692  0.12458  0.87515  1.0000
  O  Te22      1.0  0.72068  0.98860  0.64846  1.0000
  O  Te23      1.0  0.80629  0.94927  0.67532  1.0000
  O  Te24      1.0  0.85577  0.08528  0.90207  1.0000
  Mg  Mg11      1.0  0.74868  0.93018  0.59735  1.0000
  Mg  Mg12      1.0  0.82455  0.14368  0.95329  1.0000
  C  Sn25      1.0  0.98818  0.76191  0.83995  1.0000
  C   C85       1.0  0.95419  0.74119  0.76739  1.0000
  C  Sn26      1.0  0.93013  0.76724  0.65902  1.0000
  C  Sn27      1.0  0.94028  0.81499  0.62232  1.0000
  C   C86       1.0  0.97426  0.83569  0.69483  1.0000
  C  Sn28      1.0  0.99833  0.80967  0.80325  1.0000
  O  Te25      1.0  0.01180  0.73521  0.94792  1.0000
  O  Te26      1.0  0.89628  0.74576  0.58803  1.0000
  O  Te27      1.0  0.91663  0.84169  0.51425  1.0000
  O  Te28      1.0  0.03216  0.83112  0.87419  1.0000
  Mg  Mg13      1.0  0.87355  0.79673  0.44856  1.0000
  Mg  Mg14      1.0  0.09354  0.80680  0.01361  1.0000
  C  Sn29      1.0  0.00755  0.23513  0.84489  1.0000
  C   C87       1.0  0.04651  0.25975  0.76703  1.0000
  C  Sn30      1.0  0.07690  0.24002  0.65110  1.0000
  C  Sn31      1.0  0.06817  0.19475  0.61210  1.0000
  C   C88       1.0  0.02923  0.17016  0.68992  1.0000
  C  Sn32      1.0  0.99882  0.18986  0.80589  1.0000
  O  Te29      1.0  0.97763  0.25553  0.96039  1.0000
  O  Te30      1.0  0.11563  0.26531  0.57492  1.0000
  O  Te31      1.0  0.09813  0.17436  0.49650  1.0000
  O  Te32      1.0  0.96011  0.16460  0.88202  1.0000
  Mg  Mg15      1.0  0.14619  0.22262  0.42585  1.0000
  Mg  Mg16      1.0  0.96813  0.23388  0.03105  1.0000
