data_image0
_chemical_formula_structural       N4H4C16H8N4C16H8C23H10C10H10C9N8H2C4O2H2O2H2C8H2C2H2N8H2C4O2H2O2H6N4H4C16H8N4C16H8C20H8C8H8C8N8H2C4O2H2O2H2C14H4C2H4N8H2C4O2H2O2H6C2Sn2C2HTe2HMgC2Sn2C2HTe2HMgC2Sn2C2HTe2HMgC2Sn2C2HTe2HMgC2Sn2C2HTe2HMgC2Sn2C2HTe2HMgC2Sn2C2HTe2HMgC2Sn2C2HTe2HMgC2Sn2C2HTe2HMgC2Sn2C2HTe2HMgC2Sn2C2HTe2HMgC2Sn2C2HTe2HMg
_chemical_formula_sum              "N48 H144 C232 O16 Sn24 Te24 Mg12"
_cell_length_a       42.8402
_cell_length_b       41.3476
_cell_length_c       9.23621
_cell_angle_alpha    90.2263
_cell_angle_beta     95.7054
_cell_angle_gamma    90.1875

_symmetry_space_group_name_H-M    'P1'
_space_group_IT_number       1

loop_
  _space_group_symop_operation_xyz
  'x, y, z'

loop_
  _atom_site_type_symbol
  _atom_site_label
  _atom_site_symmetry_multiplicity
  _atom_site_fract_x
  _atom_site_fract_y
  _atom_site_fract_z
  _atom_site_occupancy
  N   N1        1.0  0.50670  0.45090  0.24798  1.0000
  N   N2        1.0  0.49081  0.55168  0.22851  1.0000
  N   N3        1.0  0.00842  0.95192  0.26849  1.0000
  N   N4        1.0  0.99101  0.05169  0.24872  1.0000
  H   H1        1.0  0.50351  0.47522  0.25970  1.0000
  H   H2        1.0  0.49469  0.52768  0.24900  1.0000
  H   H3        1.0  0.00501  0.97487  0.22986  1.0000
  H   H4        1.0  0.99272  0.02723  0.23516  1.0000
  C   C1        1.0  0.48316  0.42804  0.24494  1.0000
  C   C2        1.0  0.51399  0.57438  0.21544  1.0000
  C   C3        1.0  0.98535  0.93085  0.30226  1.0000
  C   C4        1.0  0.01526  0.07371  0.24925  1.0000
  C   C5        1.0  0.53474  0.43676  0.22186  1.0000
  C   C6        1.0  0.46149  0.56537  0.20259  1.0000
  C   C7        1.0  0.03777  0.93846  0.29846  1.0000
  C   C8        1.0  0.96384  0.06660  0.28199  1.0000
  C   C9        1.0  0.49694  0.39776  0.21083  1.0000
  C   C10       1.0  0.49835  0.60393  0.17267  1.0000
  C   C11       1.0  0.00111  0.90331  0.36773  1.0000
  C   C12       1.0  0.00293  0.10416  0.29186  1.0000
  C   C13       1.0  0.52810  0.40315  0.19401  1.0000
  C   C14       1.0  0.46645  0.59842  0.16422  1.0000
  C   C15       1.0  0.03303  0.90827  0.36882  1.0000
  C   C16       1.0  0.97184  0.09977  0.31336  1.0000
  H   H5        1.0  0.48431  0.37504  0.19971  1.0000
  H   H6        1.0  0.51023  0.62626  0.15072  1.0000
  H   H7        1.0  0.98944  0.88268  0.41029  1.0000
  H   H8        1.0  0.01628  0.12643  0.30433  1.0000
  H   H9        1.0  0.54509  0.38560  0.16485  1.0000
  H   H10       1.0  0.44786  0.61550  0.13449  1.0000
  H   H11       1.0  0.05158  0.89275  0.41631  1.0000
  H   H12       1.0  0.95579  0.11769  0.34814  1.0000
  N   N5        1.0  0.95305  0.99515  0.26655  1.0000
  N   N6        1.0  0.04537  0.00760  0.23020  1.0000
  N   N7        1.0  0.45228  0.49337  0.24479  1.0000
  N   N8        1.0  0.54530  0.50925  0.24007  1.0000
  C   C17       1.0  0.93827  0.96578  0.24190  1.0000
  C   C18       1.0  0.05728  0.03605  0.18255  1.0000
  C   C19       1.0  0.43836  0.46484  0.27980  1.0000
  C   C20       1.0  0.56051  0.53835  0.26635  1.0000
  C   C21       1.0  0.06601  0.98402  0.19556  1.0000
  C   C22       1.0  0.92972  0.01780  0.24966  1.0000
  C   C23       1.0  0.56834  0.48623  0.25740  1.0000
  C   C24       1.0  0.42973  0.51661  0.25391  1.0000
  C   C25       1.0  0.90498  0.97030  0.19595  1.0000
  C   C26       1.0  0.08473  0.03007  0.10515  1.0000
  C   C27       1.0  0.40683  0.47051  0.32134  1.0000
  C   C28       1.0  0.59372  0.53331  0.31236  1.0000
  C   C29       1.0  0.08975  0.99756  0.11019  1.0000
  C   C30       1.0  0.89954  0.00269  0.20372  1.0000
  C   C31       1.0  0.59868  0.50086  0.30468  1.0000
  C   C32       1.0  0.40131  0.50271  0.30355  1.0000
  H   H13       1.0  0.88824  0.95145  0.16172  1.0000
  H   H14       1.0  0.09757  0.04800  0.04974  1.0000
  H   H15       1.0  0.39145  0.45244  0.36067  1.0000
  H   H16       1.0  0.61069  0.55192  0.34688  1.0000
  H   H17       1.0  0.10690  0.98411  0.05622  1.0000
  H   H18       1.0  0.87753  0.01522  0.17828  1.0000
  H   H19       1.0  0.62044  0.48793  0.33115  1.0000
  H   H20       1.0  0.38046  0.51596  0.32437  1.0000
  C   C33       1.0  0.45179  0.43376  0.27098  1.0000
  C   C34       1.0  0.54656  0.56919  0.24434  1.0000
  C   C35       1.0  0.95269  0.93539  0.26938  1.0000
  C   C36       1.0  0.04548  0.06734  0.20843  1.0000
  C   C37       1.0  0.56408  0.45257  0.23239  1.0000
  C   C38       1.0  0.43285  0.54980  0.22107  1.0000
  C   C39       1.0  0.06519  0.95163  0.24657  1.0000
  C   C40       1.0  0.93413  0.05152  0.27398  1.0000
  C   C41       1.0  0.56739  0.59804  0.25575  1.0000
  C   C42       1.0  0.93276  0.90594  0.25687  1.0000
  C   C43       1.0  0.59224  0.43267  0.21630  1.0000
  C   C44       1.0  0.09295  0.93072  0.23906  1.0000
  C   C45       1.0  0.90628  0.07185  0.28970  1.0000
  C   C46       1.0  0.90451  0.90386  0.32233  1.0000
  C   C47       1.0  0.94085  0.87992  0.16874  1.0000
  C   C48       1.0  0.56141  0.62409  0.34789  1.0000
  C   C49       1.0  0.59459  0.59945  0.18194  1.0000
  C   C50       1.0  0.09004  0.89710  0.21380  1.0000
  C   C51       1.0  0.90175  0.10169  0.21741  1.0000
  C   C52       1.0  0.88333  0.06176  0.37961  1.0000
  C   C53       1.0  0.12376  0.94366  0.25341  1.0000
  C   C54       1.0  0.61415  0.44265  0.12105  1.0000
  C   C55       1.0  0.59775  0.40340  0.29171  1.0000
  H   H21       1.0  0.54065  0.62317  0.40662  1.0000
  H   H22       1.0  0.59903  0.58010  0.10659  1.0000
  H   H23       1.0  0.89849  0.92316  0.39487  1.0000
  H   H24       1.0  0.96252  0.88139  0.11677  1.0000
  H   H25       1.0  0.60984  0.46501  0.06070  1.0000
  H   H26       1.0  0.58180  0.39585  0.36977  1.0000
  H   H27       1.0  0.06682  0.88628  0.19630  1.0000
  H   H28       1.0  0.91848  0.10943  0.14332  1.0000
  H   H29       1.0  0.88685  0.03914  0.43873  1.0000
  H   H30       1.0  0.12715  0.96904  0.28201  1.0000
  C   C56       1.0  0.58261  0.64956  0.37169  1.0000
  C   C57       1.0  0.61578  0.62503  0.20499  1.0000
  C   C58       1.0  0.88439  0.87751  0.29520  1.0000
  C   C59       1.0  0.92056  0.85383  0.13984  1.0000
  C   C60       1.0  0.64003  0.42368  0.09899  1.0000
  C   C61       1.0  0.62370  0.38444  0.27013  1.0000
  C   C62       1.0  0.11625  0.87761  0.20417  1.0000
  C   C63       1.0  0.87579  0.12086  0.23616  1.0000
  C   C64       1.0  0.85736  0.08088  0.39833  1.0000
  C   C65       1.0  0.14970  0.92472  0.23120  1.0000
  H   H31       1.0  0.57870  0.66871  0.44880  1.0000
  H   H32       1.0  0.63698  0.62510  0.14925  1.0000
  H   H33       1.0  0.86242  0.87672  0.34487  1.0000
  H   H34       1.0  0.92602  0.83476  0.06500  1.0000
  H   H35       1.0  0.65617  0.43077  0.02090  1.0000
  H   H36       1.0  0.62714  0.36175  0.32845  1.0000
  H   H37       1.0  0.11322  0.85171  0.18582  1.0000
  H   H38       1.0  0.87311  0.14388  0.17988  1.0000
  H   H39       1.0  0.84033  0.07350  0.47173  1.0000
  H   H40       1.0  0.17294  0.93563  0.23585  1.0000
  C   C66       1.0  0.61036  0.65011  0.30233  1.0000
  C   C67       1.0  0.89187  0.85248  0.20136  1.0000
  C   C68       1.0  0.64507  0.39421  0.17283  1.0000
  C   C69       1.0  0.14628  0.89134  0.20757  1.0000
  C   C70       1.0  0.85327  0.11078  0.32738  1.0000
  C   C71       1.0  0.20748  0.80092  0.33223  1.0000
  C   C72       1.0  0.79013  0.19969  0.19259  1.0000
  C   C73       1.0  0.30171  0.70719  0.23905  1.0000
  C   C74       1.0  0.70852  0.30521  0.29918  1.0000
  N   N9        1.0  0.20345  0.82469  0.24088  1.0000
  N   N10       1.0  0.79665  0.17800  0.29239  1.0000
  N   N11       1.0  0.29748  0.67647  0.25748  1.0000
  N   N12       1.0  0.70168  0.32700  0.20023  1.0000
  N   N13       1.0  0.17978  0.84566  0.26490  1.0000
  N   N14       1.0  0.81695  0.15427  0.25904  1.0000
  N   N15       1.0  0.32131  0.65673  0.22909  1.0000
  N   N16       1.0  0.68137  0.35048  0.23610  1.0000
  H   H41       1.0  0.17145  0.84652  0.36685  1.0000
  H   H42       1.0  0.82009  0.14913  0.15071  1.0000
  C   C75       1.0  0.17347  0.87107  0.17267  1.0000
  C   C76       1.0  0.82693  0.13193  0.36313  1.0000
  C   C77       1.0  0.31764  0.62302  0.21976  1.0000
  C   C78       1.0  0.67099  0.37295  0.13366  1.0000
  O   O1        1.0  0.18754  0.87662  0.06382  1.0000
  O   O2        1.0  0.81595  0.13006  0.48294  1.0000
  H   H43       1.0  0.34158  0.66636  0.19728  1.0000
  H   H44       1.0  0.67826  0.35469  0.34508  1.0000
  O   O3        1.0  0.29248  0.60901  0.22184  1.0000
  O   O4        1.0  0.68117  0.37487  0.01221  1.0000
  H   H45       1.0  0.32302  0.71663  0.19649  1.0000
  H   H46       1.0  0.69841  0.30549  0.40389  1.0000
  C   C79       1.0  0.22441  0.22904  0.27667  1.0000
  C   C80       1.0  0.25373  0.22462  0.35792  1.0000
  C   C81       1.0  0.27904  0.24458  0.33695  1.0000
  C   C82       1.0  0.27570  0.26995  0.23520  1.0000
  C   C83       1.0  0.24628  0.27457  0.15499  1.0000
  C   C84       1.0  0.22098  0.25460  0.17592  1.0000
  C   C85       1.0  0.19854  0.20698  0.29719  1.0000
  C   C86       1.0  0.80516  0.79176  0.30512  1.0000
  H   H47       1.0  0.25649  0.20525  0.43764  1.0000
  H   H48       1.0  0.30175  0.24096  0.39859  1.0000
  C   C87       1.0  0.30171  0.29153  0.21135  1.0000
  C   C88       1.0  0.69873  0.70784  0.19021  1.0000
  H   H49       1.0  0.24343  0.29402  0.07573  1.0000
  H   H50       1.0  0.19825  0.25825  0.11458  1.0000
  N   N17       1.0  0.17649  0.20221  0.19203  1.0000
  N   N18       1.0  0.82424  0.79707  0.20681  1.0000
  N   N19       1.0  0.32424  0.29657  0.31402  1.0000
  N   N20       1.0  0.67969  0.70302  0.28915  1.0000
  N   N21       1.0  0.15317  0.18135  0.22239  1.0000
  N   N22       1.0  0.84812  0.81834  0.24841  1.0000
  N   N23       1.0  0.34748  0.31694  0.27845  1.0000
  N   N24       1.0  0.65506  0.68257  0.24893  1.0000
  H   H51       1.0  0.14954  0.17687  0.33038  1.0000
  H   H52       1.0  0.85429  0.82201  0.35964  1.0000
  C   C89       1.0  0.12953  0.17383  0.11619  1.0000
  C   C90       1.0  0.86914  0.82630  0.15253  1.0000
  C   C91       1.0  0.37074  0.32621  0.38359  1.0000
  C   C92       1.0  0.63431  0.67538  0.34743  1.0000
  O   O5        1.0  0.12677  0.18652  0.99335  1.0000
  O   O6        1.0  0.86893  0.81372  0.02934  1.0000
  H   H53       1.0  0.35091  0.32051  0.16965  1.0000
  H   H54       1.0  0.64814  0.67910  0.13813  1.0000
  O   O7        1.0  0.37328  0.31505  0.50928  1.0000
  O   O8        1.0  0.63581  0.68806  0.47087  1.0000
  H   H55       1.0  0.30130  0.30346  0.10518  1.0000
  H   H56       1.0  0.69545  0.69618  0.08281  1.0000
  H   H57       1.0  0.19252  0.79741  0.42071  1.0000
  H   H58       1.0  0.19876  0.19465  0.40240  1.0000
  H   H59       1.0  0.80043  0.19918  0.08836  1.0000
  H   H60       1.0  0.80802  0.80361  0.41210  1.0000
  N   N25       1.0  0.50832  0.44772  0.74286  1.0000
  N   N26       1.0  0.49232  0.54799  0.70790  1.0000
  N   N27       1.0  0.00844  0.94911  0.77244  1.0000
  N   N28       1.0  0.99359  0.04994  0.75436  1.0000
  H   H61       1.0  0.50563  0.47217  0.75195  1.0000
  H   H62       1.0  0.49570  0.52403  0.73110  1.0000
  H   H63       1.0  0.00522  0.97346  0.75937  1.0000
  H   H64       1.0  0.99633  0.02557  0.74213  1.0000
  C   C93       1.0  0.48449  0.42522  0.74203  1.0000
  C   C94       1.0  0.51573  0.57039  0.69490  1.0000
  C   C95       1.0  0.98485  0.92656  0.78024  1.0000
  C   C96       1.0  0.01742  0.07244  0.75505  1.0000
  C   C97       1.0  0.53623  0.43302  0.71901  1.0000
  C   C98       1.0  0.46322  0.56223  0.68445  1.0000
  C   C99       1.0  0.03724  0.93410  0.77738  1.0000
  C   C100      1.0  0.96570  0.06473  0.77827  1.0000
  C   C101      1.0  0.49794  0.39455  0.71143  1.0000
  C   C102      1.0  0.50047  0.60008  0.65134  1.0000
  C   C103      1.0  0.99990  0.89578  0.80083  1.0000
  C   C104      1.0  0.00396  0.10319  0.78419  1.0000
  C   C105      1.0  0.52920  0.39936  0.69472  1.0000
  C   C106      1.0  0.46853  0.59508  0.64426  1.0000
  C   C107      1.0  0.03159  0.90023  0.79575  1.0000
  C   C108      1.0  0.97271  0.09844  0.80111  1.0000
  H   H65       1.0  0.48500  0.37198  0.70241  1.0000
  H   H66       1.0  0.51263  0.62222  0.62904  1.0000
  H   H67       1.0  0.98778  0.87321  0.81527  1.0000
  H   H68       1.0  0.01695  0.12574  0.79242  1.0000
  H   H69       1.0  0.54597  0.38137  0.66761  1.0000
  H   H70       1.0  0.45015  0.61245  0.61552  1.0000
  H   H71       1.0  0.04950  0.88179  0.80214  1.0000
  H   H72       1.0  0.95588  0.11645  0.82749  1.0000
  N   N29       1.0  0.95427  0.99228  0.76597  1.0000
  N   N30       1.0  0.04734  0.00618  0.74481  1.0000
  N   N31       1.0  0.45378  0.49105  0.73555  1.0000
  N   N32       1.0  0.54695  0.50535  0.72856  1.0000
  C   C109      1.0  0.93861  0.96339  0.74133  1.0000
  C   C110      1.0  0.06242  0.03512  0.72819  1.0000
  C   C111      1.0  0.44008  0.46278  0.77498  1.0000
  C   C112      1.0  0.56208  0.53453  0.75356  1.0000
  C   C113      1.0  0.07004  0.98295  0.73881  1.0000
  C   C114      1.0  0.93148  0.01558  0.75007  1.0000
  C   C115      1.0  0.56996  0.48241  0.74967  1.0000
  C   C116      1.0  0.43150  0.51449  0.74727  1.0000
  C   C117      1.0  0.90532  0.96876  0.69913  1.0000
  C   C118      1.0  0.09537  0.03000  0.70724  1.0000
  C   C119      1.0  0.40902  0.46877  0.82132  1.0000
  C   C120      1.0  0.59517  0.52970  0.80236  1.0000
  C   C121      1.0  0.10027  0.99758  0.71692  1.0000
  C   C122      1.0  0.90079  0.00129  0.70653  1.0000
  C   C123      1.0  0.60020  0.49722  0.79756  1.0000
  C   C124      1.0  0.40362  0.50098  0.80347  1.0000
  H   H73       1.0  0.88805  0.95029  0.66671  1.0000
  H   H74       1.0  0.11224  0.04866  0.68841  1.0000
  H   H75       1.0  0.39393  0.45089  0.86418  1.0000
  H   H76       1.0  0.61197  0.54849  0.83662  1.0000
  H   H77       1.0  0.12208  0.98478  0.71060  1.0000
  H   H78       1.0  0.87913  0.01448  0.68202  1.0000
  H   H79       1.0  0.62194  0.48441  0.82627  1.0000
  H   H80       1.0  0.38316  0.51443  0.82818  1.0000
  C   C125      1.0  0.45324  0.43154  0.76757  1.0000
  C   C126      1.0  0.54816  0.56521  0.72842  1.0000
  C   C127      1.0  0.95234  0.93240  0.75829  1.0000
  C   C128      1.0  0.04896  0.06619  0.73459  1.0000
  C   C129      1.0  0.56568  0.44862  0.72863  1.0000
  C   C130      1.0  0.43468  0.54746  0.71091  1.0000
  C   C131      1.0  0.06590  0.94932  0.75629  1.0000
  C   C132      1.0  0.93623  0.04928  0.77165  1.0000
  C   C133      1.0  0.43259  0.40338  0.78783  1.0000
  C   C134      1.0  0.59385  0.42859  0.71604  1.0000
  C   C135      1.0  0.40669  0.56840  0.71219  1.0000
  C   C136      1.0  0.09308  0.92763  0.74309  1.0000
  C   C137      1.0  0.44116  0.37987  0.89421  1.0000
  C   C138      1.0  0.40338  0.40028  0.70473  1.0000
  C   C139      1.0  0.10859  0.92799  0.61582  1.0000
  C   C140      1.0  0.10297  0.90528  0.85203  1.0000
  C   C141      1.0  0.61631  0.43847  0.62328  1.0000
  C   C142      1.0  0.37791  0.55953  0.63478  1.0000
  C   C143      1.0  0.40785  0.59660  0.79821  1.0000
  C   C144      1.0  0.59889  0.39931  0.79209  1.0000
  H   H81       1.0  0.46360  0.38234  0.95961  1.0000
  H   H82       1.0  0.39685  0.41787  0.61994  1.0000
  H   H83       1.0  0.61240  0.46083  0.56251  1.0000
  H   H84       1.0  0.37711  0.53824  0.56489  1.0000
  H   H85       1.0  0.42972  0.60306  0.86191  1.0000
  H   H86       1.0  0.58259  0.39198  0.86894  1.0000
  H   H87       1.0  0.10086  0.94477  0.52954  1.0000
  H   H88       1.0  0.09167  0.90488  0.95200  1.0000
  C   C145      1.0  0.42068  0.35488  0.92087  1.0000
  C   C146      1.0  0.38311  0.37494  0.72930  1.0000
  C   C147      1.0  0.64228  0.41940  0.60428  1.0000
  C   C148      1.0  0.35080  0.57727  0.64879  1.0000
  C   C149      1.0  0.38097  0.61505  0.80852  1.0000
  C   C150      1.0  0.62479  0.38014  0.77262  1.0000
  C   C151      1.0  0.13284  0.90656  0.59782  1.0000
  C   C152      1.0  0.12706  0.88358  0.83367  1.0000
  H   H89       1.0  0.42661  0.33762  0.00783  1.0000
  H   H90       1.0  0.36052  0.37321  0.66482  1.0000
  H   H91       1.0  0.65891  0.42644  0.52844  1.0000
  H   H92       1.0  0.32842  0.56985  0.59211  1.0000
  H   H93       1.0  0.38194  0.63618  0.87946  1.0000
  H   H94       1.0  0.62782  0.35735  0.83035  1.0000
  H   H95       1.0  0.14433  0.90664  0.49824  1.0000
  H   H96       1.0  0.13352  0.86602  0.91825  1.0000
  C   C153      1.0  0.39137  0.35218  0.83884  1.0000
  C   C154      1.0  0.64671  0.38987  0.67784  1.0000
  C   C155      1.0  0.35213  0.60510  0.73656  1.0000
  C   C156      1.0  0.14236  0.88396  0.70640  1.0000
  C   C157      1.0  0.21444  0.80277  0.86751  1.0000
  C   C158      1.0  0.78965  0.19454  0.70003  1.0000
  C   C159      1.0  0.29971  0.70354  0.72576  1.0000
  C   C160      1.0  0.70895  0.30048  0.80967  1.0000
  N   N33       1.0  0.20322  0.82104  0.76111  1.0000
  N   N34       1.0  0.79709  0.17331  0.80081  1.0000
  N   N35       1.0  0.30055  0.67500  0.78361  1.0000
  N   N36       1.0  0.70260  0.32228  0.71025  1.0000
  N   N37       1.0  0.18253  0.84466  0.79154  1.0000
  N   N38       1.0  0.81758  0.14988  0.76611  1.0000
  N   N39       1.0  0.32348  0.65501  0.74421  1.0000
  N   N40       1.0  0.68306  0.34652  0.74526  1.0000
  H   H97       1.0  0.18275  0.85399  0.89646  1.0000
  H   H98       1.0  0.82062  0.14518  0.65749  1.0000
  C   C161      1.0  0.16670  0.86014  0.67480  1.0000
  C   C162      1.0  0.82893  0.12833  0.87063  1.0000
  C   C163      1.0  0.32239  0.62169  0.76555  1.0000
  C   C164      1.0  0.67263  0.36850  0.64057  1.0000
  O   O9        1.0  0.17175  0.85375  0.54750  1.0000
  O   O10       1.0  0.81918  0.12676  0.99319  1.0000
  H   H99       1.0  0.34002  0.66370  0.68146  1.0000
  H   H100      1.0  0.68044  0.35192  0.85386  1.0000
  O   O11       1.0  0.29997  0.60724  0.80781  1.0000
  O   O12       1.0  0.68279  0.36985  0.51885  1.0000
  H   H101      1.0  0.31546  0.71020  0.64352  1.0000
  H   H102      1.0  0.69901  0.30129  0.91474  1.0000
  C   C165      1.0  0.22289  0.23231  0.77872  1.0000
  C   C166      1.0  0.77586  0.76997  0.78223  1.0000
  C   C167      1.0  0.25106  0.23023  0.87099  1.0000
  C   C168      1.0  0.74915  0.77448  0.85761  1.0000
  C   C169      1.0  0.27704  0.24861  0.84420  1.0000
  C   C170      1.0  0.72296  0.75476  0.82915  1.0000
  C   C171      1.0  0.27555  0.26991  0.72506  1.0000
  C   C172      1.0  0.72299  0.72969  0.72548  1.0000
  C   C173      1.0  0.24737  0.27202  0.63282  1.0000
  C   C174      1.0  0.74969  0.72523  0.64998  1.0000
  C   C175      1.0  0.22140  0.25363  0.65960  1.0000
  C   C176      1.0  0.77587  0.74493  0.67846  1.0000
  C   C177      1.0  0.19628  0.21187  0.80583  1.0000
  C   C178      1.0  0.80264  0.79161  0.81160  1.0000
  H   H103      1.0  0.25245  0.21393  0.96359  1.0000
  H   H104      1.0  0.74923  0.79361  0.93895  1.0000
  H   H105      1.0  0.29888  0.24691  0.91457  1.0000
  H   H106      1.0  0.70228  0.75810  0.88689  1.0000
  C   C179      1.0  0.30232  0.29007  0.69782  1.0000
  C   C180      1.0  0.69648  0.70777  0.69569  1.0000
  H   H107      1.0  0.24600  0.28830  0.54009  1.0000
  H   H108      1.0  0.74965  0.70603  0.56902  1.0000
  H   H109      1.0  0.19959  0.25531  0.58905  1.0000
  H   H110      1.0  0.79661  0.74152  0.62114  1.0000
  N   N41       1.0  0.17593  0.20389  0.69788  1.0000
  N   N42       1.0  0.82175  0.79610  0.71270  1.0000
  N   N43       1.0  0.32316  0.29735  0.80489  1.0000
  N   N44       1.0  0.67710  0.70300  0.79322  1.0000
  N   N45       1.0  0.15189  0.18437  0.73139  1.0000
  N   N46       1.0  0.84605  0.81694  0.75181  1.0000
  N   N47       1.0  0.34744  0.31642  0.77049  1.0000
  N   N48       1.0  0.65325  0.68172  0.75197  1.0000
  H   H111      1.0  0.14602  0.18293  0.83809  1.0000
  H   H112      1.0  0.85278  0.82090  0.86232  1.0000
  C   C181      1.0  0.13185  0.17189  0.61995  1.0000
  C   C182      1.0  0.86653  0.82466  0.65310  1.0000
  C   C183      1.0  0.36877  0.32728  0.88065  1.0000
  C   C184      1.0  0.63228  0.67383  0.84799  1.0000
  O   O13       1.0  0.13280  0.17994  0.49068  1.0000
  O   O14       1.0  0.86550  0.81190  0.52989  1.0000
  H   H113      1.0  0.35290  0.31812  0.66318  1.0000
  H   H114      1.0  0.64722  0.67786  0.64085  1.0000
  O   O15       1.0  0.36874  0.31828  0.00919  1.0000
  O   O16       1.0  0.63263  0.68647  0.97120  1.0000
  H   H115      1.0  0.30392  0.29891  0.58681  1.0000
  H   H116      1.0  0.69388  0.69548  0.58969  1.0000
  H   H117      1.0  0.20766  0.80502  0.97878  1.0000
  H   H118      1.0  0.19458  0.20325  0.91715  1.0000
  H   H119      1.0  0.79927  0.19389  0.59417  1.0000
  H   H120      1.0  0.80570  0.80376  0.91793  1.0000
  C   C185      1.0  0.25375  0.72740  0.90683  1.0000
  C   C186      1.0  0.27190  0.72555  0.78947  1.0000
  C  Sn1       1.0  0.27345  0.75180  0.69561  1.0000
  C  Sn2       1.0  0.25649  0.78039  0.72000  1.0000
  C   C187      1.0  0.23841  0.78201  0.83779  1.0000
  C   C188      1.0  0.23703  0.75560  0.93101  1.0000
  H   H121      1.0  0.25269  0.70697  0.97901  1.0000
  O  Te1       1.0  0.29169  0.74954  0.57884  1.0000
  O  Te2       1.0  0.25762  0.80699  0.62792  1.0000
  H   H122      1.0  0.20155  0.75609  0.02193  1.0000
  Mg  Mg1       1.0  0.28575  0.79222  0.48359  1.0000
  C   C189      1.0  0.76916  0.26437  0.13743  1.0000
  C   C190      1.0  0.77130  0.23399  0.20339  1.0000
  C  Sn3       1.0  0.75067  0.22540  0.30494  1.0000
  C  Sn4       1.0  0.72750  0.24768  0.34086  1.0000
  C   C191      1.0  0.72554  0.27801  0.27418  1.0000
  C   C192      1.0  0.74631  0.28636  0.17275  1.0000
  H   H123      1.0  0.78522  0.27083  0.05888  1.0000
  O  Te3       1.0  0.75313  0.19496  0.36986  1.0000
  O  Te4       1.0  0.70658  0.23972  0.44195  1.0000
  H   H124      1.0  0.74464  0.30987  0.12162  1.0000
  Mg  Mg2       1.0  0.71928  0.19531  0.50113  1.0000
  C   C193      1.0  0.11589  0.11388  0.26293  1.0000
  C   C194      1.0  0.11137  0.14081  0.17240  1.0000
  C  Sn5       1.0  0.08237  0.14596  0.09273  1.0000
  C  Sn6       1.0  0.05746  0.12370  0.10416  1.0000
  C   C195      1.0  0.06221  0.09685  0.19511  1.0000
  C   C196      1.0  0.09133  0.09192  0.27431  1.0000
  H   H125      1.0  0.13841  0.11007  0.32427  1.0000
  O  Te5       1.0  0.07826  0.17298  0.00276  1.0000
  O  Te6       1.0  0.02823  0.12827  0.02579  1.0000
  H   H126      1.0  0.09482  0.07108  0.34446  1.0000
  Mg  Mg3       1.0  0.05557  0.16969  0.91772  1.0000
  C   C197      1.0  0.93527  0.87052  0.62878  1.0000
  C   C198      1.0  0.93281  0.89817  0.71435  1.0000
  C  Sn7       1.0  0.90823  0.90114  0.80220  1.0000
  C  Sn8       1.0  0.88575  0.87592  0.80423  1.0000
  C   C199      1.0  0.88843  0.84835  0.71831  1.0000
  C   C200      1.0  0.91311  0.84563  0.63076  1.0000
  H   H127      1.0  0.95438  0.86841  0.56111  1.0000
  O  Te7       1.0  0.90612  0.92893  0.88697  1.0000
  O  Te8       1.0  0.86095  0.87826  0.89107  1.0000
  H   H128      1.0  0.91502  0.82421  0.56460  1.0000
  Mg  Mg4       1.0  0.86810  0.92088  0.98741  1.0000
  C   C201      1.0  0.35372  0.57209  0.10525  1.0000
  C   C202      1.0  0.34709  0.59794  0.19508  1.0000
  C  Sn9       1.0  0.37062  0.61105  0.29387  1.0000
  C  Sn10      1.0  0.40133  0.59800  0.30261  1.0000
  C   C203      1.0  0.40773  0.57215  0.21219  1.0000
  C   C204      1.0  0.38401  0.55921  0.11376  1.0000
  H   H129      1.0  0.33537  0.56209  0.02903  1.0000
  O  Te9       1.0  0.36358  0.63686  0.38285  1.0000
  O  Te10      1.0  0.42529  0.61065  0.40033  1.0000
  H   H130      1.0  0.38916  0.53922  0.04415  1.0000
  Mg  Mg5       1.0  0.40414  0.64580  0.49868  1.0000
  C   C205      1.0  0.42992  0.35899  0.42496  1.0000
  C   C206      1.0  0.39906  0.35305  0.36664  1.0000
  C  Sn11      1.0  0.38476  0.37315  0.25847  1.0000
  C  Sn12      1.0  0.40173  0.39965  0.20793  1.0000
  C   C207      1.0  0.43259  0.40537  0.26690  1.0000
  C   C208      1.0  0.44667  0.38512  0.37514  1.0000
  H   H131      1.0  0.44082  0.34331  0.50865  1.0000
  O  Te11      1.0  0.35391  0.36688  0.20142  1.0000
  O  Te12      1.0  0.38800  0.42010  0.09988  1.0000
  H   H132      1.0  0.47057  0.38971  0.42020  1.0000
  Mg  Mg6       1.0  0.34540  0.40163  0.05600  1.0000
  C   C209      1.0  0.57376  0.64196  0.87173  1.0000
  C   C210      1.0  0.60312  0.64736  0.82237  1.0000
  C  Sn13      1.0  0.61465  0.62607  0.72273  1.0000
  C  Sn14      1.0  0.59638  0.59890  0.67175  1.0000
  C   C211      1.0  0.56702  0.59372  0.72172  1.0000
  C   C212      1.0  0.55572  0.61517  0.82145  1.0000
  H   H133      1.0  0.56501  0.65856  0.94884  1.0000
  O  Te13      1.0  0.64403  0.63182  0.67458  1.0000
  O  Te14      1.0  0.60733  0.57724  0.57212  1.0000
  H   H134      1.0  0.53298  0.61099  0.85958  1.0000
  Mg  Mg7       1.0  0.64881  0.59540  0.53863  1.0000
  C   C213      1.0  0.26771  0.78461  0.24155  1.0000
  C   C214      1.0  0.23826  0.78024  0.29161  1.0000
  C  Sn15      1.0  0.22936  0.74991  0.33988  1.0000
  C  Sn16      1.0  0.25038  0.72351  0.33791  1.0000
  C   C215      1.0  0.27980  0.72813  0.28772  1.0000
  C   C216      1.0  0.28846  0.75858  0.23962  1.0000
  H   H135      1.0  0.27442  0.80817  0.20441  1.0000
  O  Te15      1.0  0.19985  0.74597  0.38949  1.0000
  O  Te16      1.0  0.24209  0.69294  0.38558  1.0000
  H   H136      1.0  0.31127  0.76195  0.20096  1.0000
  Mg  Mg8       1.0  0.19929  0.69966  0.44329  1.0000
  C   C217      1.0  0.74047  0.22177  0.85289  1.0000
  C   C218      1.0  0.76171  0.21880  0.74820  1.0000
  C  Sn17      1.0  0.76796  0.24518  0.66140  1.0000
  C  Sn18      1.0  0.75263  0.27506  0.68002  1.0000
  C   C219      1.0  0.73143  0.27779  0.78512  1.0000
  C   C220      1.0  0.72534  0.25124  0.87137  1.0000
  H   H137      1.0  0.73577  0.20123  0.91968  1.0000
  O  Te17      1.0  0.78924  0.24179  0.55728  1.0000
  O  Te18      1.0  0.75845  0.30182  0.59476  1.0000
  H   H138      1.0  0.70891  0.25355  0.95248  1.0000
  Mg  Mg9       1.0  0.78938  0.28520  0.46741  1.0000
  C   C221      1.0  0.86527  0.07079  0.91635  1.0000
  C   C222      1.0  0.85666  0.10091  0.85729  1.0000
  C  Sn19      1.0  0.87386  0.11491  0.75284  1.0000
  C  Sn20      1.0  0.90015  0.09840  0.70685  1.0000
  C   C223      1.0  0.90856  0.06827  0.76653  1.0000
  C   C224      1.0  0.89119  0.05448  0.87101  1.0000
  H   H139      1.0  0.85182  0.06011  0.99713  1.0000
  O  Te19      1.0  0.86494  0.14503  0.69500  1.0000
  O  Te20      1.0  0.91775  0.11184  0.60259  1.0000
  H   H140      1.0  0.89785  0.03115  0.91665  1.0000
  Mg  Mg10      1.0  0.89633  0.15341  0.55586  1.0000
  C   C225      1.0  0.74379  0.77225  0.35843  1.0000
  C   C226      1.0  0.77296  0.77029  0.30338  1.0000
  C  Sn21      1.0  0.77795  0.74752  0.19596  1.0000
  C  Sn22      1.0  0.75324  0.72638  0.14285  1.0000
  C   C227      1.0  0.72414  0.72855  0.19856  1.0000
  C   C228      1.0  0.71940  0.75141  0.30607  1.0000
  H   H141      1.0  0.74012  0.78995  0.44155  1.0000
  O  Te21      1.0  0.80724  0.74588  0.14220  1.0000
  O  Te22      1.0  0.75759  0.70341  0.03549  1.0000
  H   H142      1.0  0.69681  0.75294  0.34860  1.0000
  Mg  Mg11      1.0  0.82314  0.71148  0.99647  1.0000
  C   C229      1.0  0.07469  0.13633  0.55784  1.0000
  C   C230      1.0  0.10187  0.14706  0.64052  1.0000
  C  Sn23      1.0  0.11365  0.13014  0.76464  1.0000
  C  Sn24      1.0  0.09788  0.10196  0.80648  1.0000
  C   C231      1.0  0.07071  0.09142  0.72297  1.0000
  C   C232      1.0  0.05912  0.10854  0.59899  1.0000
  H   H143      1.0  0.06573  0.14957  0.46187  1.0000
  O  Te23      1.0  0.14083  0.14119  0.84604  1.0000
  O  Te24      1.0  0.10915  0.08459  0.93001  1.0000
  H   H144      1.0  0.03809  0.10022  0.53495  1.0000
  Mg  Mg12      1.0  0.12559  0.10831  0.00555  1.0000
