data_image0
_chemical_formula_structural       C6NCH6BOC8NC7H10BOC2NCH2BOC2NCH2BOC8NCH6BOC8NC7H10BOC2SnCSn2CSnTe4Mg2SnCSn2CSnTe4Mg2SnCSn2CSnTe4Mg2SnCSn2CSnTe4Mg2SnCSn2CSnTe4Mg2SnCSn2CSnTe4Mg2
_chemical_formula_sum              "C66 N6 H36 B6 O6 Sn24 Te24 Mg12"
_cell_length_a       26.1805
_cell_length_b       26.1995
_cell_length_c       8.43644
_cell_angle_alpha    118.507
_cell_angle_beta     60.1855
_cell_angle_gamma    119.916

_symmetry_space_group_name_H-M    'P1'
_space_group_IT_number       1

loop_
  _space_group_symop_operation_xyz
  'x, y, z'

loop_
  _atom_site_type_symbol
  _atom_site_label
  _atom_site_symmetry_multiplicity
  _atom_site_fract_x
  _atom_site_fract_y
  _atom_site_fract_z
  _atom_site_occupancy
  C   C1        1.0  0.50435  0.39046  0.24425  1.0000
  C   C2        1.0  0.53901  0.36088  0.22880  1.0000
  C   C3        1.0  0.59937  0.39362  0.24282  1.0000
  C   C4        1.0  0.62323  0.45761  0.26857  1.0000
  C   C5        1.0  0.58940  0.48724  0.28009  1.0000
  C   C6        1.0  0.52890  0.45400  0.26651  1.0000
  N   N1        1.0  0.49055  0.47879  0.27572  1.0000
  C   C7        1.0  0.51434  0.53147  0.24539  1.0000
  H   H1        1.0  0.45755  0.36477  0.23506  1.0000
  H   H2        1.0  0.51861  0.31122  0.20469  1.0000
  H   H3        1.0  0.66900  0.48527  0.28460  1.0000
  H   H4        1.0  0.60939  0.53699  0.30462  1.0000
  H   H5        1.0  0.56499  0.55774  0.20676  1.0000
  H   H6        1.0  0.72224  0.43951  0.21304  1.0000
  B   B1        1.0  0.36707  0.64307  0.25799  1.0000
  O   O1        1.0  0.30543  0.60924  0.26333  1.0000
  C   C8        1.0  0.63470  0.36316  0.24064  1.0000
  C   C9        1.0  0.69746  0.39411  0.23310  1.0000
  C   C10       1.0  0.60378  0.12045  0.29702  1.0000
  C   C11       1.0  0.63136  0.18190  0.30064  1.0000
  C   C12       1.0  0.60622  0.20797  0.25627  1.0000
  C   C13       1.0  0.55134  0.16893  0.20789  1.0000
  C   C14       1.0  0.52328  0.10760  0.20525  1.0000
  C   C15       1.0  0.54876  0.08209  0.25089  1.0000
  N   N2        1.0  0.52504  0.02062  0.24829  1.0000
  C   C16       1.0  0.39135  0.79546  0.22720  1.0000
  C   C17       1.0  0.35593  0.82389  0.23681  1.0000
  C   C18       1.0  0.45358  0.83139  0.22381  1.0000
  C   C19       1.0  0.38114  0.88572  0.24497  1.0000
  C   C20       1.0  0.47932  0.89292  0.23020  1.0000
  C   C21       1.0  0.44314  0.92119  0.24240  1.0000
  C   C22       1.0  0.46810  0.98600  0.25219  1.0000
  H   H7        1.0  0.62332  0.10129  0.33456  1.0000
  H   H8        1.0  0.67271  0.21043  0.34269  1.0000
  H   H9        1.0  0.53194  0.18582  0.16225  1.0000
  H   H10       1.0  0.48302  0.07832  0.15750  1.0000
  H   H11       1.0  0.30798  0.79678  0.23818  1.0000
  H   H12       1.0  0.48131  0.81023  0.21907  1.0000
  H   H13       1.0  0.35340  0.90718  0.25128  1.0000
  H   H14       1.0  0.52701  0.92106  0.22966  1.0000
  H   H15       1.0  0.43517  0.00320  0.26483  1.0000
  H   H16       1.0  0.55652  0.27852  0.26542  1.0000
  B   B2        1.0  0.36176  0.72789  0.23147  1.0000
  O   O2        1.0  0.39468  0.70287  0.24564  1.0000
  C   C23       1.0  0.63731  0.27277  0.25341  1.0000
  C   C24       1.0  0.60557  0.30272  0.25250  1.0000
  N   N3        1.0  0.98244  0.50760  0.24081  1.0000
  C   C25       1.0  0.01249  0.49118  0.28165  1.0000
  H   H17       1.0  0.99060  0.44989  0.32779  1.0000
  H   H18       1.0  0.72314  0.28530  0.26624  1.0000
  B   B3        1.0  0.27212  0.63352  0.24806  1.0000
  O   O3        1.0  0.30109  0.69240  0.22695  1.0000
  C   C26       1.0  0.72962  0.36740  0.24697  1.0000
  C   C27       1.0  0.69898  0.30647  0.25469  1.0000
  N   N4        1.0  0.49485  0.47571  0.75872  1.0000
  C   C28       1.0  0.51462  0.53328  0.77153  1.0000
  H   H19       1.0  0.56011  0.56631  0.78835  1.0000
  H   H20       1.0  0.71718  0.44188  0.76434  1.0000
  B   B4        1.0  0.36793  0.63995  0.75783  1.0000
  O   O4        1.0  0.30685  0.60484  0.75759  1.0000
  C   C29       1.0  0.63484  0.36075  0.74616  1.0000
  C   C30       1.0  0.69610  0.39299  0.75109  1.0000
  C   C31       1.0  0.61014  0.11007  0.73634  1.0000
  C   C32       1.0  0.63922  0.17128  0.73648  1.0000
  C   C33       1.0  0.60719  0.20381  0.74897  1.0000
  C   C34       1.0  0.54344  0.17152  0.76647  1.0000
  C   C35       1.0  0.51405  0.11012  0.76504  1.0000
  C   C36       1.0  0.54731  0.07761  0.74626  1.0000
  N   N5        1.0  0.52201  0.01687  0.75091  1.0000
  C   C37       1.0  0.47180  0.97784  0.70876  1.0000
  H   H21       1.0  0.63506  0.08617  0.73175  1.0000
  H   H22       1.0  0.68777  0.19416  0.72925  1.0000
  H   H23       1.0  0.51588  0.19452  0.78043  1.0000
  H   H24       1.0  0.46473  0.08749  0.78036  1.0000
  H   H25       1.0  0.44815  0.98901  0.65849  1.0000
  H   H26       1.0  0.56082  0.27253  0.73184  1.0000
  B   B5        1.0  0.36030  0.72551  0.74363  1.0000
  O   O5        1.0  0.39370  0.70096  0.75815  1.0000
  C   C38       1.0  0.63869  0.26861  0.74446  1.0000
  C   C39       1.0  0.60740  0.29853  0.74134  1.0000
  C   C40       1.0  0.89170  0.48800  0.70574  1.0000
  C   C41       1.0  0.83136  0.45441  0.69777  1.0000
  C   C42       1.0  0.79538  0.39886  0.74582  1.0000
  C   C43       1.0  0.82350  0.37813  0.79852  1.0000
  C   C44       1.0  0.88416  0.41070  0.80259  1.0000
  C   C45       1.0  0.91956  0.46671  0.75734  1.0000
  N   N6        1.0  0.98052  0.50398  0.76079  1.0000
  C   C46       1.0  0.20391  0.59084  0.75353  1.0000
  C   C47       1.0  0.17683  0.52918  0.75525  1.0000
  C   C48       1.0  0.16614  0.61719  0.76460  1.0000
  C   C49       1.0  0.11458  0.49504  0.76636  1.0000
  C   C50       1.0  0.10407  0.58344  0.77545  1.0000
  C   C51       1.0  0.07760  0.52166  0.77527  1.0000
  C   C52       1.0  0.01371  0.48389  0.77545  1.0000
  H   H27       1.0  0.91924  0.53067  0.66776  1.0000
  H   H28       1.0  0.81289  0.47121  0.64867  1.0000
  H   H29       1.0  0.79659  0.33674  0.84374  1.0000
  H   H30       1.0  0.90303  0.39333  0.84826  1.0000
  H   H31       1.0  0.20483  0.50845  0.75097  1.0000
  H   H32       1.0  0.18631  0.66499  0.76470  1.0000
  H   H33       1.0  0.09379  0.44760  0.76954  1.0000
  H   H34       1.0  0.07484  0.60323  0.78218  1.0000
  H   H35       1.0  0.99703  0.43692  0.78188  1.0000
  H   H36       1.0  0.72725  0.27955  0.73666  1.0000
  B   B6        1.0  0.27254  0.62929  0.74696  1.0000
  O   O6        1.0  0.30025  0.68892  0.73325  1.0000
  C   C53       1.0  0.73043  0.36408  0.74407  1.0000
  C   C54       1.0  0.70101  0.30190  0.74065  1.0000
  C  Sn1       1.0  0.15016  0.62327  0.29157  1.0000
  C   C55       1.0  0.19016  0.60695  0.30848  1.0000
  C  Sn2       1.0  0.17547  0.54576  0.29042  1.0000
  C  Sn3       1.0  0.11965  0.49991  0.25459  1.0000
  C   C56       1.0  0.07969  0.51623  0.23767  1.0000
  C  Sn4       1.0  0.09434  0.57742  0.25575  1.0000
  O  Te1       1.0  0.16578  0.68472  0.31013  1.0000
  O  Te2       1.0  0.21618  0.53057  0.30794  1.0000
  O  Te3       1.0  0.10404  0.43842  0.23604  1.0000
  O  Te4       1.0  0.05367  0.59261  0.23821  1.0000
  Mg  Mg1       1.0  0.17448  0.44057  0.27130  1.0000
  Mg  Mg2       1.0  0.09534  0.68259  0.27472  1.0000
  C  Sn5       1.0  0.48607  0.63925  0.70645  1.0000
  C   C57       1.0  0.42450  0.61139  0.70710  1.0000
  C  Sn6       1.0  0.38535  0.55681  0.75653  1.0000
  C  Sn7       1.0  0.40820  0.52953  0.80647  1.0000
  C   C58       1.0  0.46974  0.55739  0.80584  1.0000
  C  Sn8       1.0  0.50893  0.61196  0.75639  1.0000
  O  Te5       1.0  0.52438  0.69380  0.65657  1.0000
  O  Te6       1.0  0.32397  0.52981  0.75608  1.0000
  O  Te7       1.0  0.36983  0.47493  0.85637  1.0000
  O  Te8       1.0  0.57027  0.63897  0.75686  1.0000
  Mg  Mg3       1.0  0.28979  0.45566  0.83464  1.0000
  Mg  Mg4       1.0  0.60447  0.71314  0.67842  1.0000
  C  Sn9       1.0  0.50203  0.39372  0.85039  1.0000
  C   C59       1.0  0.52587  0.44855  0.80817  1.0000
  C  Sn10      1.0  0.59005  0.47433  0.71659  1.0000
  C  Sn11      1.0  0.63125  0.44468  0.66604  1.0000
  C   C60       1.0  0.60741  0.38988  0.70823  1.0000
  C  Sn12      1.0  0.54324  0.36406  0.79984  1.0000
  O  Te9       1.0  0.43771  0.36877  0.94201  1.0000
  O  Te10      1.0  0.61278  0.52920  0.67592  1.0000
  O  Te11      1.0  0.69561  0.46968  0.57436  1.0000
  O  Te12      1.0  0.52050  0.30923  0.84047  1.0000
  Mg  Mg5       1.0  0.70408  0.54513  0.54926  1.0000
  Mg  Mg6       1.0  0.42921  0.29324  0.96703  1.0000
  C  Sn13      1.0  0.49437  0.63602  0.30444  1.0000
  C   C61       1.0  0.47564  0.57608  0.30612  1.0000
  C  Sn14      1.0  0.42056  0.53103  0.27125  1.0000
  C  Sn15      1.0  0.38345  0.54619  0.23380  1.0000
  C   C62       1.0  0.40219  0.60610  0.23210  1.0000
  C  Sn16      1.0  0.45725  0.65118  0.26699  1.0000
  O  Te13      1.0  0.54960  0.68032  0.33967  1.0000
  O  Te14      1.0  0.40279  0.47143  0.27375  1.0000
  O  Te15      1.0  0.32818  0.50183  0.19857  1.0000
  O  Te16      1.0  0.47504  0.71075  0.26447  1.0000
  Mg  Mg7       1.0  0.32367  0.42711  0.21731  1.0000
  Mg  Mg8       1.0  0.55416  0.75509  0.32079  1.0000
  C  Sn17      1.0  0.45023  0.85051  0.81294  1.0000
  C   C63       1.0  0.39326  0.80610  0.79060  1.0000
  C  Sn18      1.0  0.36231  0.81420  0.71357  1.0000
  C  Sn19      1.0  0.38886  0.86781  0.65758  1.0000
  C   C64       1.0  0.44580  0.91218  0.67989  1.0000
  C  Sn20      1.0  0.47678  0.90412  0.75695  1.0000
  O  Te17      1.0  0.48035  0.84145  0.89026  1.0000
  O  Te18      1.0  0.30539  0.76917  0.69269  1.0000
  O  Te19      1.0  0.35868  0.87684  0.58022  1.0000
  O  Te20      1.0  0.53366  0.94911  0.77780  1.0000
  Mg  Mg9       1.0  0.28220  0.80240  0.58010  1.0000
  Mg  Mg10      1.0  0.55691  0.91591  0.89028  1.0000
  C  Sn21      1.0  0.84174  0.37878  0.26391  1.0000
  C   C65       1.0  0.79772  0.40073  0.29408  1.0000
  C  Sn22      1.0  0.81656  0.45959  0.28421  1.0000
  C  Sn23      1.0  0.88075  0.49729  0.24320  1.0000
  C   C66       1.0  0.92473  0.47534  0.21303  1.0000
  C  Sn24      1.0  0.90592  0.41648  0.22291  1.0000
  O  Te21      1.0  0.82185  0.31979  0.27447  1.0000
  O  Te22      1.0  0.77169  0.48053  0.31496  1.0000
  O  Te23      1.0  0.90062  0.55632  0.23267  1.0000
  O  Te24      1.0  0.95076  0.39554  0.19215  1.0000
  Mg  Mg11      1.0  0.82187  0.56422  0.28529  1.0000
  Mg  Mg12      1.0  0.90064  0.31185  0.22169  1.0000
