data_image0
_chemical_formula_structural       C18O3B3O3H6C6H3NCHNCHNCHC18O3B3O3H6C6H3NCHNCHNCHSnCSn2CSnTe4Mg2SnCSn2CSnTe4Mg2SnCSn2CSnTe4Mg2SnCSn2CSnTe4Mg2SnCSn2CSnTe4Mg2SnCSn2CSnTe4Mg2SnCSn2CSnTe4Mg2SnCSn2CSnTe4Mg2SnCSn2CSnTe4Mg2SnCSn2CSnTe4Mg2SnCSn2CSnTe4Mg2SnCSn2CSnTe4Mg2
_chemical_formula_sum              "C78 O12 B6 H24 N6 Sn48 Te48 Mg24"
_cell_length_a       33.5006
_cell_length_b       33.6077
_cell_length_c       8.086
_cell_angle_alpha    104.488
_cell_angle_beta     61.1628
_cell_angle_gamma    120.018

_symmetry_space_group_name_H-M    'P1'
_space_group_IT_number       1

loop_
  _space_group_symop_operation_xyz
  'x, y, z'

loop_
  _atom_site_type_symbol
  _atom_site_label
  _atom_site_symmetry_multiplicity
  _atom_site_fract_x
  _atom_site_fract_y
  _atom_site_fract_z
  _atom_site_occupancy
  C   C1        1.0  0.28735  0.65886  0.24631  1.0000
  C   C2        1.0  0.34072  0.62743  0.24873  1.0000
  C   C3        1.0  0.37056  0.71231  0.26389  1.0000
  C   C4        1.0  0.29406  0.62024  0.24824  1.0000
  C   C5        1.0  0.37800  0.67294  0.26162  1.0000
  C   C6        1.0  0.32642  0.70538  0.25103  1.0000
  C   C7        1.0  0.25515  0.57494  0.25080  1.0000
  C   C8        1.0  0.42294  0.67980  0.26596  1.0000
  C   C9        1.0  0.32066  0.74390  0.24307  1.0000
  C   C10       1.0  0.21197  0.56951  0.24839  1.0000
  C   C11       1.0  0.42928  0.64186  0.25682  1.0000
  C   C12       1.0  0.35784  0.78710  0.25056  1.0000
  C   C13       1.0  0.20576  0.60743  0.24458  1.0000
  C   C14       1.0  0.39295  0.59734  0.24243  1.0000
  C   C15       1.0  0.40073  0.79384  0.26533  1.0000
  C   C16       1.0  0.24210  0.65173  0.24427  1.0000
  C   C17       1.0  0.34918  0.58923  0.23700  1.0000
  C   C18       1.0  0.40788  0.75768  0.27319  1.0000
  O   O1        1.0  0.15926  0.59229  0.24287  1.0000
  O   O2        1.0  0.40864  0.56585  0.23692  1.0000
  O   O3        1.0  0.43216  0.84047  0.26659  1.0000
  B   B1        1.0  0.13711  0.54402  0.24593  1.0000
  B   B2        1.0  0.45560  0.59234  0.24918  1.0000
  B   B3        1.0  0.40736  0.86199  0.25050  1.0000
  O   O4        1.0  0.16947  0.52937  0.24884  1.0000
  O   O5        1.0  0.46920  0.63956  0.25906  1.0000
  O   O6        1.0  0.36116  0.82935  0.24107  1.0000
  H   H1        1.0  0.25863  0.54495  0.25592  1.0000
  H   H2        1.0  0.45190  0.71380  0.27661  1.0000
  H   H3        1.0  0.28878  0.74020  0.22601  1.0000
  H   H4        1.0  0.23549  0.68003  0.24260  1.0000
  H   H5        1.0  0.32247  0.55419  0.22326  1.0000
  H   H6        1.0  0.44145  0.76443  0.28643  1.0000
  C   C19       1.0  0.64321  0.35809  0.24854  1.0000
  C   C20       1.0  0.63777  0.28293  0.25742  1.0000
  C   C21       1.0  0.71379  0.35371  0.25171  1.0000
  C   C22       1.0  0.61683  0.30989  0.25499  1.0000
  C   C23       1.0  0.68628  0.30564  0.25642  1.0000
  C   C24       1.0  0.69161  0.37919  0.24692  1.0000
  H   H7        1.0  0.71263  0.41634  0.24177  1.0000
  H   H8        1.0  0.57927  0.29325  0.25720  1.0000
  H   H9        1.0  0.70321  0.28574  0.26014  1.0000
  N   N1        1.0  0.54720  0.46164  0.27169  1.0000
  C   C25       1.0  0.56797  0.50571  0.25633  1.0000
  H   H10       1.0  0.60732  0.52853  0.23971  1.0000
  N   N2        1.0  0.53287  0.08630  0.26944  1.0000
  C   C26       1.0  0.49561  0.06110  0.22147  1.0000
  H   H11       1.0  0.48056  0.07540  0.16941  1.0000
  N   N3        1.0  0.91369  0.44779  0.22674  1.0000
  C   C27       1.0  0.93786  0.42959  0.24177  1.0000
  H   H12       1.0  0.92312  0.39225  0.24876  1.0000
  C   C28       1.0  0.28860  0.66033  0.74661  1.0000
  C   C29       1.0  0.34259  0.62979  0.75042  1.0000
  C   C30       1.0  0.37162  0.71450  0.76478  1.0000
  C   C31       1.0  0.29585  0.62207  0.74898  1.0000
  C   C32       1.0  0.37971  0.67547  0.76200  1.0000
  C   C33       1.0  0.32739  0.70707  0.75099  1.0000
  C   C34       1.0  0.25734  0.57655  0.75141  1.0000
  C   C35       1.0  0.42475  0.68266  0.76661  1.0000
  C   C36       1.0  0.32121  0.74529  0.74219  1.0000
  C   C37       1.0  0.21369  0.57064  0.75155  1.0000
  C   C38       1.0  0.43134  0.64500  0.75961  1.0000
  C   C39       1.0  0.35808  0.78872  0.74971  1.0000
  C   C40       1.0  0.20682  0.60816  0.74775  1.0000
  C   C41       1.0  0.39502  0.60029  0.74767  1.0000
  C   C42       1.0  0.40070  0.79595  0.76794  1.0000
  C   C43       1.0  0.24310  0.65265  0.74481  1.0000
  C   C44       1.0  0.35109  0.59185  0.74241  1.0000
  C   C45       1.0  0.40819  0.76009  0.77676  1.0000
  O   O7        1.0  0.15985  0.59239  0.74893  1.0000
  O   O8        1.0  0.41076  0.56914  0.74537  1.0000
  O   O9        1.0  0.43177  0.84266  0.76932  1.0000
  B   B4        1.0  0.13824  0.54415  0.75213  1.0000
  B   B5        1.0  0.45790  0.59605  0.75642  1.0000
  B   B6        1.0  0.40721  0.86379  0.74901  1.0000
  O   O10       1.0  0.17115  0.53017  0.75488  1.0000
  O   O11       1.0  0.47119  0.64312  0.76453  1.0000
  O   O12       1.0  0.36140  0.83078  0.73713  1.0000
  H   H13       1.0  0.26136  0.54675  0.75512  1.0000
  H   H14       1.0  0.45345  0.71675  0.77770  1.0000
  H   H15       1.0  0.28908  0.74097  0.72508  1.0000
  H   H16       1.0  0.23627  0.68066  0.74107  1.0000
  H   H17       1.0  0.32397  0.55673  0.73270  1.0000
  H   H18       1.0  0.44145  0.76717  0.79305  1.0000
  C   C46       1.0  0.64527  0.36154  0.75702  1.0000
  C   C47       1.0  0.63856  0.28543  0.75886  1.0000
  C   C48       1.0  0.71575  0.35511  0.75122  1.0000
  C   C49       1.0  0.61766  0.31339  0.76582  1.0000
  C   C50       1.0  0.68802  0.30707  0.74890  1.0000
  C   C51       1.0  0.69388  0.38160  0.75249  1.0000
  H   H19       1.0  0.71526  0.41877  0.74871  1.0000
  H   H20       1.0  0.57895  0.29744  0.77947  1.0000
  H   H21       1.0  0.70563  0.28614  0.73693  1.0000
  N   N4        1.0  0.55286  0.46674  0.76413  1.0000
  C   C52       1.0  0.57250  0.51092  0.75728  1.0000
  H   H22       1.0  0.61088  0.53425  0.75003  1.0000
  N   N5        1.0  0.53092  0.08871  0.77278  1.0000
  C   C53       1.0  0.49374  0.06286  0.72480  1.0000
  H   H23       1.0  0.47708  0.07625  0.67692  1.0000
  N   N6        1.0  0.91585  0.44629  0.72337  1.0000
  C   C54       1.0  0.93944  0.42831  0.74396  1.0000
  H   H24       1.0  0.92409  0.39115  0.75848  1.0000
  C  Sn1       1.0  0.81528  0.42542  0.12750  1.0000
  C   C55       1.0  0.77702  0.38110  0.18877  1.0000
  C  Sn2       1.0  0.77996  0.35657  0.29541  1.0000
  C  Sn3       1.0  0.82199  0.37677  0.34189  1.0000
  C   C56       1.0  0.86022  0.42106  0.28066  1.0000
  C  Sn4       1.0  0.85732  0.44561  0.17397  1.0000
  O  Te1       1.0  0.81156  0.44931  0.02105  1.0000
  O  Te2       1.0  0.74125  0.31231  0.35501  1.0000
  O  Te3       1.0  0.82569  0.35284  0.44842  1.0000
  O  Te4       1.0  0.89599  0.48985  0.11442  1.0000
  Mg  Mg1       1.0  0.76343  0.29355  0.49692  1.0000
  Mg  Mg2       1.0  0.75885  0.51150  0.97259  1.0000
  C  Sn5       1.0  0.63344  0.45973  0.25122  1.0000
  C   C57       1.0  0.59111  0.44568  0.21700  1.0000
  C  Sn6       1.0  0.55837  0.39901  0.21326  1.0000
  C  Sn7       1.0  0.56811  0.36568  0.24450  1.0000
  C   C58       1.0  0.61041  0.37974  0.27873  1.0000
  C  Sn8       1.0  0.64318  0.42641  0.28246  1.0000
  O  Te5       1.0  0.66566  0.50658  0.25432  1.0000
  O  Te6       1.0  0.51631  0.38579  0.17871  1.0000
  O  Te7       1.0  0.53585  0.31881  0.24137  1.0000
  O  Te8       1.0  0.68521  0.43962  0.31702  1.0000
  Mg  Mg3       1.0  0.48352  0.31789  0.18856  1.0000
  Mg  Mg4       1.0  0.71801  0.50752  0.30730  1.0000
  C  Sn9       1.0  0.54523  0.19911  0.34123  1.0000
  C   C59       1.0  0.59558  0.22691  0.31704  1.0000
  C  Sn10      1.0  0.62969  0.20810  0.24946  1.0000
  C  Sn11      1.0  0.61313  0.16051  0.20501  1.0000
  C   C60       1.0  0.56281  0.13274  0.22916  1.0000
  C  Sn12      1.0  0.52867  0.15152  0.29677  1.0000
  O  Te9       1.0  0.51179  0.21865  0.40897  1.0000
  O  Te10      1.0  0.67983  0.23658  0.22652  1.0000
  O  Te11      1.0  0.64662  0.14099  0.13723  1.0000
  O  Te12      1.0  0.47855  0.12307  0.31969  1.0000
  Mg  Mg5       1.0  0.71111  0.19389  0.12983  1.0000
  Mg  Mg6       1.0  0.44725  0.16572  0.41627  1.0000
  C  Sn13      1.0  0.49314  0.50386  0.18065  1.0000
  C   C61       1.0  0.53828  0.52463  0.20318  1.0000
  C  Sn14      1.0  0.55606  0.56983  0.27035  1.0000
  C  Sn15      1.0  0.52814  0.59478  0.31607  1.0000
  C   C62       1.0  0.48303  0.57402  0.29356  1.0000
  C  Sn16      1.0  0.46521  0.52882  0.22637  1.0000
  O  Te13      1.0  0.47607  0.45863  0.11329  1.0000
  O  Te14      1.0  0.60130  0.58986  0.29163  1.0000
  O  Te15      1.0  0.54525  0.64004  0.38346  1.0000
  O  Te16      1.0  0.42000  0.50878  0.20511  1.0000
  Mg  Mg7       1.0  0.60895  0.65234  0.38842  1.0000
  Mg  Mg8       1.0  0.41231  0.44630  0.10843  1.0000
  C  Sn17      1.0  0.41321  0.94443  0.16777  1.0000
  C   C63       1.0  0.43175  0.91843  0.19368  1.0000
  C  Sn18      1.0  0.47024  0.93944  0.25588  1.0000
  C  Sn19      1.0  0.49061  0.98743  0.29307  1.0000
  C   C64       1.0  0.97019  0.01340  0.26718  1.0000
  C  Sn20      1.0  0.43358  0.99242  0.20495  1.0000
  O  Te17      1.0  0.37471  0.92270  0.10549  1.0000
  O  Te18      1.0  0.48817  0.91274  0.28069  1.0000
  O  Te19      1.0  0.02727  0.00915  0.35538  1.0000
  O  Te20      1.0  0.91377  0.01909  0.18017  1.0000
  Mg  Mg9       1.0  0.54097  0.95811  0.36802  1.0000
  Mg  Mg10      1.0  0.36283  0.97376  0.09295  1.0000
  C  Sn21      1.0  0.02601  0.51435  0.18246  1.0000
  C   C65       1.0  0.99806  0.46654  0.19390  1.0000
  C  Sn22      1.0  0.01140  0.44074  0.25100  1.0000
  C  Sn23      1.0  0.05354  0.46321  0.29775  1.0000
  C   C66       1.0  0.08146  0.51099  0.28633  1.0000
  C  Sn24      1.0  0.06816  0.53682  0.22922  1.0000
  O  Te21      1.0  0.01199  0.53945  0.12506  1.0000
  O  Te22      1.0  0.98288  0.39298  0.26129  1.0000
  O  Te23      1.0  0.06754  0.43806  0.35518  1.0000
  O  Te24      1.0  0.09664  0.58455  0.21895  1.0000
  Mg  Mg11      1.0  0.01691  0.37379  0.34712  1.0000
  Mg  Mg12      1.0  0.06263  0.60378  0.13324  1.0000
  C  Sn25      1.0  0.82820  0.36241  0.73328  1.0000
  C   C67       1.0  0.86601  0.40742  0.68247  1.0000
  C  Sn26      1.0  0.85377  0.44095  0.67616  1.0000
  C  Sn27      1.0  0.80268  0.42925  0.72171  1.0000
  C   C68       1.0  0.76490  0.38427  0.77251  1.0000
  C  Sn28      1.0  0.77710  0.35072  0.77882  1.0000
  O  Te25      1.0  0.84130  0.32945  0.73865  1.0000
  O  Te26      1.0  0.89223  0.48570  0.62490  1.0000
  O  Te27      1.0  0.78960  0.46226  0.71629  1.0000
  O  Te28      1.0  0.73868  0.30599  0.83008  1.0000
  Mg  Mg13      1.0  0.85542  0.51851  0.63825  1.0000
  Mg  Mg14      1.0  0.77544  0.27317  0.81687  1.0000
  C  Sn29      1.0  0.58455  0.37769  0.65131  1.0000
  C   C69       1.0  0.62489  0.39096  0.69667  1.0000
  C  Sn30      1.0  0.64029  0.43146  0.79918  1.0000
  C  Sn31      1.0  0.61483  0.45927  0.85768  1.0000
  C   C70       1.0  0.57452  0.44599  0.81235  1.0000
  C  Sn32      1.0  0.55909  0.40550  0.70980  1.0000
  O  Te29      1.0  0.56978  0.33707  0.54872  1.0000
  O  Te30      1.0  0.68073  0.44402  0.84280  1.0000
  O  Te31      1.0  0.62963  0.49992  0.96034  1.0000
  O  Te32      1.0  0.51867  0.39294  0.66622  1.0000
  Mg  Mg15      1.0  0.68678  0.50244  0.98542  1.0000
  Mg  Mg16      1.0  0.51257  0.33452  0.52370  1.0000
  C  Sn33      1.0  0.63015  0.19631  0.74761  1.0000
  C   C71       1.0  0.61938  0.22853  0.71895  1.0000
  C  Sn34      1.0  0.57166  0.21539  0.72818  1.0000
  C  Sn35      1.0  0.53390  0.16909  0.76698  1.0000
  C   C72       1.0  0.54467  0.13691  0.79565  1.0000
  C  Sn36      1.0  0.59239  0.15002  0.78641  1.0000
  O  Te33      1.0  0.67811  0.21021  0.73774  1.0000
  O  Te34      1.0  0.56179  0.24821  0.69897  1.0000
  O  Te35      1.0  0.48591  0.15521  0.77683  1.0000
  O  Te36      1.0  0.60226  0.11723  0.81564  1.0000
  Mg  Mg17      1.0  0.49070  0.21253  0.72691  1.0000
  Mg  Mg18      1.0  0.67333  0.15287  0.78782  1.0000
  C  Sn37      1.0  0.55194  0.58693  0.83155  1.0000
  C   C73       1.0  0.54036  0.54034  0.80791  1.0000
  C  Sn38      1.0  0.50430  0.50975  0.73866  1.0000
  C  Sn39      1.0  0.47932  0.52607  0.69195  1.0000
  C   C74       1.0  0.49092  0.57264  0.71557  1.0000
  C  Sn40      1.0  0.52696  0.60325  0.78484  1.0000
  O  Te37      1.0  0.58811  0.61690  0.90098  1.0000
  O  Te38      1.0  0.49335  0.46331  0.71630  1.0000
  O  Te39      1.0  0.44312  0.49606  0.62248  1.0000
  O  Te40      1.0  0.53793  0.64966  0.80717  1.0000
  Mg  Mg19      1.0  0.44124  0.43593  0.61671  1.0000
  Mg  Mg20      1.0  0.59004  0.67708  0.90665  1.0000
  C  Sn41      1.0  0.41034  0.97487  0.77351  1.0000
  C   C75       1.0  0.95479  0.00776  0.77848  1.0000
  C  Sn42      1.0  0.49330  0.99480  0.74868  1.0000
  C  Sn43      1.0  0.48346  0.94800  0.71306  1.0000
  C   C76       1.0  0.43716  0.91515  0.70808  1.0000
  C  Sn44      1.0  0.40050  0.92807  0.73789  1.0000
  O  Te41      1.0  0.37427  0.98860  0.80369  1.0000
  O  Te42      1.0  0.03745  0.02830  0.75438  1.0000
  O  Te43      1.0  0.51958  0.93429  0.68288  1.0000
  O  Te44      1.0  0.35451  0.89461  0.73217  1.0000
  Mg  Mg21      1.0  0.57649  0.99261  0.70452  1.0000
  Mg  Mg22      1.0  0.31733  0.93026  0.78191  1.0000
  C  Sn45      1.0  0.02749  0.51344  0.68439  1.0000
  C   C77       1.0  0.99993  0.46559  0.69503  1.0000
  C  Sn46      1.0  0.01317  0.44008  0.75419  1.0000
  C  Sn47      1.0  0.05481  0.46287  0.80388  1.0000
  C   C78       1.0  0.08234  0.51069  0.79326  1.0000
  C  Sn48      1.0  0.06913  0.53623  0.73408  1.0000
  O  Te45      1.0  0.01357  0.53825  0.62489  1.0000
  O  Te46      1.0  0.98506  0.39227  0.76363  1.0000
  O  Te47      1.0  0.06871  0.43801  0.86341  1.0000
  O  Te48      1.0  0.09721  0.58401  0.72467  1.0000
  Mg  Mg23      1.0  0.01875  0.37355  0.85311  1.0000
  Mg  Mg24      1.0  0.06354  0.60276  0.63530  1.0000
