data_image0
_chemical_formula_structural       C18O3B3O3H6C6H3NCHNCHNCHC18O3B3O3H6C6H3NCHNCHNCHC2Sn2C2HTe2HMgC2Sn2C2HTe2HMgC2Sn2C2HTe2HMgC2Sn2C2HTe2HMgC2Sn2C2HTe2HMgC2Sn2C2HTe2HMgC2Sn2C2HTe2HMgC2Sn2C2HTe2HMgC2Sn2C2HTe2HMgC2Sn2C2HTe2HMgC2Sn2C2HTe2HMgC2Sn2C2HTe2HMg
_chemical_formula_sum              "C102 O12 B6 H48 N6 Sn24 Te24 Mg12"
_cell_length_a       33.5006
_cell_length_b       33.6077
_cell_length_c       8.086
_cell_angle_alpha    104.488
_cell_angle_beta     61.1628
_cell_angle_gamma    120.018

_symmetry_space_group_name_H-M    'P1'
_space_group_IT_number       1

loop_
  _space_group_symop_operation_xyz
  'x, y, z'

loop_
  _atom_site_type_symbol
  _atom_site_label
  _atom_site_symmetry_multiplicity
  _atom_site_fract_x
  _atom_site_fract_y
  _atom_site_fract_z
  _atom_site_occupancy
  C   C1        1.0  0.28735  0.65886  0.24631  1.0000
  C   C2        1.0  0.34072  0.62743  0.24873  1.0000
  C   C3        1.0  0.37056  0.71231  0.26389  1.0000
  C   C4        1.0  0.29406  0.62024  0.24824  1.0000
  C   C5        1.0  0.37800  0.67294  0.26162  1.0000
  C   C6        1.0  0.32642  0.70538  0.25103  1.0000
  C   C7        1.0  0.25515  0.57494  0.25080  1.0000
  C   C8        1.0  0.42294  0.67980  0.26596  1.0000
  C   C9        1.0  0.32066  0.74390  0.24307  1.0000
  C   C10       1.0  0.21197  0.56951  0.24839  1.0000
  C   C11       1.0  0.42928  0.64186  0.25682  1.0000
  C   C12       1.0  0.35784  0.78710  0.25056  1.0000
  C   C13       1.0  0.20576  0.60743  0.24458  1.0000
  C   C14       1.0  0.39295  0.59734  0.24243  1.0000
  C   C15       1.0  0.40073  0.79384  0.26533  1.0000
  C   C16       1.0  0.24210  0.65173  0.24427  1.0000
  C   C17       1.0  0.34918  0.58923  0.23700  1.0000
  C   C18       1.0  0.40788  0.75768  0.27319  1.0000
  O   O1        1.0  0.15926  0.59229  0.24287  1.0000
  O   O2        1.0  0.40864  0.56585  0.23692  1.0000
  O   O3        1.0  0.43216  0.84047  0.26659  1.0000
  B   B1        1.0  0.13711  0.54402  0.24593  1.0000
  B   B2        1.0  0.45560  0.59234  0.24918  1.0000
  B   B3        1.0  0.40736  0.86199  0.25050  1.0000
  O   O4        1.0  0.16947  0.52937  0.24884  1.0000
  O   O5        1.0  0.46920  0.63956  0.25906  1.0000
  O   O6        1.0  0.36116  0.82935  0.24107  1.0000
  H   H1        1.0  0.25863  0.54495  0.25592  1.0000
  H   H2        1.0  0.45190  0.71380  0.27661  1.0000
  H   H3        1.0  0.28878  0.74020  0.22601  1.0000
  H   H4        1.0  0.23549  0.68003  0.24260  1.0000
  H   H5        1.0  0.32247  0.55419  0.22326  1.0000
  H   H6        1.0  0.44145  0.76443  0.28643  1.0000
  C   C19       1.0  0.64321  0.35809  0.24854  1.0000
  C   C20       1.0  0.63777  0.28293  0.25742  1.0000
  C   C21       1.0  0.71379  0.35371  0.25171  1.0000
  C   C22       1.0  0.61683  0.30989  0.25499  1.0000
  C   C23       1.0  0.68628  0.30564  0.25642  1.0000
  C   C24       1.0  0.69161  0.37919  0.24692  1.0000
  H   H7        1.0  0.71263  0.41634  0.24177  1.0000
  H   H8        1.0  0.57927  0.29325  0.25720  1.0000
  H   H9        1.0  0.70321  0.28574  0.26014  1.0000
  N   N1        1.0  0.54720  0.46164  0.27169  1.0000
  C   C25       1.0  0.56797  0.50571  0.25633  1.0000
  H   H10       1.0  0.60732  0.52853  0.23971  1.0000
  N   N2        1.0  0.53287  0.08630  0.26944  1.0000
  C   C26       1.0  0.49561  0.06110  0.22147  1.0000
  H   H11       1.0  0.48056  0.07540  0.16941  1.0000
  N   N3        1.0  0.91369  0.44779  0.22674  1.0000
  C   C27       1.0  0.93786  0.42959  0.24177  1.0000
  H   H12       1.0  0.92312  0.39225  0.24876  1.0000
  C   C28       1.0  0.28860  0.66033  0.74661  1.0000
  C   C29       1.0  0.34259  0.62979  0.75042  1.0000
  C   C30       1.0  0.37162  0.71450  0.76478  1.0000
  C   C31       1.0  0.29585  0.62207  0.74898  1.0000
  C   C32       1.0  0.37971  0.67547  0.76200  1.0000
  C   C33       1.0  0.32739  0.70707  0.75099  1.0000
  C   C34       1.0  0.25734  0.57655  0.75141  1.0000
  C   C35       1.0  0.42475  0.68266  0.76661  1.0000
  C   C36       1.0  0.32121  0.74529  0.74219  1.0000
  C   C37       1.0  0.21369  0.57064  0.75155  1.0000
  C   C38       1.0  0.43134  0.64500  0.75961  1.0000
  C   C39       1.0  0.35808  0.78872  0.74971  1.0000
  C   C40       1.0  0.20682  0.60816  0.74775  1.0000
  C   C41       1.0  0.39502  0.60029  0.74767  1.0000
  C   C42       1.0  0.40070  0.79595  0.76794  1.0000
  C   C43       1.0  0.24310  0.65265  0.74481  1.0000
  C   C44       1.0  0.35109  0.59185  0.74241  1.0000
  C   C45       1.0  0.40819  0.76009  0.77676  1.0000
  O   O7        1.0  0.15985  0.59239  0.74893  1.0000
  O   O8        1.0  0.41076  0.56914  0.74537  1.0000
  O   O9        1.0  0.43177  0.84266  0.76932  1.0000
  B   B4        1.0  0.13824  0.54415  0.75213  1.0000
  B   B5        1.0  0.45790  0.59605  0.75642  1.0000
  B   B6        1.0  0.40721  0.86379  0.74901  1.0000
  O   O10       1.0  0.17115  0.53017  0.75488  1.0000
  O   O11       1.0  0.47119  0.64312  0.76453  1.0000
  O   O12       1.0  0.36140  0.83078  0.73713  1.0000
  H   H13       1.0  0.26136  0.54675  0.75512  1.0000
  H   H14       1.0  0.45345  0.71675  0.77770  1.0000
  H   H15       1.0  0.28908  0.74097  0.72508  1.0000
  H   H16       1.0  0.23627  0.68066  0.74107  1.0000
  H   H17       1.0  0.32397  0.55673  0.73270  1.0000
  H   H18       1.0  0.44145  0.76717  0.79305  1.0000
  C   C46       1.0  0.64527  0.36154  0.75702  1.0000
  C   C47       1.0  0.63856  0.28543  0.75886  1.0000
  C   C48       1.0  0.71575  0.35511  0.75122  1.0000
  C   C49       1.0  0.61766  0.31339  0.76582  1.0000
  C   C50       1.0  0.68802  0.30707  0.74890  1.0000
  C   C51       1.0  0.69388  0.38160  0.75249  1.0000
  H   H19       1.0  0.71526  0.41877  0.74871  1.0000
  H   H20       1.0  0.57895  0.29744  0.77947  1.0000
  H   H21       1.0  0.70563  0.28614  0.73693  1.0000
  N   N4        1.0  0.55286  0.46674  0.76413  1.0000
  C   C52       1.0  0.57250  0.51092  0.75728  1.0000
  H   H22       1.0  0.61088  0.53425  0.75003  1.0000
  N   N5        1.0  0.53092  0.08871  0.77278  1.0000
  C   C53       1.0  0.49374  0.06286  0.72480  1.0000
  H   H23       1.0  0.47708  0.07625  0.67692  1.0000
  N   N6        1.0  0.91585  0.44629  0.72337  1.0000
  C   C54       1.0  0.93944  0.42831  0.74396  1.0000
  H   H24       1.0  0.92409  0.39115  0.75848  1.0000
  C   C55       1.0  0.81903  0.36564  0.30664  1.0000
  C   C56       1.0  0.85902  0.40858  0.23403  1.0000
  C  Sn1       1.0  0.85149  0.43804  0.16943  1.0000
  C  Sn2       1.0  0.80298  0.42415  0.17789  1.0000
  C   C57       1.0  0.76321  0.38114  0.25090  1.0000
  C   C58       1.0  0.77117  0.35193  0.31511  1.0000
  H   H25       1.0  0.82517  0.34305  0.35641  1.0000
  O  Te1       1.0  0.89186  0.48081  0.09725  1.0000
  O  Te2       1.0  0.79440  0.45292  0.11436  1.0000
  H   H26       1.0  0.74019  0.31869  0.37143  1.0000
  Mg  Mg1       1.0  0.86136  0.50789  0.02793  1.0000
  C   C59       1.0  0.62585  0.45845  0.31476  1.0000
  C   C60       1.0  0.58701  0.44642  0.26251  1.0000
  C  Sn3       1.0  0.56183  0.40128  0.20785  1.0000
  C  Sn4       1.0  0.57587  0.36764  0.20566  1.0000
  C   C61       1.0  0.61474  0.38002  0.25831  1.0000
  C   C62       1.0  0.63970  0.42529  0.31271  1.0000
  H   H27       1.0  0.64514  0.49348  0.35695  1.0000
  O  Te3       1.0  0.52313  0.38984  0.15601  1.0000
  O  Te4       1.0  0.55132  0.32227  0.15170  1.0000
  H   H28       1.0  0.66975  0.43459  0.35327  1.0000
  Mg  Mg2       1.0  0.50096  0.32349  0.09313  1.0000
  C   C63       1.0  0.63189  0.19342  0.24587  1.0000
  C   C64       1.0  0.61746  0.22573  0.24399  1.0000
  C  Sn5       1.0  0.56836  0.21167  0.26483  1.0000
  C  Sn6       1.0  0.53313  0.16437  0.28800  1.0000
  C   C65       1.0  0.54793  0.13233  0.28982  1.0000
  C   C66       1.0  0.59716  0.14677  0.26879  1.0000
  H   H29       1.0  0.66997  0.20459  0.22971  1.0000
  O  Te5       1.0  0.55458  0.24439  0.26255  1.0000
  O  Te6       1.0  0.48382  0.14938  0.30918  1.0000
  H   H30       1.0  0.60831  0.12175  0.27038  1.0000
  Mg  Mg3       1.0  0.48301  0.20705  0.29666  1.0000
  C   C67       1.0  0.46877  0.51178  0.23045  1.0000
  C   C68       1.0  0.47897  0.55805  0.25907  1.0000
  C  Sn7       1.0  0.52316  0.59088  0.28006  1.0000
  C  Sn8       1.0  0.55771  0.57702  0.27214  1.0000
  C   C69       1.0  0.54717  0.53065  0.24331  1.0000
  C   C70       1.0  0.50283  0.49809  0.22254  1.0000
  H   H31       1.0  0.43448  0.48659  0.21428  1.0000
  O  Te7       1.0  0.53276  0.63696  0.30863  1.0000
  O  Te8       1.0  0.60217  0.60911  0.29261  1.0000
  H   H32       1.0  0.49495  0.46227  0.20026  1.0000
  Mg  Mg4       1.0  0.59846  0.66786  0.32879  1.0000
  C   C71       1.0  0.41557  0.97159  0.21391  1.0000
  C   C72       1.0  0.95781  0.00519  0.23375  1.0000
  C  Sn9       1.0  0.49100  0.99251  0.25349  1.0000
  C  Sn10      1.0  0.47784  0.94527  0.25326  1.0000
  C   C73       1.0  0.43365  0.91192  0.23319  1.0000
  C   C74       1.0  0.40257  0.92499  0.21360  1.0000
  H   H33       1.0  0.39153  0.98170  0.19865  1.0000
  O  Te9       1.0  0.03305  0.02653  0.27323  1.0000
  O  Te10      1.0  0.50848  0.93164  0.27267  1.0000
  H   H34       1.0  0.36843  0.89897  0.19812  1.0000
  Mg  Mg5       1.0  0.56445  0.99077  0.29545  1.0000
  C   C75       1.0  0.04644  0.53249  0.23365  1.0000
  C   C76       1.0  0.07703  0.51917  0.25533  1.0000
  C  Sn11      1.0  0.06250  0.47264  0.26525  1.0000
  C  Sn12      1.0  0.01647  0.43890  0.25315  1.0000
  C   C77       1.0  0.98616  0.45258  0.23133  1.0000
  C   C78       1.0  0.00105  0.49924  0.22163  1.0000
  H   H35       1.0  0.05797  0.56858  0.22604  1.0000
  O  Te11      1.0  0.09350  0.45993  0.28700  1.0000
  O  Te12      1.0  0.00105  0.39216  0.26259  1.0000
  H   H36       1.0  0.97737  0.50954  0.20472  1.0000
  Mg  Mg6       1.0  0.05620  0.39195  0.29272  1.0000
  C   C79       1.0  0.79551  0.35210  0.79224  1.0000
  C   C80       1.0  0.77030  0.37133  0.76684  1.0000
  C  Sn13      1.0  0.79606  0.41683  0.70864  1.0000
  C  Sn14      1.0  0.84802  0.44347  0.67531  1.0000
  C   C81       1.0  0.87290  0.42390  0.70100  1.0000
  C   C82       1.0  0.84676  0.37835  0.75933  1.0000
  H   H37       1.0  0.77529  0.31685  0.83727  1.0000
  O  Te13      1.0  0.77029  0.43551  0.68401  1.0000
  O  Te14      1.0  0.87468  0.48902  0.61699  1.0000
  H   H38       1.0  0.86630  0.36346  0.77887  1.0000
  Mg  Mg7       1.0  0.82300  0.49910  0.60298  1.0000
  C   C83       1.0  0.57116  0.37156  0.70680  1.0000
  C   C84       1.0  0.61466  0.38516  0.73249  1.0000
  C  Sn15      1.0  0.63974  0.43022  0.78807  1.0000
  C  Sn16      1.0  0.62084  0.46218  0.81843  1.0000
  C   C85       1.0  0.57728  0.44822  0.79248  1.0000
  C   C86       1.0  0.55248  0.40305  0.73679  1.0000
  H   H39       1.0  0.55196  0.33660  0.66381  1.0000
  O  Te15      1.0  0.68315  0.44324  0.81303  1.0000
  O  Te16      1.0  0.64516  0.50742  0.87410  1.0000
  H   H40       1.0  0.51879  0.39252  0.71703  1.0000
  Mg  Mg8       1.0  0.70300  0.50875  0.88975  1.0000
  C   C87       1.0  0.60931  0.16990  0.80407  1.0000
  C   C88       1.0  0.56411  0.14177  0.78288  1.0000
  C  Sn17      1.0  0.54143  0.16096  0.74131  1.0000
  C  Sn18      1.0  0.56452  0.20923  0.72059  1.0000
  C   C89       1.0  0.60976  0.23708  0.74193  1.0000
  C   C90       1.0  0.63212  0.21751  0.78359  1.0000
  H   H41       1.0  0.62663  0.15477  0.83620  1.0000
  O  Te17      1.0  0.49626  0.13236  0.72068  1.0000
  O  Te18      1.0  0.54267  0.22931  0.67898  1.0000
  H   H42       1.0  0.66714  0.23930  0.79986  1.0000
  Mg  Mg9       1.0  0.48103  0.17595  0.66418  1.0000
  C   C91       1.0  0.54641  0.60298  0.78299  1.0000
  C   C92       1.0  0.50254  0.58317  0.75245  1.0000
  C  Sn19      1.0  0.47756  0.53560  0.72998  1.0000
  C  Sn20      1.0  0.49695  0.50742  0.73835  1.0000
  C   C93       1.0  0.54085  0.52757  0.76909  1.0000
  C   C94       1.0  0.56554  0.57521  0.79134  1.0000
  H   H43       1.0  0.56550  0.63983  0.80031  1.0000
  O  Te19      1.0  0.43379  0.51638  0.69951  1.0000
  O  Te20      1.0  0.47273  0.45978  0.71642  1.0000
  H   H44       1.0  0.59949  0.59053  0.81510  1.0000
  Mg  Mg10      1.0  0.41428  0.44974  0.67787  1.0000
  C   C95       1.0  0.41526  0.97317  0.71040  1.0000
  C   C96       1.0  0.95684  0.00684  0.73454  1.0000
  C  Sn21      1.0  0.48985  0.99427  0.75626  1.0000
  C  Sn22      1.0  0.47715  0.94708  0.75366  1.0000
  C   C97       1.0  0.43362  0.91366  0.72929  1.0000
  C   C98       1.0  0.40272  0.92663  0.70774  1.0000
  H   H45       1.0  0.39137  0.98320  0.69362  1.0000
  O  Te21      1.0  0.03124  0.02835  0.78030  1.0000
  O  Te22      1.0  0.50761  0.93356  0.77498  1.0000
  H   H46       1.0  0.36910  0.90055  0.68893  1.0000
  Mg  Mg11      1.0  0.56262  0.99274  0.80370  1.0000
  C   C99       1.0  0.02775  0.43787  0.75504  1.0000
  C   C100      1.0  0.99363  0.45108  0.76076  1.0000
  C  Sn23      1.0  0.00734  0.49754  0.75427  1.0000
  C  Sn24      1.0  0.05614  0.53132  0.74177  1.0000
  C   C101      1.0  0.09002  0.51775  0.73600  1.0000
  C   C102      1.0  0.07591  0.47116  0.74264  1.0000
  H   H47       1.0  0.01685  0.40183  0.76007  1.0000
  O  Te23      1.0  0.97277  0.51015  0.76020  1.0000
  O  Te24      1.0  0.07083  0.57799  0.73500  1.0000
  H   H48       1.0  0.10235  0.46094  0.73808  1.0000
  Mg  Mg12      1.0  0.01040  0.57806  0.74716  1.0000
