data_image0
_chemical_formula_structural       C18O3B3O3H6C2H2C2H2C8H3NCHNCHC6H4NCHC18O3B3O3H6C2H2C2H2C8H3NCHC6H4NCHC6H4NCHC6H4C2Sn2C2HTe2HMgC2Sn2C2HTe2HMgC2Sn2C2HTe2HMgC2Sn2C2HTe2HMgC2Sn2C2HTe2HMgC2Sn2C2HTe2HMg
_chemical_formula_sum              "C114 O12 B6 H60 N6 Sn12 Te12 Mg6"
_cell_length_a       33.5006
_cell_length_b       33.6077
_cell_length_c       8.086
_cell_angle_alpha    104.488
_cell_angle_beta     61.1628
_cell_angle_gamma    120.018

_symmetry_space_group_name_H-M    'P1'
_space_group_IT_number       1

loop_
  _space_group_symop_operation_xyz
  'x, y, z'

loop_
  _atom_site_type_symbol
  _atom_site_label
  _atom_site_symmetry_multiplicity
  _atom_site_fract_x
  _atom_site_fract_y
  _atom_site_fract_z
  _atom_site_occupancy
  C   C1        1.0  0.28735  0.65886  0.24631  1.0000
  C   C2        1.0  0.34072  0.62743  0.24873  1.0000
  C   C3        1.0  0.37056  0.71231  0.26389  1.0000
  C   C4        1.0  0.29406  0.62024  0.24824  1.0000
  C   C5        1.0  0.37800  0.67294  0.26162  1.0000
  C   C6        1.0  0.32642  0.70538  0.25103  1.0000
  C   C7        1.0  0.25515  0.57494  0.25080  1.0000
  C   C8        1.0  0.42294  0.67980  0.26596  1.0000
  C   C9        1.0  0.32066  0.74390  0.24307  1.0000
  C   C10       1.0  0.21197  0.56951  0.24839  1.0000
  C   C11       1.0  0.42928  0.64186  0.25682  1.0000
  C   C12       1.0  0.35784  0.78710  0.25056  1.0000
  C   C13       1.0  0.20576  0.60743  0.24458  1.0000
  C   C14       1.0  0.39295  0.59734  0.24243  1.0000
  C   C15       1.0  0.40073  0.79384  0.26533  1.0000
  C   C16       1.0  0.24210  0.65173  0.24427  1.0000
  C   C17       1.0  0.34918  0.58923  0.23700  1.0000
  C   C18       1.0  0.40788  0.75768  0.27319  1.0000
  O   O1        1.0  0.15926  0.59229  0.24287  1.0000
  O   O2        1.0  0.40864  0.56585  0.23692  1.0000
  O   O3        1.0  0.43216  0.84047  0.26659  1.0000
  B   B1        1.0  0.13711  0.54402  0.24593  1.0000
  B   B2        1.0  0.45560  0.59234  0.24918  1.0000
  B   B3        1.0  0.40736  0.86199  0.25050  1.0000
  O   O4        1.0  0.16947  0.52937  0.24884  1.0000
  O   O5        1.0  0.46920  0.63956  0.25906  1.0000
  O   O6        1.0  0.36116  0.82935  0.24107  1.0000
  H   H1        1.0  0.25863  0.54495  0.25592  1.0000
  H   H2        1.0  0.45190  0.71380  0.27661  1.0000
  H   H3        1.0  0.28878  0.74020  0.22601  1.0000
  H   H4        1.0  0.23549  0.68003  0.24260  1.0000
  H   H5        1.0  0.32247  0.55419  0.22326  1.0000
  H   H6        1.0  0.44145  0.76443  0.28643  1.0000
  C   C19       1.0  0.55374  0.39194  0.22303  1.0000
  C   C20       1.0  0.57715  0.36627  0.21119  1.0000
  H   H7        1.0  0.52065  0.37640  0.19242  1.0000
  H   H8        1.0  0.56213  0.33039  0.16835  1.0000
  C   C21       1.0  0.61673  0.45942  0.30368  1.0000
  C   C22       1.0  0.63910  0.43320  0.29628  1.0000
  H   H9        1.0  0.63178  0.49541  0.34599  1.0000
  H   H10       1.0  0.67065  0.44935  0.33613  1.0000
  C   C23       1.0  0.64321  0.35809  0.24854  1.0000
  C   C24       1.0  0.63777  0.28293  0.25742  1.0000
  C   C25       1.0  0.71379  0.35371  0.25171  1.0000
  C   C26       1.0  0.57330  0.43922  0.26749  1.0000
  C   C27       1.0  0.62019  0.38596  0.24884  1.0000
  C   C28       1.0  0.61683  0.30989  0.25499  1.0000
  C   C29       1.0  0.68628  0.30564  0.25642  1.0000
  C   C30       1.0  0.69161  0.37919  0.24692  1.0000
  H   H11       1.0  0.71263  0.41634  0.24177  1.0000
  H   H12       1.0  0.57927  0.29325  0.25720  1.0000
  H   H13       1.0  0.70321  0.28574  0.26014  1.0000
  N   N1        1.0  0.54720  0.46164  0.27169  1.0000
  C   C31       1.0  0.56797  0.50571  0.25633  1.0000
  H   H14       1.0  0.60732  0.52853  0.23971  1.0000
  N   N2        1.0  0.53287  0.08630  0.26944  1.0000
  C   C32       1.0  0.49561  0.06110  0.22147  1.0000
  H   H15       1.0  0.48056  0.07540  0.16941  1.0000
  C   C33       1.0  0.47257  0.01106  0.23014  1.0000
  C   C34       1.0  0.42570  0.98310  0.21871  1.0000
  C   C35       1.0  0.40410  0.93543  0.22813  1.0000
  C   C36       1.0  0.42929  0.91434  0.24437  1.0000
  C   C37       1.0  0.47659  0.94277  0.25394  1.0000
  C   C38       1.0  0.49770  0.99020  0.24842  1.0000
  H   H16       1.0  0.40647  0.99893  0.20124  1.0000
  H   H17       1.0  0.36774  0.91415  0.21959  1.0000
  H   H18       1.0  0.49653  0.92708  0.26715  1.0000
  H   H19       1.0  0.53383  0.01245  0.25761  1.0000
  N   N3        1.0  0.91369  0.44779  0.22674  1.0000
  C   C39       1.0  0.93786  0.42959  0.24177  1.0000
  H   H20       1.0  0.92312  0.39225  0.24876  1.0000
  C   C40       1.0  0.28860  0.66033  0.74661  1.0000
  C   C41       1.0  0.34259  0.62979  0.75042  1.0000
  C   C42       1.0  0.37162  0.71450  0.76478  1.0000
  C   C43       1.0  0.29585  0.62207  0.74898  1.0000
  C   C44       1.0  0.37971  0.67547  0.76200  1.0000
  C   C45       1.0  0.32739  0.70707  0.75099  1.0000
  C   C46       1.0  0.25734  0.57655  0.75141  1.0000
  C   C47       1.0  0.42475  0.68266  0.76661  1.0000
  C   C48       1.0  0.32121  0.74529  0.74219  1.0000
  C   C49       1.0  0.21369  0.57064  0.75155  1.0000
  C   C50       1.0  0.43134  0.64500  0.75961  1.0000
  C   C51       1.0  0.35808  0.78872  0.74971  1.0000
  C   C52       1.0  0.20682  0.60816  0.74775  1.0000
  C   C53       1.0  0.39502  0.60029  0.74767  1.0000
  C   C54       1.0  0.40070  0.79595  0.76794  1.0000
  C   C55       1.0  0.24310  0.65265  0.74481  1.0000
  C   C56       1.0  0.35109  0.59185  0.74241  1.0000
  C   C57       1.0  0.40819  0.76009  0.77676  1.0000
  O   O7        1.0  0.15985  0.59239  0.74893  1.0000
  O   O8        1.0  0.41076  0.56914  0.74537  1.0000
  O   O9        1.0  0.43177  0.84266  0.76932  1.0000
  B   B4        1.0  0.13824  0.54415  0.75213  1.0000
  B   B5        1.0  0.45790  0.59605  0.75642  1.0000
  B   B6        1.0  0.40721  0.86379  0.74901  1.0000
  O   O10       1.0  0.17115  0.53017  0.75488  1.0000
  O   O11       1.0  0.47119  0.64312  0.76453  1.0000
  O   O12       1.0  0.36140  0.83078  0.73713  1.0000
  H   H21       1.0  0.26136  0.54675  0.75512  1.0000
  H   H22       1.0  0.45345  0.71675  0.77770  1.0000
  H   H23       1.0  0.28908  0.74097  0.72508  1.0000
  H   H24       1.0  0.23627  0.68066  0.74107  1.0000
  H   H25       1.0  0.32397  0.55673  0.73270  1.0000
  H   H26       1.0  0.44145  0.76717  0.79305  1.0000
  C   C58       1.0  0.84933  0.44445  0.68382  1.0000
  C   C59       1.0  0.80074  0.42348  0.69163  1.0000
  H   H27       1.0  0.87536  0.47985  0.63865  1.0000
  H   H28       1.0  0.78945  0.44290  0.64833  1.0000
  C   C60       1.0  0.83409  0.37401  0.78094  1.0000
  C   C61       1.0  0.78516  0.35339  0.79116  1.0000
  H   H29       1.0  0.84562  0.35448  0.82266  1.0000
  H   H30       1.0  0.75974  0.31828  0.84119  1.0000
  C   C62       1.0  0.64527  0.36154  0.75702  1.0000
  C   C63       1.0  0.63856  0.28543  0.75886  1.0000
  C   C64       1.0  0.71575  0.35511  0.75122  1.0000
  C   C65       1.0  0.86727  0.42037  0.72775  1.0000
  C   C66       1.0  0.76716  0.37736  0.74618  1.0000
  C   C67       1.0  0.61766  0.31339  0.76582  1.0000
  C   C68       1.0  0.68802  0.30707  0.74890  1.0000
  C   C69       1.0  0.69388  0.38160  0.75249  1.0000
  H   H31       1.0  0.71526  0.41877  0.74871  1.0000
  H   H32       1.0  0.57895  0.29744  0.77947  1.0000
  H   H33       1.0  0.70563  0.28614  0.73693  1.0000
  N   N4        1.0  0.55286  0.46674  0.76413  1.0000
  C   C70       1.0  0.57250  0.51092  0.75728  1.0000
  H   H34       1.0  0.61088  0.53425  0.75003  1.0000
  C   C71       1.0  0.54427  0.53274  0.75615  1.0000
  C   C72       1.0  0.56294  0.58086  0.77288  1.0000
  C   C73       1.0  0.53571  0.60180  0.77522  1.0000
  C   C74       1.0  0.48937  0.57521  0.75813  1.0000
  C   C75       1.0  0.47142  0.52703  0.73834  1.0000
  C   C76       1.0  0.49808  0.50608  0.73805  1.0000
  H   H35       1.0  0.59849  0.60152  0.78820  1.0000
  H   H36       1.0  0.55033  0.63900  0.79051  1.0000
  H   H37       1.0  0.43629  0.50624  0.72049  1.0000
  H   H38       1.0  0.48451  0.46905  0.72126  1.0000
  N   N5        1.0  0.53092  0.08871  0.77278  1.0000
  C   C77       1.0  0.49374  0.06286  0.72480  1.0000
  H   H39       1.0  0.47708  0.07625  0.67692  1.0000
  C   C78       1.0  0.47176  0.01288  0.73054  1.0000
  C   C79       1.0  0.42521  0.98469  0.71630  1.0000
  C   C80       1.0  0.40390  0.93702  0.72390  1.0000
  C   C81       1.0  0.42890  0.91608  0.74239  1.0000
  C   C82       1.0  0.47588  0.94465  0.75459  1.0000
  C   C83       1.0  0.49685  0.99210  0.74963  1.0000
  H   H40       1.0  0.40595  0.00046  0.69881  1.0000
  H   H41       1.0  0.36800  0.91564  0.71195  1.0000
  H   H42       1.0  0.49565  0.92901  0.76940  1.0000
  H   H43       1.0  0.53270  0.01430  0.76099  1.0000
  N   N6        1.0  0.91585  0.44629  0.72337  1.0000
  C   C84       1.0  0.93944  0.42831  0.74396  1.0000
  H   H44       1.0  0.92409  0.39115  0.75848  1.0000
  C   C85       1.0  0.98907  0.45722  0.74772  1.0000
  C   C86       1.0  0.01590  0.43718  0.75821  1.0000
  C   C87       1.0  0.06363  0.46446  0.75943  1.0000
  C   C88       1.0  0.08584  0.51267  0.75086  1.0000
  C   C89       1.0  0.05818  0.53249  0.74369  1.0000
  C   C90       1.0  0.01080  0.50548  0.74153  1.0000
  H   H45       1.0  0.99891  0.39991  0.76522  1.0000
  H   H46       1.0  0.08385  0.44860  0.76928  1.0000
  H   H47       1.0  0.07461  0.56975  0.73978  1.0000
  H   H48       1.0  0.98954  0.52050  0.73404  1.0000
  C   C91       1.0  0.55527  0.20107  0.71769  1.0000
  C   C92       1.0  0.59684  0.22944  0.76156  1.0000
  C  Sn1       1.0  0.61916  0.21027  0.80541  1.0000
  C  Sn2       1.0  0.59942  0.16179  0.80518  1.0000
  C   C93       1.0  0.55784  0.13371  0.76097  1.0000
  C   C94       1.0  0.53579  0.15326  0.71736  1.0000
  H   H49       1.0  0.53822  0.21619  0.68384  1.0000
  O  Te1       1.0  0.66065  0.23910  0.84898  1.0000
  O  Te2       1.0  0.62101  0.14172  0.84842  1.0000
  H   H50       1.0  0.50362  0.13129  0.68328  1.0000
  Mg  Mg1       1.0  0.67700  0.19544  0.89852  1.0000
  C   C95       1.0  0.55893  0.58689  0.26860  1.0000
  C   C96       1.0  0.54495  0.54010  0.26753  1.0000
  C  Sn3       1.0  0.50034  0.50721  0.24965  1.0000
  C  Sn4       1.0  0.46922  0.52155  0.23249  1.0000
  C   C97       1.0  0.48356  0.56844  0.23359  1.0000
  C   C98       1.0  0.52827  0.60106  0.25162  1.0000
  H   H51       1.0  0.59354  0.61213  0.28245  1.0000
  O  Te3       1.0  0.48693  0.46060  0.24890  1.0000
  O  Te4       1.0  0.42444  0.48941  0.21436  1.0000
  H   H52       1.0  0.53910  0.63729  0.25232  1.0000
  Mg  Mg2       1.0  0.42231  0.42985  0.22085  1.0000
  C   C99       1.0  0.01936  0.51827  0.24407  1.0000
  C   C100      1.0  0.99299  0.47041  0.23577  1.0000
  C  Sn5       1.0  0.01263  0.44293  0.24203  1.0000
  C  Sn6       1.0  0.05954  0.46385  0.25694  1.0000
  C   C101      1.0  0.08561  0.51175  0.26529  1.0000
  C   C102      1.0  0.06561  0.53892  0.25885  1.0000
  H   H53       1.0  0.00388  0.53929  0.23920  1.0000
  O  Te5       1.0  0.98581  0.39518  0.23351  1.0000
  O  Te6       1.0  0.08003  0.43720  0.26354  1.0000
  H   H54       1.0  0.08602  0.57597  0.26541  1.0000
  Mg  Mg3       1.0  0.02930  0.37353  0.24738  1.0000
  C   C103      1.0  0.81903  0.36564  0.30664  1.0000
  C   C104      1.0  0.85902  0.40858  0.23403  1.0000
  C  Sn7       1.0  0.85149  0.43804  0.16943  1.0000
  C  Sn8       1.0  0.80298  0.42415  0.17789  1.0000
  C   C105      1.0  0.76321  0.38114  0.25090  1.0000
  C   C106      1.0  0.77117  0.35193  0.31511  1.0000
  H   H55       1.0  0.82517  0.34305  0.35641  1.0000
  O  Te7       1.0  0.89186  0.48081  0.09725  1.0000
  O  Te8       1.0  0.79440  0.45292  0.11436  1.0000
  H   H56       1.0  0.74019  0.31869  0.37143  1.0000
  Mg  Mg4       1.0  0.86136  0.50789  0.02793  1.0000
  C   C107      1.0  0.53209  0.17240  0.29240  1.0000
  C   C108      1.0  0.54933  0.13985  0.26233  1.0000
  C  Sn9       1.0  0.59877  0.15388  0.23761  1.0000
  C  Sn10      1.0  0.63146  0.20140  0.24321  1.0000
  C   C109      1.0  0.61383  0.23368  0.27351  1.0000
  C   C110      1.0  0.56430  0.21927  0.29802  1.0000
  H   H57       1.0  0.49375  0.16125  0.31147  1.0000
  O  Te9       1.0  0.61540  0.12091  0.20764  1.0000
  O  Te10      1.0  0.68105  0.21636  0.21899  1.0000
  H   H58       1.0  0.55094  0.24447  0.32142  1.0000
  Mg  Mg5       1.0  0.68620  0.15832  0.18220  1.0000
  C   C111      1.0  0.57116  0.37156  0.70680  1.0000
  C   C112      1.0  0.61466  0.38516  0.73249  1.0000
  C  Sn11      1.0  0.63974  0.43022  0.78807  1.0000
  C  Sn12      1.0  0.62084  0.46218  0.81843  1.0000
  C   C113      1.0  0.57728  0.44822  0.79248  1.0000
  C   C114      1.0  0.55248  0.40305  0.73679  1.0000
  H   H59       1.0  0.55196  0.33660  0.66381  1.0000
  O  Te11      1.0  0.68315  0.44324  0.81303  1.0000
  O  Te12      1.0  0.64516  0.50742  0.87410  1.0000
  H   H60       1.0  0.51879  0.39252  0.71703  1.0000
  Mg  Mg6       1.0  0.70300  0.50875  0.88975  1.0000
