data_image0
_chemical_formula_structural       C9N3C6H9C9N3C6H9C2Sn2C2HTe2HMgC2Sn2C2HTe2HMgC2Sn2C2HTe2HMgC2Sn2C2HTe2HMgC2Sn2C2HTe2HMgC2Sn2C2HTe2HMg
_chemical_formula_sum              "C54 N6 H30 Sn12 Te12 Mg6"
_cell_length_a       17.4093
_cell_length_b       18.5292
_cell_length_c       8.082
_cell_angle_alpha    64.8588
_cell_angle_beta     103.137
_cell_angle_gamma    113.675

_symmetry_space_group_name_H-M    'P1'
_space_group_IT_number       1

loop_
  _space_group_symop_operation_xyz
  'x, y, z'

loop_
  _atom_site_type_symbol
  _atom_site_label
  _atom_site_symmetry_multiplicity
  _atom_site_fract_x
  _atom_site_fract_y
  _atom_site_fract_z
  _atom_site_occupancy
  C   C1        1.0  0.42685  0.69077  0.22476  1.0000
  C   C2        1.0  0.38718  0.61119  0.20801  1.0000
  C   C3        1.0  0.29041  0.68905  0.25865  1.0000
  C   C4        1.0  0.37788  0.72930  0.24995  1.0000
  C   C5        1.0  0.29980  0.57008  0.21722  1.0000
  C   C6        1.0  0.25192  0.60959  0.24291  1.0000
  C   C7        1.0  0.51839  0.73080  0.21979  1.0000
  C   C8        1.0  0.26007  0.48655  0.20371  1.0000
  C   C9        1.0  0.23767  0.72858  0.28016  1.0000
  N   N1        1.0  0.55670  0.80382  0.23490  1.0000
  N   N2        1.0  0.26805  0.80217  0.29317  1.0000
  N   N3        1.0  0.18033  0.44602  0.21540  1.0000
  C   C10       1.0  0.05683  0.97412  0.28069  1.0000
  C   C11       1.0  0.03683  0.10086  0.26346  1.0000
  C   C12       1.0  0.91409  0.97478  0.26139  1.0000
  C   C13       1.0  0.08940  0.05715  0.27823  1.0000
  C   C14       1.0  0.94946  0.05878  0.25523  1.0000
  C   C15       1.0  0.96911  0.93389  0.27464  1.0000
  H   H1        1.0  0.94314  0.86859  0.28214  1.0000
  H   H2        1.0  0.15687  0.09022  0.27911  1.0000
  H   H3        1.0  0.90913  0.09258  0.24604  1.0000
  H   H4        1.0  0.30175  0.45984  0.18266  1.0000
  H   H5        1.0  0.55100  0.69302  0.20680  1.0000
  H   H6        1.0  0.42525  0.58143  0.18754  1.0000
  H   H7        1.0  0.40794  0.79041  0.26485  1.0000
  H   H8        1.0  0.18425  0.57733  0.25079  1.0000
  H   H9        1.0  0.16992  0.69136  0.28264  1.0000
  C   C16       1.0  0.42110  0.66770  0.72384  1.0000
  C   C17       1.0  0.38269  0.58514  0.72139  1.0000
  C   C18       1.0  0.28398  0.66816  0.74227  1.0000
  C   C19       1.0  0.37115  0.70887  0.73346  1.0000
  C   C20       1.0  0.29519  0.54434  0.72672  1.0000
  C   C21       1.0  0.24628  0.58680  0.73622  1.0000
  C   C22       1.0  0.51253  0.70789  0.72402  1.0000
  C   C23       1.0  0.25530  0.45824  0.72682  1.0000
  C   C24       1.0  0.23069  0.70770  0.76112  1.0000
  N   N4        1.0  0.54968  0.78378  0.72527  1.0000
  N   N5        1.0  0.26045  0.78119  0.77517  1.0000
  N   N6        1.0  0.17458  0.42197  0.71847  1.0000
  C   C25       1.0  0.04980  0.95260  0.76687  1.0000
  C   C26       1.0  0.03142  0.07908  0.75277  1.0000
  C   C27       1.0  0.90732  0.95391  0.75377  1.0000
  C   C28       1.0  0.08363  0.03600  0.76260  1.0000
  C   C29       1.0  0.94381  0.03782  0.74829  1.0000
  C   C30       1.0  0.96200  0.91306  0.76394  1.0000
  H   H10       1.0  0.93577  0.84785  0.77178  1.0000
  H   H11       1.0  0.15115  0.06922  0.76225  1.0000
  H   H12       1.0  0.90539  0.07245  0.74570  1.0000
  H   H13       1.0  0.29756  0.42597  0.73333  1.0000
  H   H14       1.0  0.54679  0.66866  0.72714  1.0000
  H   H15       1.0  0.42214  0.55350  0.71416  1.0000
  H   H16       1.0  0.40030  0.77211  0.73809  1.0000
  H   H17       1.0  0.17859  0.55443  0.74181  1.0000
  H   H18       1.0  0.16331  0.66951  0.76489  1.0000
  C   C31       1.0  0.69686  0.93464  0.28268  1.0000
  C   C32       1.0  0.65170  0.86514  0.23044  1.0000
  C  Sn1       1.0  0.69399  0.82382  0.19445  1.0000
  C  Sn2       1.0  0.78316  0.85276  0.21123  1.0000
  C   C33       1.0  0.82776  0.92231  0.26370  1.0000
  C   C34       1.0  0.35743  0.96320  0.29933  1.0000
  H   H19       1.0  0.23626  0.96625  0.31035  1.0000
  O  Te1       1.0  0.64790  0.75450  0.14234  1.0000
  O  Te2       1.0  0.82701  0.81262  0.17614  1.0000
  H   H20       1.0  0.39241  0.01698  0.33989  1.0000
  Mg  Mg1       1.0  0.73618  0.72080  0.10920  1.0000
  C   C35       1.0  0.10697  0.81983  0.22028  1.0000
  C   C36       1.0  0.19261  0.83492  0.27071  1.0000
  C  Sn3       1.0  0.23935  0.89793  0.34193  1.0000
  C  Sn4       1.0  0.77206  0.94663  0.36295  1.0000
  C   C37       1.0  0.11372  0.93100  0.31221  1.0000
  C   C38       1.0  0.06755  0.86780  0.24103  1.0000
  H   H21       1.0  0.07123  0.77090  0.16530  1.0000
  O  Te3       1.0  0.32486  0.91220  0.39156  1.0000
  O  Te4       1.0  0.81727  0.00998  0.43384  1.0000
  H   H22       1.0  0.00123  0.85610  0.20211  1.0000
  Mg  Mg2       1.0  0.93234  0.00562  0.48177  1.0000
  C   C39       1.0  0.03062  0.27046  0.13049  1.0000
  C   C40       1.0  0.06429  0.20532  0.21572  1.0000
  C  Sn5       1.0  0.14081  0.21801  0.32052  1.0000
  C  Sn6       1.0  0.18426  0.29744  0.34015  1.0000
  C   C41       1.0  0.15002  0.36217  0.25444  1.0000
  C   C42       1.0  0.07342  0.34880  0.14984  1.0000
  H   H23       1.0  0.97133  0.26010  0.04964  1.0000
  O  Te5       1.0  0.17357  0.15226  0.40469  1.0000
  O  Te6       1.0  0.26083  0.31182  0.44416  1.0000
  H   H24       1.0  0.04734  0.39923  0.08397  1.0000
  Mg  Mg3       1.0  0.27991  0.20260  0.53229  1.0000
  C   C43       1.0  0.76197  0.81442  0.70756  1.0000
  C   C44       1.0  0.37910  0.89221  0.72808  1.0000
  C  Sn7       1.0  0.33682  0.93473  0.75983  1.0000
  C  Sn8       1.0  0.24835  0.89855  0.77123  1.0000
  C   C45       1.0  0.63178  0.82067  0.75065  1.0000
  C   C46       1.0  0.67471  0.77867  0.71886  1.0000
  H   H25       1.0  0.79519  0.78190  0.68307  1.0000
  O  Te7       1.0  0.38225  0.01241  0.77993  1.0000
  O  Te8       1.0  0.20452  0.93968  0.80292  1.0000
  H   H26       1.0  0.64024  0.71842  0.70310  1.0000
  Mg  Mg4       1.0  0.29430  0.04418  0.82108  1.0000
  C   C47       1.0  0.80955  0.90288  0.85178  1.0000
  C   C48       1.0  0.21469  0.83313  0.80188  1.0000
  C  Sn9       1.0  0.13378  0.80132  0.72636  1.0000
  C  Sn10      1.0  0.07418  0.84022  0.70043  1.0000
  C   C49       1.0  0.66970  0.91001  0.75067  1.0000
  C   C50       1.0  0.75082  0.94130  0.82618  1.0000
  H   H27       1.0  0.87233  0.92713  0.91011  1.0000
  O  Te9       1.0  0.11259  0.73156  0.67733  1.0000
  O  Te10      1.0  0.99290  0.80974  0.62518  1.0000
  H   H28       1.0  0.76805  0.99534  0.86469  1.0000
  Mg  Mg5       1.0  0.99397  0.71317  0.58003  1.0000
  C   C51       1.0  0.03205  0.25165  0.60596  1.0000
  C   C52       1.0  0.05910  0.18275  0.71117  1.0000
  C  Sn11      1.0  0.12727  0.19077  0.84069  1.0000
  C  Sn12      1.0  0.16899  0.26930  0.86505  1.0000
  C   C53       1.0  0.14141  0.33783  0.75920  1.0000
  C   C54       1.0  0.07315  0.32912  0.62995  1.0000
  H   H29       1.0  0.97921  0.24490  0.50602  1.0000
  O  Te11      1.0  0.15349  0.12131  0.94461  1.0000
  O  Te12      1.0  0.23727  0.27905  0.99357  1.0000
  H   H30       1.0  0.05219  0.38246  0.54859  1.0000
  Mg  Mg6       1.0  0.21821  0.33943  0.10234  1.0000
