data_image0
_chemical_formula_structural       C9N3C6H9C9N3C6H9SnCSn2CSnTe4Mg2SnCSn2CSnTe4Mg2SnCSn2CSnTe4Mg2SnCSn2CSnTe4Mg2SnCSn2CSnTe4Mg2SnCSn2CSnTe4Mg2
_chemical_formula_sum              "C42 N6 H18 Sn24 Te24 Mg12"
_cell_length_a       17.4093
_cell_length_b       18.5292
_cell_length_c       8.082
_cell_angle_alpha    64.8588
_cell_angle_beta     103.137
_cell_angle_gamma    113.675

_symmetry_space_group_name_H-M    'P1'
_space_group_IT_number       1

loop_
  _space_group_symop_operation_xyz
  'x, y, z'

loop_
  _atom_site_type_symbol
  _atom_site_label
  _atom_site_symmetry_multiplicity
  _atom_site_fract_x
  _atom_site_fract_y
  _atom_site_fract_z
  _atom_site_occupancy
  C   C1        1.0  0.42685  0.69077  0.22476  1.0000
  C   C2        1.0  0.38718  0.61119  0.20801  1.0000
  C   C3        1.0  0.29041  0.68905  0.25865  1.0000
  C   C4        1.0  0.37788  0.72930  0.24995  1.0000
  C   C5        1.0  0.29980  0.57008  0.21722  1.0000
  C   C6        1.0  0.25192  0.60959  0.24291  1.0000
  C   C7        1.0  0.51839  0.73080  0.21979  1.0000
  C   C8        1.0  0.26007  0.48655  0.20371  1.0000
  C   C9        1.0  0.23767  0.72858  0.28016  1.0000
  N   N1        1.0  0.55670  0.80382  0.23490  1.0000
  N   N2        1.0  0.26805  0.80217  0.29317  1.0000
  N   N3        1.0  0.18033  0.44602  0.21540  1.0000
  C   C10       1.0  0.05683  0.97412  0.28069  1.0000
  C   C11       1.0  0.03683  0.10086  0.26346  1.0000
  C   C12       1.0  0.91409  0.97478  0.26139  1.0000
  C   C13       1.0  0.08940  0.05715  0.27823  1.0000
  C   C14       1.0  0.94946  0.05878  0.25523  1.0000
  C   C15       1.0  0.96911  0.93389  0.27464  1.0000
  H   H1        1.0  0.94314  0.86859  0.28214  1.0000
  H   H2        1.0  0.15687  0.09022  0.27911  1.0000
  H   H3        1.0  0.90913  0.09258  0.24604  1.0000
  H   H4        1.0  0.30175  0.45984  0.18266  1.0000
  H   H5        1.0  0.55100  0.69302  0.20680  1.0000
  H   H6        1.0  0.42525  0.58143  0.18754  1.0000
  H   H7        1.0  0.40794  0.79041  0.26485  1.0000
  H   H8        1.0  0.18425  0.57733  0.25079  1.0000
  H   H9        1.0  0.16992  0.69136  0.28264  1.0000
  C   C16       1.0  0.42110  0.66770  0.72384  1.0000
  C   C17       1.0  0.38269  0.58514  0.72139  1.0000
  C   C18       1.0  0.28398  0.66816  0.74227  1.0000
  C   C19       1.0  0.37115  0.70887  0.73346  1.0000
  C   C20       1.0  0.29519  0.54434  0.72672  1.0000
  C   C21       1.0  0.24628  0.58680  0.73622  1.0000
  C   C22       1.0  0.51253  0.70789  0.72402  1.0000
  C   C23       1.0  0.25530  0.45824  0.72682  1.0000
  C   C24       1.0  0.23069  0.70770  0.76112  1.0000
  N   N4        1.0  0.54968  0.78378  0.72527  1.0000
  N   N5        1.0  0.26045  0.78119  0.77517  1.0000
  N   N6        1.0  0.17458  0.42197  0.71847  1.0000
  C   C25       1.0  0.04980  0.95260  0.76687  1.0000
  C   C26       1.0  0.03142  0.07908  0.75277  1.0000
  C   C27       1.0  0.90732  0.95391  0.75377  1.0000
  C   C28       1.0  0.08363  0.03600  0.76260  1.0000
  C   C29       1.0  0.94381  0.03782  0.74829  1.0000
  C   C30       1.0  0.96200  0.91306  0.76394  1.0000
  H   H10       1.0  0.93577  0.84785  0.77178  1.0000
  H   H11       1.0  0.15115  0.06922  0.76225  1.0000
  H   H12       1.0  0.90539  0.07245  0.74570  1.0000
  H   H13       1.0  0.29756  0.42597  0.73333  1.0000
  H   H14       1.0  0.54679  0.66866  0.72714  1.0000
  H   H15       1.0  0.42214  0.55350  0.71416  1.0000
  H   H16       1.0  0.40030  0.77211  0.73809  1.0000
  H   H17       1.0  0.17859  0.55443  0.74181  1.0000
  H   H18       1.0  0.16331  0.66951  0.76489  1.0000
  C  Sn1       1.0  0.72199  0.80231  0.26244  1.0000
  C   C31       1.0  0.65751  0.82324  0.28566  1.0000
  C  Sn2       1.0  0.67316  0.90466  0.27788  1.0000
  C  Sn3       1.0  0.32757  0.96647  0.24611  1.0000
  C   C32       1.0  0.81937  0.94553  0.22288  1.0000
  C  Sn4       1.0  0.80378  0.86412  0.23067  1.0000
  O  Te1       1.0  0.70492  0.72052  0.27074  1.0000
  O  Te2       1.0  0.60769  0.92409  0.30156  1.0000
  O  Te3       1.0  0.34460  0.04830  0.23782  1.0000
  O  Te4       1.0  0.86918  0.84469  0.20697  1.0000
  Mg  Mg1       1.0  0.23475  0.04421  0.27841  1.0000
  Mg  Mg2       1.0  0.81481  0.72461  0.23000  1.0000
  C  Sn5       1.0  0.23366  0.90416  0.41032  1.0000
  C   C33       1.0  0.21187  0.83905  0.34550  1.0000
  C  Sn6       1.0  0.13960  0.82308  0.22938  1.0000
  C  Sn7       1.0  0.08806  0.87326  0.17686  1.0000
  C   C34       1.0  0.10986  0.93834  0.24164  1.0000
  C  Sn8       1.0  0.75473  0.95435  0.35780  1.0000
  O  Te5       1.0  0.87881  0.91900  0.52626  1.0000
  O  Te6       1.0  0.11910  0.75762  0.16639  1.0000
  O  Te7       1.0  0.01549  0.85836  0.06083  1.0000
  O  Te8       1.0  0.77525  0.01977  0.42074  1.0000
  Mg  Mg3       1.0  0.01400  0.76203  0.01102  1.0000
  Mg  Mg4       1.0  0.88035  0.01544  0.57603  1.0000
  C  Sn9       1.0  0.04379  0.31036  0.17154  1.0000
  C   C35       1.0  0.11984  0.34840  0.25497  1.0000
  C  Sn10      1.0  0.17992  0.30871  0.32797  1.0000
  C  Sn11      1.0  0.16367  0.22938  0.31726  1.0000
  C   C36       1.0  0.08767  0.19139  0.23384  1.0000
  C  Sn12      1.0  0.02754  0.23102  0.16083  1.0000
  O  Te9       1.0  0.98463  0.35118  0.09948  1.0000
  O  Te10      1.0  0.25548  0.34797  0.41077  1.0000
  O  Te11      1.0  0.22291  0.18857  0.38941  1.0000
  O  Te12      1.0  0.95203  0.19182  0.07804  1.0000
  Mg  Mg5       1.0  0.31637  0.26736  0.48873  1.0000
  Mg  Mg6       1.0  0.92249  0.09891  0.99996  1.0000
  C  Sn13      1.0  0.71456  0.78183  0.75423  1.0000
  C   C37       1.0  0.65012  0.80292  0.77710  1.0000
  C  Sn14      1.0  0.23864  0.88419  0.77054  1.0000
  C  Sn15      1.0  0.32064  0.94569  0.74037  1.0000
  C   C38       1.0  0.38502  0.92460  0.71749  1.0000
  C  Sn16      1.0  0.79656  0.84333  0.72406  1.0000
  O  Te13      1.0  0.69724  0.70019  0.76130  1.0000
  O  Te14      1.0  0.17321  0.90377  0.79384  1.0000
  O  Te15      1.0  0.33791  0.02737  0.73332  1.0000
  O  Te16      1.0  0.86193  0.82374  0.70075  1.0000
  Mg  Mg7       1.0  0.22802  0.02359  0.77279  1.0000
  Mg  Mg8       1.0  0.80718  0.70397  0.72167  1.0000
  C  Sn17      1.0  0.79757  0.87980  0.90063  1.0000
  C   C39       1.0  0.20362  0.81591  0.83235  1.0000
  C  Sn18      1.0  0.13178  0.80098  0.71460  1.0000
  C  Sn19      1.0  0.08020  0.85099  0.66394  1.0000
  C   C40       1.0  0.67416  0.91485  0.73217  1.0000
  C  Sn20      1.0  0.74599  0.92982  0.84996  1.0000
  O  Te17      1.0  0.83831  0.06709  0.01815  1.0000
  O  Te18      1.0  0.11173  0.73672  0.64816  1.0000
  O  Te19      1.0  0.00803  0.83712  0.54632  1.0000
  O  Te20      1.0  0.76605  0.99404  0.91636  1.0000
  Mg  Mg9       1.0  0.00709  0.74224  0.49177  1.0000
  Mg  Mg10      1.0  0.83932  0.16208  0.07267  1.0000
  C  Sn21      1.0  0.13420  0.20106  0.90709  1.0000
  C   C41       1.0  0.06847  0.16913  0.79277  1.0000
  C  Sn22      1.0  0.04110  0.22443  0.63146  1.0000
  C  Sn23      1.0  0.08028  0.31351  0.58332  1.0000
  C   C42       1.0  0.14597  0.34539  0.69758  1.0000
  C  Sn24      1.0  0.17337  0.29014  0.85895  1.0000
  O  Te21      1.0  0.12916  0.31807  0.06769  1.0000
  O  Te22      1.0  0.97526  0.19101  0.51941  1.0000
  O  Te23      1.0  0.05388  0.36997  0.42258  1.0000
  O  Te24      1.0  0.23919  0.32351  0.97094  1.0000
  Mg  Mg11      1.0  0.96180  0.29372  0.31474  1.0000
  Mg  Mg12      1.0  0.22135  0.39435  0.17558  1.0000
