data_image0
_chemical_formula_structural       C9N3C4H4C8H9C9N3C8H8C10H9SnCSn2CSnTe4Mg2SnCSn2CSnTe4Mg2SnCSn2CSnTe4Mg2
_chemical_formula_sum              "C54 N6 H30 Sn12 Te12 Mg6"
_cell_length_a       17.4093
_cell_length_b       18.5292
_cell_length_c       8.082
_cell_angle_alpha    64.8588
_cell_angle_beta     103.137
_cell_angle_gamma    113.675

_symmetry_space_group_name_H-M    'P1'
_space_group_IT_number       1

loop_
  _space_group_symop_operation_xyz
  'x, y, z'

loop_
  _atom_site_type_symbol
  _atom_site_label
  _atom_site_symmetry_multiplicity
  _atom_site_fract_x
  _atom_site_fract_y
  _atom_site_fract_z
  _atom_site_occupancy
  C   C1        1.0  0.42685  0.69077  0.22476  1.0000
  C   C2        1.0  0.38718  0.61119  0.20801  1.0000
  C   C3        1.0  0.29041  0.68905  0.25865  1.0000
  C   C4        1.0  0.37788  0.72930  0.24995  1.0000
  C   C5        1.0  0.29980  0.57008  0.21722  1.0000
  C   C6        1.0  0.25192  0.60959  0.24291  1.0000
  C   C7        1.0  0.51839  0.73080  0.21979  1.0000
  C   C8        1.0  0.26007  0.48655  0.20371  1.0000
  C   C9        1.0  0.23767  0.72858  0.28016  1.0000
  N   N1        1.0  0.55670  0.80382  0.23490  1.0000
  N   N2        1.0  0.26805  0.80217  0.29317  1.0000
  N   N3        1.0  0.18033  0.44602  0.21540  1.0000
  C   C10       1.0  0.06854  0.33335  0.13422  1.0000
  C   C11       1.0  0.03326  0.24946  0.14517  1.0000
  C   C12       1.0  0.18808  0.30308  0.33146  1.0000
  C   C13       1.0  0.15151  0.21895  0.34424  1.0000
  H   H1        1.0  0.03655  0.37843  0.05147  1.0000
  H   H2        1.0  0.24641  0.32323  0.41109  1.0000
  H   H3        1.0  0.18224  0.17349  0.43310  1.0000
  H   H4        1.0  0.97390  0.22934  0.06832  1.0000
  C   C14       1.0  0.05683  0.97412  0.28069  1.0000
  C   C15       1.0  0.03683  0.10086  0.26346  1.0000
  C   C16       1.0  0.91409  0.97478  0.26139  1.0000
  C   C17       1.0  0.14738  0.36210  0.22423  1.0000
  C   C18       1.0  0.07375  0.19007  0.25123  1.0000
  C   C19       1.0  0.08940  0.05715  0.27823  1.0000
  C   C20       1.0  0.94946  0.05878  0.25523  1.0000
  C   C21       1.0  0.96911  0.93389  0.27464  1.0000
  H   H5        1.0  0.94314  0.86859  0.28214  1.0000
  H   H6        1.0  0.15687  0.09022  0.27911  1.0000
  H   H7        1.0  0.90913  0.09258  0.24604  1.0000
  H   H8        1.0  0.30175  0.45984  0.18266  1.0000
  H   H9        1.0  0.55100  0.69302  0.20680  1.0000
  H   H10       1.0  0.42525  0.58143  0.18754  1.0000
  H   H11       1.0  0.40794  0.79041  0.26485  1.0000
  H   H12       1.0  0.18425  0.57733  0.25079  1.0000
  H   H13       1.0  0.16992  0.69136  0.28264  1.0000
  C   C22       1.0  0.42110  0.66770  0.72384  1.0000
  C   C23       1.0  0.38269  0.58514  0.72139  1.0000
  C   C24       1.0  0.28398  0.66816  0.74227  1.0000
  C   C25       1.0  0.37115  0.70887  0.73346  1.0000
  C   C26       1.0  0.29519  0.54434  0.72672  1.0000
  C   C27       1.0  0.24628  0.58680  0.73622  1.0000
  C   C28       1.0  0.51253  0.70789  0.72402  1.0000
  C   C29       1.0  0.25530  0.45824  0.72682  1.0000
  C   C30       1.0  0.23069  0.70770  0.76112  1.0000
  N   N4        1.0  0.54968  0.78378  0.72527  1.0000
  N   N5        1.0  0.26045  0.78119  0.77517  1.0000
  N   N6        1.0  0.17458  0.42197  0.71847  1.0000
  C   C31       1.0  0.23828  0.88467  0.84495  1.0000
  C   C32       1.0  0.18835  0.92807  0.84229  1.0000
  C   C33       1.0  0.06909  0.31337  0.61709  1.0000
  C   C34       1.0  0.03357  0.22997  0.62430  1.0000
  C   C35       1.0  0.17416  0.27478  0.85646  1.0000
  C   C36       1.0  0.13913  0.19182  0.86038  1.0000
  C   C37       1.0  0.12034  0.79601  0.71290  1.0000
  C   C38       1.0  0.07124  0.84002  0.70906  1.0000
  H   H14       1.0  0.30326  0.90026  0.90048  1.0000
  H   H15       1.0  0.04485  0.36256  0.51809  1.0000
  H   H16       1.0  0.22536  0.29135  0.95497  1.0000
  H   H17       1.0  0.16486  0.14360  0.95848  1.0000
  H   H18       1.0  0.09488  0.74865  0.65098  1.0000
  H   H19       1.0  0.21468  0.97722  0.89972  1.0000
  H   H20       1.0  0.98027  0.21291  0.53025  1.0000
  H   H21       1.0  0.00738  0.82471  0.64762  1.0000
  C   C39       1.0  0.04980  0.95260  0.76687  1.0000
  C   C40       1.0  0.03142  0.07908  0.75277  1.0000
  C   C41       1.0  0.90732  0.95391  0.75377  1.0000
  C   C42       1.0  0.20504  0.81778  0.78066  1.0000
  C   C43       1.0  0.14064  0.33735  0.73096  1.0000
  C   C44       1.0  0.10378  0.90711  0.77271  1.0000
  C   C45       1.0  0.06826  0.16759  0.74550  1.0000
  C   C46       1.0  0.08363  0.03600  0.76260  1.0000
  C   C47       1.0  0.94381  0.03782  0.74829  1.0000
  C   C48       1.0  0.96200  0.91306  0.76394  1.0000
  H   H22       1.0  0.93577  0.84785  0.77178  1.0000
  H   H23       1.0  0.15115  0.06922  0.76225  1.0000
  H   H24       1.0  0.90539  0.07245  0.74570  1.0000
  H   H25       1.0  0.29756  0.42597  0.73333  1.0000
  H   H26       1.0  0.54679  0.66866  0.72714  1.0000
  H   H27       1.0  0.42214  0.55350  0.71416  1.0000
  H   H28       1.0  0.40030  0.77211  0.73809  1.0000
  H   H29       1.0  0.17859  0.55443  0.74181  1.0000
  H   H30       1.0  0.16331  0.66951  0.76489  1.0000
  C  Sn1       1.0  0.31235  0.92061  0.82744  1.0000
  C   C49       1.0  0.37671  0.90049  0.80087  1.0000
  C  Sn2       1.0  0.78615  0.84367  0.71471  1.0000
  C  Sn3       1.0  0.70214  0.80619  0.65372  1.0000
  C   C50       1.0  0.63784  0.82632  0.68028  1.0000
  C  Sn4       1.0  0.22834  0.88313  0.76646  1.0000
  O  Te1       1.0  0.33173  0.97758  0.91390  1.0000
  O  Te2       1.0  0.85154  0.82452  0.68973  1.0000
  O  Te3       1.0  0.68280  0.74918  0.56722  1.0000
  O  Te4       1.0  0.16301  0.90229  0.79142  1.0000
  Mg  Mg1       1.0  0.79350  0.74326  0.56454  1.0000
  Mg  Mg2       1.0  0.22097  0.98357  0.91649  1.0000
  C  Sn5       1.0  0.23366  0.90416  0.41032  1.0000
  C   C51       1.0  0.21187  0.83905  0.34550  1.0000
  C  Sn6       1.0  0.13960  0.82308  0.22938  1.0000
  C  Sn7       1.0  0.08806  0.87326  0.17686  1.0000
  C   C52       1.0  0.10986  0.93834  0.24164  1.0000
  C  Sn8       1.0  0.75473  0.95435  0.35780  1.0000
  O  Te5       1.0  0.87881  0.91900  0.52626  1.0000
  O  Te6       1.0  0.11910  0.75762  0.16639  1.0000
  O  Te7       1.0  0.01549  0.85836  0.06083  1.0000
  O  Te8       1.0  0.77525  0.01977  0.42074  1.0000
  Mg  Mg3       1.0  0.01400  0.76203  0.01102  1.0000
  Mg  Mg4       1.0  0.88035  0.01544  0.57603  1.0000
  C  Sn9       1.0  0.72199  0.80231  0.26244  1.0000
  C   C53       1.0  0.65751  0.82324  0.28566  1.0000
  C  Sn10      1.0  0.67316  0.90466  0.27788  1.0000
  C  Sn11      1.0  0.32757  0.96647  0.24611  1.0000
  C   C54       1.0  0.81937  0.94553  0.22288  1.0000
  C  Sn12      1.0  0.80378  0.86412  0.23067  1.0000
  O  Te9       1.0  0.70492  0.72052  0.27074  1.0000
  O  Te10      1.0  0.60769  0.92409  0.30156  1.0000
  O  Te11      1.0  0.34460  0.04830  0.23782  1.0000
  O  Te12      1.0  0.86918  0.84469  0.20697  1.0000
  Mg  Mg5       1.0  0.23475  0.04421  0.27841  1.0000
  Mg  Mg6       1.0  0.81481  0.72461  0.23000  1.0000
