data_image0
_chemical_formula_structural       C9N3C4H4C8H9C9N3C8H8C10H9C2Sn2C2HTe2HMgC2Sn2C2HTe2HMgC2Sn2C2HTe2HMg
_chemical_formula_sum              "C60 N6 H36 Sn6 Te6 Mg3"
_cell_length_a       17.4093
_cell_length_b       18.5292
_cell_length_c       8.082
_cell_angle_alpha    64.8588
_cell_angle_beta     103.137
_cell_angle_gamma    113.675

_symmetry_space_group_name_H-M    'P1'
_space_group_IT_number       1

loop_
  _space_group_symop_operation_xyz
  'x, y, z'

loop_
  _atom_site_type_symbol
  _atom_site_label
  _atom_site_symmetry_multiplicity
  _atom_site_fract_x
  _atom_site_fract_y
  _atom_site_fract_z
  _atom_site_occupancy
  C   C1        1.0  0.42685  0.69077  0.22476  1.0000
  C   C2        1.0  0.38718  0.61119  0.20801  1.0000
  C   C3        1.0  0.29041  0.68905  0.25865  1.0000
  C   C4        1.0  0.37788  0.72930  0.24995  1.0000
  C   C5        1.0  0.29980  0.57008  0.21722  1.0000
  C   C6        1.0  0.25192  0.60959  0.24291  1.0000
  C   C7        1.0  0.51839  0.73080  0.21979  1.0000
  C   C8        1.0  0.26007  0.48655  0.20371  1.0000
  C   C9        1.0  0.23767  0.72858  0.28016  1.0000
  N   N1        1.0  0.55670  0.80382  0.23490  1.0000
  N   N2        1.0  0.26805  0.80217  0.29317  1.0000
  N   N3        1.0  0.18033  0.44602  0.21540  1.0000
  C   C10       1.0  0.06854  0.33335  0.13422  1.0000
  C   C11       1.0  0.03326  0.24946  0.14517  1.0000
  C   C12       1.0  0.18808  0.30308  0.33146  1.0000
  C   C13       1.0  0.15151  0.21895  0.34424  1.0000
  H   H1        1.0  0.03655  0.37843  0.05147  1.0000
  H   H2        1.0  0.24641  0.32323  0.41109  1.0000
  H   H3        1.0  0.18224  0.17349  0.43310  1.0000
  H   H4        1.0  0.97390  0.22934  0.06832  1.0000
  C   C14       1.0  0.05683  0.97412  0.28069  1.0000
  C   C15       1.0  0.03683  0.10086  0.26346  1.0000
  C   C16       1.0  0.91409  0.97478  0.26139  1.0000
  C   C17       1.0  0.14738  0.36210  0.22423  1.0000
  C   C18       1.0  0.07375  0.19007  0.25123  1.0000
  C   C19       1.0  0.08940  0.05715  0.27823  1.0000
  C   C20       1.0  0.94946  0.05878  0.25523  1.0000
  C   C21       1.0  0.96911  0.93389  0.27464  1.0000
  H   H5        1.0  0.94314  0.86859  0.28214  1.0000
  H   H6        1.0  0.15687  0.09022  0.27911  1.0000
  H   H7        1.0  0.90913  0.09258  0.24604  1.0000
  H   H8        1.0  0.30175  0.45984  0.18266  1.0000
  H   H9        1.0  0.55100  0.69302  0.20680  1.0000
  H   H10       1.0  0.42525  0.58143  0.18754  1.0000
  H   H11       1.0  0.40794  0.79041  0.26485  1.0000
  H   H12       1.0  0.18425  0.57733  0.25079  1.0000
  H   H13       1.0  0.16992  0.69136  0.28264  1.0000
  C   C22       1.0  0.42110  0.66770  0.72384  1.0000
  C   C23       1.0  0.38269  0.58514  0.72139  1.0000
  C   C24       1.0  0.28398  0.66816  0.74227  1.0000
  C   C25       1.0  0.37115  0.70887  0.73346  1.0000
  C   C26       1.0  0.29519  0.54434  0.72672  1.0000
  C   C27       1.0  0.24628  0.58680  0.73622  1.0000
  C   C28       1.0  0.51253  0.70789  0.72402  1.0000
  C   C29       1.0  0.25530  0.45824  0.72682  1.0000
  C   C30       1.0  0.23069  0.70770  0.76112  1.0000
  N   N4        1.0  0.54968  0.78378  0.72527  1.0000
  N   N5        1.0  0.26045  0.78119  0.77517  1.0000
  N   N6        1.0  0.17458  0.42197  0.71847  1.0000
  C   C31       1.0  0.23828  0.88467  0.84495  1.0000
  C   C32       1.0  0.18835  0.92807  0.84229  1.0000
  C   C33       1.0  0.06909  0.31337  0.61709  1.0000
  C   C34       1.0  0.03357  0.22997  0.62430  1.0000
  C   C35       1.0  0.17416  0.27478  0.85646  1.0000
  C   C36       1.0  0.13913  0.19182  0.86038  1.0000
  C   C37       1.0  0.12034  0.79601  0.71290  1.0000
  C   C38       1.0  0.07124  0.84002  0.70906  1.0000
  H   H14       1.0  0.30326  0.90026  0.90048  1.0000
  H   H15       1.0  0.04485  0.36256  0.51809  1.0000
  H   H16       1.0  0.22536  0.29135  0.95497  1.0000
  H   H17       1.0  0.16486  0.14360  0.95848  1.0000
  H   H18       1.0  0.09488  0.74865  0.65098  1.0000
  H   H19       1.0  0.21468  0.97722  0.89972  1.0000
  H   H20       1.0  0.98027  0.21291  0.53025  1.0000
  H   H21       1.0  0.00738  0.82471  0.64762  1.0000
  C   C39       1.0  0.04980  0.95260  0.76687  1.0000
  C   C40       1.0  0.03142  0.07908  0.75277  1.0000
  C   C41       1.0  0.90732  0.95391  0.75377  1.0000
  C   C42       1.0  0.20504  0.81778  0.78066  1.0000
  C   C43       1.0  0.14064  0.33735  0.73096  1.0000
  C   C44       1.0  0.10378  0.90711  0.77271  1.0000
  C   C45       1.0  0.06826  0.16759  0.74550  1.0000
  C   C46       1.0  0.08363  0.03600  0.76260  1.0000
  C   C47       1.0  0.94381  0.03782  0.74829  1.0000
  C   C48       1.0  0.96200  0.91306  0.76394  1.0000
  H   H22       1.0  0.93577  0.84785  0.77178  1.0000
  H   H23       1.0  0.15115  0.06922  0.76225  1.0000
  H   H24       1.0  0.90539  0.07245  0.74570  1.0000
  H   H25       1.0  0.29756  0.42597  0.73333  1.0000
  H   H26       1.0  0.54679  0.66866  0.72714  1.0000
  H   H27       1.0  0.42214  0.55350  0.71416  1.0000
  H   H28       1.0  0.40030  0.77211  0.73809  1.0000
  H   H29       1.0  0.17859  0.55443  0.74181  1.0000
  H   H30       1.0  0.16331  0.66951  0.76489  1.0000
  C   C49       1.0  0.08169  0.84670  0.20863  1.0000
  C   C50       1.0  0.10085  0.90938  0.27935  1.0000
  C  Sn1       1.0  0.75426  0.94100  0.35555  1.0000
  C  Sn2       1.0  0.24429  0.90918  0.36082  1.0000
  C   C51       1.0  0.22451  0.84652  0.28960  1.0000
  C   C52       1.0  0.14346  0.81531  0.21371  1.0000
  H   H31       1.0  0.01899  0.82258  0.14982  1.0000
  O  Te1       1.0  0.77233  0.00360  0.42566  1.0000
  O  Te2       1.0  0.89818  0.93969  0.43614  1.0000
  H   H32       1.0  0.12866  0.76682  0.15886  1.0000
  Mg  Mg1       1.0  0.89221  0.02501  0.51433  1.0000
  C   C53       1.0  0.26233  0.91414  0.77527  1.0000
  C   C54       1.0  0.64446  0.84519  0.72124  1.0000
  C  Sn3       1.0  0.68664  0.80378  0.68524  1.0000
  C  Sn4       1.0  0.77578  0.83206  0.70384  1.0000
  C   C55       1.0  0.39309  0.90106  0.75809  1.0000
  C   C56       1.0  0.35024  0.94205  0.79372  1.0000
  H   H33       1.0  0.22918  0.94583  0.80294  1.0000
  O  Te3       1.0  0.64047  0.73502  0.63132  1.0000
  O  Te4       1.0  0.81953  0.79181  0.66878  1.0000
  H   H34       1.0  0.38529  0.99540  0.83567  1.0000
  Mg  Mg2       1.0  0.72861  0.70092  0.59899  1.0000
  C   C57       1.0  0.76930  0.83489  0.21531  1.0000
  C   C58       1.0  0.81360  0.91298  0.23455  1.0000
  C  Sn5       1.0  0.34382  0.95537  0.26638  1.0000
  C  Sn6       1.0  0.68280  0.91874  0.27917  1.0000
  C   C59       1.0  0.63907  0.84057  0.25985  1.0000
  C   C60       1.0  0.68212  0.79870  0.22797  1.0000
  H   H35       1.0  0.80261  0.80247  0.19074  1.0000
  O  Te5       1.0  0.38904  0.03335  0.28521  1.0000
  O  Te6       1.0  0.21148  0.95974  0.31098  1.0000
  H   H36       1.0  0.64781  0.73822  0.21320  1.0000
  Mg  Mg3       1.0  0.30099  0.06478  0.32708  1.0000
