data_image0
_chemical_formula_structural       HCN2HC3HCHNCHC3H2CN2HC3HCHNCHC3H2CN2HC3HCHNCHC3H2CN2HC3HCHNCHC3H2CN2HC3HCHNCHC3H2CN2HC3HCHNCHC3H2CN2HC3HCHNCHC3H2CN2HC3HCHNCHC3H2CN2HC3HCHNCHC3H2CN2HC3HCHNCHC3H2CN2HC3HCHNCHC3H2CN2HC3HCHNCHC3HSnCSn2CSnTe4Mg2SnCSn2CSnTe4Mg2SnCSn2CSnTe4Mg2SnCSn2CSnTe4Mg2SnCSn2CSnTe4Mg2SnCSn2CSnTe4Mg2SnCSn2CSnTe4Mg2SnCSn2CSnTe4Mg2SnCSn2CSnTe4Mg2SnCSn2CSnTe4Mg2SnCSn2CSnTe4Mg2SnCSn2CSnTe4Mg2
_chemical_formula_sum              "H72 C132 N36 Sn48 Te48 Mg24"
_cell_length_a       34.5772
_cell_length_b       34.5951
_cell_length_c       8.14898
_cell_angle_alpha    124.674
_cell_angle_beta     70.0208
_cell_angle_gamma    119.909

_symmetry_space_group_name_H-M    'P1'
_space_group_IT_number       1

loop_
  _space_group_symop_operation_xyz
  'x, y, z'

loop_
  _atom_site_type_symbol
  _atom_site_label
  _atom_site_symmetry_multiplicity
  _atom_site_fract_x
  _atom_site_fract_y
  _atom_site_fract_z
  _atom_site_occupancy
  H   H1        1.0  0.69053  0.82021  0.01357  1.0000
  C   C1        1.0  0.72558  0.82694  0.00352  1.0000
  N   N1        1.0  0.75749  0.86791  0.00186  1.0000
  N   N2        1.0  0.74087  0.89845  0.01077  1.0000
  H   H2        1.0  0.80789  0.94752  0.01258  1.0000
  C   C2        1.0  0.77304  0.94019  0.01550  1.0000
  C   C3        1.0  0.76443  0.97797  0.02034  1.0000
  C   C4        1.0  0.72061  0.97185  0.02667  1.0000
  H   H3        1.0  0.69334  0.93923  0.03925  1.0000
  C   C5        1.0  0.53389  0.97453  0.98843  1.0000
  H   H4        1.0  0.50706  0.93777  0.97010  1.0000
  N   N3        1.0  0.47879  0.99124  0.99572  1.0000
  C   C6        1.0  0.28759  0.98870  0.99294  1.0000
  H   H5        1.0  0.25552  0.91539  0.98554  1.0000
  C   C7        1.0  0.25059  0.94438  0.98756  1.0000
  C   C8        1.0  0.20654  0.93675  0.99056  1.0000
  C   C9        1.0  0.19874  0.97390  0.99776  1.0000
  H   H6        1.0  0.16448  0.96770  0.99988  1.0000
  H   H7        1.0  0.17815  0.86428  0.99288  1.0000
  C   C10       1.0  0.16996  0.89090  0.99138  1.0000
  N   N4        1.0  0.12853  0.88149  0.99270  1.0000
  N   N5        1.0  0.09927  0.83607  0.99701  1.0000
  H   H8        1.0  0.04989  0.85477  0.00520  1.0000
  C   C11       1.0  0.05785  0.82778  0.00532  1.0000
  C   C12       1.0  0.02083  0.78317  0.01436  1.0000
  C   C13       1.0  0.02805  0.74624  0.01210  1.0000
  H   H9        1.0  0.06250  0.75333  0.00957  1.0000
  C   C14       1.0  0.02382  0.54747  0.96963  1.0000
  H   H10       1.0  0.05859  0.55200  0.94783  1.0000
  N   N6        1.0  0.00715  0.47898  0.98841  1.0000
  C   C15       1.0  0.00746  0.28778  0.97398  1.0000
  H   H11       1.0  0.07986  0.32578  0.95647  1.0000
  C   C16       1.0  0.05123  0.29323  0.96462  1.0000
  C   C17       1.0  0.05960  0.25766  0.96557  1.0000
  C   C18       1.0  0.02349  0.21446  0.97140  1.0000
  H   H12       1.0  0.03016  0.18732  0.97478  1.0000
  H   H13       1.0  0.13244  0.30053  0.95301  1.0000
  C   C19       1.0  0.10557  0.26766  0.96836  1.0000
  N   N7        1.0  0.11491  0.23939  0.99305  1.0000
  N   N8        1.0  0.16090  0.25624  0.99576  1.0000
  H   H14       1.0  0.14203  0.19486  0.03667  1.0000
  C   C20       1.0  0.16940  0.22731  0.02044  1.0000
  C   C21       1.0  0.21498  0.23599  0.02275  1.0000
  C   C22       1.0  0.25159  0.27931  0.01962  1.0000
  H   H15       1.0  0.24403  0.30654  0.02197  1.0000
  C   C23       1.0  0.44453  0.46426  0.98618  1.0000
  H   H16       1.0  0.43746  0.48940  0.96963  1.0000
  N   N9        1.0  0.51537  0.52005  0.99726  1.0000
  C   C24       1.0  0.70566  0.70780  0.99108  1.0000
  H   H17       1.0  0.66530  0.74237  0.00979  1.0000
  C   C25       1.0  0.69899  0.74586  0.99910  1.0000
  C   C26       1.0  0.73491  0.78910  0.99418  1.0000
  C   C27       1.0  0.77885  0.79541  0.98460  1.0000
  H   H18       1.0  0.80654  0.82929  0.98258  1.0000
  H   H19       1.0  0.31018  0.17394  0.99235  1.0000
  C   C28       1.0  0.27521  0.16786  0.00500  1.0000
  N   N10       1.0  0.24294  0.12784  0.01379  1.0000
  N   N11       1.0  0.25895  0.09696  0.00619  1.0000
  H   H20       1.0  0.19166  0.04957  0.01484  1.0000
  C   C29       1.0  0.22646  0.05617  0.00821  1.0000
  C   C30       1.0  0.23490  0.01791  0.00092  1.0000
  C   C31       1.0  0.27875  0.02489  0.99914  1.0000
  H   H21       1.0  0.30545  0.05997  0.00374  1.0000
  C   C32       1.0  0.46922  0.02226  0.98921  1.0000
  H   H22       1.0  0.49604  0.05678  0.98560  1.0000
  N   N12       1.0  0.52448  0.00847  0.00274  1.0000
  C   C33       1.0  0.71251  0.00640  0.01745  1.0000
  H   H23       1.0  0.74539  0.07494  0.99071  1.0000
  C   C34       1.0  0.74994  0.04837  0.00674  1.0000
  C   C35       1.0  0.79376  0.05614  0.00669  1.0000
  C   C36       1.0  0.80094  0.02042  0.01233  1.0000
  H   H24       1.0  0.83503  0.02625  0.00982  1.0000
  H   H25       1.0  0.82263  0.12539  0.98045  1.0000
  C   C37       1.0  0.83052  0.10042  0.99437  1.0000
  N   N13       1.0  0.87175  0.11062  0.00051  1.0000
  N   N14       1.0  0.90137  0.15496  0.98932  1.0000
  H   H26       1.0  0.95002  0.13745  0.99627  1.0000
  C   C38       1.0  0.94252  0.16355  0.98826  1.0000
  C   C39       1.0  0.97974  0.20784  0.97811  1.0000
  C   C40       1.0  0.97212  0.24448  0.98033  1.0000
  H   H27       1.0  0.93754  0.23802  0.98902  1.0000
  C   C41       1.0  0.97465  0.43893  0.99698  1.0000
  H   H28       1.0  0.93988  0.43257  0.00437  1.0000
  N   N15       1.0  0.99130  0.50923  0.99173  1.0000
  C   C42       1.0  0.99245  0.70249  0.01447  1.0000
  H   H29       1.0  0.92005  0.66423  0.02513  1.0000
  C   C43       1.0  0.94882  0.69749  0.02389  1.0000
  C   C44       1.0  0.94079  0.73386  0.02748  1.0000
  C   C45       1.0  0.97716  0.77689  0.02212  1.0000
  H   H30       1.0  0.97070  0.80437  0.02030  1.0000
  H   H31       1.0  0.86761  0.69262  0.04308  1.0000
  C   C46       1.0  0.89503  0.72503  0.02680  1.0000
  N   N16       1.0  0.88648  0.75410  0.00333  1.0000
  N   N17       1.0  0.84057  0.73800  0.00249  1.0000
  H   H32       1.0  0.85929  0.80027  0.96692  1.0000
  C   C47       1.0  0.83207  0.76741  0.98096  1.0000
  C   C48       1.0  0.78638  0.75866  0.97958  1.0000
  C   C49       1.0  0.74986  0.71486  0.97970  1.0000
  H   H33       1.0  0.75761  0.68734  0.97399  1.0000
  C   C50       1.0  0.55621  0.53032  0.01045  1.0000
  H   H34       1.0  0.56329  0.50473  0.02410  1.0000
  N   N18       1.0  0.48539  0.47512  0.00239  1.0000
  C   C51       1.0  0.29580  0.28644  0.00935  1.0000
  H   H35       1.0  0.33591  0.25222  0.99526  1.0000
  C   C52       1.0  0.30227  0.24860  0.00436  1.0000
  C   C53       1.0  0.26628  0.20565  0.01146  1.0000
  C   C54       1.0  0.22245  0.19961  0.02104  1.0000
  H   H36       1.0  0.19468  0.16602  0.02476  1.0000
  H   H37       1.0  0.68962  0.82819  0.50161  1.0000
  C   C55       1.0  0.72425  0.83483  0.49944  1.0000
  N   N19       1.0  0.75694  0.87640  0.50572  1.0000
  N   N20       1.0  0.74166  0.90774  0.51265  1.0000
  H   H38       1.0  0.80915  0.95539  0.50888  1.0000
  C   C56       1.0  0.77440  0.94876  0.51381  1.0000
  C   C57       1.0  0.76607  0.98678  0.51883  1.0000
  C   C58       1.0  0.72210  0.98071  0.52871  1.0000
  H   H39       1.0  0.69517  0.94782  0.54059  1.0000
  C   C59       1.0  0.53263  0.97746  0.49328  1.0000
  H   H40       1.0  0.50652  0.94031  0.47394  1.0000
  N   N21       1.0  0.47661  0.99255  0.49632  1.0000
  C   C60       1.0  0.28642  0.99313  0.49556  1.0000
  H   H41       1.0  0.25371  0.92122  0.50102  1.0000
  C   C61       1.0  0.24919  0.94964  0.49658  1.0000
  C   C62       1.0  0.20532  0.94219  0.49727  1.0000
  C   C63       1.0  0.19798  0.97911  0.50064  1.0000
  H   H42       1.0  0.16372  0.97298  0.50287  1.0000
  H   H43       1.0  0.17603  0.86914  0.49669  1.0000
  C   C64       1.0  0.16842  0.89646  0.49746  1.0000
  N   N22       1.0  0.12724  0.88812  0.49950  1.0000
  N   N23       1.0  0.09704  0.84233  0.49804  1.0000
  H   H44       1.0  0.04898  0.86512  0.52351  1.0000
  C   C65       1.0  0.05599  0.83614  0.51298  1.0000
  C   C66       1.0  0.01832  0.79139  0.51722  1.0000
  C   C67       1.0  0.02566  0.75390  0.50974  1.0000
  H   H45       1.0  0.06021  0.76062  0.50394  1.0000
  C   C68       1.0  0.02364  0.55614  0.46420  1.0000
  H   H46       1.0  0.05826  0.55924  0.42737  1.0000
  N   N24       1.0  0.00964  0.48941  0.48922  1.0000
  C   C69       1.0  0.00984  0.29723  0.47757  1.0000
  H   H47       1.0  0.08227  0.33400  0.45924  1.0000
  C   C70       1.0  0.05330  0.30177  0.46762  1.0000
  C   C71       1.0  0.06092  0.26577  0.46871  1.0000
  C   C72       1.0  0.02431  0.22308  0.47531  1.0000
  H   H48       1.0  0.03040  0.19558  0.47836  1.0000
  H   H49       1.0  0.13394  0.30695  0.45622  1.0000
  C   C73       1.0  0.10638  0.27451  0.47199  1.0000
  N   N25       1.0  0.11452  0.24551  0.49763  1.0000
  N   N26       1.0  0.16027  0.26139  0.50007  1.0000
  H   H50       1.0  0.14110  0.19745  0.52511  1.0000
  C   C74       1.0  0.16845  0.23093  0.51617  1.0000
  C   C75       1.0  0.21407  0.23944  0.51763  1.0000
  C   C76       1.0  0.25052  0.28291  0.51475  1.0000
  H   H51       1.0  0.24251  0.30947  0.51473  1.0000
  C   C77       1.0  0.44233  0.47171  0.50556  1.0000
  H   H52       1.0  0.43440  0.49894  0.50744  1.0000
  N   N27       1.0  0.51306  0.52755  0.51228  1.0000
  C   C78       1.0  0.70250  0.71652  0.50151  1.0000
  H   H53       1.0  0.66274  0.74919  0.50193  1.0000
  C   C79       1.0  0.69625  0.75347  0.49900  1.0000
  C   C80       1.0  0.73247  0.79654  0.49286  1.0000
  C   C81       1.0  0.77630  0.80277  0.48505  1.0000
  H   H54       1.0  0.80407  0.83608  0.47911  1.0000
  H   H55       1.0  0.30994  0.17860  0.49012  1.0000
  C   C82       1.0  0.27490  0.17264  0.50456  1.0000
  N   N28       1.0  0.24268  0.13287  0.51491  1.0000
  N   N29       1.0  0.25863  0.10209  0.50811  1.0000
  H   H56       1.0  0.19138  0.05427  0.51238  1.0000
  C   C83       1.0  0.22612  0.06083  0.50648  1.0000
  C   C84       1.0  0.23439  0.02249  0.49934  1.0000
  C   C85       1.0  0.27818  0.02886  0.49493  1.0000
  H   H57       1.0  0.30512  0.06300  0.49185  1.0000
  C   C86       1.0  0.46711  0.02362  0.48965  1.0000
  H   H58       1.0  0.49409  0.05815  0.48692  1.0000
  N   N30       1.0  0.52232  0.01055  0.50593  1.0000
  C   C87       1.0  0.71342  0.01536  0.52314  1.0000
  H   H59       1.0  0.74540  0.08500  0.50347  1.0000
  C   C88       1.0  0.75045  0.05800  0.51472  1.0000
  C   C89       1.0  0.79449  0.06549  0.51028  1.0000
  C   C90       1.0  0.80221  0.02924  0.51000  1.0000
  H   H60       1.0  0.83648  0.03481  0.50276  1.0000
  H   H61       1.0  0.82381  0.13516  0.48587  1.0000
  C   C91       1.0  0.83140  0.11005  0.50013  1.0000
  N   N31       1.0  0.87249  0.12016  0.50803  1.0000
  N   N32       1.0  0.90230  0.16464  0.49769  1.0000
  H   H62       1.0  0.95099  0.14696  0.50352  1.0000
  C   C92       1.0  0.94349  0.17312  0.49559  1.0000
  C   C93       1.0  0.98080  0.21717  0.48343  1.0000
  C   C94       1.0  0.97400  0.25434  0.48571  1.0000
  H   H63       1.0  0.93955  0.24836  0.49579  1.0000
  C   C95       1.0  0.97803  0.44940  0.50093  1.0000
  H   H64       1.0  0.94289  0.44277  0.51451  1.0000
  N   N33       1.0  0.99234  0.51942  0.49909  1.0000
  C   C96       1.0  0.99021  0.71031  0.51288  1.0000
  H   H65       1.0  0.91799  0.67138  0.52342  1.0000
  C   C97       1.0  0.94643  0.70498  0.52263  1.0000
  C   C98       1.0  0.93836  0.74154  0.52738  1.0000
  C   C99       1.0  0.97463  0.78535  0.52654  1.0000
  H   H66       1.0  0.96808  0.81331  0.52864  1.0000
  H   H67       1.0  0.86554  0.69967  0.54378  1.0000
  C   C100      1.0  0.89251  0.73209  0.52569  1.0000
  N   N34       1.0  0.88369  0.76085  0.50144  1.0000
  N   N35       1.0  0.83773  0.74490  0.50295  1.0000
  H   H68       1.0  0.85662  0.80712  0.46846  1.0000
  C   C101      1.0  0.82913  0.77461  0.48378  1.0000
  C   C102      1.0  0.78349  0.76667  0.48623  1.0000
  C   C103      1.0  0.74669  0.72426  0.49523  1.0000
  H   H69       1.0  0.75433  0.69815  0.50039  1.0000
  C   C104      1.0  0.55455  0.53599  0.50603  1.0000
  H   H70       1.0  0.56243  0.50796  0.49844  1.0000
  N   N36       1.0  0.48372  0.48123  0.50739  1.0000
  C   C105      1.0  0.29481  0.29040  0.50483  1.0000
  H   H71       1.0  0.33536  0.25731  0.49588  1.0000
  C   C106      1.0  0.30161  0.25309  0.50219  1.0000
  C   C107      1.0  0.26577  0.20999  0.50881  1.0000
  C   C108      1.0  0.22175  0.20313  0.51515  1.0000
  H   H72       1.0  0.19416  0.16927  0.51749  1.0000
  C  Sn1       1.0  0.61152  0.82198  0.02346  1.0000
  C   C109      1.0  0.59731  0.85663  0.04918  1.0000
  C  Sn2       1.0  0.62840  0.90073  0.03755  1.0000
  C  Sn3       1.0  0.65646  0.03532  0.99928  1.0000
  C   C110      1.0  0.67064  0.00068  0.97355  1.0000
  C  Sn4       1.0  0.63958  0.95658  0.98519  1.0000
  O  Te1       1.0  0.57985  0.77815  0.03570  1.0000
  O  Te2       1.0  0.61339  0.93481  0.06385  1.0000
  O  Te3       1.0  0.68813  0.07921  0.98706  1.0000
  O  Te4       1.0  0.65456  0.92250  0.95888  1.0000
  Mg  Mg1       1.0  0.66942  0.98917  0.03341  1.0000
  Mg  Mg2       1.0  0.59857  0.86812  0.98918  1.0000
  C  Sn5       1.0  0.37753  0.95643  0.92765  1.0000
  C   C111      1.0  0.41713  0.99815  0.93399  1.0000
  C  Sn6       1.0  0.41576  0.04383  0.98941  1.0000
  C  Sn7       1.0  0.39214  0.92297  0.03966  1.0000
  C   C112      1.0  0.35257  0.88128  0.03334  1.0000
  C  Sn8       1.0  0.33571  0.96052  0.97790  1.0000
  O  Te5       1.0  0.37969  0.91114  0.87183  1.0000
  O  Te6       1.0  0.45579  0.08500  0.99458  1.0000
  O  Te7       1.0  0.39000  0.96831  0.09550  1.0000
  O  Te8       1.0  0.29571  0.91936  0.97275  1.0000
  Mg  Mg3       1.0  0.95479  0.01373  0.08009  1.0000
  Mg  Mg4       1.0  0.31598  0.86569  0.88737  1.0000
  C  Sn9       1.0  0.94714  0.70695  0.96274  1.0000
  C   C113      1.0  0.98777  0.70246  0.92336  1.0000
  C  Sn10      1.0  0.02830  0.74407  0.93970  1.0000
  C  Sn11      1.0  0.02822  0.79116  0.99672  1.0000
  C   C114      1.0  0.00581  0.67069  0.03610  1.0000
  C  Sn12      1.0  0.96526  0.62910  0.01976  1.0000
  O  Te9       1.0  0.90702  0.66486  0.94547  1.0000
  O  Te10      1.0  0.06849  0.73865  0.89950  1.0000
  O  Te11      1.0  0.08658  0.70832  0.01396  1.0000
  O  Te12      1.0  0.92509  0.63450  0.05996  1.0000
  Mg  Mg5       1.0  0.11444  0.80699  0.94370  1.0000
  Mg  Mg6       1.0  0.87912  0.56620  0.01591  1.0000
  C  Sn13      1.0  0.95269  0.31841  0.91344  1.0000
  C   C115      1.0  0.99327  0.32027  0.92236  1.0000
  C  Sn14      1.0  0.03034  0.36674  0.99049  1.0000
  C  Sn15      1.0  0.04496  0.28737  0.05109  1.0000
  C   C116      1.0  0.00439  0.28550  0.04219  1.0000
  C  Sn16      1.0  0.94911  0.36399  0.97404  1.0000
  O  Te13      1.0  0.91607  0.27154  0.84484  1.0000
  O  Te14      1.0  0.07056  0.36764  0.99800  1.0000
  O  Te15      1.0  0.08163  0.33427  0.11972  1.0000
  O  Te16      1.0  0.90891  0.36308  0.96655  1.0000
  Mg  Mg7       1.0  0.12921  0.31587  0.10256  1.0000
  Mg  Mg8       1.0  0.86843  0.28994  0.86212  1.0000
  C  Sn17      1.0  0.37078  0.28455  0.04047  1.0000
  C   C117      1.0  0.41633  0.29941  0.04404  1.0000
  C  Sn18      1.0  0.43209  0.26491  0.00835  1.0000
  C  Sn19      1.0  0.38349  0.33943  0.96814  1.0000
  C   C118      1.0  0.33796  0.32458  0.96455  1.0000
  C  Sn20      1.0  0.34037  0.23413  0.00026  1.0000
  O  Te17      1.0  0.35577  0.31967  0.07656  1.0000
  O  Te18      1.0  0.47778  0.28066  0.01277  1.0000
  O  Te19      1.0  0.39853  0.30430  0.93204  1.0000
  O  Te20      1.0  0.27652  0.34334  0.99582  1.0000
  Mg  Mg9       1.0  0.46382  0.34382  0.95417  1.0000
  Mg  Mg10      1.0  0.29044  0.28013  0.05429  1.0000
  C  Sn21      1.0  0.64485  0.60122  0.08010  1.0000
  C   C119      1.0  0.59986  0.58437  0.05914  1.0000
  C  Sn22      1.0  0.56927  0.72946  0.98701  1.0000
  C  Sn23      1.0  0.60253  0.76721  0.93462  1.0000
  C   C120      1.0  0.64749  0.78403  0.95556  1.0000
  C  Sn24      1.0  0.67812  0.63897  0.02771  1.0000
  O  Te21      1.0  0.65649  0.58055  0.15250  1.0000
  O  Te22      1.0  0.52408  0.71202  0.96741  1.0000
  O  Te23      1.0  0.59086  0.78788  0.86218  1.0000
  O  Te24      1.0  0.72328  0.65638  0.04728  1.0000
  Mg  Mg11      1.0  0.52493  0.75180  0.86200  1.0000
  Mg  Mg12      1.0  0.72247  0.61661  0.15258  1.0000
  C  Sn25      1.0  0.59433  0.95212  0.52596  1.0000
  C   C121      1.0  0.57852  0.98604  0.55648  1.0000
  C  Sn26      1.0  0.60836  0.03126  0.55107  1.0000
  C  Sn27      1.0  0.65498  0.04280  0.51428  1.0000
  C   C122      1.0  0.67077  0.00888  0.48376  1.0000
  C  Sn28      1.0  0.64095  0.96366  0.48917  1.0000
  O  Te25      1.0  0.56390  0.90714  0.53201  1.0000
  O  Te26      1.0  0.59176  0.06459  0.58208  1.0000
  O  Te27      1.0  0.18653  0.08783  0.50826  1.0000
  O  Te28      1.0  0.65753  0.93034  0.45815  1.0000
  Mg  Mg13      1.0  0.14765  0.12106  0.55937  1.0000
  Mg  Mg14      1.0  0.60280  0.87384  0.48073  1.0000
  C  Sn29      1.0  0.34844  0.97080  0.55453  1.0000
  C   C123      1.0  0.33438  0.00176  0.55056  1.0000
  C  Sn30      1.0  0.36499  0.03920  0.49683  1.0000
  C  Sn31      1.0  0.41059  0.04583  0.44587  1.0000
  C   C124      1.0  0.42462  0.01488  0.44982  1.0000
  C  Sn32      1.0  0.39404  0.97743  0.50357  1.0000
  O  Te29      1.0  0.31726  0.93361  0.60869  1.0000
  O  Te30      1.0  0.85126  0.06970  0.49402  1.0000
  O  Te31      1.0  0.94288  0.08306  0.39169  1.0000
  O  Te32      1.0  0.40886  0.94694  0.50636  1.0000
  Mg  Mg15      1.0  0.90644  0.11514  0.41011  1.0000
  Mg  Mg16      1.0  0.35371  0.90147  0.59014  1.0000
  C  Sn33      1.0  0.96434  0.63013  0.59515  1.0000
  C   C125      1.0  0.99493  0.67081  0.55961  1.0000
  C  Sn34      1.0  0.03683  0.67130  0.45902  1.0000
  C  Sn35      1.0  0.04840  0.63026  0.39244  1.0000
  C   C126      1.0  0.01782  0.58961  0.42795  1.0000
  C  Sn36      1.0  0.97591  0.58909  0.52857  1.0000
  O  Te33      1.0  0.92264  0.63043  0.69599  1.0000
  O  Te34      1.0  0.06685  0.71240  0.42530  1.0000
  O  Te35      1.0  0.09014  0.62999  0.29153  1.0000
  O  Te36      1.0  0.94590  0.54802  0.56226  1.0000
  Mg  Mg17      1.0  0.11958  0.69454  0.28123  1.0000
  Mg  Mg18      1.0  0.89315  0.56583  0.70622  1.0000
  C  Sn37      1.0  0.94833  0.36359  0.54304  1.0000
  C   C127      1.0  0.97966  0.41013  0.55183  1.0000
  C  Sn38      1.0  0.02521  0.41956  0.50740  1.0000
  C  Sn39      1.0  0.03977  0.38167  0.45292  1.0000
  C   C128      1.0  0.00846  0.33516  0.44411  1.0000
  C  Sn40      1.0  0.96289  0.32570  0.48856  1.0000
  O  Te37      1.0  0.90295  0.35499  0.58806  1.0000
  O  Te38      1.0  0.05590  0.46638  0.51728  1.0000
  O  Te39      1.0  0.08519  0.39031  0.40789  1.0000
  O  Te40      1.0  0.93221  0.27891  0.47866  1.0000
  Mg  Mg19      1.0  0.11412  0.46007  0.44235  1.0000
  Mg  Mg20      1.0  0.87398  0.28516  0.55345  1.0000
  C  Sn41      1.0  0.35098  0.41656  0.56799  1.0000
  C   C129      1.0  0.39681  0.42981  0.55658  1.0000
  C  Sn42      1.0  0.41269  0.39307  0.49495  1.0000
  C  Sn43      1.0  0.38214  0.34200  0.44353  1.0000
  C   C130      1.0  0.33635  0.32877  0.45491  1.0000
  C  Sn44      1.0  0.32043  0.36549  0.51657  1.0000
  O  Te41      1.0  0.33585  0.45392  0.62998  1.0000
  O  Te42      1.0  0.45865  0.40723  0.48479  1.0000
  O  Te43      1.0  0.39731  0.30464  0.38151  1.0000
  O  Te44      1.0  0.27450  0.35135  0.52670  1.0000
  Mg  Mg21      1.0  0.46297  0.34263  0.39172  1.0000
  Mg  Mg22      1.0  0.27014  0.41591  0.61965  1.0000
  C  Sn45      1.0  0.60902  0.66263  0.58093  1.0000
  C   C131      1.0  0.65481  0.67605  0.57171  1.0000
  C  Sn46      1.0  0.67067  0.63951  0.51288  1.0000
  C  Sn47      1.0  0.64013  0.58847  0.46208  1.0000
  C   C132      1.0  0.59438  0.57507  0.47127  1.0000
  C  Sn48      1.0  0.57849  0.61159  0.53012  1.0000
  O  Te45      1.0  0.59391  0.69979  0.64013  1.0000
  O  Te46      1.0  0.71659  0.65384  0.50488  1.0000
  O  Te47      1.0  0.65528  0.55130  0.40285  1.0000
  O  Te48      1.0  0.53260  0.59728  0.53810  1.0000
  Mg  Mg23      1.0  0.72089  0.58947  0.41527  1.0000
  Mg  Mg24      1.0  0.52826  0.66161  0.62759  1.0000
