data_image0
_chemical_formula_structural       HCN2HC3HCHNCHC3H2CN2HC3HCHC2HC2HNHC2HCHC3H2CN2HC3HCHC2HC2HNCHC3H2CN2HC3HCHNCHC3H2CN2HC3HCHC2HC2HNHC2HCHC3H2CN2HC3HCHNHC2HCHC3H2CN2HC3HCHC2HC2HNCHC3H2CN2HC3HCHNCHC3H2CN2HC3HCHC2HC2HNHC2HCHC3H2CN2HC3HCHNHC2HCHC3H2CN2HC3HCHNCHC3H2CN2HC3HCHC2HC2HNHC2HCHC3HSnCSn2CSnTe4Mg2SnCSn2CSnTe4Mg2SnCSn2CSnTe4Mg2SnCSn2CSnTe4Mg2SnCSn2CSnTe4Mg2SnCSn2CSnTe4Mg2
_chemical_formula_sum              "H96 C156 N36 Sn24 Te24 Mg12"
_cell_length_a       34.5772
_cell_length_b       34.5951
_cell_length_c       8.14898
_cell_angle_alpha    124.674
_cell_angle_beta     70.0208
_cell_angle_gamma    119.909

_symmetry_space_group_name_H-M    'P1'
_space_group_IT_number       1

loop_
  _space_group_symop_operation_xyz
  'x, y, z'

loop_
  _atom_site_type_symbol
  _atom_site_label
  _atom_site_symmetry_multiplicity
  _atom_site_fract_x
  _atom_site_fract_y
  _atom_site_fract_z
  _atom_site_occupancy
  H   H1        1.0  0.69053  0.82021  0.01357  1.0000
  C   C1        1.0  0.72558  0.82694  0.00352  1.0000
  N   N1        1.0  0.75749  0.86791  0.00186  1.0000
  N   N2        1.0  0.74087  0.89845  0.01077  1.0000
  H   H2        1.0  0.80789  0.94752  0.01258  1.0000
  C   C2        1.0  0.77304  0.94019  0.01550  1.0000
  C   C3        1.0  0.76443  0.97797  0.02034  1.0000
  C   C4        1.0  0.72061  0.97185  0.02667  1.0000
  H   H3        1.0  0.69334  0.93923  0.03925  1.0000
  C   C5        1.0  0.53389  0.97453  0.98843  1.0000
  H   H4        1.0  0.50706  0.93777  0.97010  1.0000
  N   N3        1.0  0.47879  0.99124  0.99572  1.0000
  C   C6        1.0  0.28759  0.98870  0.99294  1.0000
  H   H5        1.0  0.25552  0.91539  0.98554  1.0000
  C   C7        1.0  0.25059  0.94438  0.98756  1.0000
  C   C8        1.0  0.20654  0.93675  0.99056  1.0000
  C   C9        1.0  0.19874  0.97390  0.99776  1.0000
  H   H6        1.0  0.16448  0.96770  0.99988  1.0000
  H   H7        1.0  0.17815  0.86428  0.99288  1.0000
  C   C10       1.0  0.16996  0.89090  0.99138  1.0000
  N   N4        1.0  0.12853  0.88149  0.99270  1.0000
  N   N5        1.0  0.09927  0.83607  0.99701  1.0000
  H   H8        1.0  0.04989  0.85477  0.00520  1.0000
  C   C11       1.0  0.05785  0.82778  0.00532  1.0000
  C   C12       1.0  0.02083  0.78317  0.01436  1.0000
  C   C13       1.0  0.02805  0.74624  0.01210  1.0000
  H   H9        1.0  0.06250  0.75333  0.00957  1.0000
  C   C14       1.0  0.00038  0.66253  0.00197  1.0000
  H   H10       1.0  0.07188  0.69270  0.92940  1.0000
  C   C15       1.0  0.04364  0.66303  0.95814  1.0000
  C   C16       1.0  0.05099  0.62549  0.94658  1.0000
  H   H11       1.0  0.08484  0.62712  0.91373  1.0000
  C   C17       1.0  0.01538  0.58532  0.97584  1.0000
  C   C18       1.0  0.02382  0.54747  0.96963  1.0000
  H   H12       1.0  0.05859  0.55200  0.94783  1.0000
  N   N6        1.0  0.00715  0.47898  0.98841  1.0000
  H   H13       1.0  0.05417  0.44543  0.01730  1.0000
  C   C19       1.0  0.02684  0.40972  0.00370  1.0000
  C   C20       1.0  0.03424  0.37315  0.99802  1.0000
  H   H14       1.0  0.06813  0.38134  0.00999  1.0000
  C   C21       1.0  0.00746  0.28778  0.97398  1.0000
  H   H15       1.0  0.07986  0.32578  0.95647  1.0000
  C   C22       1.0  0.05123  0.29323  0.96462  1.0000
  C   C23       1.0  0.05960  0.25766  0.96557  1.0000
  C   C24       1.0  0.02349  0.21446  0.97140  1.0000
  H   H16       1.0  0.03016  0.18732  0.97478  1.0000
  H   H17       1.0  0.13244  0.30053  0.95301  1.0000
  C   C25       1.0  0.10557  0.26766  0.96836  1.0000
  N   N7        1.0  0.11491  0.23939  0.99305  1.0000
  N   N8        1.0  0.16090  0.25624  0.99576  1.0000
  H   H18       1.0  0.14203  0.19486  0.03667  1.0000
  C   C26       1.0  0.16940  0.22731  0.02044  1.0000
  C   C27       1.0  0.21498  0.23599  0.02275  1.0000
  C   C28       1.0  0.25159  0.27931  0.01962  1.0000
  H   H19       1.0  0.24403  0.30654  0.02197  1.0000
  C   C29       1.0  0.33412  0.33154  0.00081  1.0000
  H   H20       1.0  0.29452  0.36029  0.97448  1.0000
  C   C30       1.0  0.32779  0.36656  0.98543  1.0000
  C   C31       1.0  0.36367  0.40932  0.97985  1.0000
  H   H21       1.0  0.35777  0.43522  0.96432  1.0000
  C   C32       1.0  0.40766  0.41918  0.99061  1.0000
  C   C33       1.0  0.44453  0.46426  0.98618  1.0000
  H   H22       1.0  0.43746  0.48940  0.96963  1.0000
  N   N9        1.0  0.51537  0.52005  0.99726  1.0000
  C   C34       1.0  0.70566  0.70780  0.99108  1.0000
  H   H23       1.0  0.66530  0.74237  0.00979  1.0000
  C   C35       1.0  0.69899  0.74586  0.99910  1.0000
  C   C36       1.0  0.73491  0.78910  0.99418  1.0000
  C   C37       1.0  0.77885  0.79541  0.98460  1.0000
  H   H24       1.0  0.80654  0.82929  0.98258  1.0000
  H   H25       1.0  0.31018  0.17394  0.99235  1.0000
  C   C38       1.0  0.27521  0.16786  0.00500  1.0000
  N   N10       1.0  0.24294  0.12784  0.01379  1.0000
  N   N11       1.0  0.25895  0.09696  0.00619  1.0000
  H   H26       1.0  0.19166  0.04957  0.01484  1.0000
  C   C39       1.0  0.22646  0.05617  0.00821  1.0000
  C   C40       1.0  0.23490  0.01791  0.00092  1.0000
  C   C41       1.0  0.27875  0.02489  0.99914  1.0000
  H   H27       1.0  0.30545  0.05997  0.00374  1.0000
  C   C42       1.0  0.46922  0.02226  0.98921  1.0000
  H   H28       1.0  0.49604  0.05678  0.98560  1.0000
  N   N12       1.0  0.52448  0.00847  0.00274  1.0000
  C   C43       1.0  0.71251  0.00640  0.01745  1.0000
  H   H29       1.0  0.74539  0.07494  0.99071  1.0000
  C   C44       1.0  0.74994  0.04837  0.00674  1.0000
  C   C45       1.0  0.79376  0.05614  0.00669  1.0000
  C   C46       1.0  0.80094  0.02042  0.01233  1.0000
  H   H30       1.0  0.83503  0.02625  0.00982  1.0000
  H   H31       1.0  0.82263  0.12539  0.98045  1.0000
  C   C47       1.0  0.83052  0.10042  0.99437  1.0000
  N   N13       1.0  0.87175  0.11062  0.00051  1.0000
  N   N14       1.0  0.90137  0.15496  0.98932  1.0000
  H   H32       1.0  0.95002  0.13745  0.99627  1.0000
  C   C48       1.0  0.94252  0.16355  0.98826  1.0000
  C   C49       1.0  0.97974  0.20784  0.97811  1.0000
  C   C50       1.0  0.97212  0.24448  0.98033  1.0000
  H   H33       1.0  0.93754  0.23802  0.98902  1.0000
  C   C51       1.0  0.99907  0.32667  0.98073  1.0000
  H   H34       1.0  0.92753  0.28374  0.95659  1.0000
  C   C52       1.0  0.95567  0.31912  0.97247  1.0000
  C   C53       1.0  0.94788  0.35616  0.98232  1.0000
  H   H35       1.0  0.91398  0.34948  0.97626  1.0000
  C   C54       1.0  0.98335  0.40178  0.99498  1.0000
  C   C55       1.0  0.97465  0.43893  0.99698  1.0000
  H   H36       1.0  0.93988  0.43257  0.00437  1.0000
  N   N15       1.0  0.99130  0.50923  0.99173  1.0000
  H   H37       1.0  0.94432  0.55289  0.03785  1.0000
  C   C56       1.0  0.97196  0.58395  0.01546  1.0000
  C   C57       1.0  0.96488  0.62185  0.02981  1.0000
  H   H38       1.0  0.93099  0.62010  0.06609  1.0000
  C   C58       1.0  0.99245  0.70249  0.01447  1.0000
  H   H39       1.0  0.92005  0.66423  0.02513  1.0000
  C   C59       1.0  0.94882  0.69749  0.02389  1.0000
  C   C60       1.0  0.94079  0.73386  0.02748  1.0000
  C   C61       1.0  0.97716  0.77689  0.02212  1.0000
  H   H40       1.0  0.97070  0.80437  0.02030  1.0000
  H   H41       1.0  0.86761  0.69262  0.04308  1.0000
  C   C62       1.0  0.89503  0.72503  0.02680  1.0000
  N   N16       1.0  0.88648  0.75410  0.00333  1.0000
  N   N17       1.0  0.84057  0.73800  0.00249  1.0000
  H   H42       1.0  0.85929  0.80027  0.96692  1.0000
  C   C63       1.0  0.83207  0.76741  0.98096  1.0000
  C   C64       1.0  0.78638  0.75866  0.97958  1.0000
  C   C65       1.0  0.74986  0.71486  0.97970  1.0000
  H   H43       1.0  0.75761  0.68734  0.97399  1.0000
  C   C66       1.0  0.55621  0.53032  0.01045  1.0000
  H   H44       1.0  0.56329  0.50473  0.02410  1.0000
  N   N18       1.0  0.48539  0.47512  0.00239  1.0000
  H   H45       1.0  0.44837  0.39194  0.01460  1.0000
  C   C67       1.0  0.41442  0.38426  0.00458  1.0000
  C   C68       1.0  0.37855  0.34157  0.00909  1.0000
  H   H46       1.0  0.38524  0.31626  0.02428  1.0000
  C   C69       1.0  0.29580  0.28644  0.00935  1.0000
  H   H47       1.0  0.33591  0.25222  0.99526  1.0000
  C   C70       1.0  0.30227  0.24860  0.00436  1.0000
  C   C71       1.0  0.26628  0.20565  0.01146  1.0000
  C   C72       1.0  0.22245  0.19961  0.02104  1.0000
  H   H48       1.0  0.19468  0.16602  0.02476  1.0000
  H   H49       1.0  0.68962  0.82819  0.50161  1.0000
  C   C73       1.0  0.72425  0.83483  0.49944  1.0000
  N   N19       1.0  0.75694  0.87640  0.50572  1.0000
  N   N20       1.0  0.74166  0.90774  0.51265  1.0000
  H   H50       1.0  0.80915  0.95539  0.50888  1.0000
  C   C74       1.0  0.77440  0.94876  0.51381  1.0000
  C   C75       1.0  0.76607  0.98678  0.51883  1.0000
  C   C76       1.0  0.72210  0.98071  0.52871  1.0000
  H   H51       1.0  0.69517  0.94782  0.54059  1.0000
  C   C77       1.0  0.66715  0.00638  0.51879  1.0000
  H   H52       1.0  0.63859  0.92700  0.44327  1.0000
  C   C78       1.0  0.63191  0.95824  0.47508  1.0000
  C   C79       1.0  0.58843  0.94952  0.46946  1.0000
  H   H53       1.0  0.56175  0.91205  0.43656  1.0000
  C   C80       1.0  0.57829  0.98824  0.50341  1.0000
  C   C81       1.0  0.53263  0.97746  0.49328  1.0000
  H   H54       1.0  0.50652  0.94031  0.47394  1.0000
  N   N21       1.0  0.47661  0.99255  0.49632  1.0000
  C   C82       1.0  0.28642  0.99313  0.49556  1.0000
  H   H55       1.0  0.25371  0.92122  0.50102  1.0000
  C   C83       1.0  0.24919  0.94964  0.49658  1.0000
  C   C84       1.0  0.20532  0.94219  0.49727  1.0000
  C   C85       1.0  0.19798  0.97911  0.50064  1.0000
  H   H56       1.0  0.16372  0.97298  0.50287  1.0000
  H   H57       1.0  0.17603  0.86914  0.49669  1.0000
  C   C86       1.0  0.16842  0.89646  0.49746  1.0000
  N   N22       1.0  0.12724  0.88812  0.49950  1.0000
  N   N23       1.0  0.09704  0.84233  0.49804  1.0000
  H   H58       1.0  0.04898  0.86512  0.52351  1.0000
  C   C87       1.0  0.05599  0.83614  0.51298  1.0000
  C   C88       1.0  0.01832  0.79139  0.51722  1.0000
  C   C89       1.0  0.02566  0.75390  0.50974  1.0000
  H   H59       1.0  0.06021  0.76062  0.50394  1.0000
  C   C90       1.0  0.02364  0.55614  0.46420  1.0000
  H   H60       1.0  0.05826  0.55924  0.42737  1.0000
  N   N24       1.0  0.00964  0.48941  0.48922  1.0000
  C   C91       1.0  0.00984  0.29723  0.47757  1.0000
  H   H61       1.0  0.08227  0.33400  0.45924  1.0000
  C   C92       1.0  0.05330  0.30177  0.46762  1.0000
  C   C93       1.0  0.06092  0.26577  0.46871  1.0000
  C   C94       1.0  0.02431  0.22308  0.47531  1.0000
  H   H62       1.0  0.03040  0.19558  0.47836  1.0000
  H   H63       1.0  0.13394  0.30695  0.45622  1.0000
  C   C95       1.0  0.10638  0.27451  0.47199  1.0000
  N   N25       1.0  0.11452  0.24551  0.49763  1.0000
  N   N26       1.0  0.16027  0.26139  0.50007  1.0000
  H   H64       1.0  0.14110  0.19745  0.52511  1.0000
  C   C96       1.0  0.16845  0.23093  0.51617  1.0000
  C   C97       1.0  0.21407  0.23944  0.51763  1.0000
  C   C98       1.0  0.25052  0.28291  0.51475  1.0000
  H   H65       1.0  0.24251  0.30947  0.51473  1.0000
  C   C99       1.0  0.33284  0.33582  0.49712  1.0000
  H   H66       1.0  0.29215  0.36908  0.50888  1.0000
  C   C100      1.0  0.32584  0.37367  0.50502  1.0000
  C   C101      1.0  0.36140  0.41746  0.50719  1.0000
  H   H67       1.0  0.35494  0.44599  0.51255  1.0000
  C   C102      1.0  0.40583  0.42547  0.50119  1.0000
  C   C103      1.0  0.44233  0.47171  0.50556  1.0000
  H   H68       1.0  0.43440  0.49894  0.50744  1.0000
  N   N27       1.0  0.51306  0.52755  0.51228  1.0000
  H   H69       1.0  0.54969  0.61402  0.52257  1.0000
  C   C104      1.0  0.58391  0.61992  0.51843  1.0000
  C   C105      1.0  0.61956  0.66345  0.52024  1.0000
  H   H70       1.0  0.61237  0.69141  0.52591  1.0000
  C   C106      1.0  0.70250  0.71652  0.50151  1.0000
  H   H71       1.0  0.66274  0.74919  0.50193  1.0000
  C   C107      1.0  0.69625  0.75347  0.49900  1.0000
  C   C108      1.0  0.73247  0.79654  0.49286  1.0000
  C   C109      1.0  0.77630  0.80277  0.48505  1.0000
  H   H72       1.0  0.80407  0.83608  0.47911  1.0000
  H   H73       1.0  0.30994  0.17860  0.49012  1.0000
  C   C110      1.0  0.27490  0.17264  0.50456  1.0000
  N   N28       1.0  0.24268  0.13287  0.51491  1.0000
  N   N29       1.0  0.25863  0.10209  0.50811  1.0000
  H   H74       1.0  0.19138  0.05427  0.51238  1.0000
  C   C111      1.0  0.22612  0.06083  0.50648  1.0000
  C   C112      1.0  0.23439  0.02249  0.49934  1.0000
  C   C113      1.0  0.27818  0.02886  0.49493  1.0000
  H   H75       1.0  0.30512  0.06300  0.49185  1.0000
  C   C114      1.0  0.46711  0.02362  0.48965  1.0000
  H   H76       1.0  0.49409  0.05815  0.48692  1.0000
  N   N30       1.0  0.52232  0.01055  0.50593  1.0000
  H   H77       1.0  0.60570  0.06669  0.57424  1.0000
  C   C115      1.0  0.61337  0.03650  0.54671  1.0000
  C   C116      1.0  0.65654  0.04523  0.55559  1.0000
  H   H78       1.0  0.68255  0.08322  0.59375  1.0000
  C   C117      1.0  0.71342  0.01536  0.52314  1.0000
  H   H79       1.0  0.74540  0.08500  0.50347  1.0000
  C   C118      1.0  0.75045  0.05800  0.51472  1.0000
  C   C119      1.0  0.79449  0.06549  0.51028  1.0000
  C   C120      1.0  0.80221  0.02924  0.51000  1.0000
  H   H80       1.0  0.83648  0.03481  0.50276  1.0000
  H   H81       1.0  0.82381  0.13516  0.48587  1.0000
  C   C121      1.0  0.83140  0.11005  0.50013  1.0000
  N   N31       1.0  0.87249  0.12016  0.50803  1.0000
  N   N32       1.0  0.90230  0.16464  0.49769  1.0000
  H   H82       1.0  0.95099  0.14696  0.50352  1.0000
  C   C122      1.0  0.94349  0.17312  0.49559  1.0000
  C   C123      1.0  0.98080  0.21717  0.48343  1.0000
  C   C124      1.0  0.97400  0.25434  0.48571  1.0000
  H   H83       1.0  0.93955  0.24836  0.49579  1.0000
  C   C125      1.0  0.97803  0.44940  0.50093  1.0000
  H   H84       1.0  0.94289  0.44277  0.51451  1.0000
  N   N33       1.0  0.99234  0.51942  0.49909  1.0000
  C   C126      1.0  0.99021  0.71031  0.51288  1.0000
  H   H85       1.0  0.91799  0.67138  0.52342  1.0000
  C   C127      1.0  0.94643  0.70498  0.52263  1.0000
  C   C128      1.0  0.93836  0.74154  0.52738  1.0000
  C   C129      1.0  0.97463  0.78535  0.52654  1.0000
  H   H86       1.0  0.96808  0.81331  0.52864  1.0000
  H   H87       1.0  0.86554  0.69967  0.54378  1.0000
  C   C130      1.0  0.89251  0.73209  0.52569  1.0000
  N   N34       1.0  0.88369  0.76085  0.50144  1.0000
  N   N35       1.0  0.83773  0.74490  0.50295  1.0000
  H   H88       1.0  0.85662  0.80712  0.46846  1.0000
  C   C131      1.0  0.82913  0.77461  0.48378  1.0000
  C   C132      1.0  0.78349  0.76667  0.48623  1.0000
  C   C133      1.0  0.74669  0.72426  0.49523  1.0000
  H   H89       1.0  0.75433  0.69815  0.50039  1.0000
  C   C134      1.0  0.66432  0.67139  0.51088  1.0000
  H   H90       1.0  0.70474  0.63854  0.50428  1.0000
  C   C135      1.0  0.67115  0.63383  0.50597  1.0000
  C   C136      1.0  0.63549  0.59018  0.50466  1.0000
  H   H91       1.0  0.64190  0.56215  0.50300  1.0000
  C   C137      1.0  0.59114  0.58200  0.50845  1.0000
  C   C138      1.0  0.55455  0.53599  0.50603  1.0000
  H   H92       1.0  0.56243  0.50796  0.49844  1.0000
  N   N36       1.0  0.48372  0.48123  0.50739  1.0000
  H   H93       1.0  0.44756  0.39307  0.48296  1.0000
  C   C139      1.0  0.41331  0.38733  0.48861  1.0000
  C   C140      1.0  0.37766  0.34375  0.48659  1.0000
  H   H94       1.0  0.38494  0.31570  0.47984  1.0000
  C   C141      1.0  0.29481  0.29040  0.50483  1.0000
  H   H95       1.0  0.33536  0.25731  0.49588  1.0000
  C   C142      1.0  0.30161  0.25309  0.50219  1.0000
  C   C143      1.0  0.26577  0.20999  0.50881  1.0000
  C   C144      1.0  0.22175  0.20313  0.51515  1.0000
  H   H96       1.0  0.19416  0.16927  0.51749  1.0000
  C  Sn1       1.0  0.88091  0.03853  0.93629  1.0000
  C   C145      1.0  0.84112  0.99824  0.94151  1.0000
  C  Sn2       1.0  0.84071  0.96545  0.99109  1.0000
  C  Sn3       1.0  0.89910  0.84818  0.03654  1.0000
  C   C146      1.0  0.93886  0.88846  0.03135  1.0000
  C  Sn4       1.0  0.92111  0.04620  0.98174  1.0000
  O  Te1       1.0  0.88054  0.07084  0.88634  1.0000
  O  Te2       1.0  0.80051  0.92542  0.99525  1.0000
  O  Te3       1.0  0.89944  0.81584  0.08651  1.0000
  O  Te4       1.0  0.96126  0.08622  0.97761  1.0000
  Mg  Mg1       1.0  0.83628  0.76674  0.07198  1.0000
  Mg  Mg2       1.0  0.44485  0.12000  0.90100  1.0000
  C  Sn5       1.0  0.03733  0.40663  0.43893  1.0000
  C   C147      1.0  0.99674  0.40609  0.43781  1.0000
  C  Sn6       1.0  0.95619  0.37179  0.47809  1.0000
  C  Sn7       1.0  0.95621  0.33732  0.52052  1.0000
  C   C148      1.0  0.99678  0.33787  0.52166  1.0000
  C  Sn8       1.0  0.03734  0.37215  0.48136  1.0000
  O  Te5       1.0  0.07746  0.44125  0.39825  1.0000
  O  Te6       1.0  0.91603  0.37197  0.47604  1.0000
  O  Te7       1.0  0.91602  0.30268  0.56121  1.0000
  O  Te8       1.0  0.07748  0.37200  0.48343  1.0000
  Mg  Mg3       1.0  0.87003  0.31759  0.54086  1.0000
  Mg  Mg4       1.0  0.12350  0.42637  0.41874  1.0000
  C  Sn9       1.0  0.96386  0.59103  0.47023  1.0000
  C   C149      1.0  0.00454  0.58636  0.42752  1.0000
  C  Sn10      1.0  0.04503  0.62751  0.43764  1.0000
  C  Sn11      1.0  0.04487  0.67431  0.49169  1.0000
  C   C150      1.0  0.00421  0.67897  0.53439  1.0000
  C  Sn12      1.0  0.96370  0.63783  0.52428  1.0000
  O  Te9       1.0  0.92379  0.54939  0.45919  1.0000
  O  Te10      1.0  0.08527  0.62192  0.39421  1.0000
  O  Te11      1.0  0.08499  0.71596  0.50270  1.0000
  O  Te12      1.0  0.92348  0.64340  0.56771  1.0000
  Mg  Mg5       1.0  0.13114  0.68962  0.43001  1.0000
  Mg  Mg6       1.0  0.87760  0.57575  0.53206  1.0000
  C  Sn13      1.0  0.64485  0.60122  0.08010  1.0000
  C   C151      1.0  0.59986  0.58437  0.05914  1.0000
  C  Sn14      1.0  0.56927  0.72946  0.98701  1.0000
  C  Sn15      1.0  0.60253  0.76721  0.93462  1.0000
  C   C152      1.0  0.64749  0.78403  0.95556  1.0000
  C  Sn16      1.0  0.67812  0.63897  0.02771  1.0000
  O  Te13      1.0  0.65649  0.58055  0.15250  1.0000
  O  Te14      1.0  0.52408  0.71202  0.96741  1.0000
  O  Te15      1.0  0.59086  0.78788  0.86218  1.0000
  O  Te16      1.0  0.72328  0.65638  0.04728  1.0000
  Mg  Mg7       1.0  0.52493  0.75180  0.86200  1.0000
  Mg  Mg8       1.0  0.72247  0.61661  0.15258  1.0000
  C  Sn17      1.0  0.37506  0.95912  0.43100  1.0000
  C   C153      1.0  0.41511  0.00019  0.43517  1.0000
  C  Sn18      1.0  0.41462  0.04619  0.48914  1.0000
  C  Sn19      1.0  0.37324  0.05125  0.54014  1.0000
  C   C154      1.0  0.33322  0.01020  0.53599  1.0000
  C  Sn20      1.0  0.33368  0.96418  0.48200  1.0000
  O  Te17      1.0  0.37634  0.91349  0.37661  1.0000
  O  Te18      1.0  0.95621  0.08671  0.49215  1.0000
  O  Te19      1.0  0.87310  0.09693  0.59455  1.0000
  O  Te20      1.0  0.29324  0.92368  0.47901  1.0000
  Mg  Mg9       1.0  0.93710  0.14118  0.57634  1.0000
  Mg  Mg10      1.0  0.31231  0.86921  0.39494  1.0000
  C  Sn21      1.0  0.61152  0.82198  0.02346  1.0000
  C   C155      1.0  0.59731  0.85663  0.04918  1.0000
  C  Sn22      1.0  0.62840  0.90073  0.03755  1.0000
  C  Sn23      1.0  0.65646  0.03532  0.99928  1.0000
  C   C156      1.0  0.67064  0.00068  0.97355  1.0000
  C  Sn24      1.0  0.63958  0.95658  0.98519  1.0000
  O  Te21      1.0  0.57985  0.77815  0.03570  1.0000
  O  Te22      1.0  0.61339  0.93481  0.06385  1.0000
  O  Te23      1.0  0.68813  0.07921  0.98706  1.0000
  O  Te24      1.0  0.65456  0.92250  0.95888  1.0000
  Mg  Mg11      1.0  0.66942  0.98917  0.03341  1.0000
  Mg  Mg12      1.0  0.59857  0.86812  0.98918  1.0000
