data_image0
_chemical_formula_structural       HCN2HC3HCHNC3HC3H2CN2HC3HCHNC3HC3H2CN2HC3HCHNC3HC3H2CN2HC3HCHNC3HC3H2CN2HC3HCHNC3HC3H2CN2HC3HCHNC3HC3H2CN2HC3HCHNC3HC3H2CN2HC3HCHNC3HC3H2CN2HC3HCHNC3HC3H2CN2HC3HCHNC3HC3H2CN2HC3HCHNC3HC3H2CN2HC3HCHNC3HC3HSnCSn2CSnTe4Mg2SnCSn2CSnTe4Mg2SnCSn2CSnTe4Mg2SnCSn2CSnTe4Mg2SnCSn2CSnTe4Mg2SnCSn2CSnTe4Mg2SnCSn2CSnTe4Mg2SnCSn2CSnTe4Mg2SnCSn2CSnTe4Mg2SnCSn2CSnTe4Mg2SnCSn2CSnTe4Mg2SnCSn2CSnTe4Mg2
_chemical_formula_sum              "H72 C156 N36 Sn48 Te48 Mg24"
_cell_length_a       39.6045
_cell_length_b       39.5925
_cell_length_c       8.09492
_cell_angle_alpha    56.4444
_cell_angle_beta     109.53
_cell_angle_gamma    119.895

_symmetry_space_group_name_H-M    'P1'
_space_group_IT_number       1

loop_
  _space_group_symop_operation_xyz
  'x, y, z'

loop_
  _atom_site_type_symbol
  _atom_site_label
  _atom_site_symmetry_multiplicity
  _atom_site_fract_x
  _atom_site_fract_y
  _atom_site_fract_z
  _atom_site_occupancy
  H   H1        1.0  0.73212  0.84834  0.00860  1.0000
  C   C1        1.0  0.76228  0.85436  0.00865  1.0000
  N   N1        1.0  0.79078  0.89051  0.00398  1.0000
  N   N2        1.0  0.77718  0.91748  0.99930  1.0000
  H   H2        1.0  0.83572  0.96061  0.98750  1.0000
  C   C2        1.0  0.80553  0.95409  0.99046  1.0000
  C   C3        1.0  0.79846  0.98737  0.98615  1.0000
  C   C4        1.0  0.76048  0.98118  0.99036  1.0000
  H   H3        1.0  0.73600  0.95126  0.99384  1.0000
  C   C5        1.0  0.52969  0.98042  0.98866  1.0000
  H   H4        1.0  0.50551  0.95263  0.96801  1.0000
  N   N3        1.0  0.48221  0.99354  0.00045  1.0000
  C   C6        1.0  0.31964  0.99722  0.99267  1.0000
  C   C7        1.0  0.28667  0.99181  0.99702  1.0000
  C   C8        1.0  0.24866  0.98577  0.00301  1.0000
  H   H5        1.0  0.22001  0.92356  0.99600  1.0000
  C   C9        1.0  0.21583  0.94787  0.00311  1.0000
  C   C10       1.0  0.17804  0.94185  0.00691  1.0000
  C   C11       1.0  0.17289  0.97413  0.01050  1.0000
  H   H6        1.0  0.14347  0.96918  0.01399  1.0000
  H   H7        1.0  0.15133  0.88065  0.98464  1.0000
  C   C12       1.0  0.14523  0.90277  0.00075  1.0000
  N   N4        1.0  0.10953  0.89409  0.01085  1.0000
  N   N5        1.0  0.08339  0.85538  0.99843  1.0000
  H   H8        1.0  0.04074  0.87015  0.00829  1.0000
  C   C13       1.0  0.04743  0.84768  0.99774  1.0000
  C   C14       1.0  0.01484  0.80938  0.98267  1.0000
  C   C15       1.0  0.02077  0.77742  0.98043  1.0000
  H   H9        1.0  0.05043  0.78165  0.98725  1.0000
  C   C16       1.0  0.02757  0.54713  0.01370  1.0000
  H   H10       1.0  0.05787  0.55155  0.02858  1.0000
  N   N6        1.0  0.01192  0.48603  0.00182  1.0000
  C   C17       1.0  0.00612  0.31867  0.01182  1.0000
  C   C18       1.0  0.01056  0.28961  0.01781  1.0000
  C   C19       1.0  0.01579  0.25638  0.02213  1.0000
  H   H11       1.0  0.07884  0.28872  0.04109  1.0000
  C   C20       1.0  0.05380  0.26022  0.03305  1.0000
  C   C21       1.0  0.05941  0.22802  0.03309  1.0000
  C   C22       1.0  0.02674  0.19104  0.02528  1.0000
  H   H12       1.0  0.03143  0.16643  0.02330  1.0000
  H   H13       1.0  0.12333  0.26290  0.04939  1.0000
  C   C23       1.0  0.09895  0.23469  0.03292  1.0000
  N   N7        1.0  0.10565  0.20868  0.00948  1.0000
  N   N8        1.0  0.14560  0.22230  0.00873  1.0000
  H   H14       1.0  0.12893  0.16772  0.97255  1.0000
  C   C24       1.0  0.15278  0.19642  0.98702  1.0000
  C   C25       1.0  0.19269  0.20432  0.98492  1.0000
  C   C26       1.0  0.22455  0.24221  0.98837  1.0000
  H   H15       1.0  0.21913  0.26631  0.99045  1.0000
  C   C27       1.0  0.44733  0.47484  0.01086  1.0000
  H   H16       1.0  0.44069  0.49779  0.01771  1.0000
  N   N9        1.0  0.50920  0.52387  0.99675  1.0000
  C   C28       1.0  0.67834  0.68295  0.99042  1.0000
  C   C29       1.0  0.70792  0.71394  0.99996  1.0000
  C   C30       1.0  0.74131  0.75072  0.00789  1.0000
  H   H17       1.0  0.70736  0.77965  0.00907  1.0000
  C   C31       1.0  0.73661  0.78363  0.00932  1.0000
  C   C32       1.0  0.76899  0.82099  0.01212  1.0000
  C   C33       1.0  0.80669  0.82556  0.01417  1.0000
  H   H18       1.0  0.83167  0.85477  0.01601  1.0000
  H   H19       1.0  0.27453  0.15006  0.99996  1.0000
  C   C34       1.0  0.24442  0.14481  0.99598  1.0000
  N   N10       1.0  0.21538  0.10933  0.99604  1.0000
  N   N11       1.0  0.22789  0.08168  0.99999  1.0000
  H   H20       1.0  0.16894  0.03972  0.01020  1.0000
  C   C35       1.0  0.19888  0.04556  0.00699  1.0000
  C   C36       1.0  0.20514  0.01200  0.00934  1.0000
  C   C37       1.0  0.24296  0.01770  0.00586  1.0000
  H   H21       1.0  0.26767  0.04729  0.00456  1.0000
  C   C38       1.0  0.47448  0.01958  0.01916  1.0000
  H   H22       1.0  0.49834  0.04772  0.03833  1.0000
  N   N12       1.0  0.52228  0.00652  0.00867  1.0000
  C   C39       1.0  0.68369  0.00107  0.01060  1.0000
  C   C40       1.0  0.71637  0.00638  0.00215  1.0000
  C   C41       1.0  0.75435  0.01290  0.99273  1.0000
  H   H23       1.0  0.78235  0.07540  0.99701  1.0000
  C   C42       1.0  0.78686  0.05125  0.99018  1.0000
  C   C43       1.0  0.82474  0.05778  0.98508  1.0000
  C   C44       1.0  0.83034  0.02562  0.98294  1.0000
  H   H24       1.0  0.85993  0.03108  0.97910  1.0000
  H   H25       1.0  0.85176  0.12028  0.99805  1.0000
  C   C45       1.0  0.85758  0.09705  0.98903  1.0000
  N   N13       1.0  0.89313  0.10423  0.98537  1.0000
  N   N14       1.0  0.92005  0.14309  0.99359  1.0000
  H   H26       1.0  0.96145  0.12437  0.00159  1.0000
  C   C46       1.0  0.95568  0.14860  0.00270  1.0000
  C   C47       1.0  0.98889  0.18679  0.01472  1.0000
  C   C48       1.0  0.98346  0.21952  0.01264  1.0000
  H   H27       1.0  0.95395  0.21583  0.00464  1.0000
  C   C49       1.0  0.98300  0.45105  0.99505  1.0000
  H   H28       1.0  0.95286  0.44591  0.98975  1.0000
  N   N15       1.0  0.99879  0.51294  0.99896  1.0000
  C   C50       1.0  0.00158  0.67969  0.98173  1.0000
  C   C51       1.0  0.99511  0.70774  0.97365  1.0000
  C   C52       1.0  0.98879  0.74040  0.96966  1.0000
  H   H29       1.0  0.92569  0.70751  0.95006  1.0000
  C   C53       1.0  0.95052  0.73601  0.95919  1.0000
  C   C54       1.0  0.94430  0.76758  0.96194  1.0000
  C   C55       1.0  0.97675  0.80427  0.97374  1.0000
  H   H30       1.0  0.97168  0.82816  0.97989  1.0000
  H   H31       1.0  0.88026  0.73274  0.94377  1.0000
  C   C56       1.0  0.90456  0.76096  0.96051  1.0000
  N   N16       1.0  0.89786  0.78709  0.98314  1.0000
  N   N17       1.0  0.85789  0.77403  0.98315  1.0000
  H   H32       1.0  0.87583  0.82799  0.02604  1.0000
  C   C57       1.0  0.85139  0.79996  0.00831  1.0000
  C   C58       1.0  0.81190  0.79327  0.01224  1.0000
  C   C59       1.0  0.77913  0.75576  0.00970  1.0000
  H   H33       1.0  0.78344  0.73119  0.00564  1.0000
  C   C60       1.0  0.54479  0.53178  0.98722  1.0000
  H   H34       1.0  0.55032  0.50811  0.98015  1.0000
  N   N18       1.0  0.48309  0.48386  0.99876  1.0000
  C   C61       1.0  0.32135  0.31801  0.01915  1.0000
  C   C62       1.0  0.29469  0.28567  0.00572  1.0000
  C   C63       1.0  0.26295  0.24821  0.99461  1.0000
  H   H35       1.0  0.29898  0.22068  0.99990  1.0000
  C   C64       1.0  0.26924  0.21589  0.99608  1.0000
  C   C65       1.0  0.23759  0.17822  0.99149  1.0000
  C   C66       1.0  0.19935  0.17274  0.98566  1.0000
  H   H36       1.0  0.17515  0.14315  0.98362  1.0000
  H   H37       1.0  0.72482  0.85166  0.50445  1.0000
  C   C67       1.0  0.75478  0.85717  0.50387  1.0000
  N   N19       1.0  0.78385  0.89326  0.49704  1.0000
  N   N20       1.0  0.77153  0.92120  0.49230  1.0000
  H   H38       1.0  0.83065  0.96234  0.48658  1.0000
  C   C68       1.0  0.80076  0.95702  0.48742  1.0000
  C   C69       1.0  0.79489  0.99093  0.48436  1.0000
  C   C70       1.0  0.75722  0.98555  0.48837  1.0000
  H   H39       1.0  0.73234  0.95586  0.49184  1.0000
  C   C71       1.0  0.52612  0.98107  0.49053  1.0000
  H   H40       1.0  0.50238  0.95316  0.46922  1.0000
  N   N21       1.0  0.47803  0.99339  0.50227  1.0000
  C   C72       1.0  0.31449  0.99476  0.49371  1.0000
  C   C73       1.0  0.28149  0.98883  0.50043  1.0000
  C   C74       1.0  0.24354  0.98292  0.50623  1.0000
  H   H41       1.0  0.21467  0.92045  0.50090  1.0000
  C   C75       1.0  0.21061  0.94508  0.50606  1.0000
  C   C76       1.0  0.17291  0.93980  0.50601  1.0000
  C   C77       1.0  0.16795  0.97249  0.50684  1.0000
  H   H42       1.0  0.13848  0.96796  0.50680  1.0000
  H   H43       1.0  0.14474  0.87746  0.49069  1.0000
  C   C78       1.0  0.13953  0.90121  0.49878  1.0000
  N   N22       1.0  0.10421  0.89521  0.49937  1.0000
  N   N23       1.0  0.07667  0.85674  0.48949  1.0000
  H   H44       1.0  0.03618  0.87473  0.49670  1.0000
  C   C79       1.0  0.04134  0.85094  0.48872  1.0000
  C   C80       1.0  0.00783  0.81282  0.47762  1.0000
  C   C81       1.0  0.01316  0.78012  0.47890  1.0000
  H   H45       1.0  0.04268  0.78384  0.48681  1.0000
  C   C82       1.0  0.02174  0.55256  0.50395  1.0000
  H   H46       1.0  0.05229  0.55841  0.51380  1.0000
  N   N24       1.0  0.00806  0.49181  0.49418  1.0000
  C   C83       1.0  0.00563  0.32451  0.51204  1.0000
  C   C84       1.0  0.01008  0.29536  0.51851  1.0000
  C   C85       1.0  0.01480  0.26178  0.52196  1.0000
  H   H47       1.0  0.07799  0.29291  0.54300  1.0000
  C   C86       1.0  0.05257  0.26478  0.53368  1.0000
  C   C87       1.0  0.05760  0.23226  0.53281  1.0000
  C   C88       1.0  0.02444  0.19589  0.52262  1.0000
  H   H48       1.0  0.02857  0.17104  0.51954  1.0000
  H   H49       1.0  0.12170  0.26557  0.55293  1.0000
  C   C89       1.0  0.09694  0.23776  0.53492  1.0000
  N   N25       1.0  0.10300  0.21124  0.51199  1.0000
  N   N26       1.0  0.14287  0.22382  0.51248  1.0000
  H   H50       1.0  0.12479  0.16830  0.48096  1.0000
  C   C90       1.0  0.14923  0.19696  0.49359  1.0000
  C   C91       1.0  0.18871  0.20364  0.48978  1.0000
  C   C92       1.0  0.22143  0.24130  0.49101  1.0000
  H   H51       1.0  0.21703  0.26580  0.49522  1.0000
  C   C93       1.0  0.45226  0.46668  0.52543  1.0000
  H   H52       1.0  0.44629  0.48872  0.54305  1.0000
  N   N27       1.0  0.51348  0.51629  0.50770  1.0000
  C   C94       1.0  0.67545  0.68265  0.48953  1.0000
  C   C95       1.0  0.70231  0.71540  0.49869  1.0000
  C   C96       1.0  0.73450  0.75295  0.50717  1.0000
  H   H53       1.0  0.69953  0.78144  0.50361  1.0000
  C   C97       1.0  0.72902  0.78570  0.50635  1.0000
  C   C98       1.0  0.76111  0.82327  0.50975  1.0000
  C   C99       1.0  0.79909  0.82796  0.51597  1.0000
  H   H54       1.0  0.82373  0.85731  0.51816  1.0000
  H   H55       1.0  0.26834  0.14872  0.49012  1.0000
  C   C100      1.0  0.23826  0.14290  0.49061  1.0000
  N   N28       1.0  0.20947  0.10702  0.49399  1.0000
  N   N29       1.0  0.22254  0.07987  0.49686  1.0000
  H   H56       1.0  0.16379  0.03753  0.50695  1.0000
  C   C101      1.0  0.19382  0.04362  0.50399  1.0000
  C   C102      1.0  0.20027  0.01009  0.50735  1.0000
  C   C103      1.0  0.23807  0.01517  0.50752  1.0000
  H   H57       1.0  0.26297  0.04455  0.50728  1.0000
  C   C104      1.0  0.47004  0.01888  0.52367  1.0000
  H   H58       1.0  0.49378  0.04655  0.54685  1.0000
  N   N30       1.0  0.51813  0.00661  0.51164  1.0000
  C   C105      1.0  0.68134  0.00588  0.50950  1.0000
  C   C106      1.0  0.71412  0.01178  0.49945  1.0000
  C   C107      1.0  0.75189  0.01789  0.48964  1.0000
  H   H59       1.0  0.78081  0.08090  0.48928  1.0000
  C   C108      1.0  0.78483  0.05613  0.48513  1.0000
  C   C109      1.0  0.82249  0.06175  0.48167  1.0000
  C   C110      1.0  0.82732  0.02886  0.48160  1.0000
  H   H60       1.0  0.85665  0.03344  0.47896  1.0000
  H   H61       1.0  0.84947  0.12435  0.49210  1.0000
  C   C111      1.0  0.85551  0.10110  0.48442  1.0000
  N   N31       1.0  0.89123  0.10866  0.48130  1.0000
  N   N32       1.0  0.91769  0.14785  0.48907  1.0000
  H   H62       1.0  0.95975  0.13007  0.49722  1.0000
  C   C112      1.0  0.95354  0.15401  0.49836  1.0000
  C   C113      1.0  0.98676  0.19221  0.51143  1.0000
  C   C114      1.0  0.98202  0.22527  0.51057  1.0000
  H   H63       1.0  0.95271  0.22220  0.50185  1.0000
  C   C115      1.0  0.97994  0.45573  0.49397  1.0000
  H   H64       1.0  0.94957  0.44914  0.49395  1.0000
  N   N33       1.0  0.99374  0.51762  0.49293  1.0000
  C   C116      1.0  0.99233  0.68185  0.48080  1.0000
  C   C117      1.0  0.98653  0.71018  0.47391  1.0000
  C   C118      1.0  0.98087  0.74322  0.46947  1.0000
  H   H65       1.0  0.91776  0.71101  0.45097  1.0000
  C   C119      1.0  0.94290  0.73941  0.45929  1.0000
  C   C120      1.0  0.93734  0.77150  0.46089  1.0000
  C   C121      1.0  0.97002  0.80846  0.46884  1.0000
  H   H66       1.0  0.96541  0.83299  0.47193  1.0000
  H   H67       1.0  0.87341  0.73684  0.44306  1.0000
  C   C122      1.0  0.89779  0.76471  0.46233  1.0000
  N   N34       1.0  0.89122  0.79029  0.48954  1.0000
  N   N35       1.0  0.85129  0.77707  0.48980  1.0000
  H   H68       1.0  0.86893  0.83092  0.53298  1.0000
  C   C123      1.0  0.84467  0.80284  0.51514  1.0000
  C   C124      1.0  0.80501  0.79593  0.51630  1.0000
  C   C125      1.0  0.77266  0.75842  0.51204  1.0000
  H   H69       1.0  0.77747  0.73398  0.50941  1.0000
  C   C126      1.0  0.54933  0.52631  0.49186  1.0000
  H   H70       1.0  0.55626  0.50428  0.47932  1.0000
  N   N36       1.0  0.48783  0.47657  0.50546  1.0000
  C   C127      1.0  0.32157  0.31451  0.51284  1.0000
  C   C128      1.0  0.29247  0.28347  0.50043  1.0000
  C   C129      1.0  0.25930  0.24658  0.49179  1.0000
  H   H71       1.0  0.29338  0.21804  0.48866  1.0000
  C   C130      1.0  0.26410  0.21378  0.48989  1.0000
  C   C131      1.0  0.23176  0.17624  0.48855  1.0000
  C   C132      1.0  0.19406  0.17137  0.48861  1.0000
  H   H72       1.0  0.16921  0.14192  0.48864  1.0000
  C  Sn1       1.0  0.61946  0.85733  0.93707  1.0000
  C   C133      1.0  0.65497  0.89000  0.95855  1.0000
  C  Sn2       1.0  0.14188  0.02250  0.01930  1.0000
  C  Sn3       1.0  0.10684  0.01717  0.05956  1.0000
  C   C134      1.0  0.56962  0.98450  0.03811  1.0000
  C  Sn4       1.0  0.58442  0.85200  0.97733  1.0000
  O  Te1       1.0  0.61899  0.83025  0.87617  1.0000
  O  Te2       1.0  0.17773  0.05494  0.03965  1.0000
  O  Te3       1.0  0.10734  0.04428  0.12050  1.0000
  O  Te4       1.0  0.54860  0.81956  0.95701  1.0000
  Mg  Mg1       1.0  0.16333  0.08369  0.12672  1.0000
  Mg  Mg2       1.0  0.56297  0.79078  0.87005  1.0000
  C  Sn5       1.0  0.89458  0.97990  0.93496  1.0000
  C   C135      1.0  0.92983  0.01277  0.95699  1.0000
  C  Sn6       1.0  0.91450  0.14490  0.01839  1.0000
  C  Sn7       1.0  0.87920  0.13901  0.05873  1.0000
  C   C136      1.0  0.84398  0.10616  0.03673  1.0000
  C  Sn8       1.0  0.85928  0.97401  0.97530  1.0000
  O  Te5       1.0  0.89461  0.95319  0.87341  1.0000
  O  Te6       1.0  0.95009  0.17754  0.03929  1.0000
  O  Te7       1.0  0.87920  0.16576  0.12031  1.0000
  O  Te8       1.0  0.82372  0.94138  0.95443  1.0000
  Mg  Mg3       1.0  0.93501  0.20564  0.12713  1.0000
  Mg  Mg4       1.0  0.83877  0.91326  0.86670  1.0000
  C  Sn9       1.0  0.06693  0.54643  0.95555  1.0000
  C   C137      1.0  0.03130  0.54769  0.93981  1.0000
  C  Sn10      1.0  0.99678  0.50962  0.97692  1.0000
  C  Sn11      1.0  0.98190  0.57448  0.03102  1.0000
  C   C138      1.0  0.01751  0.57322  0.04677  1.0000
  C  Sn12      1.0  0.05205  0.61128  0.00965  1.0000
  O  Te9       1.0  0.10108  0.58489  0.91778  1.0000
  O  Te10      1.0  0.96151  0.51170  0.96017  1.0000
  O  Te11      1.0  0.94771  0.53600  0.06879  1.0000
  O  Te12      1.0  0.08730  0.60921  0.02641  1.0000
  Mg  Mg5       1.0  0.90685  0.55552  0.02663  1.0000
  Mg  Mg6       1.0  0.14198  0.56537  0.96010  1.0000
  C  Sn13      1.0  0.01974  0.49870  0.05773  1.0000
  C   C139      1.0  0.99142  0.45894  0.06061  1.0000
  C  Sn14      1.0  0.95202  0.45223  0.01274  1.0000
  C  Sn15      1.0  0.95669  0.38092  0.96078  1.0000
  C   C140      1.0  0.98500  0.42065  0.95789  1.0000
  C  Sn16      1.0  0.00842  0.53243  0.00578  1.0000
  O  Te13      1.0  0.05895  0.50469  0.10611  1.0000
  O  Te14      1.0  0.92424  0.41220  0.01672  1.0000
  O  Te15      1.0  0.91744  0.37490  0.91240  1.0000
  O  Te16      1.0  0.03619  0.57243  0.00178  1.0000
  Mg  Mg7       1.0  0.89045  0.31469  0.93903  1.0000
  Mg  Mg8       1.0  0.08598  0.56495  0.07935  1.0000
  C  Sn17      1.0  0.36985  0.41282  0.08352  1.0000
  C   C141      1.0  0.40944  0.42662  0.07208  1.0000
  C  Sn18      1.0  0.42124  0.40637  0.01801  1.0000
  C  Sn19      1.0  0.40887  0.26658  0.97433  1.0000
  C   C142      1.0  0.36930  0.25280  0.98574  1.0000
  C  Sn20      1.0  0.34149  0.37807  0.03984  1.0000
  O  Te17      1.0  0.35872  0.43354  0.13788  1.0000
  O  Te18      1.0  0.46100  0.42073  0.00765  1.0000
  O  Te19      1.0  0.42004  0.24586  0.91994  1.0000
  O  Te20      1.0  0.30176  0.36373  0.05017  1.0000
  Mg  Mg9       1.0  0.47765  0.27713  0.92663  1.0000
  Mg  Mg10      1.0  0.30106  0.40228  0.13108  1.0000
  C  Sn21      1.0  0.64197  0.61063  0.91924  1.0000
  C   C143      1.0  0.64371  0.64554  0.92969  1.0000
  C  Sn22      1.0  0.61191  0.64161  0.98776  1.0000
  C  Sn23      1.0  0.56166  0.70698  0.03654  1.0000
  C   C144      1.0  0.55993  0.67209  0.02612  1.0000
  C  Sn24      1.0  0.60771  0.57096  0.96802  1.0000
  O  Te21      1.0  0.67411  0.61528  0.86083  1.0000
  O  Te22      1.0  0.61433  0.67697  0.99702  1.0000
  O  Te23      1.0  0.52950  0.70235  0.09498  1.0000
  O  Te24      1.0  0.60530  0.53562  0.95878  1.0000
  Mg  Mg11      1.0  0.54689  0.75975  0.08488  1.0000
  Mg  Mg12      1.0  0.65673  0.55784  0.87105  1.0000
  C  Sn25      1.0  0.08206  0.94845  0.55417  1.0000
  C   C145      1.0  0.06998  0.97640  0.55199  1.0000
  C  Sn26      1.0  0.09601  0.01965  0.51211  1.0000
  C  Sn27      1.0  0.13492  0.03532  0.47346  1.0000
  C   C146      1.0  0.14697  0.00739  0.47561  1.0000
  C  Sn28      1.0  0.12096  0.96412  0.51552  1.0000
  O  Te25      1.0  0.55380  0.90534  0.59439  1.0000
  O  Te26      1.0  0.08327  0.04697  0.51081  1.0000
  O  Te27      1.0  0.16144  0.07847  0.43323  1.0000
  O  Te28      1.0  0.63195  0.93682  0.51679  1.0000
  Mg  Mg13      1.0  0.13025  0.10308  0.44814  1.0000
  Mg  Mg14      1.0  0.58498  0.88071  0.57934  1.0000
  C  Sn29      1.0  0.86904  0.96152  0.55024  1.0000
  C   C147      1.0  0.85683  0.98923  0.54913  1.0000
  C  Sn30      1.0  0.88285  0.03233  0.51195  1.0000
  C  Sn31      1.0  0.92190  0.04808  0.47498  1.0000
  C   C148      1.0  0.93409  0.02038  0.47607  1.0000
  C  Sn32      1.0  0.90809  0.97727  0.51328  1.0000
  O  Te29      1.0  0.34079  0.91856  0.58775  1.0000
  O  Te30      1.0  0.86996  0.05941  0.51167  1.0000
  O  Te31      1.0  0.94841  0.09108  0.43746  1.0000
  O  Te32      1.0  0.92095  0.95020  0.51353  1.0000
  Mg  Mg15      1.0  0.91701  0.11539  0.45283  1.0000
  Mg  Mg16      1.0  0.37219  0.89423  0.57225  1.0000
  C  Sn33      1.0  0.97044  0.59074  0.42791  1.0000
  C   C149      1.0  0.00653  0.59017  0.44600  1.0000
  C  Sn34      1.0  0.04064  0.61829  0.50511  1.0000
  C  Sn35      1.0  0.03864  0.64758  0.54714  1.0000
  C   C150      1.0  0.00257  0.64813  0.52908  1.0000
  C  Sn36      1.0  0.96844  0.62002  0.46994  1.0000
  O  Te33      1.0  0.93671  0.56233  0.36860  1.0000
  O  Te34      1.0  0.07638  0.61714  0.52207  1.0000
  O  Te35      1.0  0.07242  0.67599  0.60648  1.0000
  O  Te36      1.0  0.93272  0.62116  0.45301  1.0000
  Mg  Mg17      1.0  0.11419  0.66217  0.60807  1.0000
  Mg  Mg18      1.0  0.89489  0.57613  0.36712  1.0000
  C  Sn37      1.0  0.95514  0.36981  0.56006  1.0000
  C   C151      1.0  0.98289  0.41038  0.55036  1.0000
  C  Sn38      1.0  0.02048  0.42759  0.49804  1.0000
  C  Sn39      1.0  0.03054  0.40376  0.45438  1.0000
  C   C152      1.0  0.00280  0.36321  0.46406  1.0000
  C  Sn40      1.0  0.96520  0.34597  0.51640  1.0000
  O  Te37      1.0  0.91774  0.35324  0.61269  1.0000
  O  Te38      1.0  0.04772  0.46821  0.48941  1.0000
  O  Te39      1.0  0.06798  0.42036  0.40173  1.0000
  O  Te40      1.0  0.93797  0.30538  0.52501  1.0000
  Mg  Mg19      1.0  0.09488  0.47705  0.41038  1.0000
  Mg  Mg20      1.0  0.89080  0.29652  0.60392  1.0000
  C  Sn41      1.0  0.35327  0.39797  0.48103  1.0000
  C   C153      1.0  0.35289  0.36379  0.46987  1.0000
  C  Sn42      1.0  0.38751  0.35873  0.50508  1.0000
  C  Sn43      1.0  0.42327  0.38843  0.55255  1.0000
  C   C154      1.0  0.42364  0.42258  0.56372  1.0000
  C  Sn44      1.0  0.38903  0.42767  0.52850  1.0000
  O  Te41      1.0  0.31831  0.40240  0.44527  1.0000
  O  Te42      1.0  0.38639  0.32431  0.49301  1.0000
  O  Te43      1.0  0.45824  0.38396  0.58831  1.0000
  O  Te44      1.0  0.39014  0.46205  0.54059  1.0000
  Mg  Mg21      1.0  0.44171  0.33188  0.55433  1.0000
  Mg  Mg22      1.0  0.33483  0.45450  0.47940  1.0000
  C  Sn45      1.0  0.57778  0.61349  0.43249  1.0000
  C   C155      1.0  0.57918  0.57880  0.43352  1.0000
  C  Sn46      1.0  0.61458  0.57456  0.47862  1.0000
  C  Sn47      1.0  0.64929  0.60562  0.52375  1.0000
  C   C156      1.0  0.64788  0.64028  0.52274  1.0000
  C  Sn48      1.0  0.61249  0.64456  0.47763  1.0000
  O  Te45      1.0  0.54207  0.61709  0.38699  1.0000
  O  Te46      1.0  0.61525  0.53960  0.47864  1.0000
  O  Te47      1.0  0.68501  0.60199  0.56926  1.0000
  O  Te48      1.0  0.61181  0.67948  0.47762  1.0000
  Mg  Mg23      1.0  0.67098  0.54871  0.55013  1.0000
  Mg  Mg24      1.0  0.55609  0.67039  0.40626  1.0000
