data_image0
_chemical_formula_structural       HCN2HC3HCHC2HC2HNHC2HCHC3H2CN2HC3HCHNCHC3H2CN2HC3HCHNCHC3H2CN2HC3HCHC2HC2HNHC2HCHC3H2CN2HC3HCHNCHC3H2CN2HC3HCHNCHC3H2CN2HC3HCHC2HC2HNHC2HCHC3H2CN2HC3HCHC2HC2HNCHC3H2CN2HC3HCHC2HC2HNCHC3H2CN2HC3HCHC2HC2HNHC2HCHC3H2CN2HC3HCHNHC2HCHC3H2CN2HC3HCHNHC2HCHC3HC2Sn2C2HTe2HMgC2Sn2C2HTe2HMgC2Sn2C2HTe2HMgC2Sn2C2HTe2HMgC2Sn2C2HTe2HMgC2Sn2C2HTe2HMg
_chemical_formula_sum              "H108 C168 N36 Sn12 Te12 Mg6"
_cell_length_a       34.5772
_cell_length_b       34.5951
_cell_length_c       8.14898
_cell_angle_alpha    124.674
_cell_angle_beta     70.0208
_cell_angle_gamma    119.909

_symmetry_space_group_name_H-M    'P1'
_space_group_IT_number       1

loop_
  _space_group_symop_operation_xyz
  'x, y, z'

loop_
  _atom_site_type_symbol
  _atom_site_label
  _atom_site_symmetry_multiplicity
  _atom_site_fract_x
  _atom_site_fract_y
  _atom_site_fract_z
  _atom_site_occupancy
  H   H1        1.0  0.69053  0.82021  0.01357  1.0000
  C   C1        1.0  0.72558  0.82694  0.00352  1.0000
  N   N1        1.0  0.75749  0.86791  0.00186  1.0000
  N   N2        1.0  0.74087  0.89845  0.01077  1.0000
  H   H2        1.0  0.80789  0.94752  0.01258  1.0000
  C   C2        1.0  0.77304  0.94019  0.01550  1.0000
  C   C3        1.0  0.76443  0.97797  0.02034  1.0000
  C   C4        1.0  0.72061  0.97185  0.02667  1.0000
  H   H3        1.0  0.69334  0.93923  0.03925  1.0000
  C   C5        1.0  0.66678  0.99862  0.01140  1.0000
  H   H4        1.0  0.63600  0.91970  0.94363  1.0000
  C   C6        1.0  0.63049  0.95134  0.97188  1.0000
  C   C7        1.0  0.58757  0.94418  0.96618  1.0000
  H   H5        1.0  0.55996  0.90746  0.93753  1.0000
  C   C8        1.0  0.57913  0.98356  0.99550  1.0000
  C   C9        1.0  0.53389  0.97453  0.98843  1.0000
  H   H6        1.0  0.50706  0.93777  0.97010  1.0000
  N   N3        1.0  0.47879  0.99124  0.99572  1.0000
  H   H7        1.0  0.39350  0.94093  0.98710  1.0000
  C   C10       1.0  0.38683  0.96867  0.98812  1.0000
  C   C11       1.0  0.34334  0.96127  0.99059  1.0000
  H   H8        1.0  0.31618  0.92684  0.99021  1.0000
  C   C12       1.0  0.28759  0.98870  0.99294  1.0000
  H   H9        1.0  0.25552  0.91539  0.98554  1.0000
  C   C13       1.0  0.25059  0.94438  0.98756  1.0000
  C   C14       1.0  0.20654  0.93675  0.99056  1.0000
  C   C15       1.0  0.19874  0.97390  0.99776  1.0000
  H   H10       1.0  0.16448  0.96770  0.99988  1.0000
  H   H11       1.0  0.17815  0.86428  0.99288  1.0000
  C   C16       1.0  0.16996  0.89090  0.99138  1.0000
  N   N4        1.0  0.12853  0.88149  0.99270  1.0000
  N   N5        1.0  0.09927  0.83607  0.99701  1.0000
  H   H12       1.0  0.04989  0.85477  0.00520  1.0000
  C   C17       1.0  0.05785  0.82778  0.00532  1.0000
  C   C18       1.0  0.02083  0.78317  0.01436  1.0000
  C   C19       1.0  0.02805  0.74624  0.01210  1.0000
  H   H13       1.0  0.06250  0.75333  0.00957  1.0000
  C   C20       1.0  0.02382  0.54747  0.96963  1.0000
  H   H14       1.0  0.05859  0.55200  0.94783  1.0000
  N   N6        1.0  0.00715  0.47898  0.98841  1.0000
  C   C21       1.0  0.00746  0.28778  0.97398  1.0000
  H   H15       1.0  0.07986  0.32578  0.95647  1.0000
  C   C22       1.0  0.05123  0.29323  0.96462  1.0000
  C   C23       1.0  0.05960  0.25766  0.96557  1.0000
  C   C24       1.0  0.02349  0.21446  0.97140  1.0000
  H   H16       1.0  0.03016  0.18732  0.97478  1.0000
  H   H17       1.0  0.13244  0.30053  0.95301  1.0000
  C   C25       1.0  0.10557  0.26766  0.96836  1.0000
  N   N7        1.0  0.11491  0.23939  0.99305  1.0000
  N   N8        1.0  0.16090  0.25624  0.99576  1.0000
  H   H18       1.0  0.14203  0.19486  0.03667  1.0000
  C   C26       1.0  0.16940  0.22731  0.02044  1.0000
  C   C27       1.0  0.21498  0.23599  0.02275  1.0000
  C   C28       1.0  0.25159  0.27931  0.01962  1.0000
  H   H19       1.0  0.24403  0.30654  0.02197  1.0000
  C   C29       1.0  0.44453  0.46426  0.98618  1.0000
  H   H20       1.0  0.43746  0.48940  0.96963  1.0000
  N   N9        1.0  0.51537  0.52005  0.99726  1.0000
  C   C30       1.0  0.70566  0.70780  0.99108  1.0000
  H   H21       1.0  0.66530  0.74237  0.00979  1.0000
  C   C31       1.0  0.69899  0.74586  0.99910  1.0000
  C   C32       1.0  0.73491  0.78910  0.99418  1.0000
  C   C33       1.0  0.77885  0.79541  0.98460  1.0000
  H   H22       1.0  0.80654  0.82929  0.98258  1.0000
  H   H23       1.0  0.31018  0.17394  0.99235  1.0000
  C   C34       1.0  0.27521  0.16786  0.00500  1.0000
  N   N10       1.0  0.24294  0.12784  0.01379  1.0000
  N   N11       1.0  0.25895  0.09696  0.00619  1.0000
  H   H24       1.0  0.19166  0.04957  0.01484  1.0000
  C   C35       1.0  0.22646  0.05617  0.00821  1.0000
  C   C36       1.0  0.23490  0.01791  0.00092  1.0000
  C   C37       1.0  0.27875  0.02489  0.99914  1.0000
  H   H25       1.0  0.30545  0.05997  0.00374  1.0000
  C   C38       1.0  0.33395  0.99711  0.99447  1.0000
  H   H26       1.0  0.36539  0.06979  0.99832  1.0000
  C   C39       1.0  0.37067  0.04122  0.99734  1.0000
  C   C40       1.0  0.41432  0.04880  0.99420  1.0000
  H   H27       1.0  0.44200  0.08298  0.99393  1.0000
  C   C41       1.0  0.42333  0.01267  0.98889  1.0000
  C   C42       1.0  0.46922  0.02226  0.98921  1.0000
  H   H28       1.0  0.49604  0.05678  0.98560  1.0000
  N   N12       1.0  0.52448  0.00847  0.00274  1.0000
  H   H29       1.0  0.60911  0.06128  0.05435  1.0000
  C   C43       1.0  0.61539  0.03072  0.03202  1.0000
  C   C44       1.0  0.65796  0.03798  0.04142  1.0000
  H   H30       1.0  0.68491  0.07525  0.07459  1.0000
  C   C45       1.0  0.71251  0.00640  0.01745  1.0000
  H   H31       1.0  0.74539  0.07494  0.99071  1.0000
  C   C46       1.0  0.74994  0.04837  0.00674  1.0000
  C   C47       1.0  0.79376  0.05614  0.00669  1.0000
  C   C48       1.0  0.80094  0.02042  0.01233  1.0000
  H   H32       1.0  0.83503  0.02625  0.00982  1.0000
  H   H33       1.0  0.82263  0.12539  0.98045  1.0000
  C   C49       1.0  0.83052  0.10042  0.99437  1.0000
  N   N13       1.0  0.87175  0.11062  0.00051  1.0000
  N   N14       1.0  0.90137  0.15496  0.98932  1.0000
  H   H34       1.0  0.95002  0.13745  0.99627  1.0000
  C   C50       1.0  0.94252  0.16355  0.98826  1.0000
  C   C51       1.0  0.97974  0.20784  0.97811  1.0000
  C   C52       1.0  0.97212  0.24448  0.98033  1.0000
  H   H35       1.0  0.93754  0.23802  0.98902  1.0000
  C   C53       1.0  0.97465  0.43893  0.99698  1.0000
  H   H36       1.0  0.93988  0.43257  0.00437  1.0000
  N   N15       1.0  0.99130  0.50923  0.99173  1.0000
  C   C54       1.0  0.99245  0.70249  0.01447  1.0000
  H   H37       1.0  0.92005  0.66423  0.02513  1.0000
  C   C55       1.0  0.94882  0.69749  0.02389  1.0000
  C   C56       1.0  0.94079  0.73386  0.02748  1.0000
  C   C57       1.0  0.97716  0.77689  0.02212  1.0000
  H   H38       1.0  0.97070  0.80437  0.02030  1.0000
  H   H39       1.0  0.86761  0.69262  0.04308  1.0000
  C   C58       1.0  0.89503  0.72503  0.02680  1.0000
  N   N16       1.0  0.88648  0.75410  0.00333  1.0000
  N   N17       1.0  0.84057  0.73800  0.00249  1.0000
  H   H40       1.0  0.85929  0.80027  0.96692  1.0000
  C   C59       1.0  0.83207  0.76741  0.98096  1.0000
  C   C60       1.0  0.78638  0.75866  0.97958  1.0000
  C   C61       1.0  0.74986  0.71486  0.97970  1.0000
  H   H41       1.0  0.75761  0.68734  0.97399  1.0000
  C   C62       1.0  0.55621  0.53032  0.01045  1.0000
  H   H42       1.0  0.56329  0.50473  0.02410  1.0000
  N   N18       1.0  0.48539  0.47512  0.00239  1.0000
  C   C63       1.0  0.29580  0.28644  0.00935  1.0000
  H   H43       1.0  0.33591  0.25222  0.99526  1.0000
  C   C64       1.0  0.30227  0.24860  0.00436  1.0000
  C   C65       1.0  0.26628  0.20565  0.01146  1.0000
  C   C66       1.0  0.22245  0.19961  0.02104  1.0000
  H   H44       1.0  0.19468  0.16602  0.02476  1.0000
  H   H45       1.0  0.68962  0.82819  0.50161  1.0000
  C   C67       1.0  0.72425  0.83483  0.49944  1.0000
  N   N19       1.0  0.75694  0.87640  0.50572  1.0000
  N   N20       1.0  0.74166  0.90774  0.51265  1.0000
  H   H46       1.0  0.80915  0.95539  0.50888  1.0000
  C   C68       1.0  0.77440  0.94876  0.51381  1.0000
  C   C69       1.0  0.76607  0.98678  0.51883  1.0000
  C   C70       1.0  0.72210  0.98071  0.52871  1.0000
  H   H47       1.0  0.69517  0.94782  0.54059  1.0000
  C   C71       1.0  0.66715  0.00638  0.51879  1.0000
  H   H48       1.0  0.63859  0.92700  0.44327  1.0000
  C   C72       1.0  0.63191  0.95824  0.47508  1.0000
  C   C73       1.0  0.58843  0.94952  0.46946  1.0000
  H   H49       1.0  0.56175  0.91205  0.43656  1.0000
  C   C74       1.0  0.57829  0.98824  0.50341  1.0000
  C   C75       1.0  0.53263  0.97746  0.49328  1.0000
  H   H50       1.0  0.50652  0.94031  0.47394  1.0000
  N   N21       1.0  0.47661  0.99255  0.49632  1.0000
  H   H51       1.0  0.39047  0.94329  0.49162  1.0000
  C   C76       1.0  0.38446  0.97129  0.49113  1.0000
  C   C77       1.0  0.34127  0.96482  0.49442  1.0000
  H   H52       1.0  0.31374  0.93088  0.49651  1.0000
  C   C78       1.0  0.28642  0.99313  0.49556  1.0000
  H   H53       1.0  0.25371  0.92122  0.50102  1.0000
  C   C79       1.0  0.24919  0.94964  0.49658  1.0000
  C   C80       1.0  0.20532  0.94219  0.49727  1.0000
  C   C81       1.0  0.19798  0.97911  0.50064  1.0000
  H   H54       1.0  0.16372  0.97298  0.50287  1.0000
  H   H55       1.0  0.17603  0.86914  0.49669  1.0000
  C   C82       1.0  0.16842  0.89646  0.49746  1.0000
  N   N22       1.0  0.12724  0.88812  0.49950  1.0000
  N   N23       1.0  0.09704  0.84233  0.49804  1.0000
  H   H56       1.0  0.04898  0.86512  0.52351  1.0000
  C   C83       1.0  0.05599  0.83614  0.51298  1.0000
  C   C84       1.0  0.01832  0.79139  0.51722  1.0000
  C   C85       1.0  0.02566  0.75390  0.50974  1.0000
  H   H57       1.0  0.06021  0.76062  0.50394  1.0000
  C   C86       1.0  0.99866  0.67096  0.50216  1.0000
  H   H58       1.0  0.06993  0.70032  0.42206  1.0000
  C   C87       1.0  0.04187  0.67116  0.45421  1.0000
  C   C88       1.0  0.04951  0.63344  0.43998  1.0000
  H   H59       1.0  0.08319  0.63405  0.39948  1.0000
  C   C89       1.0  0.01425  0.59396  0.47478  1.0000
  C   C90       1.0  0.02364  0.55614  0.46420  1.0000
  H   H60       1.0  0.05826  0.55924  0.42737  1.0000
  N   N24       1.0  0.00964  0.48941  0.48922  1.0000
  C   C91       1.0  0.00984  0.29723  0.47757  1.0000
  H   H61       1.0  0.08227  0.33400  0.45924  1.0000
  C   C92       1.0  0.05330  0.30177  0.46762  1.0000
  C   C93       1.0  0.06092  0.26577  0.46871  1.0000
  C   C94       1.0  0.02431  0.22308  0.47531  1.0000
  H   H62       1.0  0.03040  0.19558  0.47836  1.0000
  H   H63       1.0  0.13394  0.30695  0.45622  1.0000
  C   C95       1.0  0.10638  0.27451  0.47199  1.0000
  N   N25       1.0  0.11452  0.24551  0.49763  1.0000
  N   N26       1.0  0.16027  0.26139  0.50007  1.0000
  H   H64       1.0  0.14110  0.19745  0.52511  1.0000
  C   C96       1.0  0.16845  0.23093  0.51617  1.0000
  C   C97       1.0  0.21407  0.23944  0.51763  1.0000
  C   C98       1.0  0.25052  0.28291  0.51475  1.0000
  H   H65       1.0  0.24251  0.30947  0.51473  1.0000
  C   C99       1.0  0.33284  0.33582  0.49712  1.0000
  H   H66       1.0  0.29215  0.36908  0.50888  1.0000
  C   C100      1.0  0.32584  0.37367  0.50502  1.0000
  C   C101      1.0  0.36140  0.41746  0.50719  1.0000
  H   H67       1.0  0.35494  0.44599  0.51255  1.0000
  C   C102      1.0  0.40583  0.42547  0.50119  1.0000
  C   C103      1.0  0.44233  0.47171  0.50556  1.0000
  H   H68       1.0  0.43440  0.49894  0.50744  1.0000
  N   N27       1.0  0.51306  0.52755  0.51228  1.0000
  C   C104      1.0  0.70250  0.71652  0.50151  1.0000
  H   H69       1.0  0.66274  0.74919  0.50193  1.0000
  C   C105      1.0  0.69625  0.75347  0.49900  1.0000
  C   C106      1.0  0.73247  0.79654  0.49286  1.0000
  C   C107      1.0  0.77630  0.80277  0.48505  1.0000
  H   H70       1.0  0.80407  0.83608  0.47911  1.0000
  H   H71       1.0  0.30994  0.17860  0.49012  1.0000
  C   C108      1.0  0.27490  0.17264  0.50456  1.0000
  N   N28       1.0  0.24268  0.13287  0.51491  1.0000
  N   N29       1.0  0.25863  0.10209  0.50811  1.0000
  H   H72       1.0  0.19138  0.05427  0.51238  1.0000
  C   C109      1.0  0.22612  0.06083  0.50648  1.0000
  C   C110      1.0  0.23439  0.02249  0.49934  1.0000
  C   C111      1.0  0.27818  0.02886  0.49493  1.0000
  H   H73       1.0  0.30512  0.06300  0.49185  1.0000
  C   C112      1.0  0.33260  0.00090  0.49646  1.0000
  H   H74       1.0  0.36519  0.07349  0.49852  1.0000
  C   C113      1.0  0.36982  0.04447  0.49712  1.0000
  C   C114      1.0  0.41325  0.05109  0.49245  1.0000
  H   H75       1.0  0.44144  0.08484  0.49043  1.0000
  C   C115      1.0  0.42146  0.01463  0.48891  1.0000
  C   C116      1.0  0.46711  0.02362  0.48965  1.0000
  H   H76       1.0  0.49409  0.05815  0.48692  1.0000
  N   N30       1.0  0.52232  0.01055  0.50593  1.0000
  H   H77       1.0  0.60570  0.06669  0.57424  1.0000
  C   C117      1.0  0.61337  0.03650  0.54671  1.0000
  C   C118      1.0  0.65654  0.04523  0.55559  1.0000
  H   H78       1.0  0.68255  0.08322  0.59375  1.0000
  C   C119      1.0  0.71342  0.01536  0.52314  1.0000
  H   H79       1.0  0.74540  0.08500  0.50347  1.0000
  C   C120      1.0  0.75045  0.05800  0.51472  1.0000
  C   C121      1.0  0.79449  0.06549  0.51028  1.0000
  C   C122      1.0  0.80221  0.02924  0.51000  1.0000
  H   H80       1.0  0.83648  0.03481  0.50276  1.0000
  H   H81       1.0  0.82381  0.13516  0.48587  1.0000
  C   C123      1.0  0.83140  0.11005  0.50013  1.0000
  N   N31       1.0  0.87249  0.12016  0.50803  1.0000
  N   N32       1.0  0.90230  0.16464  0.49769  1.0000
  H   H82       1.0  0.95099  0.14696  0.50352  1.0000
  C   C124      1.0  0.94349  0.17312  0.49559  1.0000
  C   C125      1.0  0.98080  0.21717  0.48343  1.0000
  C   C126      1.0  0.97400  0.25434  0.48571  1.0000
  H   H83       1.0  0.93955  0.24836  0.49579  1.0000
  C   C127      1.0  0.97803  0.44940  0.50093  1.0000
  H   H84       1.0  0.94289  0.44277  0.51451  1.0000
  N   N33       1.0  0.99234  0.51942  0.49909  1.0000
  H   H85       1.0  0.94364  0.56315  0.55200  1.0000
  C   C128      1.0  0.97090  0.59334  0.52263  1.0000
  C   C129      1.0  0.96355  0.63097  0.53589  1.0000
  H   H86       1.0  0.92976  0.62964  0.57667  1.0000
  C   C130      1.0  0.99021  0.71031  0.51288  1.0000
  H   H87       1.0  0.91799  0.67138  0.52342  1.0000
  C   C131      1.0  0.94643  0.70498  0.52263  1.0000
  C   C132      1.0  0.93836  0.74154  0.52738  1.0000
  C   C133      1.0  0.97463  0.78535  0.52654  1.0000
  H   H88       1.0  0.96808  0.81331  0.52864  1.0000
  H   H89       1.0  0.86554  0.69967  0.54378  1.0000
  C   C134      1.0  0.89251  0.73209  0.52569  1.0000
  N   N34       1.0  0.88369  0.76085  0.50144  1.0000
  N   N35       1.0  0.83773  0.74490  0.50295  1.0000
  H   H90       1.0  0.85662  0.80712  0.46846  1.0000
  C   C135      1.0  0.82913  0.77461  0.48378  1.0000
  C   C136      1.0  0.78349  0.76667  0.48623  1.0000
  C   C137      1.0  0.74669  0.72426  0.49523  1.0000
  H   H91       1.0  0.75433  0.69815  0.50039  1.0000
  C   C138      1.0  0.55455  0.53599  0.50603  1.0000
  H   H92       1.0  0.56243  0.50796  0.49844  1.0000
  N   N36       1.0  0.48372  0.48123  0.50739  1.0000
  H   H93       1.0  0.44756  0.39307  0.48296  1.0000
  C   C139      1.0  0.41331  0.38733  0.48861  1.0000
  C   C140      1.0  0.37766  0.34375  0.48659  1.0000
  H   H94       1.0  0.38494  0.31570  0.47984  1.0000
  C   C141      1.0  0.29481  0.29040  0.50483  1.0000
  H   H95       1.0  0.33536  0.25731  0.49588  1.0000
  C   C142      1.0  0.30161  0.25309  0.50219  1.0000
  C   C143      1.0  0.26577  0.20999  0.50881  1.0000
  C   C144      1.0  0.22175  0.20313  0.51515  1.0000
  H   H96       1.0  0.19416  0.16927  0.51749  1.0000
  C   C145      1.0  0.64954  0.59211  0.01592  1.0000
  C   C146      1.0  0.60382  0.57728  0.01599  1.0000
  C  Sn1       1.0  0.57081  0.73032  0.99712  1.0000
  C  Sn2       1.0  0.60243  0.77405  0.97778  1.0000
  C   C147      1.0  0.64809  0.78855  0.97773  1.0000
  C   C148      1.0  0.66255  0.76017  0.99677  1.0000
  H   H97       1.0  0.66073  0.57013  0.03054  1.0000
  O  Te1       1.0  0.52501  0.71498  0.99755  1.0000
  O  Te2       1.0  0.58854  0.80282  0.95861  1.0000
  H   H98       1.0  0.69795  0.77164  0.99658  1.0000
  Mg  Mg1       1.0  0.52255  0.76661  0.96739  1.0000
  C   C149      1.0  0.66705  0.62214  0.51024  1.0000
  C   C150      1.0  0.66703  0.66114  0.50020  1.0000
  C  Sn3       1.0  0.62665  0.66180  0.50413  1.0000
  C  Sn4       1.0  0.58557  0.62266  0.51844  1.0000
  C   C151      1.0  0.58594  0.58384  0.52855  1.0000
  C   C152      1.0  0.62655  0.58353  0.52444  1.0000
  H   H99       1.0  0.69846  0.62192  0.50717  1.0000
  O  Te3       1.0  0.62723  0.70103  0.49388  1.0000
  O  Te4       1.0  0.54472  0.62241  0.52273  1.0000
  H   H100      1.0  0.62655  0.55335  0.53235  1.0000
  Mg  Mg2       1.0  0.56289  0.68406  0.50484  1.0000
  C   C153      1.0  0.33181  0.37902  0.98714  1.0000
  C   C154      1.0  0.33188  0.33879  0.98806  1.0000
  C  Sn5       1.0  0.37190  0.34000  0.99962  1.0000
  C  Sn6       1.0  0.43074  0.25740  0.01048  1.0000
  C   C155      1.0  0.43031  0.29748  0.00960  1.0000
  C   C156      1.0  0.37189  0.42081  0.99793  1.0000
  H   H101      1.0  0.30068  0.37780  0.97822  1.0000
  O  Te5       1.0  0.38956  0.17453  0.00030  1.0000
  O  Te6       1.0  0.47121  0.25960  0.02222  1.0000
  H   H102      1.0  0.37184  0.45198  0.99735  1.0000
  Mg  Mg3       1.0  0.45329  0.19508  0.01834  1.0000
  C   C157      1.0  0.05542  0.63647  0.93732  1.0000
  C   C158      1.0  0.02558  0.59695  0.98068  1.0000
  C  Sn7       1.0  0.99830  0.46301  0.02721  1.0000
  C  Sn8       1.0  0.98250  0.49422  0.03021  1.0000
  C   C159      1.0  0.99443  0.65858  0.98648  1.0000
  C   C160      1.0  0.03987  0.66726  0.94017  1.0000
  H   H103      1.0  0.09058  0.64317  0.90139  1.0000
  O  Te7       1.0  0.96894  0.42337  0.07023  1.0000
  O  Te8       1.0  0.93722  0.48606  0.07616  1.0000
  H   H104      1.0  0.06297  0.69785  0.90648  1.0000
  Mg  Mg4       1.0  0.91028  0.42731  0.12426  1.0000
  C   C161      1.0  0.94735  0.32385  0.97846  1.0000
  C   C162      1.0  0.98803  0.32256  0.96629  1.0000
  C  Sn9       1.0  0.02816  0.36447  0.98087  1.0000
  C  Sn10      1.0  0.04564  0.28350  0.00818  1.0000
  C   C163      1.0  0.00476  0.28443  0.02031  1.0000
  C   C164      1.0  0.96481  0.24228  0.00548  1.0000
  H   H105      1.0  0.91643  0.29125  0.96710  1.0000
  O  Te9       1.0  0.06851  0.36253  0.96832  1.0000
  O  Te10      1.0  0.08525  0.32593  0.02328  1.0000
  H   H106      1.0  0.93331  0.24331  0.01504  1.0000
  Mg  Mg5       1.0  0.11363  0.42991  0.99722  1.0000
  C   C165      1.0  0.94716  0.35355  0.47623  1.0000
  C   C166      1.0  0.97713  0.40245  0.50574  1.0000
  C  Sn11      1.0  0.02263  0.41864  0.51575  1.0000
  C  Sn12      1.0  0.03831  0.38515  0.49574  1.0000
  C   C167      1.0  0.00805  0.33629  0.46611  1.0000
  C   C168      1.0  0.96260  0.32049  0.45639  1.0000
  H   H107      1.0  0.91199  0.34131  0.46860  1.0000
  O  Te11      1.0  0.05211  0.46763  0.54539  1.0000
  O  Te12      1.0  0.08360  0.40035  0.50508  1.0000
  H   H108      1.0  0.93940  0.28261  0.43341  1.0000
  Mg  Mg6       1.0  0.11074  0.47079  0.54763  1.0000
