data_image0
_chemical_formula_structural       HCN2HC3HCHNCHC3H2CN2HC3HCHNCHC3H2CN2HC3HCHNCHC3H2CN2HC3HCHNCHC3H2CN2HC3HCHNCHC3H2CN2HC3HCHNCHC3H2CN2HC3HCHNCHC3H2CN2HC3HCHNCHC3H2CN2HC3HCHNCHC3H2CN2HC3HCHNCHC3H2CN2HC3HCHNCHC3H2CN2HC3HCHNCHC3HC2Sn2C2HTe2HMgC2Sn2C2HTe2HMgC2Sn2C2HTe2HMgC2Sn2C2HTe2HMgC2Sn2C2HTe2HMgC2Sn2C2HTe2HMgC2Sn2C2HTe2HMgC2Sn2C2HTe2HMgC2Sn2C2HTe2HMgC2Sn2C2HTe2HMgC2Sn2C2HTe2HMgC2Sn2C2HTe2HMg
_chemical_formula_sum              "H96 C156 N36 Sn24 Te24 Mg12"
_cell_length_a       34.5772
_cell_length_b       34.5951
_cell_length_c       8.14898
_cell_angle_alpha    124.674
_cell_angle_beta     70.0208
_cell_angle_gamma    119.909

_symmetry_space_group_name_H-M    'P1'
_space_group_IT_number       1

loop_
  _space_group_symop_operation_xyz
  'x, y, z'

loop_
  _atom_site_type_symbol
  _atom_site_label
  _atom_site_symmetry_multiplicity
  _atom_site_fract_x
  _atom_site_fract_y
  _atom_site_fract_z
  _atom_site_occupancy
  H   H1        1.0  0.69053  0.82021  0.01357  1.0000
  C   C1        1.0  0.72558  0.82694  0.00352  1.0000
  N   N1        1.0  0.75749  0.86791  0.00186  1.0000
  N   N2        1.0  0.74087  0.89845  0.01077  1.0000
  H   H2        1.0  0.80789  0.94752  0.01258  1.0000
  C   C2        1.0  0.77304  0.94019  0.01550  1.0000
  C   C3        1.0  0.76443  0.97797  0.02034  1.0000
  C   C4        1.0  0.72061  0.97185  0.02667  1.0000
  H   H3        1.0  0.69334  0.93923  0.03925  1.0000
  C   C5        1.0  0.53389  0.97453  0.98843  1.0000
  H   H4        1.0  0.50706  0.93777  0.97010  1.0000
  N   N3        1.0  0.47879  0.99124  0.99572  1.0000
  C   C6        1.0  0.28759  0.98870  0.99294  1.0000
  H   H5        1.0  0.25552  0.91539  0.98554  1.0000
  C   C7        1.0  0.25059  0.94438  0.98756  1.0000
  C   C8        1.0  0.20654  0.93675  0.99056  1.0000
  C   C9        1.0  0.19874  0.97390  0.99776  1.0000
  H   H6        1.0  0.16448  0.96770  0.99988  1.0000
  H   H7        1.0  0.17815  0.86428  0.99288  1.0000
  C   C10       1.0  0.16996  0.89090  0.99138  1.0000
  N   N4        1.0  0.12853  0.88149  0.99270  1.0000
  N   N5        1.0  0.09927  0.83607  0.99701  1.0000
  H   H8        1.0  0.04989  0.85477  0.00520  1.0000
  C   C11       1.0  0.05785  0.82778  0.00532  1.0000
  C   C12       1.0  0.02083  0.78317  0.01436  1.0000
  C   C13       1.0  0.02805  0.74624  0.01210  1.0000
  H   H9        1.0  0.06250  0.75333  0.00957  1.0000
  C   C14       1.0  0.02382  0.54747  0.96963  1.0000
  H   H10       1.0  0.05859  0.55200  0.94783  1.0000
  N   N6        1.0  0.00715  0.47898  0.98841  1.0000
  C   C15       1.0  0.00746  0.28778  0.97398  1.0000
  H   H11       1.0  0.07986  0.32578  0.95647  1.0000
  C   C16       1.0  0.05123  0.29323  0.96462  1.0000
  C   C17       1.0  0.05960  0.25766  0.96557  1.0000
  C   C18       1.0  0.02349  0.21446  0.97140  1.0000
  H   H12       1.0  0.03016  0.18732  0.97478  1.0000
  H   H13       1.0  0.13244  0.30053  0.95301  1.0000
  C   C19       1.0  0.10557  0.26766  0.96836  1.0000
  N   N7        1.0  0.11491  0.23939  0.99305  1.0000
  N   N8        1.0  0.16090  0.25624  0.99576  1.0000
  H   H14       1.0  0.14203  0.19486  0.03667  1.0000
  C   C20       1.0  0.16940  0.22731  0.02044  1.0000
  C   C21       1.0  0.21498  0.23599  0.02275  1.0000
  C   C22       1.0  0.25159  0.27931  0.01962  1.0000
  H   H15       1.0  0.24403  0.30654  0.02197  1.0000
  C   C23       1.0  0.44453  0.46426  0.98618  1.0000
  H   H16       1.0  0.43746  0.48940  0.96963  1.0000
  N   N9        1.0  0.51537  0.52005  0.99726  1.0000
  C   C24       1.0  0.70566  0.70780  0.99108  1.0000
  H   H17       1.0  0.66530  0.74237  0.00979  1.0000
  C   C25       1.0  0.69899  0.74586  0.99910  1.0000
  C   C26       1.0  0.73491  0.78910  0.99418  1.0000
  C   C27       1.0  0.77885  0.79541  0.98460  1.0000
  H   H18       1.0  0.80654  0.82929  0.98258  1.0000
  H   H19       1.0  0.31018  0.17394  0.99235  1.0000
  C   C28       1.0  0.27521  0.16786  0.00500  1.0000
  N   N10       1.0  0.24294  0.12784  0.01379  1.0000
  N   N11       1.0  0.25895  0.09696  0.00619  1.0000
  H   H20       1.0  0.19166  0.04957  0.01484  1.0000
  C   C29       1.0  0.22646  0.05617  0.00821  1.0000
  C   C30       1.0  0.23490  0.01791  0.00092  1.0000
  C   C31       1.0  0.27875  0.02489  0.99914  1.0000
  H   H21       1.0  0.30545  0.05997  0.00374  1.0000
  C   C32       1.0  0.46922  0.02226  0.98921  1.0000
  H   H22       1.0  0.49604  0.05678  0.98560  1.0000
  N   N12       1.0  0.52448  0.00847  0.00274  1.0000
  C   C33       1.0  0.71251  0.00640  0.01745  1.0000
  H   H23       1.0  0.74539  0.07494  0.99071  1.0000
  C   C34       1.0  0.74994  0.04837  0.00674  1.0000
  C   C35       1.0  0.79376  0.05614  0.00669  1.0000
  C   C36       1.0  0.80094  0.02042  0.01233  1.0000
  H   H24       1.0  0.83503  0.02625  0.00982  1.0000
  H   H25       1.0  0.82263  0.12539  0.98045  1.0000
  C   C37       1.0  0.83052  0.10042  0.99437  1.0000
  N   N13       1.0  0.87175  0.11062  0.00051  1.0000
  N   N14       1.0  0.90137  0.15496  0.98932  1.0000
  H   H26       1.0  0.95002  0.13745  0.99627  1.0000
  C   C38       1.0  0.94252  0.16355  0.98826  1.0000
  C   C39       1.0  0.97974  0.20784  0.97811  1.0000
  C   C40       1.0  0.97212  0.24448  0.98033  1.0000
  H   H27       1.0  0.93754  0.23802  0.98902  1.0000
  C   C41       1.0  0.97465  0.43893  0.99698  1.0000
  H   H28       1.0  0.93988  0.43257  0.00437  1.0000
  N   N15       1.0  0.99130  0.50923  0.99173  1.0000
  C   C42       1.0  0.99245  0.70249  0.01447  1.0000
  H   H29       1.0  0.92005  0.66423  0.02513  1.0000
  C   C43       1.0  0.94882  0.69749  0.02389  1.0000
  C   C44       1.0  0.94079  0.73386  0.02748  1.0000
  C   C45       1.0  0.97716  0.77689  0.02212  1.0000
  H   H30       1.0  0.97070  0.80437  0.02030  1.0000
  H   H31       1.0  0.86761  0.69262  0.04308  1.0000
  C   C46       1.0  0.89503  0.72503  0.02680  1.0000
  N   N16       1.0  0.88648  0.75410  0.00333  1.0000
  N   N17       1.0  0.84057  0.73800  0.00249  1.0000
  H   H32       1.0  0.85929  0.80027  0.96692  1.0000
  C   C47       1.0  0.83207  0.76741  0.98096  1.0000
  C   C48       1.0  0.78638  0.75866  0.97958  1.0000
  C   C49       1.0  0.74986  0.71486  0.97970  1.0000
  H   H33       1.0  0.75761  0.68734  0.97399  1.0000
  C   C50       1.0  0.55621  0.53032  0.01045  1.0000
  H   H34       1.0  0.56329  0.50473  0.02410  1.0000
  N   N18       1.0  0.48539  0.47512  0.00239  1.0000
  C   C51       1.0  0.29580  0.28644  0.00935  1.0000
  H   H35       1.0  0.33591  0.25222  0.99526  1.0000
  C   C52       1.0  0.30227  0.24860  0.00436  1.0000
  C   C53       1.0  0.26628  0.20565  0.01146  1.0000
  C   C54       1.0  0.22245  0.19961  0.02104  1.0000
  H   H36       1.0  0.19468  0.16602  0.02476  1.0000
  H   H37       1.0  0.68962  0.82819  0.50161  1.0000
  C   C55       1.0  0.72425  0.83483  0.49944  1.0000
  N   N19       1.0  0.75694  0.87640  0.50572  1.0000
  N   N20       1.0  0.74166  0.90774  0.51265  1.0000
  H   H38       1.0  0.80915  0.95539  0.50888  1.0000
  C   C56       1.0  0.77440  0.94876  0.51381  1.0000
  C   C57       1.0  0.76607  0.98678  0.51883  1.0000
  C   C58       1.0  0.72210  0.98071  0.52871  1.0000
  H   H39       1.0  0.69517  0.94782  0.54059  1.0000
  C   C59       1.0  0.53263  0.97746  0.49328  1.0000
  H   H40       1.0  0.50652  0.94031  0.47394  1.0000
  N   N21       1.0  0.47661  0.99255  0.49632  1.0000
  C   C60       1.0  0.28642  0.99313  0.49556  1.0000
  H   H41       1.0  0.25371  0.92122  0.50102  1.0000
  C   C61       1.0  0.24919  0.94964  0.49658  1.0000
  C   C62       1.0  0.20532  0.94219  0.49727  1.0000
  C   C63       1.0  0.19798  0.97911  0.50064  1.0000
  H   H42       1.0  0.16372  0.97298  0.50287  1.0000
  H   H43       1.0  0.17603  0.86914  0.49669  1.0000
  C   C64       1.0  0.16842  0.89646  0.49746  1.0000
  N   N22       1.0  0.12724  0.88812  0.49950  1.0000
  N   N23       1.0  0.09704  0.84233  0.49804  1.0000
  H   H44       1.0  0.04898  0.86512  0.52351  1.0000
  C   C65       1.0  0.05599  0.83614  0.51298  1.0000
  C   C66       1.0  0.01832  0.79139  0.51722  1.0000
  C   C67       1.0  0.02566  0.75390  0.50974  1.0000
  H   H45       1.0  0.06021  0.76062  0.50394  1.0000
  C   C68       1.0  0.02364  0.55614  0.46420  1.0000
  H   H46       1.0  0.05826  0.55924  0.42737  1.0000
  N   N24       1.0  0.00964  0.48941  0.48922  1.0000
  C   C69       1.0  0.00984  0.29723  0.47757  1.0000
  H   H47       1.0  0.08227  0.33400  0.45924  1.0000
  C   C70       1.0  0.05330  0.30177  0.46762  1.0000
  C   C71       1.0  0.06092  0.26577  0.46871  1.0000
  C   C72       1.0  0.02431  0.22308  0.47531  1.0000
  H   H48       1.0  0.03040  0.19558  0.47836  1.0000
  H   H49       1.0  0.13394  0.30695  0.45622  1.0000
  C   C73       1.0  0.10638  0.27451  0.47199  1.0000
  N   N25       1.0  0.11452  0.24551  0.49763  1.0000
  N   N26       1.0  0.16027  0.26139  0.50007  1.0000
  H   H50       1.0  0.14110  0.19745  0.52511  1.0000
  C   C74       1.0  0.16845  0.23093  0.51617  1.0000
  C   C75       1.0  0.21407  0.23944  0.51763  1.0000
  C   C76       1.0  0.25052  0.28291  0.51475  1.0000
  H   H51       1.0  0.24251  0.30947  0.51473  1.0000
  C   C77       1.0  0.44233  0.47171  0.50556  1.0000
  H   H52       1.0  0.43440  0.49894  0.50744  1.0000
  N   N27       1.0  0.51306  0.52755  0.51228  1.0000
  C   C78       1.0  0.70250  0.71652  0.50151  1.0000
  H   H53       1.0  0.66274  0.74919  0.50193  1.0000
  C   C79       1.0  0.69625  0.75347  0.49900  1.0000
  C   C80       1.0  0.73247  0.79654  0.49286  1.0000
  C   C81       1.0  0.77630  0.80277  0.48505  1.0000
  H   H54       1.0  0.80407  0.83608  0.47911  1.0000
  H   H55       1.0  0.30994  0.17860  0.49012  1.0000
  C   C82       1.0  0.27490  0.17264  0.50456  1.0000
  N   N28       1.0  0.24268  0.13287  0.51491  1.0000
  N   N29       1.0  0.25863  0.10209  0.50811  1.0000
  H   H56       1.0  0.19138  0.05427  0.51238  1.0000
  C   C83       1.0  0.22612  0.06083  0.50648  1.0000
  C   C84       1.0  0.23439  0.02249  0.49934  1.0000
  C   C85       1.0  0.27818  0.02886  0.49493  1.0000
  H   H57       1.0  0.30512  0.06300  0.49185  1.0000
  C   C86       1.0  0.46711  0.02362  0.48965  1.0000
  H   H58       1.0  0.49409  0.05815  0.48692  1.0000
  N   N30       1.0  0.52232  0.01055  0.50593  1.0000
  C   C87       1.0  0.71342  0.01536  0.52314  1.0000
  H   H59       1.0  0.74540  0.08500  0.50347  1.0000
  C   C88       1.0  0.75045  0.05800  0.51472  1.0000
  C   C89       1.0  0.79449  0.06549  0.51028  1.0000
  C   C90       1.0  0.80221  0.02924  0.51000  1.0000
  H   H60       1.0  0.83648  0.03481  0.50276  1.0000
  H   H61       1.0  0.82381  0.13516  0.48587  1.0000
  C   C91       1.0  0.83140  0.11005  0.50013  1.0000
  N   N31       1.0  0.87249  0.12016  0.50803  1.0000
  N   N32       1.0  0.90230  0.16464  0.49769  1.0000
  H   H62       1.0  0.95099  0.14696  0.50352  1.0000
  C   C92       1.0  0.94349  0.17312  0.49559  1.0000
  C   C93       1.0  0.98080  0.21717  0.48343  1.0000
  C   C94       1.0  0.97400  0.25434  0.48571  1.0000
  H   H63       1.0  0.93955  0.24836  0.49579  1.0000
  C   C95       1.0  0.97803  0.44940  0.50093  1.0000
  H   H64       1.0  0.94289  0.44277  0.51451  1.0000
  N   N33       1.0  0.99234  0.51942  0.49909  1.0000
  C   C96       1.0  0.99021  0.71031  0.51288  1.0000
  H   H65       1.0  0.91799  0.67138  0.52342  1.0000
  C   C97       1.0  0.94643  0.70498  0.52263  1.0000
  C   C98       1.0  0.93836  0.74154  0.52738  1.0000
  C   C99       1.0  0.97463  0.78535  0.52654  1.0000
  H   H66       1.0  0.96808  0.81331  0.52864  1.0000
  H   H67       1.0  0.86554  0.69967  0.54378  1.0000
  C   C100      1.0  0.89251  0.73209  0.52569  1.0000
  N   N34       1.0  0.88369  0.76085  0.50144  1.0000
  N   N35       1.0  0.83773  0.74490  0.50295  1.0000
  H   H68       1.0  0.85662  0.80712  0.46846  1.0000
  C   C101      1.0  0.82913  0.77461  0.48378  1.0000
  C   C102      1.0  0.78349  0.76667  0.48623  1.0000
  C   C103      1.0  0.74669  0.72426  0.49523  1.0000
  H   H69       1.0  0.75433  0.69815  0.50039  1.0000
  C   C104      1.0  0.55455  0.53599  0.50603  1.0000
  H   H70       1.0  0.56243  0.50796  0.49844  1.0000
  N   N36       1.0  0.48372  0.48123  0.50739  1.0000
  C   C105      1.0  0.29481  0.29040  0.50483  1.0000
  H   H71       1.0  0.33536  0.25731  0.49588  1.0000
  C   C106      1.0  0.30161  0.25309  0.50219  1.0000
  C   C107      1.0  0.26577  0.20999  0.50881  1.0000
  C   C108      1.0  0.22175  0.20313  0.51515  1.0000
  H   H72       1.0  0.19416  0.16927  0.51749  1.0000
  C   C109      1.0  0.65064  0.04272  0.03887  1.0000
  C   C110      1.0  0.66483  0.01037  0.03197  1.0000
  C  Sn1       1.0  0.11553  0.08578  0.99410  1.0000
  C  Sn2       1.0  0.07053  0.06841  0.96256  1.0000
  C   C111      1.0  0.05668  0.10105  0.96964  1.0000
  C   C112      1.0  0.60627  0.02561  0.00771  1.0000
  H   H73       1.0  0.67407  0.08101  0.06822  1.0000
  O  Te1       1.0  0.13026  0.05397  0.98779  1.0000
  O  Te2       1.0  0.03987  0.01907  0.92436  1.0000
  H   H74       1.0  0.59528  0.05063  0.01291  1.0000
  Mg  Mg1       1.0  0.07592  0.98999  0.93060  1.0000
  C   C113      1.0  0.89986  0.92509  0.00240  1.0000
  C   C114      1.0  0.84185  0.00772  0.98686  1.0000
  C  Sn3       1.0  0.84206  0.96681  0.98214  1.0000
  C  Sn4       1.0  0.88294  0.96842  0.99326  1.0000
  C   C115      1.0  0.94079  0.88601  0.00892  1.0000
  C   C116      1.0  0.94020  0.92672  0.01346  1.0000
  H   H75       1.0  0.89940  0.95661  0.00603  1.0000
  O  Te3       1.0  0.80198  0.92482  0.96648  1.0000
  O  Te4       1.0  0.88411  0.92808  0.98893  1.0000
  H   H76       1.0  0.97102  0.95949  0.02563  1.0000
  Mg  Mg2       1.0  0.82073  0.87923  0.96620  1.0000
  C   C117      1.0  0.05189  0.65866  0.95565  1.0000
  C   C118      1.0  0.01135  0.66150  0.97751  1.0000
  C  Sn5       1.0  0.98916  0.50080  0.01056  1.0000
  C  Sn6       1.0  0.98947  0.46153  0.02192  1.0000
  C   C119      1.0  0.03020  0.45904  0.00001  1.0000
  C   C120      1.0  0.05222  0.61994  0.96692  1.0000
  H   H77       1.0  0.08301  0.68650  0.93017  1.0000
  O  Te5       1.0  0.94896  0.50419  0.03198  1.0000
  O  Te6       1.0  0.94959  0.42531  0.05490  1.0000
  H   H78       1.0  0.08361  0.61775  0.95014  1.0000
  Mg  Mg3       1.0  0.90336  0.44591  0.07459  1.0000
  C   C121      1.0  0.03896  0.38519  0.99551  1.0000
  C   C122      1.0  0.00831  0.33977  0.99798  1.0000
  C  Sn7       1.0  0.96272  0.32329  0.98867  1.0000
  C  Sn8       1.0  0.94763  0.35290  0.97663  1.0000
  C   C123      1.0  0.97856  0.39826  0.97411  1.0000
  C   C124      1.0  0.02411  0.41441  0.98355  1.0000
  H   H79       1.0  0.09239  0.27273  0.00270  1.0000
  O  Te7       1.0  0.93255  0.27783  0.99137  1.0000
  O  Te8       1.0  0.90226  0.33731  0.96708  1.0000
  H   H80       1.0  0.04783  0.44955  0.98151  1.0000
  Mg  Mg4       1.0  0.87408  0.27257  0.97535  1.0000
  C   C125      1.0  0.41014  0.37323  0.01336  1.0000
  C   C126      1.0  0.39262  0.53427  0.98215  1.0000
  C  Sn9       1.0  0.35269  0.53258  0.96712  1.0000
  C  Sn10      1.0  0.31137  0.49400  0.98375  1.0000
  C   C127      1.0  0.32924  0.33314  0.01510  1.0000
  C   C128      1.0  0.36940  0.33517  0.02986  1.0000
  H   H81       1.0  0.44121  0.37481  0.02488  1.0000
  O  Te9       1.0  0.35397  0.56893  0.93585  1.0000
  O  Te10      1.0  0.27096  0.49144  0.96936  1.0000
  H   H82       1.0  0.36886  0.30724  0.05415  1.0000
  Mg  Mg5       1.0  0.29003  0.54955  0.92638  1.0000
  C   C129      1.0  0.64954  0.59211  0.01592  1.0000
  C   C130      1.0  0.60382  0.57728  0.01599  1.0000
  C  Sn11      1.0  0.57081  0.73032  0.99712  1.0000
  C  Sn12      1.0  0.60243  0.77405  0.97778  1.0000
  C   C131      1.0  0.64809  0.78855  0.97773  1.0000
  C   C132      1.0  0.66255  0.76017  0.99677  1.0000
  H   H83       1.0  0.66073  0.57013  0.03054  1.0000
  O  Te11      1.0  0.52501  0.71498  0.99755  1.0000
  O  Te12      1.0  0.58854  0.80282  0.95861  1.0000
  H   H84       1.0  0.69795  0.77164  0.99658  1.0000
  Mg  Mg6       1.0  0.52255  0.76661  0.96739  1.0000
  C   C133      1.0  0.59664  0.94410  0.45842  1.0000
  C   C134      1.0  0.57922  0.97865  0.50845  1.0000
  C  Sn13      1.0  0.60763  0.02932  0.55736  1.0000
  C  Sn14      1.0  0.65434  0.04559  0.55599  1.0000
  C   C135      1.0  0.67144  0.01072  0.50560  1.0000
  C   C136      1.0  0.64270  0.96011  0.45695  1.0000
  H   H85       1.0  0.57441  0.90494  0.42068  1.0000
  O  Te13      1.0  0.58967  0.06334  0.60706  1.0000
  O  Te14      1.0  0.18461  0.09600  0.60420  1.0000
  H   H86       1.0  0.65620  0.93337  0.41810  1.0000
  Mg  Mg7       1.0  0.14412  0.12809  0.66181  1.0000
  C   C137      1.0  0.37213  0.96399  0.49700  1.0000
  C   C138      1.0  0.41287  0.00192  0.48030  1.0000
  C  Sn15      1.0  0.41352  0.04260  0.48008  1.0000
  C  Sn16      1.0  0.37259  0.04526  0.49697  1.0000
  C   C139      1.0  0.33202  0.00715  0.51374  1.0000
  C   C140      1.0  0.33175  0.96660  0.51374  1.0000
  H   H87       1.0  0.37192  0.93263  0.49711  1.0000
  O  Te15      1.0  0.95563  0.08015  0.46320  1.0000
  O  Te16      1.0  0.87340  0.08551  0.49722  1.0000
  H   H88       1.0  0.30020  0.93726  0.52681  1.0000
  Mg  Mg8       1.0  0.93784  0.12744  0.47062  1.0000
  C   C141      1.0  0.05383  0.64443  0.43086  1.0000
  C   C142      1.0  0.02440  0.60513  0.47604  1.0000
  C  Sn17      1.0  0.97911  0.59686  0.52936  1.0000
  C  Sn18      1.0  0.96310  0.62857  0.53741  1.0000
  C   C143      1.0  0.99281  0.66775  0.49181  1.0000
  C   C144      1.0  0.03806  0.67570  0.43870  1.0000
  H   H89       1.0  0.08884  0.65056  0.38966  1.0000
  O  Te17      1.0  0.95017  0.55744  0.57411  1.0000
  O  Te18      1.0  0.91800  0.62113  0.59019  1.0000
  H   H90       1.0  0.06084  0.70611  0.40360  1.0000
  Mg  Mg9       1.0  0.89163  0.56243  0.63812  1.0000
  C   C145      1.0  0.04259  0.39426  0.49131  1.0000
  C   C146      1.0  0.01162  0.34929  0.49665  1.0000
  C  Sn19      1.0  0.96601  0.33359  0.49093  1.0000
  C  Sn20      1.0  0.95122  0.36354  0.47960  1.0000
  C   C147      1.0  0.98246  0.40845  0.47419  1.0000
  C   C148      1.0  0.02803  0.42382  0.48005  1.0000
  H   H91       1.0  0.07784  0.40614  0.49573  1.0000
  O  Te19      1.0  0.93552  0.28856  0.49647  1.0000
  O  Te20      1.0  0.90582  0.34872  0.47361  1.0000
  H   H92       1.0  0.05200  0.45862  0.47578  1.0000
  Mg  Mg10      1.0  0.87716  0.28434  0.48483  1.0000
  C   C149      1.0  0.39004  0.35075  0.48033  1.0000
  C   C150      1.0  0.34402  0.33792  0.50204  1.0000
  C  Sn21      1.0  0.32804  0.36943  0.51345  1.0000
  C  Sn22      1.0  0.35879  0.41459  0.50285  1.0000
  C   C151      1.0  0.40477  0.42707  0.48099  1.0000
  C   C152      1.0  0.42039  0.39528  0.46978  1.0000
  H   H93       1.0  0.40213  0.32614  0.47155  1.0000
  O  Te21      1.0  0.28196  0.35605  0.53520  1.0000
  O  Te22      1.0  0.34374  0.44676  0.51380  1.0000
  H   H94       1.0  0.45602  0.40520  0.45285  1.0000
  Mg  Mg11      1.0  0.27779  0.41218  0.54331  1.0000
  C   C153      1.0  0.58785  0.63294  0.52515  1.0000
  C   C154      1.0  0.58834  0.59006  0.50316  1.0000
  C  Sn23      1.0  0.62878  0.58894  0.49545  1.0000
  C  Sn24      1.0  0.66943  0.63159  0.51011  1.0000
  C   C155      1.0  0.66858  0.67432  0.53221  1.0000
  C   C156      1.0  0.62793  0.67503  0.53970  1.0000
  H   H95       1.0  0.55640  0.63350  0.53105  1.0000
  O  Te23      1.0  0.62867  0.54579  0.47336  1.0000
  O  Te24      1.0  0.71032  0.63149  0.50290  1.0000
  H   H96       1.0  0.62756  0.70825  0.55685  1.0000
  Mg  Mg12      1.0  0.69288  0.56384  0.47128  1.0000
