data_image0
_chemical_formula_structural       N6C15OHOHOHC6OHOHOHC10H10C10H10C22H9CH3CH3CH3N6C15OHOHOHC6OHOHOHC2H2C2H2C14H9CH3CH3CH3SnCSn2CSnTe4Mg2SnCSn2CSnTe4Mg2SnCSn2CSnTe4Mg2SnCSn2CSnTe4Mg2SnCSn2CSnTe4Mg2SnCSn2CSnTe4Mg2
_chemical_formula_sum              "N12 C120 O12 H72 Sn24 Te24 Mg12"
_cell_length_a       37.532
_cell_length_b       36.9309
_cell_length_c       7.97742
_cell_angle_alpha    91.8383
_cell_angle_beta     60.6625
_cell_angle_gamma    119.95

_symmetry_space_group_name_H-M    'P1'
_space_group_IT_number       1

loop_
  _space_group_symop_operation_xyz
  'x, y, z'

loop_
  _atom_site_type_symbol
  _atom_site_label
  _atom_site_symmetry_multiplicity
  _atom_site_fract_x
  _atom_site_fract_y
  _atom_site_fract_z
  _atom_site_occupancy
  N   N1        1.0  0.90459  0.46513  0.24059  1.0000
  N   N2        1.0  0.12592  0.53534  0.26433  1.0000
  N   N3        1.0  0.55849  0.43798  0.27984  1.0000
  N   N4        1.0  0.48290  0.58366  0.19968  1.0000
  N   N5        1.0  0.57760  0.11639  0.27142  1.0000
  N   N6        1.0  0.43473  0.89242  0.21171  1.0000
  C   C1        1.0  0.92956  0.45021  0.23775  1.0000
  C   C2        1.0  0.57425  0.47875  0.26313  1.0000
  C   C3        1.0  0.53845  0.09235  0.26817  1.0000
  C   C4        1.0  0.97435  0.47661  0.23523  1.0000
  C   C5        1.0  0.05660  0.52480  0.26785  1.0000
  C   C6        1.0  0.54627  0.49471  0.25785  1.0000
  C   C7        1.0  0.49178  0.52566  0.24626  1.0000
  C   C8        1.0  0.52104  0.04795  0.25647  1.0000
  C   C9        1.0  0.48458  0.95960  0.26098  1.0000
  C   C10       1.0  0.00358  0.46056  0.20930  1.0000
  C   C11       1.0  0.04327  0.48412  0.22818  1.0000
  C   C12       1.0  0.56071  0.53827  0.25786  1.0000
  C   C13       1.0  0.53395  0.55314  0.25033  1.0000
  C   C14       1.0  0.47808  0.02190  0.25326  1.0000
  C   C15       1.0  0.46093  0.97877  0.25298  1.0000
  O   O1        1.0  0.99451  0.42176  0.16297  1.0000
  H   H1        1.0  0.06577  0.47192  0.20739  1.0000
  O   O2        1.0  0.60179  0.56432  0.26418  1.0000
  H   H2        1.0  0.54482  0.58665  0.24660  1.0000
  O   O3        1.0  0.45147  0.03706  0.25021  1.0000
  H   H3        1.0  0.42846  0.95907  0.24741  1.0000
  C   C16       1.0  0.02821  0.54146  0.28810  1.0000
  C   C17       1.0  0.98816  0.51766  0.27085  1.0000
  C   C18       1.0  0.47624  0.48165  0.25395  1.0000
  C   C19       1.0  0.50368  0.46702  0.25670  1.0000
  C   C20       1.0  0.52737  0.98562  0.26587  1.0000
  C   C21       1.0  0.54537  0.02905  0.25960  1.0000
  O   O4        1.0  0.03782  0.58083  0.32745  1.0000
  H   H4        1.0  0.96546  0.52977  0.29384  1.0000
  O   O5        1.0  0.43381  0.45492  0.25808  1.0000
  H   H5        1.0  0.49310  0.43361  0.25871  1.0000
  O   O6        1.0  0.55375  0.97023  0.27104  1.0000
  H   H6        1.0  0.57783  0.04887  0.26489  1.0000
  C   C22       1.0  0.18951  0.54579  0.30592  1.0000
  C   C23       1.0  0.48344  0.64254  0.07662  1.0000
  C   C24       1.0  0.62338  0.44269  0.31469  1.0000
  C   C25       1.0  0.37685  0.82193  0.21762  1.0000
  C   C26       1.0  0.57744  0.18382  0.25324  1.0000
  C   C27       1.0  0.23477  0.57223  0.28416  1.0000
  C   C28       1.0  0.45963  0.66061  0.06519  1.0000
  C   C29       1.0  0.64605  0.42259  0.31806  1.0000
  C   C30       1.0  0.36095  0.77918  0.21157  1.0000
  C   C31       1.0  0.59740  0.22652  0.26345  1.0000
  H   H7        1.0  0.16707  0.51087  0.37487  1.0000
  H   H8        1.0  0.52324  0.66143  0.99916  1.0000
  H   H9        1.0  0.63473  0.47437  0.34336  1.0000
  H   H10       1.0  0.35475  0.83447  0.23617  1.0000
  H   H11       1.0  0.55020  0.17039  0.21433  1.0000
  H   H12       1.0  0.24750  0.55759  0.33818  1.0000
  H   H13       1.0  0.48100  0.69404  0.97564  1.0000
  H   H14       1.0  0.67434  0.43907  0.35067  1.0000
  H   H15       1.0  0.32590  0.75887  0.22567  1.0000
  H   H16       1.0  0.58508  0.24480  0.23062  1.0000
  C   C32       1.0  0.40509  0.57439  0.28878  1.0000
  C   C33       1.0  0.63106  0.17942  0.32287  1.0000
  C   C34       1.0  0.45118  0.83409  0.16686  1.0000
  C   C35       1.0  0.19961  0.60911  0.15964  1.0000
  C   C36       1.0  0.56995  0.37983  0.25645  1.0000
  C   C37       1.0  0.38157  0.59279  0.27778  1.0000
  C   C38       1.0  0.65092  0.22224  0.33257  1.0000
  C   C39       1.0  0.43496  0.79131  0.16087  1.0000
  C   C40       1.0  0.24455  0.63530  0.14007  1.0000
  C   C41       1.0  0.59366  0.36040  0.25468  1.0000
  H   H17       1.0  0.38344  0.54151  0.38425  1.0000
  H   H18       1.0  0.64365  0.16037  0.34670  1.0000
  H   H19       1.0  0.48748  0.85553  0.14092  1.0000
  H   H20       1.0  0.18776  0.62355  0.09888  1.0000
  H   H21       1.0  0.53996  0.36356  0.23356  1.0000
  H   H22       1.0  0.34164  0.57390  0.36330  1.0000
  H   H23       1.0  0.67928  0.23628  0.36503  1.0000
  H   H24       1.0  0.45906  0.78058  0.13347  1.0000
  H   H25       1.0  0.26638  0.66999  0.06879  1.0000
  H   H26       1.0  0.58225  0.32888  0.22491  1.0000
  C   C42       1.0  0.38173  0.65542  0.16699  1.0000
  C   C43       1.0  0.65670  0.29331  0.30394  1.0000
  C   C44       1.0  0.37248  0.71684  0.17615  1.0000
  C   C45       1.0  0.72292  0.36187  0.28711  1.0000
  C   C46       1.0  0.31082  0.64592  0.18260  1.0000
  C   C47       1.0  0.65528  0.35905  0.29595  1.0000
  C   C48       1.0  0.45665  0.59901  0.18795  1.0000
  C   C49       1.0  0.59381  0.15910  0.28369  1.0000
  C   C50       1.0  0.42181  0.85014  0.20043  1.0000
  C   C51       1.0  0.17071  0.56370  0.24601  1.0000
  C   C52       1.0  0.58458  0.42160  0.28428  1.0000
  C   C53       1.0  0.40807  0.63624  0.16705  1.0000
  C   C54       1.0  0.63468  0.24712  0.30301  1.0000
  C   C55       1.0  0.38915  0.76225  0.18541  1.0000
  C   C56       1.0  0.26338  0.61770  0.20108  1.0000
  C   C57       1.0  0.63190  0.38086  0.28826  1.0000
  C   C58       1.0  0.39851  0.69888  0.16863  1.0000
  C   C59       1.0  0.63415  0.31463  0.30822  1.0000
  C   C60       1.0  0.32900  0.68968  0.18139  1.0000
  C   C61       1.0  0.70097  0.31750  0.29510  1.0000
  C   C62       1.0  0.33797  0.62940  0.17383  1.0000
  C   C63       1.0  0.69979  0.38208  0.28526  1.0000
  H   H27       1.0  0.32588  0.59620  0.16645  1.0000
  H   H28       1.0  0.71886  0.30170  0.29439  1.0000
  H   H29       1.0  0.43117  0.71805  0.17305  1.0000
  H   H30       1.0  0.71811  0.41687  0.26704  1.0000
  H   H31       1.0  0.30784  0.70237  0.18887  1.0000
  H   H32       1.0  0.59902  0.29606  0.32274  1.0000
  H   H33       1.0  0.05899  0.59004  0.37806  1.0000
  H   H34       1.0  0.43142  0.42807  0.23339  1.0000
  H   H35       1.0  0.53268  0.93862  0.32071  1.0000
  C   C64       1.0  0.46620  0.91447  0.26027  1.0000
  H   H36       1.0  0.91593  0.41560  0.24833  1.0000
  H   H37       1.0  0.97212  0.41286  0.11869  1.0000
  H   H38       1.0  0.43294  0.51900  0.22776  1.0000
  C   C65       1.0  0.09999  0.54994  0.27588  1.0000
  H   H39       1.0  0.60874  0.50295  0.24994  1.0000
  H   H40       1.0  0.60328  0.59060  0.29432  1.0000
  H   H41       1.0  0.48039  0.89912  0.30287  1.0000
  C   C66       1.0  0.46594  0.54252  0.22640  1.0000
  H   H42       1.0  0.51597  0.10456  0.28179  1.0000
  H   H43       1.0  0.46967  0.06840  0.22981  1.0000
  H   H44       1.0  0.11128  0.58324  0.28776  1.0000
  N   N7        1.0  0.87018  0.45890  0.76047  1.0000
  N   N8        1.0  0.09603  0.53524  0.75044  1.0000
  N   N9        1.0  0.51633  0.41756  0.81133  1.0000
  N   N10       1.0  0.44421  0.56816  0.74382  1.0000
  N   N11       1.0  0.55690  0.10385  0.81412  1.0000
  N   N12       1.0  0.42189  0.88243  0.72224  1.0000
  C   C67       1.0  0.89614  0.44451  0.75113  1.0000
  C   C68       1.0  0.53560  0.45904  0.76269  1.0000
  C   C69       1.0  0.52652  0.08228  0.75960  1.0000
  C   C70       1.0  0.94016  0.47135  0.75446  1.0000
  C   C71       1.0  0.02486  0.52269  0.76993  1.0000
  C   C72       1.0  0.50725  0.47597  0.77133  1.0000
  C   C73       1.0  0.45513  0.50975  0.76109  1.0000
  C   C74       1.0  0.50820  0.03719  0.76058  1.0000
  C   C75       1.0  0.47443  0.94979  0.75525  1.0000
  C   C76       1.0  0.96936  0.45572  0.73347  1.0000
  C   C77       1.0  0.01074  0.48104  0.74055  1.0000
  C   C78       1.0  0.52407  0.52019  0.76550  1.0000
  C   C79       1.0  0.49825  0.53636  0.76026  1.0000
  C   C80       1.0  0.46670  0.01126  0.74802  1.0000
  C   C81       1.0  0.45038  0.96834  0.74595  1.0000
  O   O7        1.0  0.95473  0.41446  0.70805  1.0000
  H   H45       1.0  0.03422  0.46993  0.71992  1.0000
  O   O8        1.0  0.56709  0.54854  0.75791  1.0000
  H   H46       1.0  0.51067  0.57008  0.75850  1.0000
  O   O9        1.0  0.44049  0.02649  0.74024  1.0000
  H   H47       1.0  0.41855  0.94829  0.73668  1.0000
  C   C82       1.0  0.99535  0.53802  0.79306  1.0000
  C   C83       1.0  0.95388  0.51260  0.78620  1.0000
  C   C84       1.0  0.43793  0.46532  0.77080  1.0000
  C   C85       1.0  0.46364  0.44902  0.77770  1.0000
  C   C86       1.0  0.51573  0.97558  0.76945  1.0000
  C   C87       1.0  0.53166  0.01828  0.77423  1.0000
  O   O10       1.0  0.00966  0.57896  0.82080  1.0000
  H   H48       1.0  0.93072  0.52394  0.80461  1.0000
  O   O11       1.0  0.39623  0.43633  0.77329  1.0000
  H   H49       1.0  0.45125  0.41534  0.77952  1.0000
  O   O12       1.0  0.53910  0.95690  0.77624  1.0000
  H   H50       1.0  0.56311  0.03862  0.78623  1.0000
  C   C88       1.0  0.15745  0.54260  0.79835  1.0000
  C   C89       1.0  0.20229  0.56727  0.78053  1.0000
  H   H51       1.0  0.13443  0.50746  0.86143  1.0000
  H   H52       1.0  0.21323  0.55106  0.83757  1.0000
  C   C90       1.0  0.17007  0.60801  0.65842  1.0000
  C   C91       1.0  0.21561  0.63239  0.63602  1.0000
  H   H53       1.0  0.15862  0.62398  0.60318  1.0000
  H   H54       1.0  0.23884  0.66725  0.56426  1.0000
  C   C92       1.0  0.34669  0.64093  0.68214  1.0000
  C   C93       1.0  0.62672  0.28175  0.81217  1.0000
  C   C94       1.0  0.34490  0.70637  0.67706  1.0000
  C   C95       1.0  0.68958  0.35204  0.80122  1.0000
  C   C96       1.0  0.28072  0.63831  0.67816  1.0000
  C   C97       1.0  0.62247  0.34557  0.78958  1.0000
  C   C98       1.0  0.14009  0.56236  0.73926  1.0000
  C   C99       1.0  0.23307  0.61280  0.69586  1.0000
  C   C100      1.0  0.36653  0.68475  0.68048  1.0000
  C   C101      1.0  0.60407  0.30140  0.79858  1.0000
  C   C102      1.0  0.30207  0.68245  0.67464  1.0000
  C   C103      1.0  0.66859  0.30734  0.81961  1.0000
  C   C104      1.0  0.30398  0.61813  0.67988  1.0000
  C   C105      1.0  0.66599  0.37042  0.78628  1.0000
  H   H55       1.0  0.28892  0.58434  0.67779  1.0000
  H   H56       1.0  0.68478  0.29228  0.84418  1.0000
  H   H57       1.0  0.39858  0.70136  0.68981  1.0000
  H   H58       1.0  0.68272  0.40514  0.76740  1.0000
  H   H59       1.0  0.28324  0.69768  0.68071  1.0000
  H   H60       1.0  0.57167  0.28191  0.79302  1.0000
  H   H61       1.0  0.98528  0.58439  0.83992  1.0000
  H   H62       1.0  0.38362  0.45197  0.75173  1.0000
  H   H63       1.0  0.56313  0.97680  0.80602  1.0000
  C   C106      1.0  0.45757  0.90506  0.74897  1.0000
  H   H64       1.0  0.88630  0.41144  0.74372  1.0000
  H   H65       1.0  0.98307  0.41242  0.64728  1.0000
  H   H66       1.0  0.39792  0.50688  0.73746  1.0000
  C   C107      1.0  0.06836  0.54892  0.77719  1.0000
  H   H67       1.0  0.57440  0.48334  0.70628  1.0000
  H   H68       1.0  0.56460  0.53685  0.87399  1.0000
  H   H69       1.0  0.47693  0.89252  0.76628  1.0000
  C   C108      1.0  0.42981  0.52805  0.74868  1.0000
  H   H70       1.0  0.51474  0.09851  0.70486  1.0000
  H   H71       1.0  0.45247  0.05508  0.76317  1.0000
  H   H72       1.0  0.07596  0.58027  0.80790  1.0000
  C  Sn1       1.0  0.39893  0.77707  0.79122  1.0000
  C   C109      1.0  0.36296  0.75279  0.74926  1.0000
  C  Sn2       1.0  0.34978  0.77335  0.66878  1.0000
  C  Sn3       1.0  0.37305  0.81914  0.62930  1.0000
  C   C110      1.0  0.40900  0.84340  0.67122  1.0000
  C  Sn4       1.0  0.42220  0.82286  0.75174  1.0000
  O  Te1       1.0  0.41153  0.75583  0.87164  1.0000
  O  Te2       1.0  0.31371  0.74838  0.62815  1.0000
  O  Te3       1.0  0.36042  0.84037  0.54882  1.0000
  O  Te4       1.0  0.45825  0.84780  0.79233  1.0000
  Mg  Mg1       1.0  0.30921  0.79226  0.51905  1.0000
  Mg  Mg2       1.0  0.46280  0.80396  0.90133  1.0000
  C  Sn5       1.0  0.52489  0.34842  0.82943  1.0000
  C   C111      1.0  0.53344  0.38891  0.85649  1.0000
  C  Sn6       1.0  0.57804  0.42135  0.83018  1.0000
  C  Sn7       1.0  0.61489  0.41317  0.77557  1.0000
  C   C112      1.0  0.60633  0.37271  0.74851  1.0000
  C  Sn8       1.0  0.56173  0.34024  0.77482  1.0000
  O  Te5       1.0  0.48002  0.31647  0.85651  1.0000
  O  Te6       1.0  0.58573  0.46156  0.85813  1.0000
  O  Te7       1.0  0.65977  0.44516  0.74850  1.0000
  O  Te8       1.0  0.55403  0.30005  0.74686  1.0000
  Mg  Mg3       1.0  0.65288  0.49471  0.80371  1.0000
  Mg  Mg4       1.0  0.48691  0.26689  0.80114  1.0000
  C  Sn9       1.0  0.61981  0.18176  0.84112  1.0000
  C   C113      1.0  0.57412  0.14927  0.87651  1.0000
  C  Sn10      1.0  0.54449  0.16025  0.86611  1.0000
  C  Sn11      1.0  0.56088  0.20463  0.81923  1.0000
  C   C114      1.0  0.60654  0.23709  0.78384  1.0000
  C  Sn12      1.0  0.63620  0.22614  0.79424  1.0000
  O  Te9       1.0  0.64883  0.17004  0.85231  1.0000
  O  Te10      1.0  0.49894  0.12720  0.90215  1.0000
  O  Te11      1.0  0.53181  0.21634  0.80807  1.0000
  O  Te12      1.0  0.68172  0.25916  0.75820  1.0000
  Mg  Mg5       1.0  0.47268  0.15957  0.86924  1.0000
  Mg  Mg6       1.0  0.70803  0.22684  0.79096  1.0000
  C  Sn13      1.0  0.43136  0.63889  0.54582  1.0000
  C   C115      1.0  0.38111  0.61970  0.63347  1.0000
  C  Sn14      1.0  0.34661  0.58230  0.79616  1.0000
  C  Sn15      1.0  0.36266  0.56370  0.87295  1.0000
  C   C116      1.0  0.41288  0.58289  0.78533  1.0000
  C  Sn16      1.0  0.44741  0.62029  0.62260  1.0000
  O  Te13      1.0  0.46521  0.67627  0.38330  1.0000
  O  Te14      1.0  0.29657  0.56370  0.88125  1.0000
  O  Te15      1.0  0.46294  0.58744  0.03559  1.0000
  O  Te16      1.0  0.49742  0.63889  0.53756  1.0000
  Mg  Mg7       1.0  0.39880  0.57408  0.10034  1.0000
  Mg  Mg8       1.0  0.52940  0.68967  0.31854  1.0000
  C  Sn17      1.0  0.77796  0.43518  0.88732  1.0000
  C   C117      1.0  0.81536  0.42794  0.81822  1.0000
  C  Sn18      1.0  0.81604  0.39722  0.71203  1.0000
  C  Sn19      1.0  0.77856  0.37325  0.67400  1.0000
  C   C118      1.0  0.74119  0.38050  0.74305  1.0000
  C  Sn20      1.0  0.74048  0.41121  0.84929  1.0000
  O  Te17      1.0  0.77802  0.46605  0.99315  1.0000
  O  Te18      1.0  0.85380  0.39054  0.64452  1.0000
  O  Te19      1.0  0.77853  0.34236  0.56808  1.0000
  O  Te20      1.0  0.70275  0.41789  0.91675  1.0000
  Mg  Mg9       1.0  0.83777  0.34494  0.50691  1.0000
  Mg  Mg10      1.0  0.85294  0.52464  0.05428  1.0000
  C  Sn21      1.0  0.81128  0.44026  0.38494  1.0000
  C   C119      1.0  0.84950  0.43381  0.30289  1.0000
  C  Sn22      1.0  0.85069  0.40522  0.18445  1.0000
  C  Sn23      1.0  0.81292  0.38262  0.14712  1.0000
  C   C120      1.0  0.77473  0.38907  0.22912  1.0000
  C  Sn24      1.0  0.77351  0.41765  0.34761  1.0000
  O  Te21      1.0  0.81083  0.46899  0.50289  1.0000
  O  Te22      1.0  0.88926  0.39931  0.10412  1.0000
  O  Te23      1.0  0.81339  0.35386  0.02907  1.0000
  O  Te24      1.0  0.73497  0.42358  0.42789  1.0000
  Mg  Mg11      1.0  0.73950  0.29559  0.95292  1.0000
  Mg  Mg12      1.0  0.75052  0.46615  0.57902  1.0000
