data_image0
_chemical_formula_structural       C16N6H2C8H4N2C8H4C7H2C2H2COH3OH4OH3OH4C16N6H2C8H4N2C8H4C13H6C6H6C3OH3OH4OH3OH4C2Sn2C2HTe2HMgC2Sn2C2HTe2HMgC2Sn2C2HTe2HMgC2Sn2C2HTe2HMg
_chemical_formula_sum              "C112 N16 H72 O8 Sn8 Te8 Mg4"
_cell_length_a       25.6105
_cell_length_b       25.6669
_cell_length_c       9.29725
_cell_angle_alpha    75.1496
_cell_angle_beta     120.184
_cell_angle_gamma    102.487

_symmetry_space_group_name_H-M    'P1'
_space_group_IT_number       1

loop_
  _space_group_symop_operation_xyz
  'x, y, z'

loop_
  _atom_site_type_symbol
  _atom_site_label
  _atom_site_symmetry_multiplicity
  _atom_site_fract_x
  _atom_site_fract_y
  _atom_site_fract_z
  _atom_site_occupancy
  C   C1        1.0  0.45313  0.47433  0.25227  1.0000
  C   C2        1.0  0.99463  0.95562  0.35018  1.0000
  C   C3        1.0  0.55780  0.54086  0.26892  1.0000
  C   C4        1.0  0.01223  0.04640  0.12931  1.0000
  C   C5        1.0  0.55224  0.48594  0.26817  1.0000
  C   C6        1.0  0.96505  0.04355  0.16539  1.0000
  C   C7        1.0  0.45895  0.52920  0.25523  1.0000
  C   C8        1.0  0.04118  0.95809  0.31150  1.0000
  C   C9        1.0  0.51636  0.62110  0.26376  1.0000
  C   C10       1.0  0.10135  0.01151  0.16806  1.0000
  C   C11       1.0  0.49589  0.39400  0.25925  1.0000
  C   C12       1.0  0.90794  0.99307  0.32019  1.0000
  C   C13       1.0  0.50026  0.45153  0.25992  1.0000
  C   C14       1.0  0.95635  0.99741  0.27987  1.0000
  C   C15       1.0  0.51088  0.56365  0.26322  1.0000
  C   C16       1.0  0.05076  0.00486  0.20058  1.0000
  N   N1        1.0  0.54143  0.37308  0.28075  1.0000
  N   N2        1.0  0.87096  0.03083  0.24895  1.0000
  N   N3        1.0  0.47357  0.64259  0.25771  1.0000
  N   N4        1.0  0.13932  0.97480  0.23810  1.0000
  N   N5        1.0  0.56427  0.95495  0.27185  1.0000
  N   N6        1.0  0.44904  0.06515  0.21333  1.0000
  H   H1        1.0  0.57011  0.96128  0.38347  1.0000
  H   H2        1.0  0.44205  0.05802  0.10055  1.0000
  C   C17       1.0  0.60901  0.97576  0.22019  1.0000
  C   C18       1.0  0.46990  0.11912  0.24245  1.0000
  C   C19       1.0  0.39982  0.04731  0.24904  1.0000
  C   C20       1.0  0.53780  0.90426  0.22083  1.0000
  C   C21       1.0  0.60795  0.93948  0.13015  1.0000
  C   C22       1.0  0.43572  0.13312  0.30351  1.0000
  C   C23       1.0  0.39282  0.08901  0.30797  1.0000
  C   C24       1.0  0.56400  0.89544  0.13021  1.0000
  H   H3        1.0  0.63501  0.94597  0.06644  1.0000
  H   H4        1.0  0.44437  0.17069  0.34797  1.0000
  H   H5        1.0  0.36153  0.08571  0.35678  1.0000
  H   H6        1.0  0.55094  0.86107  0.06733  1.0000
  N   N7        1.0  0.57213  0.07950  0.22620  1.0000
  N   N8        1.0  0.44054  0.94200  0.25219  1.0000
  C   C25       1.0  0.62782  0.07455  0.24028  1.0000
  C   C26       1.0  0.56827  0.13232  0.23220  1.0000
  C   C27       1.0  0.38728  0.94685  0.25329  1.0000
  C   C28       1.0  0.44620  0.88784  0.26460  1.0000
  C   C29       1.0  0.66092  0.12782  0.25768  1.0000
  C   C30       1.0  0.62511  0.16220  0.24941  1.0000
  C   C31       1.0  0.36041  0.89196  0.27716  1.0000
  C   C32       1.0  0.39649  0.85695  0.29059  1.0000
  H   H7        1.0  0.70710  0.13760  0.27782  1.0000
  H   H8        1.0  0.63644  0.20492  0.25664  1.0000
  H   H9        1.0  0.31881  0.88099  0.28591  1.0000
  H   H10       1.0  0.39007  0.81319  0.31849  1.0000
  C   C33       1.0  0.64657  0.02745  0.24190  1.0000
  C   C34       1.0  0.52165  0.15141  0.23259  1.0000
  C   C35       1.0  0.36669  0.99424  0.24287  1.0000
  C   C36       1.0  0.48971  0.86912  0.24829  1.0000
  C   C37       1.0  0.70556  0.02873  0.24987  1.0000
  C   C38       1.0  0.72738  0.07144  0.15741  1.0000
  C   C39       1.0  0.74234  0.98582  0.34973  1.0000
  H   H11       1.0  0.69867  0.10331  0.07261  1.0000
  H   H12       1.0  0.72662  0.95264  0.42310  1.0000
  C   C40       1.0  0.78282  0.07149  0.16476  1.0000
  C   C41       1.0  0.79774  0.98558  0.35713  1.0000
  H   H13       1.0  0.79847  0.10386  0.08920  1.0000
  H   H14       1.0  0.82490  0.95211  0.43622  1.0000
  C   C42       1.0  0.81893  0.02847  0.26302  1.0000
  O   O1        1.0  0.40209  0.44008  0.24216  1.0000
  H   H15       1.0  0.58777  0.46761  0.27277  1.0000
  H   H16       1.0  0.55728  0.64521  0.26389  1.0000
  H   H17       1.0  0.98853  0.92085  0.43829  1.0000
  O   O2        1.0  0.92875  0.08387  0.09271  1.0000
  H   H18       1.0  0.10757  0.04954  0.08867  1.0000
  H   H19       1.0  0.53942  0.04834  0.21639  1.0000
  H   H20       1.0  0.37588  0.46029  0.25018  1.0000
  H   H21       1.0  0.89764  0.07205  0.13770  1.0000
  O   O3        1.0  0.60845  0.57521  0.27681  1.0000
  H   H22       1.0  0.42336  0.54734  0.25093  1.0000
  H   H23       1.0  0.45295  0.36955  0.24167  1.0000
  H   H24       1.0  0.01871  0.08145  0.04266  1.0000
  O   O4        1.0  0.07674  0.91713  0.38071  1.0000
  H   H25       1.0  0.90314  0.95697  0.40798  1.0000
  H   H26       1.0  0.46404  0.97311  0.21006  1.0000
  H   H27       1.0  0.63410  0.55512  0.26612  1.0000
  H   H28       1.0  0.10923  0.92969  0.34220  1.0000
  C   C43       1.0  0.45528  0.45394  0.79822  1.0000
  C   C44       1.0  0.97195  0.94133  0.81218  1.0000
  C   C45       1.0  0.53577  0.52624  0.70066  1.0000
  C   C46       1.0  0.01915  0.04100  0.69026  1.0000
  C   C47       1.0  0.52981  0.47124  0.69904  1.0000
  C   C48       1.0  0.96837  0.03939  0.71028  1.0000
  C   C49       1.0  0.46064  0.50897  0.79809  1.0000
  C   C50       1.0  0.02323  0.94303  0.79435  1.0000
  C   C51       1.0  0.50270  0.60426  0.73798  1.0000
  C   C52       1.0  0.10130  0.99776  0.71586  1.0000
  C   C53       1.0  0.48478  0.37656  0.74588  1.0000
  C   C54       1.0  0.89067  0.98468  0.79085  1.0000
  C   C55       1.0  0.48957  0.43421  0.74620  1.0000
  C   C56       1.0  0.94405  0.98846  0.77192  1.0000
  C   C57       1.0  0.49995  0.54629  0.74720  1.0000
  C   C58       1.0  0.04737  0.99391  0.73190  1.0000
  N   N9        1.0  0.52505  0.35663  0.73686  1.0000
  N   N10       1.0  0.86320  0.02731  0.75233  1.0000
  N   N11       1.0  0.46784  0.62335  0.77152  1.0000
  N   N12       1.0  0.13013  0.95541  0.76061  1.0000
  N   N13       1.0  0.54649  0.93937  0.72346  1.0000
  N   N14       1.0  0.43924  0.04200  0.74886  1.0000
  H   H29       1.0  0.52520  0.96311  0.74528  1.0000
  H   H30       1.0  0.45597  0.01883  0.71132  1.0000
  C   C59       1.0  0.60083  0.95679  0.71716  1.0000
  C   C60       1.0  0.45575  0.09712  0.75324  1.0000
  C   C61       1.0  0.39238  0.02310  0.78975  1.0000
  C   C62       1.0  0.53344  0.88343  0.73271  1.0000
  C   C63       1.0  0.62073  0.91061  0.71238  1.0000
  C   C64       1.0  0.41879  0.11322  0.80226  1.0000
  C   C65       1.0  0.38013  0.06764  0.82584  1.0000
  C   C66       1.0  0.58034  0.86557  0.72625  1.0000
  H   H31       1.0  0.66105  0.91051  0.70263  1.0000
  H   H32       1.0  0.42198  0.15356  0.82342  1.0000
  H   H33       1.0  0.34546  0.06640  0.86108  1.0000
  H   H34       1.0  0.58429  0.82400  0.73151  1.0000
  N   N15       1.0  0.55106  0.05854  0.70180  1.0000
  N   N16       1.0  0.43723  0.92174  0.78585  1.0000
  C   C67       1.0  0.60996  0.05615  0.72097  1.0000
  C   C68       1.0  0.54919  0.11270  0.71534  1.0000
  C   C69       1.0  0.38016  0.92404  0.77695  1.0000
  C   C70       1.0  0.43647  0.86968  0.75448  1.0000
  C   C71       1.0  0.64247  0.10910  0.74384  1.0000
  C   C72       1.0  0.60602  0.14290  0.73437  1.0000
  C   C73       1.0  0.34463  0.87325  0.73572  1.0000
  C   C74       1.0  0.37770  0.84137  0.72163  1.0000
  H   H35       1.0  0.68939  0.11897  0.77035  1.0000
  H   H36       1.0  0.61823  0.18497  0.74907  1.0000
  H   H37       1.0  0.29749  0.86437  0.70779  1.0000
  H   H38       1.0  0.36203  0.80226  0.68179  1.0000
  C   C75       1.0  0.63240  0.01078  0.72711  1.0000
  C   C76       1.0  0.50487  0.13041  0.72889  1.0000
  C   C77       1.0  0.36015  0.96918  0.78310  1.0000
  C   C78       1.0  0.48113  0.85113  0.74255  1.0000
  C   C79       1.0  0.69464  0.01650  0.74634  1.0000
  C   C80       1.0  0.50914  0.18925  0.73059  1.0000
  C   C81       1.0  0.47545  0.79241  0.74138  1.0000
  C   C82       1.0  0.71190  0.05728  0.64028  1.0000
  C   C83       1.0  0.56120  0.21550  0.85060  1.0000
  C   C84       1.0  0.46055  0.75339  0.85621  1.0000
  C   C85       1.0  0.48523  0.77310  0.62878  1.0000
  C   C86       1.0  0.73827  0.98127  0.86909  1.0000
  C   C87       1.0  0.46107  0.22040  0.61212  1.0000
  H   H39       1.0  0.67971  0.08548  0.54660  1.0000
  H   H40       1.0  0.59783  0.19180  0.94768  1.0000
  H   H41       1.0  0.45329  0.76670  0.94589  1.0000
  H   H42       1.0  0.49433  0.80194  0.53413  1.0000
  H   H43       1.0  0.72776  0.95134  0.95993  1.0000
  H   H44       1.0  0.42006  0.20110  0.51831  1.0000
  C   C88       1.0  0.76846  0.06136  0.64930  1.0000
  C   C89       1.0  0.56623  0.27056  0.84991  1.0000
  C   C90       1.0  0.45608  0.69822  0.85912  1.0000
  C   C91       1.0  0.48306  0.71809  0.63486  1.0000
  C   C92       1.0  0.79465  0.98441  0.87724  1.0000
  C   C93       1.0  0.46485  0.27541  0.61330  1.0000
  H   H45       1.0  0.78035  0.09208  0.56250  1.0000
  H   H46       1.0  0.60676  0.29042  0.94327  1.0000
  H   H47       1.0  0.44424  0.66849  0.94744  1.0000
  H   H48       1.0  0.49005  0.70507  0.54408  1.0000
  H   H49       1.0  0.82784  0.95742  0.97504  1.0000
  H   H50       1.0  0.42758  0.29914  0.51951  1.0000
  C   C94       1.0  0.80979  0.02357  0.76286  1.0000
  C   C95       1.0  0.51772  0.30131  0.73240  1.0000
  C   C96       1.0  0.46962  0.67943  0.75332  1.0000
  O   O5        1.0  0.41732  0.41667  0.84899  1.0000
  H   H51       1.0  0.55639  0.45534  0.66130  1.0000
  H   H52       1.0  0.53560  0.63044  0.70149  1.0000
  H   H53       1.0  0.95387  0.90261  0.86037  1.0000
  O   O6        1.0  0.94341  0.08567  0.67170  1.0000
  H   H54       1.0  0.11809  0.03818  0.67033  1.0000
  H   H55       1.0  0.51589  0.04729  0.59217  1.0000
  H   H56       1.0  0.40123  0.43527  0.89495  1.0000
  H   H57       1.0  0.90687  0.07441  0.69373  1.0000
  O   O7        1.0  0.57610  0.56272  0.65865  1.0000
  H   H58       1.0  0.43450  0.52498  0.83705  1.0000
  H   H59       1.0  0.44657  0.35080  0.75819  1.0000
  H   H60       1.0  0.03686  0.07967  0.64058  1.0000
  O   O8        1.0  0.04892  0.89698  0.83540  1.0000
  H   H61       1.0  0.87315  0.94414  0.83348  1.0000
  H   H62       1.0  0.47499  0.93205  0.89317  1.0000
  H   H63       1.0  0.58904  0.54534  0.60183  1.0000
  H   H64       1.0  0.08638  0.90871  0.81736  1.0000
  C   C97       1.0  0.42063  0.76662  0.15342  1.0000
  C   C98       1.0  0.47080  0.80367  0.22859  1.0000
  C  Sn1       1.0  0.52917  0.78703  0.32286  1.0000
  C  Sn2       1.0  0.53732  0.73226  0.34197  1.0000
  C   C99       1.0  0.48684  0.69552  0.26618  1.0000
  C   C100      1.0  0.42863  0.71260  0.17216  1.0000
  H   H65       1.0  0.37559  0.77984  0.08060  1.0000
  O  Te1       1.0  0.57879  0.82457  0.39717  1.0000
  O  Te2       1.0  0.59516  0.71454  0.43547  1.0000
  H   H66       1.0  0.38980  0.68391  0.11388  1.0000
  Mg  Mg1       1.0  0.64859  0.78092  0.51257  1.0000
  C   C101      1.0  0.24292  0.00795  0.63567  1.0000
  C   C102      1.0  0.29076  0.97652  0.74830  1.0000
  C  Sn3       1.0  0.50005  0.93240  0.86330  1.0000
  C  Sn4       1.0  0.44364  0.91960  0.86525  1.0000
  C   C103      1.0  0.39605  0.95127  0.75198  1.0000
  C   C104      1.0  0.18726  0.99534  0.63746  1.0000
  H   H67       1.0  0.24902  0.04203  0.54700  1.0000
  O  Te3       1.0  0.54833  0.90143  0.97500  1.0000
  O  Te4       1.0  0.43500  0.87571  0.97883  1.0000
  H   H68       1.0  0.15020  0.01965  0.55020  1.0000
  Mg  Mg2       1.0  0.34402  0.90174  0.10612  1.0000
  C   C105      1.0  0.58735  0.27308  0.40764  1.0000
  C   C106      1.0  0.54969  0.31283  0.29118  1.0000
  C  Sn5       1.0  0.49678  0.29922  0.14786  1.0000
  C  Sn6       1.0  0.48140  0.24476  0.12100  1.0000
  C   C107      1.0  0.51935  0.20528  0.23833  1.0000
  C   C108      1.0  0.57220  0.21935  0.38128  1.0000
  H   H69       1.0  0.62822  0.28395  0.51830  1.0000
  O  Te5       1.0  0.45967  0.33944  0.03274  1.0000
  O  Te6       1.0  0.59914  0.17396  0.97887  1.0000
  H   H70       1.0  0.60133  0.18856  0.47148  1.0000
  Mg  Mg3       1.0  0.56315  0.24328  0.85827  1.0000
  C   C109      1.0  0.24698  0.02864  0.09195  1.0000
  C   C110      1.0  0.29784  0.00159  0.21140  1.0000
  C  Sn7       1.0  0.51158  0.96120  0.34113  1.0000
  C  Sn8       1.0  0.45663  0.94772  0.35110  1.0000
  C   C111      1.0  0.40599  0.97499  0.23092  1.0000
  C   C112      1.0  0.19276  0.01535  0.10166  1.0000
  H   H71       1.0  0.42001  0.00376  0.99188  1.0000
  O  Te7       1.0  0.56282  0.93459  0.45945  1.0000
  O  Te8       1.0  0.45242  0.90750  0.47941  1.0000
  H   H72       1.0  0.15336  0.03626  0.00913  1.0000
  Mg  Mg4       1.0  0.53459  0.88274  0.61089  1.0000
