data_image0
_chemical_formula_structural       N6C15OHOHOHC6OHOHOHC12H9CH3CH3CH3N6C15OHOHOHC6OHOHOHC12H9CH3CH3CH3C2Sn2C2HTe2HMgC2Sn2C2HTe2HMgC2Sn2C2HTe2HMgC2Sn2C2HTe2HMgC2Sn2C2HTe2HMgC2Sn2C2HTe2HMgC2Sn2C2HTe2HMgC2Sn2C2HTe2HMgC2Sn2C2HTe2HMgC2Sn2C2HTe2HMgC2Sn2C2HTe2HMgC2Sn2C2HTe2HMg
_chemical_formula_sum              "N12 C120 O12 H72 Sn24 Te24 Mg12"
_cell_length_a       37.532
_cell_length_b       36.9309
_cell_length_c       7.97742
_cell_angle_alpha    91.8383
_cell_angle_beta     60.6625
_cell_angle_gamma    119.95

_symmetry_space_group_name_H-M    'P1'
_space_group_IT_number       1

loop_
  _space_group_symop_operation_xyz
  'x, y, z'

loop_
  _atom_site_type_symbol
  _atom_site_label
  _atom_site_symmetry_multiplicity
  _atom_site_fract_x
  _atom_site_fract_y
  _atom_site_fract_z
  _atom_site_occupancy
  N   N1        1.0  0.90459  0.46513  0.24059  1.0000
  N   N2        1.0  0.12592  0.53534  0.26433  1.0000
  N   N3        1.0  0.55849  0.43798  0.27984  1.0000
  N   N4        1.0  0.48290  0.58366  0.19968  1.0000
  N   N5        1.0  0.57760  0.11639  0.27142  1.0000
  N   N6        1.0  0.43473  0.89242  0.21171  1.0000
  C   C1        1.0  0.92956  0.45021  0.23775  1.0000
  C   C2        1.0  0.57425  0.47875  0.26313  1.0000
  C   C3        1.0  0.53845  0.09235  0.26817  1.0000
  C   C4        1.0  0.97435  0.47661  0.23523  1.0000
  C   C5        1.0  0.05660  0.52480  0.26785  1.0000
  C   C6        1.0  0.54627  0.49471  0.25785  1.0000
  C   C7        1.0  0.49178  0.52566  0.24626  1.0000
  C   C8        1.0  0.52104  0.04795  0.25647  1.0000
  C   C9        1.0  0.48458  0.95960  0.26098  1.0000
  C   C10       1.0  0.00358  0.46056  0.20930  1.0000
  C   C11       1.0  0.04327  0.48412  0.22818  1.0000
  C   C12       1.0  0.56071  0.53827  0.25786  1.0000
  C   C13       1.0  0.53395  0.55314  0.25033  1.0000
  C   C14       1.0  0.47808  0.02190  0.25326  1.0000
  C   C15       1.0  0.46093  0.97877  0.25298  1.0000
  O   O1        1.0  0.99451  0.42176  0.16297  1.0000
  H   H1        1.0  0.06577  0.47192  0.20739  1.0000
  O   O2        1.0  0.60179  0.56432  0.26418  1.0000
  H   H2        1.0  0.54482  0.58665  0.24660  1.0000
  O   O3        1.0  0.45147  0.03706  0.25021  1.0000
  H   H3        1.0  0.42846  0.95907  0.24741  1.0000
  C   C16       1.0  0.02821  0.54146  0.28810  1.0000
  C   C17       1.0  0.98816  0.51766  0.27085  1.0000
  C   C18       1.0  0.47624  0.48165  0.25395  1.0000
  C   C19       1.0  0.50368  0.46702  0.25670  1.0000
  C   C20       1.0  0.52737  0.98562  0.26587  1.0000
  C   C21       1.0  0.54537  0.02905  0.25960  1.0000
  O   O4        1.0  0.03782  0.58083  0.32745  1.0000
  H   H4        1.0  0.96546  0.52977  0.29384  1.0000
  O   O5        1.0  0.43381  0.45492  0.25808  1.0000
  H   H5        1.0  0.49310  0.43361  0.25871  1.0000
  O   O6        1.0  0.55375  0.97023  0.27104  1.0000
  H   H6        1.0  0.57783  0.04887  0.26489  1.0000
  C   C22       1.0  0.38173  0.65542  0.16699  1.0000
  C   C23       1.0  0.65670  0.29331  0.30394  1.0000
  C   C24       1.0  0.37248  0.71684  0.17615  1.0000
  C   C25       1.0  0.72292  0.36187  0.28711  1.0000
  C   C26       1.0  0.31082  0.64592  0.18260  1.0000
  C   C27       1.0  0.65528  0.35905  0.29595  1.0000
  C   C28       1.0  0.39851  0.69888  0.16863  1.0000
  C   C29       1.0  0.63415  0.31463  0.30822  1.0000
  C   C30       1.0  0.32900  0.68968  0.18139  1.0000
  C   C31       1.0  0.70097  0.31750  0.29510  1.0000
  C   C32       1.0  0.33797  0.62940  0.17383  1.0000
  C   C33       1.0  0.69979  0.38208  0.28526  1.0000
  H   H7        1.0  0.32588  0.59620  0.16645  1.0000
  H   H8        1.0  0.71886  0.30170  0.29439  1.0000
  H   H9        1.0  0.43117  0.71805  0.17305  1.0000
  H   H10       1.0  0.71811  0.41687  0.26704  1.0000
  H   H11       1.0  0.30784  0.70237  0.18887  1.0000
  H   H12       1.0  0.59902  0.29606  0.32274  1.0000
  H   H13       1.0  0.05899  0.59004  0.37806  1.0000
  H   H14       1.0  0.43142  0.42807  0.23339  1.0000
  H   H15       1.0  0.53268  0.93862  0.32071  1.0000
  C   C34       1.0  0.46620  0.91447  0.26027  1.0000
  H   H16       1.0  0.91593  0.41560  0.24833  1.0000
  H   H17       1.0  0.97212  0.41286  0.11869  1.0000
  H   H18       1.0  0.43294  0.51900  0.22776  1.0000
  C   C35       1.0  0.09999  0.54994  0.27588  1.0000
  H   H19       1.0  0.60874  0.50295  0.24994  1.0000
  H   H20       1.0  0.60328  0.59060  0.29432  1.0000
  H   H21       1.0  0.48039  0.89912  0.30287  1.0000
  C   C36       1.0  0.46594  0.54252  0.22640  1.0000
  H   H22       1.0  0.51597  0.10456  0.28179  1.0000
  H   H23       1.0  0.46967  0.06840  0.22981  1.0000
  H   H24       1.0  0.11128  0.58324  0.28776  1.0000
  N   N7        1.0  0.87018  0.45890  0.76047  1.0000
  N   N8        1.0  0.09603  0.53524  0.75044  1.0000
  N   N9        1.0  0.51633  0.41756  0.81133  1.0000
  N   N10       1.0  0.44421  0.56816  0.74382  1.0000
  N   N11       1.0  0.55690  0.10385  0.81412  1.0000
  N   N12       1.0  0.42189  0.88243  0.72224  1.0000
  C   C37       1.0  0.89614  0.44451  0.75113  1.0000
  C   C38       1.0  0.53560  0.45904  0.76269  1.0000
  C   C39       1.0  0.52652  0.08228  0.75960  1.0000
  C   C40       1.0  0.94016  0.47135  0.75446  1.0000
  C   C41       1.0  0.02486  0.52269  0.76993  1.0000
  C   C42       1.0  0.50725  0.47597  0.77133  1.0000
  C   C43       1.0  0.45513  0.50975  0.76109  1.0000
  C   C44       1.0  0.50820  0.03719  0.76058  1.0000
  C   C45       1.0  0.47443  0.94979  0.75525  1.0000
  C   C46       1.0  0.96936  0.45572  0.73347  1.0000
  C   C47       1.0  0.01074  0.48104  0.74055  1.0000
  C   C48       1.0  0.52407  0.52019  0.76550  1.0000
  C   C49       1.0  0.49825  0.53636  0.76026  1.0000
  C   C50       1.0  0.46670  0.01126  0.74802  1.0000
  C   C51       1.0  0.45038  0.96834  0.74595  1.0000
  O   O7        1.0  0.95473  0.41446  0.70805  1.0000
  H   H25       1.0  0.03422  0.46993  0.71992  1.0000
  O   O8        1.0  0.56709  0.54854  0.75791  1.0000
  H   H26       1.0  0.51067  0.57008  0.75850  1.0000
  O   O9        1.0  0.44049  0.02649  0.74024  1.0000
  H   H27       1.0  0.41855  0.94829  0.73668  1.0000
  C   C52       1.0  0.99535  0.53802  0.79306  1.0000
  C   C53       1.0  0.95388  0.51260  0.78620  1.0000
  C   C54       1.0  0.43793  0.46532  0.77080  1.0000
  C   C55       1.0  0.46364  0.44902  0.77770  1.0000
  C   C56       1.0  0.51573  0.97558  0.76945  1.0000
  C   C57       1.0  0.53166  0.01828  0.77423  1.0000
  O   O10       1.0  0.00966  0.57896  0.82080  1.0000
  H   H28       1.0  0.93072  0.52394  0.80461  1.0000
  O   O11       1.0  0.39623  0.43633  0.77329  1.0000
  H   H29       1.0  0.45125  0.41534  0.77952  1.0000
  O   O12       1.0  0.53910  0.95690  0.77624  1.0000
  H   H30       1.0  0.56311  0.03862  0.78623  1.0000
  C   C58       1.0  0.34669  0.64093  0.68214  1.0000
  C   C59       1.0  0.62672  0.28175  0.81217  1.0000
  C   C60       1.0  0.34490  0.70637  0.67706  1.0000
  C   C61       1.0  0.68958  0.35204  0.80122  1.0000
  C   C62       1.0  0.28072  0.63831  0.67816  1.0000
  C   C63       1.0  0.62247  0.34557  0.78958  1.0000
  C   C64       1.0  0.36653  0.68475  0.68048  1.0000
  C   C65       1.0  0.60407  0.30140  0.79858  1.0000
  C   C66       1.0  0.30207  0.68245  0.67464  1.0000
  C   C67       1.0  0.66859  0.30734  0.81961  1.0000
  C   C68       1.0  0.30398  0.61813  0.67988  1.0000
  C   C69       1.0  0.66599  0.37042  0.78628  1.0000
  H   H31       1.0  0.28892  0.58434  0.67779  1.0000
  H   H32       1.0  0.68478  0.29228  0.84418  1.0000
  H   H33       1.0  0.39858  0.70136  0.68981  1.0000
  H   H34       1.0  0.68272  0.40514  0.76740  1.0000
  H   H35       1.0  0.28324  0.69768  0.68071  1.0000
  H   H36       1.0  0.57167  0.28191  0.79302  1.0000
  H   H37       1.0  0.98528  0.58439  0.83992  1.0000
  H   H38       1.0  0.38362  0.45197  0.75173  1.0000
  H   H39       1.0  0.56313  0.97680  0.80602  1.0000
  C   C70       1.0  0.45757  0.90506  0.74897  1.0000
  H   H40       1.0  0.88630  0.41144  0.74372  1.0000
  H   H41       1.0  0.98307  0.41242  0.64728  1.0000
  H   H42       1.0  0.39792  0.50688  0.73746  1.0000
  C   C71       1.0  0.06836  0.54892  0.77719  1.0000
  H   H43       1.0  0.57440  0.48334  0.70628  1.0000
  H   H44       1.0  0.56460  0.53685  0.87399  1.0000
  H   H45       1.0  0.47693  0.89252  0.76628  1.0000
  C   C72       1.0  0.42981  0.52805  0.74868  1.0000
  H   H46       1.0  0.51474  0.09851  0.70486  1.0000
  H   H47       1.0  0.45247  0.05508  0.76317  1.0000
  H   H48       1.0  0.07596  0.58027  0.80790  1.0000
  C   C73       1.0  0.21010  0.62037  0.14838  1.0000
  C   C74       1.0  0.17857  0.57498  0.21276  1.0000
  C  Sn1       1.0  0.18841  0.54976  0.28736  1.0000
  C  Sn2       1.0  0.23061  0.57047  0.29757  1.0000
  C   C75       1.0  0.26190  0.61590  0.23293  1.0000
  C   C76       1.0  0.25172  0.64081  0.15848  1.0000
  H   H49       1.0  0.20220  0.63965  0.09088  1.0000
  O  Te1       1.0  0.15654  0.50445  0.35098  1.0000
  O  Te2       1.0  0.24131  0.54605  0.37156  1.0000
  H   H50       1.0  0.27611  0.67596  0.10876  1.0000
  Mg  Mg1       1.0  0.18679  0.48527  0.44012  1.0000
  C   C77       1.0  0.81620  0.37724  0.17917  1.0000
  C   C78       1.0  0.77710  0.38251  0.26361  1.0000
  C  Sn3       1.0  0.78100  0.41825  0.33744  1.0000
  C  Sn4       1.0  0.82492  0.44924  0.32627  1.0000
  C   C79       1.0  0.86383  0.44369  0.24138  1.0000
  C   C80       1.0  0.85953  0.40780  0.16802  1.0000
  H   H51       1.0  0.81288  0.34949  0.12230  1.0000
  O  Te3       1.0  0.74158  0.42301  0.42140  1.0000
  O  Te4       1.0  0.82981  0.48527  0.39885  1.0000
  H   H52       1.0  0.88982  0.40375  0.10253  1.0000
  Mg  Mg2       1.0  0.76589  0.47752  0.49993  1.0000
  C   C81       1.0  0.47130  0.66230  0.05489  1.0000
  C   C82       1.0  0.42145  0.64255  0.13114  1.0000
  C  Sn5       1.0  0.38723  0.59948  0.25161  1.0000
  C  Sn6       1.0  0.40332  0.57583  0.29636  1.0000
  C   C83       1.0  0.45327  0.59589  0.21948  1.0000
  C   C84       1.0  0.48720  0.63900  0.09903  1.0000
  H   H53       1.0  0.36337  0.63451  0.96179  1.0000
  O  Te5       1.0  0.33757  0.58024  0.32649  1.0000
  O  Te6       1.0  0.36990  0.53275  0.41645  1.0000
  H   H54       1.0  0.52578  0.65429  0.04012  1.0000
  Mg  Mg3       1.0  0.30610  0.52075  0.48323  1.0000
  C   C85       1.0  0.64602  0.43270  0.31681  1.0000
  C   C86       1.0  0.63423  0.39065  0.30720  1.0000
  C  Sn7       1.0  0.59727  0.36358  0.27402  1.0000
  C  Sn8       1.0  0.57170  0.37899  0.25003  1.0000
  C   C87       1.0  0.58379  0.42112  0.25976  1.0000
  C   C88       1.0  0.62083  0.44793  0.29308  1.0000
  H   H55       1.0  0.67469  0.45345  0.34248  1.0000
  O  Te7       1.0  0.58594  0.32165  0.26492  1.0000
  O  Te8       1.0  0.53461  0.35262  0.21664  1.0000
  H   H56       1.0  0.62997  0.48050  0.30039  1.0000
  Mg  Mg4       1.0  0.53251  0.29797  0.21646  1.0000
  C   C89       1.0  0.44526  0.80244  0.15227  1.0000
  C   C90       1.0  0.39994  0.76870  0.18866  1.0000
  C  Sn9       1.0  0.36480  0.77681  0.22096  1.0000
  C  Sn10      1.0  0.37533  0.81952  0.21659  1.0000
  C   C91       1.0  0.42079  0.85306  0.17992  1.0000
  C   C92       1.0  0.45568  0.84458  0.14787  1.0000
  H   H57       1.0  0.47227  0.79589  0.12736  1.0000
  O  Te9       1.0  0.31970  0.74272  0.25718  1.0000
  O  Te10      1.0  0.34088  0.82853  0.24831  1.0000
  H   H58       1.0  0.49078  0.87071  0.11957  1.0000
  Mg  Mg5       1.0  0.28467  0.77124  0.29175  1.0000
  C   C93       1.0  0.64075  0.18918  0.32598  1.0000
  C   C94       1.0  0.60200  0.16308  0.30122  1.0000
  C  Sn11      1.0  0.57999  0.18053  0.26559  1.0000
  C  Sn12      1.0  0.59719  0.22497  0.25458  1.0000
  C   C95       1.0  0.63600  0.25082  0.27942  1.0000
  C   C96       1.0  0.65774  0.23302  0.31506  1.0000
  H   H59       1.0  0.65759  0.17542  0.35345  1.0000
  O  Te11      1.0  0.54130  0.15399  0.24128  1.0000
  O  Te12      1.0  0.57587  0.24325  0.21907  1.0000
  H   H60       1.0  0.68776  0.25325  0.33410  1.0000
  Mg  Mg6       1.0  0.52417  0.19388  0.19591  1.0000
  C   C97       1.0  0.19043  0.55647  0.80021  1.0000
  C   C98       1.0  0.22651  0.60105  0.71264  1.0000
  C  Sn13      1.0  0.21859  0.62798  0.63691  1.0000
  C  Sn14      1.0  0.17368  0.60986  0.64935  1.0000
  C   C99       1.0  0.13780  0.56522  0.73737  1.0000
  C   C100      1.0  0.14611  0.53857  0.81261  1.0000
  H   H61       1.0  0.19684  0.53585  0.85854  1.0000
  O  Te13      1.0  0.25504  0.67245  0.54983  1.0000
  O  Te14      1.0  0.16480  0.63603  0.57493  1.0000
  H   H62       1.0  0.11815  0.50406  0.88053  1.0000
  Mg  Mg7       1.0  0.22573  0.69474  0.46972  1.0000
  C   C101      1.0  0.78174  0.36865  0.70893  1.0000
  C   C102      1.0  0.74332  0.37460  0.78184  1.0000
  C  Sn15      1.0  0.74798  0.41188  0.84154  1.0000
  C  Sn16      1.0  0.79197  0.44374  0.82777  1.0000
  C   C103      1.0  0.83021  0.43749  0.75450  1.0000
  C   C104      1.0  0.82515  0.40006  0.69523  1.0000
  H   H63       1.0  0.77785  0.33970  0.66297  1.0000
  O  Te15      1.0  0.70922  0.41731  0.91410  1.0000
  O  Te16      1.0  0.79760  0.48131  0.88634  1.0000
  H   H64       1.0  0.85492  0.39547  0.63866  1.0000
  Mg  Mg8       1.0  0.73442  0.47396  0.97546  1.0000
  C   C105      1.0  0.35462  0.55812  0.84796  1.0000
  C   C106      1.0  0.40477  0.57535  0.75003  1.0000
  C  Sn17      1.0  0.43955  0.61779  0.62274  1.0000
  C  Sn18      1.0  0.42372  0.64338  0.59330  1.0000
  C   C107      1.0  0.37346  0.62585  0.69208  1.0000
  C   C108      1.0  0.33898  0.58334  0.81907  1.0000
  H   H65       1.0  0.32794  0.52524  0.94630  1.0000
  O  Te17      1.0  0.48951  0.63449  0.52601  1.0000
  O  Te18      1.0  0.45769  0.68590  0.46696  1.0000
  H   H66       1.0  0.30015  0.57002  0.89497  1.0000
  Mg  Mg9       1.0  0.52173  0.69415  0.36853  1.0000
  C   C109      1.0  0.53321  0.35176  0.76179  1.0000
  C   C110      1.0  0.53781  0.39000  0.80911  1.0000
  C  Sn19      1.0  0.57529  0.41841  0.83734  1.0000
  C  Sn20      1.0  0.60874  0.40828  0.81767  1.0000
  C   C111      1.0  0.60384  0.36995  0.77016  1.0000
  C   C112      1.0  0.56619  0.34174  0.74229  1.0000
  H   H67       1.0  0.50410  0.32994  0.74012  1.0000
  O  Te19      1.0  0.57935  0.45647  0.88462  1.0000
  O  Te20      1.0  0.64654  0.43611  0.84501  1.0000
  H   H68       1.0  0.56266  0.31215  0.70553  1.0000
  Mg  Mg10      1.0  0.63695  0.48407  0.90765  1.0000
  C   C113      1.0  0.34670  0.78581  0.67139  1.0000
  C   C114      1.0  0.36111  0.75771  0.67598  1.0000
  C  Sn21      1.0  0.39776  0.77005  0.71311  1.0000
  C  Sn22      1.0  0.42032  0.81130  0.74624  1.0000
  C   C115      1.0  0.40562  0.83916  0.74148  1.0000
  C   C116      1.0  0.36892  0.82650  0.70413  1.0000
  H   H69       1.0  0.31829  0.77601  0.64260  1.0000
  O  Te21      1.0  0.41172  0.74158  0.71710  1.0000
  O  Te22      1.0  0.45703  0.82444  0.78376  1.0000
  H   H70       1.0  0.35775  0.84825  0.70071  1.0000
  Mg  Mg11      1.0  0.46344  0.77423  0.77418  1.0000
  C   C117      1.0  0.55000  0.19567  0.86011  1.0000
  C   C118      1.0  0.59378  0.22772  0.84148  1.0000
  C  Sn23      1.0  0.62900  0.21913  0.80215  1.0000
  C  Sn24      1.0  0.62013  0.17767  0.78110  1.0000
  C   C119      1.0  0.57623  0.14584  0.79986  1.0000
  C   C120      1.0  0.54123  0.15477  0.83929  1.0000
  H   H71       1.0  0.52293  0.20259  0.89051  1.0000
  O  Te23      1.0  0.67253  0.25151  0.78406  1.0000
  O  Te24      1.0  0.65471  0.16822  0.74170  1.0000
  H   H72       1.0  0.50735  0.12996  0.85358  1.0000
  Mg  Mg12      1.0  0.70841  0.22301  0.72996  1.0000
