data_image0
_chemical_formula_structural       C16N6H2C8H4N2C8H4C4OH3OH4OH3OH4C16N6H2C8H4N2C8H4C4OH3OH4OH3OH4SnCSn2CSnTe4Mg2SnCSn2CSnTe4Mg2SnCSn2CSnTe4Mg2SnCSn2CSnTe4Mg2SnCSn2CSnTe4Mg2SnCSn2CSnTe4Mg2SnCSn2CSnTe4Mg2SnCSn2CSnTe4Mg2
_chemical_formula_sum              "C88 N16 H48 O8 Sn32 Te32 Mg16"
_cell_length_a       25.6105
_cell_length_b       25.6669
_cell_length_c       9.29725
_cell_angle_alpha    75.1496
_cell_angle_beta     120.184
_cell_angle_gamma    102.487

_symmetry_space_group_name_H-M    'P1'
_space_group_IT_number       1

loop_
  _space_group_symop_operation_xyz
  'x, y, z'

loop_
  _atom_site_type_symbol
  _atom_site_label
  _atom_site_symmetry_multiplicity
  _atom_site_fract_x
  _atom_site_fract_y
  _atom_site_fract_z
  _atom_site_occupancy
  C   C1        1.0  0.45313  0.47433  0.25227  1.0000
  C   C2        1.0  0.99463  0.95562  0.35018  1.0000
  C   C3        1.0  0.55780  0.54086  0.26892  1.0000
  C   C4        1.0  0.01223  0.04640  0.12931  1.0000
  C   C5        1.0  0.55224  0.48594  0.26817  1.0000
  C   C6        1.0  0.96505  0.04355  0.16539  1.0000
  C   C7        1.0  0.45895  0.52920  0.25523  1.0000
  C   C8        1.0  0.04118  0.95809  0.31150  1.0000
  C   C9        1.0  0.51636  0.62110  0.26376  1.0000
  C   C10       1.0  0.10135  0.01151  0.16806  1.0000
  C   C11       1.0  0.49589  0.39400  0.25925  1.0000
  C   C12       1.0  0.90794  0.99307  0.32019  1.0000
  C   C13       1.0  0.50026  0.45153  0.25992  1.0000
  C   C14       1.0  0.95635  0.99741  0.27987  1.0000
  C   C15       1.0  0.51088  0.56365  0.26322  1.0000
  C   C16       1.0  0.05076  0.00486  0.20058  1.0000
  N   N1        1.0  0.54143  0.37308  0.28075  1.0000
  N   N2        1.0  0.87096  0.03083  0.24895  1.0000
  N   N3        1.0  0.47357  0.64259  0.25771  1.0000
  N   N4        1.0  0.13932  0.97480  0.23810  1.0000
  N   N5        1.0  0.56427  0.95495  0.27185  1.0000
  N   N6        1.0  0.44904  0.06515  0.21333  1.0000
  H   H1        1.0  0.57011  0.96128  0.38347  1.0000
  H   H2        1.0  0.44205  0.05802  0.10055  1.0000
  C   C17       1.0  0.60901  0.97576  0.22019  1.0000
  C   C18       1.0  0.46990  0.11912  0.24245  1.0000
  C   C19       1.0  0.39982  0.04731  0.24904  1.0000
  C   C20       1.0  0.53780  0.90426  0.22083  1.0000
  C   C21       1.0  0.60795  0.93948  0.13015  1.0000
  C   C22       1.0  0.43572  0.13312  0.30351  1.0000
  C   C23       1.0  0.39282  0.08901  0.30797  1.0000
  C   C24       1.0  0.56400  0.89544  0.13021  1.0000
  H   H3        1.0  0.63501  0.94597  0.06644  1.0000
  H   H4        1.0  0.44437  0.17069  0.34797  1.0000
  H   H5        1.0  0.36153  0.08571  0.35678  1.0000
  H   H6        1.0  0.55094  0.86107  0.06733  1.0000
  N   N7        1.0  0.57213  0.07950  0.22620  1.0000
  N   N8        1.0  0.44054  0.94200  0.25219  1.0000
  C   C25       1.0  0.62782  0.07455  0.24028  1.0000
  C   C26       1.0  0.56827  0.13232  0.23220  1.0000
  C   C27       1.0  0.38728  0.94685  0.25329  1.0000
  C   C28       1.0  0.44620  0.88784  0.26460  1.0000
  C   C29       1.0  0.66092  0.12782  0.25768  1.0000
  C   C30       1.0  0.62511  0.16220  0.24941  1.0000
  C   C31       1.0  0.36041  0.89196  0.27716  1.0000
  C   C32       1.0  0.39649  0.85695  0.29059  1.0000
  H   H7        1.0  0.70710  0.13760  0.27782  1.0000
  H   H8        1.0  0.63644  0.20492  0.25664  1.0000
  H   H9        1.0  0.31881  0.88099  0.28591  1.0000
  H   H10       1.0  0.39007  0.81319  0.31849  1.0000
  C   C33       1.0  0.64657  0.02745  0.24190  1.0000
  C   C34       1.0  0.52165  0.15141  0.23259  1.0000
  C   C35       1.0  0.36669  0.99424  0.24287  1.0000
  C   C36       1.0  0.48971  0.86912  0.24829  1.0000
  O   O1        1.0  0.40209  0.44008  0.24216  1.0000
  H   H11       1.0  0.58777  0.46761  0.27277  1.0000
  H   H12       1.0  0.55728  0.64521  0.26389  1.0000
  H   H13       1.0  0.98853  0.92085  0.43829  1.0000
  O   O2        1.0  0.92875  0.08387  0.09271  1.0000
  H   H14       1.0  0.10757  0.04954  0.08867  1.0000
  H   H15       1.0  0.53942  0.04834  0.21639  1.0000
  H   H16       1.0  0.37588  0.46029  0.25018  1.0000
  H   H17       1.0  0.89764  0.07205  0.13770  1.0000
  O   O3        1.0  0.60845  0.57521  0.27681  1.0000
  H   H18       1.0  0.42336  0.54734  0.25093  1.0000
  H   H19       1.0  0.45295  0.36955  0.24167  1.0000
  H   H20       1.0  0.01871  0.08145  0.04266  1.0000
  O   O4        1.0  0.07674  0.91713  0.38071  1.0000
  H   H21       1.0  0.90314  0.95697  0.40798  1.0000
  H   H22       1.0  0.46404  0.97311  0.21006  1.0000
  H   H23       1.0  0.63410  0.55512  0.26612  1.0000
  H   H24       1.0  0.10923  0.92969  0.34220  1.0000
  C   C37       1.0  0.45528  0.45394  0.79822  1.0000
  C   C38       1.0  0.97195  0.94133  0.81218  1.0000
  C   C39       1.0  0.53577  0.52624  0.70066  1.0000
  C   C40       1.0  0.01915  0.04100  0.69026  1.0000
  C   C41       1.0  0.52981  0.47124  0.69904  1.0000
  C   C42       1.0  0.96837  0.03939  0.71028  1.0000
  C   C43       1.0  0.46064  0.50897  0.79809  1.0000
  C   C44       1.0  0.02323  0.94303  0.79435  1.0000
  C   C45       1.0  0.50270  0.60426  0.73798  1.0000
  C   C46       1.0  0.10130  0.99776  0.71586  1.0000
  C   C47       1.0  0.48478  0.37656  0.74588  1.0000
  C   C48       1.0  0.89067  0.98468  0.79085  1.0000
  C   C49       1.0  0.48957  0.43421  0.74620  1.0000
  C   C50       1.0  0.94405  0.98846  0.77192  1.0000
  C   C51       1.0  0.49995  0.54629  0.74720  1.0000
  C   C52       1.0  0.04737  0.99391  0.73190  1.0000
  N   N9        1.0  0.52505  0.35663  0.73686  1.0000
  N   N10       1.0  0.86320  0.02731  0.75233  1.0000
  N   N11       1.0  0.46784  0.62335  0.77152  1.0000
  N   N12       1.0  0.13013  0.95541  0.76061  1.0000
  N   N13       1.0  0.54649  0.93937  0.72346  1.0000
  N   N14       1.0  0.43924  0.04200  0.74886  1.0000
  H   H25       1.0  0.52520  0.96311  0.74528  1.0000
  H   H26       1.0  0.45597  0.01883  0.71132  1.0000
  C   C53       1.0  0.60083  0.95679  0.71716  1.0000
  C   C54       1.0  0.45575  0.09712  0.75324  1.0000
  C   C55       1.0  0.39238  0.02310  0.78975  1.0000
  C   C56       1.0  0.53344  0.88343  0.73271  1.0000
  C   C57       1.0  0.62073  0.91061  0.71238  1.0000
  C   C58       1.0  0.41879  0.11322  0.80226  1.0000
  C   C59       1.0  0.38013  0.06764  0.82584  1.0000
  C   C60       1.0  0.58034  0.86557  0.72625  1.0000
  H   H27       1.0  0.66105  0.91051  0.70263  1.0000
  H   H28       1.0  0.42198  0.15356  0.82342  1.0000
  H   H29       1.0  0.34546  0.06640  0.86108  1.0000
  H   H30       1.0  0.58429  0.82400  0.73151  1.0000
  N   N15       1.0  0.55106  0.05854  0.70180  1.0000
  N   N16       1.0  0.43723  0.92174  0.78585  1.0000
  C   C61       1.0  0.60996  0.05615  0.72097  1.0000
  C   C62       1.0  0.54919  0.11270  0.71534  1.0000
  C   C63       1.0  0.38016  0.92404  0.77695  1.0000
  C   C64       1.0  0.43647  0.86968  0.75448  1.0000
  C   C65       1.0  0.64247  0.10910  0.74384  1.0000
  C   C66       1.0  0.60602  0.14290  0.73437  1.0000
  C   C67       1.0  0.34463  0.87325  0.73572  1.0000
  C   C68       1.0  0.37770  0.84137  0.72163  1.0000
  H   H31       1.0  0.68939  0.11897  0.77035  1.0000
  H   H32       1.0  0.61823  0.18497  0.74907  1.0000
  H   H33       1.0  0.29749  0.86437  0.70779  1.0000
  H   H34       1.0  0.36203  0.80226  0.68179  1.0000
  C   C69       1.0  0.63240  0.01078  0.72711  1.0000
  C   C70       1.0  0.50487  0.13041  0.72889  1.0000
  C   C71       1.0  0.36015  0.96918  0.78310  1.0000
  C   C72       1.0  0.48113  0.85113  0.74255  1.0000
  O   O5        1.0  0.41732  0.41667  0.84899  1.0000
  H   H35       1.0  0.55639  0.45534  0.66130  1.0000
  H   H36       1.0  0.53560  0.63044  0.70149  1.0000
  H   H37       1.0  0.95387  0.90261  0.86037  1.0000
  O   O6        1.0  0.94341  0.08567  0.67170  1.0000
  H   H38       1.0  0.11809  0.03818  0.67033  1.0000
  H   H39       1.0  0.51589  0.04729  0.59217  1.0000
  H   H40       1.0  0.40123  0.43527  0.89495  1.0000
  H   H41       1.0  0.90687  0.07441  0.69373  1.0000
  O   O7        1.0  0.57610  0.56272  0.65865  1.0000
  H   H42       1.0  0.43450  0.52498  0.83705  1.0000
  H   H43       1.0  0.44657  0.35080  0.75819  1.0000
  H   H44       1.0  0.03686  0.07967  0.64058  1.0000
  O   O8        1.0  0.04892  0.89698  0.83540  1.0000
  H   H45       1.0  0.87315  0.94414  0.83348  1.0000
  H   H46       1.0  0.47499  0.93205  0.89317  1.0000
  H   H47       1.0  0.58904  0.54534  0.60183  1.0000
  H   H48       1.0  0.08638  0.90871  0.81736  1.0000
  C  Sn1       1.0  0.77818  0.97400  0.32438  1.0000
  C   C73       1.0  0.58975  0.01308  0.24284  1.0000
  C  Sn2       1.0  0.56986  0.06461  0.17105  1.0000
  C  Sn3       1.0  0.52071  0.07735  0.18105  1.0000
  C   C74       1.0  0.49248  0.03829  0.26258  1.0000
  C  Sn4       1.0  0.51234  0.98674  0.33439  1.0000
  O  Te1       1.0  0.79883  0.92275  0.39526  1.0000
  O  Te2       1.0  0.59882  0.10300  0.09013  1.0000
  O  Te3       1.0  0.50007  0.12865  0.11008  1.0000
  O  Te4       1.0  0.70011  0.94837  0.41529  1.0000
  Mg  Mg1       1.0  0.55421  0.16719  0.01321  1.0000
  Mg  Mg2       1.0  0.74470  0.88418  0.49232  1.0000
  C  Sn5       1.0  0.48686  0.25861  0.08492  1.0000
  C   C75       1.0  0.52756  0.22054  0.19688  1.0000
  C  Sn6       1.0  0.57142  0.23023  0.35831  1.0000
  C  Sn7       1.0  0.57464  0.27897  0.40895  1.0000
  C   C76       1.0  0.53395  0.31700  0.29704  1.0000
  C  Sn8       1.0  0.49008  0.30735  0.13556  1.0000
  O  Te5       1.0  0.61375  0.19200  0.92416  1.0000
  O  Te6       1.0  0.61163  0.19157  0.46800  1.0000
  O  Te7       1.0  0.61817  0.28947  0.56986  1.0000
  O  Te8       1.0  0.44988  0.34597  0.02592  1.0000
  Mg  Mg3       1.0  0.66283  0.22441  0.67390  1.0000
  Mg  Mg4       1.0  0.56902  0.25708  0.82003  1.0000
  C  Sn9       1.0  0.25652  0.03768  0.13595  1.0000
  C   C77       1.0  0.30453  0.00623  0.24651  1.0000
  C  Sn10      1.0  0.51195  0.95740  0.34379  1.0000
  C  Sn11      1.0  0.45346  0.93962  0.33021  1.0000
  C   C78       1.0  0.40549  0.97106  0.21968  1.0000
  C  Sn12      1.0  0.19804  0.01990  0.12236  1.0000
  O  Te9       1.0  0.26683  0.08636  0.03991  1.0000
  O  Te10      1.0  0.56065  0.92666  0.45349  1.0000
  O  Te11      1.0  0.44318  0.89091  0.42637  1.0000
  O  Te12      1.0  0.14937  0.05063  0.01270  1.0000
  Mg  Mg5       1.0  0.52388  0.86328  0.55773  1.0000
  Mg  Mg6       1.0  0.35645  0.05792  0.90834  1.0000
  C  Sn13      1.0  0.54003  0.73806  0.38391  1.0000
  C   C79       1.0  0.48909  0.70183  0.30760  1.0000
  C  Sn14      1.0  0.43420  0.72105  0.17977  1.0000
  C  Sn15      1.0  0.43015  0.77766  0.12702  1.0000
  C   C80       1.0  0.48107  0.81386  0.20329  1.0000
  C  Sn16      1.0  0.53598  0.79467  0.33116  1.0000
  O  Te13      1.0  0.59444  0.71794  0.51146  1.0000
  O  Te14      1.0  0.38388  0.68404  0.10540  1.0000
  O  Te15      1.0  0.54604  0.74168  0.99936  1.0000
  O  Te16      1.0  0.58627  0.83165  0.40548  1.0000
  Mg  Mg7       1.0  0.49016  0.67516  0.93665  1.0000
  Mg  Mg8       1.0  0.65039  0.78449  0.57418  1.0000
  C  Sn17      1.0  0.54158  0.98935  0.91337  1.0000
  C   C81       1.0  0.49374  0.02069  0.79976  1.0000
  C  Sn18      1.0  0.49309  0.05253  0.65254  1.0000
  C  Sn19      1.0  0.54124  0.05304  0.61810  1.0000
  C   C82       1.0  0.58904  0.02172  0.73165  1.0000
  C  Sn20      1.0  0.58973  0.98986  0.87892  1.0000
  O  Te17      1.0  0.37092  0.01389  0.05975  1.0000
  O  Te18      1.0  0.44478  0.08353  0.54090  1.0000
  O  Te19      1.0  0.54150  0.08462  0.47157  1.0000
  O  Te20      1.0  0.63800  0.95887  0.99051  1.0000
  Mg  Mg9       1.0  0.46564  0.11988  0.35838  1.0000
  Mg  Mg10      1.0  0.66350  0.97857  0.17301  1.0000
  C  Sn21      1.0  0.46507  0.23588  0.57066  1.0000
  C   C83       1.0  0.50774  0.19931  0.68167  1.0000
  C  Sn22      1.0  0.55570  0.21258  0.83421  1.0000
  C  Sn23      1.0  0.56112  0.26345  0.87676  1.0000
  C   C84       1.0  0.51847  0.29998  0.76580  1.0000
  C  Sn24      1.0  0.47049  0.28675  0.61320  1.0000
  O  Te21      1.0  0.41749  0.22176  0.41884  1.0000
  O  Te22      1.0  0.59781  0.17537  0.94312  1.0000
  O  Te23      1.0  0.43839  0.33363  0.02872  1.0000
  O  Te24      1.0  0.42840  0.32393  0.50435  1.0000
  Mg  Mg11      1.0  0.48428  0.26932  0.13533  1.0000
  Mg  Mg12      1.0  0.37152  0.28609  0.31216  1.0000
  C  Sn25      1.0  0.20581  0.99486  0.60642  1.0000
  C   C85       1.0  0.39804  0.95747  0.70127  1.0000
  C  Sn26      1.0  0.43542  0.92461  0.84929  1.0000
  C  Sn27      1.0  0.49859  0.92923  0.90371  1.0000
  C   C86       1.0  0.30633  0.96662  0.80891  1.0000
  C  Sn28      1.0  0.26897  0.99949  0.66085  1.0000
  O  Te25      1.0  0.16758  0.02731  0.45887  1.0000
  O  Te26      1.0  0.40991  0.88751  0.94196  1.0000
  O  Te27      1.0  0.36644  0.95283  0.05140  1.0000
  O  Te28      1.0  0.29445  0.03658  0.56822  1.0000
  Mg  Mg13      1.0  0.31030  0.90839  0.13435  1.0000
  Mg  Mg14      1.0  0.22374  0.07182  0.37586  1.0000
  C  Sn29      1.0  0.43831  0.70942  0.83474  1.0000
  C   C87       1.0  0.44723  0.68425  0.73323  1.0000
  C  Sn30      1.0  0.47659  0.71349  0.64034  1.0000
  C  Sn31      1.0  0.49751  0.76903  0.64916  1.0000
  C   C88       1.0  0.48861  0.79417  0.75063  1.0000
  C  Sn32      1.0  0.45924  0.76497  0.84355  1.0000
  O  Te29      1.0  0.40884  0.67941  0.92653  1.0000
  O  Te30      1.0  0.48496  0.68744  0.53970  1.0000
  O  Te31      1.0  0.52700  0.79903  0.55725  1.0000
  O  Te32      1.0  0.45087  0.79097  0.94416  1.0000
  Mg  Mg15      1.0  0.52768  0.74553  0.43831  1.0000
  Mg  Mg16      1.0  0.23782  0.78901  0.04567  1.0000
