data_image0
_chemical_formula_structural       N6C15OHOHOHC6OHOHOHC12H9CH3CH3CH3N6C15OHOHOHC6OHOHOHC12H9CH3CH3CH3SnCSn2CSnTe4Mg2SnCSn2CSnTe4Mg2SnCSn2CSnTe4Mg2SnCSn2CSnTe4Mg2SnCSn2CSnTe4Mg2SnCSn2CSnTe4Mg2SnCSn2CSnTe4Mg2SnCSn2CSnTe4Mg2SnCSn2CSnTe4Mg2SnCSn2CSnTe4Mg2SnCSn2CSnTe4Mg2SnCSn2CSnTe4Mg2
_chemical_formula_sum              "N12 C96 O12 H48 Sn48 Te48 Mg24"
_cell_length_a       37.532
_cell_length_b       36.9309
_cell_length_c       7.97742
_cell_angle_alpha    91.8383
_cell_angle_beta     60.6625
_cell_angle_gamma    119.95

_symmetry_space_group_name_H-M    'P1'
_space_group_IT_number       1

loop_
  _space_group_symop_operation_xyz
  'x, y, z'

loop_
  _atom_site_type_symbol
  _atom_site_label
  _atom_site_symmetry_multiplicity
  _atom_site_fract_x
  _atom_site_fract_y
  _atom_site_fract_z
  _atom_site_occupancy
  N   N1        1.0  0.90459  0.46513  0.24059  1.0000
  N   N2        1.0  0.12592  0.53534  0.26433  1.0000
  N   N3        1.0  0.55849  0.43798  0.27984  1.0000
  N   N4        1.0  0.48290  0.58366  0.19968  1.0000
  N   N5        1.0  0.57760  0.11639  0.27142  1.0000
  N   N6        1.0  0.43473  0.89242  0.21171  1.0000
  C   C1        1.0  0.92956  0.45021  0.23775  1.0000
  C   C2        1.0  0.57425  0.47875  0.26313  1.0000
  C   C3        1.0  0.53845  0.09235  0.26817  1.0000
  C   C4        1.0  0.97435  0.47661  0.23523  1.0000
  C   C5        1.0  0.05660  0.52480  0.26785  1.0000
  C   C6        1.0  0.54627  0.49471  0.25785  1.0000
  C   C7        1.0  0.49178  0.52566  0.24626  1.0000
  C   C8        1.0  0.52104  0.04795  0.25647  1.0000
  C   C9        1.0  0.48458  0.95960  0.26098  1.0000
  C   C10       1.0  0.00358  0.46056  0.20930  1.0000
  C   C11       1.0  0.04327  0.48412  0.22818  1.0000
  C   C12       1.0  0.56071  0.53827  0.25786  1.0000
  C   C13       1.0  0.53395  0.55314  0.25033  1.0000
  C   C14       1.0  0.47808  0.02190  0.25326  1.0000
  C   C15       1.0  0.46093  0.97877  0.25298  1.0000
  O   O1        1.0  0.99451  0.42176  0.16297  1.0000
  H   H1        1.0  0.06577  0.47192  0.20739  1.0000
  O   O2        1.0  0.60179  0.56432  0.26418  1.0000
  H   H2        1.0  0.54482  0.58665  0.24660  1.0000
  O   O3        1.0  0.45147  0.03706  0.25021  1.0000
  H   H3        1.0  0.42846  0.95907  0.24741  1.0000
  C   C16       1.0  0.02821  0.54146  0.28810  1.0000
  C   C17       1.0  0.98816  0.51766  0.27085  1.0000
  C   C18       1.0  0.47624  0.48165  0.25395  1.0000
  C   C19       1.0  0.50368  0.46702  0.25670  1.0000
  C   C20       1.0  0.52737  0.98562  0.26587  1.0000
  C   C21       1.0  0.54537  0.02905  0.25960  1.0000
  O   O4        1.0  0.03782  0.58083  0.32745  1.0000
  H   H4        1.0  0.96546  0.52977  0.29384  1.0000
  O   O5        1.0  0.43381  0.45492  0.25808  1.0000
  H   H5        1.0  0.49310  0.43361  0.25871  1.0000
  O   O6        1.0  0.55375  0.97023  0.27104  1.0000
  H   H6        1.0  0.57783  0.04887  0.26489  1.0000
  C   C22       1.0  0.38173  0.65542  0.16699  1.0000
  C   C23       1.0  0.65670  0.29331  0.30394  1.0000
  C   C24       1.0  0.37248  0.71684  0.17615  1.0000
  C   C25       1.0  0.72292  0.36187  0.28711  1.0000
  C   C26       1.0  0.31082  0.64592  0.18260  1.0000
  C   C27       1.0  0.65528  0.35905  0.29595  1.0000
  C   C28       1.0  0.39851  0.69888  0.16863  1.0000
  C   C29       1.0  0.63415  0.31463  0.30822  1.0000
  C   C30       1.0  0.32900  0.68968  0.18139  1.0000
  C   C31       1.0  0.70097  0.31750  0.29510  1.0000
  C   C32       1.0  0.33797  0.62940  0.17383  1.0000
  C   C33       1.0  0.69979  0.38208  0.28526  1.0000
  H   H7        1.0  0.32588  0.59620  0.16645  1.0000
  H   H8        1.0  0.71886  0.30170  0.29439  1.0000
  H   H9        1.0  0.43117  0.71805  0.17305  1.0000
  H   H10       1.0  0.71811  0.41687  0.26704  1.0000
  H   H11       1.0  0.30784  0.70237  0.18887  1.0000
  H   H12       1.0  0.59902  0.29606  0.32274  1.0000
  H   H13       1.0  0.05899  0.59004  0.37806  1.0000
  H   H14       1.0  0.43142  0.42807  0.23339  1.0000
  H   H15       1.0  0.53268  0.93862  0.32071  1.0000
  C   C34       1.0  0.46620  0.91447  0.26027  1.0000
  H   H16       1.0  0.91593  0.41560  0.24833  1.0000
  H   H17       1.0  0.97212  0.41286  0.11869  1.0000
  H   H18       1.0  0.43294  0.51900  0.22776  1.0000
  C   C35       1.0  0.09999  0.54994  0.27588  1.0000
  H   H19       1.0  0.60874  0.50295  0.24994  1.0000
  H   H20       1.0  0.60328  0.59060  0.29432  1.0000
  H   H21       1.0  0.48039  0.89912  0.30287  1.0000
  C   C36       1.0  0.46594  0.54252  0.22640  1.0000
  H   H22       1.0  0.51597  0.10456  0.28179  1.0000
  H   H23       1.0  0.46967  0.06840  0.22981  1.0000
  H   H24       1.0  0.11128  0.58324  0.28776  1.0000
  N   N7        1.0  0.87018  0.45890  0.76047  1.0000
  N   N8        1.0  0.09603  0.53524  0.75044  1.0000
  N   N9        1.0  0.51633  0.41756  0.81133  1.0000
  N   N10       1.0  0.44421  0.56816  0.74382  1.0000
  N   N11       1.0  0.55690  0.10385  0.81412  1.0000
  N   N12       1.0  0.42189  0.88243  0.72224  1.0000
  C   C37       1.0  0.89614  0.44451  0.75113  1.0000
  C   C38       1.0  0.53560  0.45904  0.76269  1.0000
  C   C39       1.0  0.52652  0.08228  0.75960  1.0000
  C   C40       1.0  0.94016  0.47135  0.75446  1.0000
  C   C41       1.0  0.02486  0.52269  0.76993  1.0000
  C   C42       1.0  0.50725  0.47597  0.77133  1.0000
  C   C43       1.0  0.45513  0.50975  0.76109  1.0000
  C   C44       1.0  0.50820  0.03719  0.76058  1.0000
  C   C45       1.0  0.47443  0.94979  0.75525  1.0000
  C   C46       1.0  0.96936  0.45572  0.73347  1.0000
  C   C47       1.0  0.01074  0.48104  0.74055  1.0000
  C   C48       1.0  0.52407  0.52019  0.76550  1.0000
  C   C49       1.0  0.49825  0.53636  0.76026  1.0000
  C   C50       1.0  0.46670  0.01126  0.74802  1.0000
  C   C51       1.0  0.45038  0.96834  0.74595  1.0000
  O   O7        1.0  0.95473  0.41446  0.70805  1.0000
  H   H25       1.0  0.03422  0.46993  0.71992  1.0000
  O   O8        1.0  0.56709  0.54854  0.75791  1.0000
  H   H26       1.0  0.51067  0.57008  0.75850  1.0000
  O   O9        1.0  0.44049  0.02649  0.74024  1.0000
  H   H27       1.0  0.41855  0.94829  0.73668  1.0000
  C   C52       1.0  0.99535  0.53802  0.79306  1.0000
  C   C53       1.0  0.95388  0.51260  0.78620  1.0000
  C   C54       1.0  0.43793  0.46532  0.77080  1.0000
  C   C55       1.0  0.46364  0.44902  0.77770  1.0000
  C   C56       1.0  0.51573  0.97558  0.76945  1.0000
  C   C57       1.0  0.53166  0.01828  0.77423  1.0000
  O   O10       1.0  0.00966  0.57896  0.82080  1.0000
  H   H28       1.0  0.93072  0.52394  0.80461  1.0000
  O   O11       1.0  0.39623  0.43633  0.77329  1.0000
  H   H29       1.0  0.45125  0.41534  0.77952  1.0000
  O   O12       1.0  0.53910  0.95690  0.77624  1.0000
  H   H30       1.0  0.56311  0.03862  0.78623  1.0000
  C   C58       1.0  0.34669  0.64093  0.68214  1.0000
  C   C59       1.0  0.62672  0.28175  0.81217  1.0000
  C   C60       1.0  0.34490  0.70637  0.67706  1.0000
  C   C61       1.0  0.68958  0.35204  0.80122  1.0000
  C   C62       1.0  0.28072  0.63831  0.67816  1.0000
  C   C63       1.0  0.62247  0.34557  0.78958  1.0000
  C   C64       1.0  0.36653  0.68475  0.68048  1.0000
  C   C65       1.0  0.60407  0.30140  0.79858  1.0000
  C   C66       1.0  0.30207  0.68245  0.67464  1.0000
  C   C67       1.0  0.66859  0.30734  0.81961  1.0000
  C   C68       1.0  0.30398  0.61813  0.67988  1.0000
  C   C69       1.0  0.66599  0.37042  0.78628  1.0000
  H   H31       1.0  0.28892  0.58434  0.67779  1.0000
  H   H32       1.0  0.68478  0.29228  0.84418  1.0000
  H   H33       1.0  0.39858  0.70136  0.68981  1.0000
  H   H34       1.0  0.68272  0.40514  0.76740  1.0000
  H   H35       1.0  0.28324  0.69768  0.68071  1.0000
  H   H36       1.0  0.57167  0.28191  0.79302  1.0000
  H   H37       1.0  0.98528  0.58439  0.83992  1.0000
  H   H38       1.0  0.38362  0.45197  0.75173  1.0000
  H   H39       1.0  0.56313  0.97680  0.80602  1.0000
  C   C70       1.0  0.45757  0.90506  0.74897  1.0000
  H   H40       1.0  0.88630  0.41144  0.74372  1.0000
  H   H41       1.0  0.98307  0.41242  0.64728  1.0000
  H   H42       1.0  0.39792  0.50688  0.73746  1.0000
  C   C71       1.0  0.06836  0.54892  0.77719  1.0000
  H   H43       1.0  0.57440  0.48334  0.70628  1.0000
  H   H44       1.0  0.56460  0.53685  0.87399  1.0000
  H   H45       1.0  0.47693  0.89252  0.76628  1.0000
  C   C72       1.0  0.42981  0.52805  0.74868  1.0000
  H   H46       1.0  0.51474  0.09851  0.70486  1.0000
  H   H47       1.0  0.45247  0.05508  0.76317  1.0000
  H   H48       1.0  0.07596  0.58027  0.80790  1.0000
  C  Sn1       1.0  0.19193  0.55051  0.36236  1.0000
  C   C73       1.0  0.16936  0.56272  0.30167  1.0000
  C  Sn2       1.0  0.19635  0.60346  0.16783  1.0000
  C  Sn3       1.0  0.24696  0.63259  0.09297  1.0000
  C   C74       1.0  0.26951  0.62037  0.15363  1.0000
  C  Sn4       1.0  0.24255  0.57964  0.28751  1.0000
  O  Te1       1.0  0.16424  0.50962  0.49628  1.0000
  O  Te2       1.0  0.17298  0.61495  0.10939  1.0000
  O  Te3       1.0  0.14047  0.61236  0.95896  1.0000
  O  Te4       1.0  0.26590  0.56814  0.34591  1.0000
  Mg  Mg1       1.0  0.09213  0.61309  0.92388  1.0000
  Mg  Mg2       1.0  0.21261  0.50886  0.53132  1.0000
  C  Sn5       1.0  0.84615  0.39971  0.12695  1.0000
  C   C75       1.0  0.86342  0.43687  0.19075  1.0000
  C  Sn6       1.0  0.83142  0.44840  0.31934  1.0000
  C  Sn7       1.0  0.78111  0.42223  0.38566  1.0000
  C   C76       1.0  0.76386  0.38509  0.32190  1.0000
  C  Sn8       1.0  0.79583  0.37354  0.19327  1.0000
  O  Te5       1.0  0.74461  0.32765  0.99839  1.0000
  O  Te6       1.0  0.84955  0.48572  0.38103  1.0000
  O  Te7       1.0  0.74846  0.43318  0.51432  1.0000
  O  Te8       1.0  0.77773  0.33625  0.13162  1.0000
  Mg  Mg3       1.0  0.79067  0.48705  0.55675  1.0000
  Mg  Mg4       1.0  0.70238  0.27372  0.95600  1.0000
  C  Sn9       1.0  0.38263  0.59043  0.33746  1.0000
  C   C77       1.0  0.40370  0.63207  0.22744  1.0000
  C  Sn10      1.0  0.45366  0.65749  0.07613  1.0000
  C  Sn11      1.0  0.48317  0.64093  0.03380  1.0000
  C   C78       1.0  0.46210  0.59931  0.14376  1.0000
  C  Sn12      1.0  0.41215  0.57387  0.29513  1.0000
  O  Te9       1.0  0.33261  0.56558  0.48804  1.0000
  O  Te10      1.0  0.33971  0.63788  0.96822  1.0000
  O  Te11      1.0  0.39905  0.60466  0.88308  1.0000
  O  Te12      1.0  0.39191  0.53235  0.40298  1.0000
  Mg  Mg5       1.0  0.40963  0.65929  0.77749  1.0000
  Mg  Mg6       1.0  0.32200  0.51091  0.59366  1.0000
  C  Sn13      1.0  0.59613  0.36777  0.19342  1.0000
  C   C79       1.0  0.63434  0.38341  0.22377  1.0000
  C  Sn14      1.0  0.64571  0.41780  0.30947  1.0000
  C  Sn15      1.0  0.61831  0.43694  0.36615  1.0000
  C   C80       1.0  0.58012  0.42129  0.33584  1.0000
  C  Sn16      1.0  0.56872  0.38691  0.25010  1.0000
  O  Te13      1.0  0.58539  0.33337  0.10750  1.0000
  O  Te14      1.0  0.68409  0.43289  0.33826  1.0000
  O  Te15      1.0  0.62907  0.47137  0.45212  1.0000
  O  Te16      1.0  0.53037  0.37182  0.22134  1.0000
  Mg  Mg7       1.0  0.68469  0.48048  0.46100  1.0000
  Mg  Mg8       1.0  0.52972  0.32422  0.09871  1.0000
  C  Sn17      1.0  0.45714  0.82915  0.10385  1.0000
  C   C81       1.0  0.43313  0.85028  0.13517  1.0000
  C  Sn18      1.0  0.38283  0.82627  0.21282  1.0000
  C  Sn19      1.0  0.35597  0.78017  0.26027  1.0000
  C   C82       1.0  0.37998  0.75907  0.22898  1.0000
  C  Sn20      1.0  0.43028  0.78306  0.15130  1.0000
  O  Te17      1.0  0.50745  0.85381  0.02609  1.0000
  O  Te18      1.0  0.35963  0.84813  0.24276  1.0000
  O  Te19      1.0  0.30563  0.75552  0.33809  1.0000
  O  Te20      1.0  0.45348  0.76122  0.12139  1.0000
  Mg  Mg9       1.0  0.29051  0.80020  0.35222  1.0000
  Mg  Mg10      1.0  0.52259  0.80911  0.01204  1.0000
  C  Sn21      1.0  0.59013  0.19732  0.19294  1.0000
  C   C83       1.0  0.60038  0.16772  0.22635  1.0000
  C  Sn22      1.0  0.62568  0.17582  0.32026  1.0000
  C  Sn23      1.0  0.64102  0.21429  0.38221  1.0000
  C   C84       1.0  0.63077  0.24387  0.34883  1.0000
  C  Sn24      1.0  0.60548  0.23580  0.25488  1.0000
  O  Te21      1.0  0.56479  0.18856  0.09879  1.0000
  O  Te22      1.0  0.63551  0.14575  0.35197  1.0000
  O  Te23      1.0  0.66638  0.22304  0.47641  1.0000
  O  Te24      1.0  0.59564  0.26584  0.22320  1.0000
  Mg  Mg11      1.0  0.67108  0.17219  0.48640  1.0000
  Mg  Mg12      1.0  0.56005  0.23942  0.08889  1.0000
  C  Sn25      1.0  0.15937  0.54681  0.85639  1.0000
  C   C85       1.0  0.13889  0.56091  0.79043  1.0000
  C  Sn26      1.0  0.16770  0.60223  0.65791  1.0000
  C  Sn27      1.0  0.21803  0.63003  0.58977  1.0000
  C   C86       1.0  0.23849  0.61591  0.65569  1.0000
  C  Sn28      1.0  0.20971  0.57460  0.78825  1.0000
  O  Te25      1.0  0.12989  0.50537  0.98887  1.0000
  O  Te26      1.0  0.14639  0.61562  0.59412  1.0000
  O  Te27      1.0  0.24752  0.67149  0.45719  1.0000
  O  Te28      1.0  0.23099  0.56121  0.85200  1.0000
  Mg  Mg13      1.0  0.20166  0.67496  0.41313  1.0000
  Mg  Mg14      1.0  0.30994  0.56301  0.03290  1.0000
  C  Sn29      1.0  0.81184  0.39095  0.65321  1.0000
  C   C87       1.0  0.82976  0.42981  0.70503  1.0000
  C  Sn30      1.0  0.79847  0.44303  0.82081  1.0000
  C  Sn31      1.0  0.74821  0.41685  0.88628  1.0000
  C   C88       1.0  0.73031  0.37802  0.83450  1.0000
  C  Sn32      1.0  0.76158  0.36478  0.71868  1.0000
  O  Te29      1.0  0.84379  0.37837  0.53735  1.0000
  O  Te30      1.0  0.81723  0.48201  0.87066  1.0000
  O  Te31      1.0  0.85044  0.49061  0.00222  1.0000
  O  Te32      1.0  0.74284  0.32582  0.66886  1.0000
  Mg  Mg15      1.0  0.89335  0.54641  0.03147  1.0000
  Mg  Mg16      1.0  0.80086  0.32253  0.50816  1.0000
  C  Sn33      1.0  0.35923  0.55561  0.78718  1.0000
  C   C89       1.0  0.40938  0.57518  0.70366  1.0000
  C  Sn34      1.0  0.44199  0.62034  0.62342  1.0000
  C  Sn35      1.0  0.42410  0.64648  0.62684  1.0000
  C   C90       1.0  0.37397  0.62691  0.71035  1.0000
  C  Sn36      1.0  0.34133  0.58175  0.79059  1.0000
  O  Te33      1.0  0.32730  0.51041  0.86654  1.0000
  O  Te34      1.0  0.49197  0.63916  0.54068  1.0000
  O  Te35      1.0  0.45608  0.69171  0.54737  1.0000
  O  Te36      1.0  0.29138  0.56293  0.87333  1.0000
  Mg  Mg17      1.0  0.52094  0.70212  0.45124  1.0000
  Mg  Mg18      1.0  0.26237  0.49998  0.96290  1.0000
  C  Sn37      1.0  0.60185  0.42948  0.76086  1.0000
  C   C91       1.0  0.56126  0.41143  0.74482  1.0000
  C  Sn38      1.0  0.53390  0.36692  0.76518  1.0000
  C  Sn39      1.0  0.54736  0.33988  0.80247  1.0000
  C   C92       1.0  0.58792  0.35792  0.81853  1.0000
  C  Sn40      1.0  0.61531  0.40244  0.79816  1.0000
  O  Te37      1.0  0.62868  0.47406  0.74000  1.0000
  O  Te38      1.0  0.49348  0.34963  0.74847  1.0000
  O  Te39      1.0  0.52049  0.29526  0.82333  1.0000
  O  Te40      1.0  0.65570  0.41973  0.81488  1.0000
  Mg  Mg19      1.0  0.46846  0.28699  0.78838  1.0000
  Mg  Mg20      1.0  0.68074  0.48236  0.77510  1.0000
  C  Sn41      1.0  0.43067  0.81026  0.67972  1.0000
  C   C93       1.0  0.41729  0.83858  0.66435  1.0000
  C  Sn42      1.0  0.37319  0.82270  0.67826  1.0000
  C  Sn43      1.0  0.34178  0.77757  0.70829  1.0000
  C   C94       1.0  0.35515  0.74929  0.72368  1.0000
  C  Sn44      1.0  0.39926  0.76514  0.70975  1.0000
  O  Te41      1.0  0.47493  0.82685  0.66539  1.0000
  O  Te42      1.0  0.36061  0.85164  0.66237  1.0000
  O  Te43      1.0  0.29749  0.76100  0.72261  1.0000
  O  Te44      1.0  0.41183  0.73622  0.72566  1.0000
  Mg  Mg21      1.0  0.29647  0.81338  0.69170  1.0000
  Mg  Mg22      1.0  0.47595  0.77444  0.69646  1.0000
  C  Sn45      1.0  0.61981  0.18176  0.84112  1.0000
  C   C95       1.0  0.57412  0.14927  0.87651  1.0000
  C  Sn46      1.0  0.54449  0.16025  0.86611  1.0000
  C  Sn47      1.0  0.56088  0.20463  0.81923  1.0000
  C   C96       1.0  0.60654  0.23709  0.78384  1.0000
  C  Sn48      1.0  0.63620  0.22614  0.79424  1.0000
  O  Te45      1.0  0.64883  0.17004  0.85231  1.0000
  O  Te46      1.0  0.49894  0.12720  0.90215  1.0000
  O  Te47      1.0  0.53181  0.21634  0.80807  1.0000
  O  Te48      1.0  0.68172  0.25916  0.75820  1.0000
  Mg  Mg23      1.0  0.47268  0.15957  0.86924  1.0000
  Mg  Mg24      1.0  0.70803  0.22684  0.79096  1.0000
