data_image0
_chemical_formula_structural       C32N12H3C16H8N4C16H8C8HOH3OH3OH3OH3OH3OH3OH3OH3C32N12H3C16H8N4C16H8C8HOH3OH3OH3OH3OH3OH3OH3OH3C2Sn2C2HTe2HMgC2Sn2C2HTe2HMgC2Sn2C2HTe2HMgC2Sn2C2HTe2HMgC2Sn2C2HTe2HMgC2Sn2C2HTe2HMgC2Sn2C2HTe2HMgC2Sn2C2HTe2HMgC2Sn2C2HTe2HMgC2Sn2C2HTe2HMgC2Sn2C2HTe2HMgC2Sn2C2HTe2HMgC2Sn2C2HTe2HMgC2Sn2C2HTe2HMgC2Sn2C2HTe2HMgC2Sn2C2HTe2HMg
_chemical_formula_sum              "C208 N32 H120 O16 Sn32 Te32 Mg16"
_cell_length_a       39.0344
_cell_length_b       33.0843
_cell_length_c       8.66018
_cell_angle_alpha    106.855
_cell_angle_beta     81.9411
_cell_angle_gamma    89.8612

_symmetry_space_group_name_H-M    'P1'
_space_group_IT_number       1

loop_
  _space_group_symop_operation_xyz
  'x, y, z'

loop_
  _atom_site_type_symbol
  _atom_site_label
  _atom_site_symmetry_multiplicity
  _atom_site_fract_x
  _atom_site_fract_y
  _atom_site_fract_z
  _atom_site_occupancy
  C   C1        1.0  0.24230  0.79501  0.29008  1.0000
  C   C2        1.0  0.74761  0.28451  0.19509  1.0000
  C   C3        1.0  0.75990  0.21936  0.33143  1.0000
  C   C4        1.0  0.26194  0.70896  0.20737  1.0000
  C   C5        1.0  0.75348  0.79321  0.33879  1.0000
  C   C6        1.0  0.26513  0.29319  0.23416  1.0000
  C   C7        1.0  0.24438  0.21660  0.28612  1.0000
  C   C8        1.0  0.74857  0.70750  0.17433  1.0000
  C   C9        1.0  0.28770  0.73810  0.21278  1.0000
  C   C10       1.0  0.78634  0.24644  0.31260  1.0000
  C   C11       1.0  0.72109  0.25743  0.21407  1.0000
  C   C12       1.0  0.21650  0.76584  0.28308  1.0000
  C   C13       1.0  0.72127  0.73557  0.18306  1.0000
  C   C14       1.0  0.21915  0.24535  0.27764  1.0000
  C   C15       1.0  0.29052  0.26407  0.23912  1.0000
  C   C16       1.0  0.78067  0.76513  0.33229  1.0000
  C   C17       1.0  0.20104  0.69038  0.23012  1.0000
  C   C18       1.0  0.70072  0.19621  0.31071  1.0000
  C   C19       1.0  0.80610  0.30960  0.22890  1.0000
  C   C20       1.0  0.30332  0.81329  0.25844  1.0000
  C   C21       1.0  0.80520  0.69080  0.23684  1.0000
  C   C22       1.0  0.30502  0.19371  0.27190  1.0000
  C   C23       1.0  0.20440  0.31541  0.24381  1.0000
  C   C24       1.0  0.69715  0.80966  0.27022  1.0000
  C   C25       1.0  0.27768  0.78200  0.25452  1.0000
  C   C26       1.0  0.78000  0.27976  0.24387  1.0000
  C   C27       1.0  0.72733  0.22438  0.28447  1.0000
  C   C28       1.0  0.22666  0.72190  0.23991  1.0000
  C   C29       1.0  0.72409  0.77927  0.26493  1.0000
  C   C30       1.0  0.22974  0.28458  0.25274  1.0000
  C   C31       1.0  0.27986  0.22502  0.26662  1.0000
  C   C32       1.0  0.77813  0.72148  0.24750  1.0000
  N   N1        1.0  0.33643  0.80290  0.21948  1.0000
  N   N2        1.0  0.83624  0.30712  0.27637  1.0000
  N   N3        1.0  0.67010  0.19870  0.26775  1.0000
  N   N4        1.0  0.16805  0.70090  0.26337  1.0000
  N   N5        1.0  0.66833  0.79826  0.21524  1.0000
  N   N6        1.0  0.17174  0.30718  0.24641  1.0000
  N   N7        1.0  0.33825  0.19978  0.25491  1.0000
  N   N8        1.0  0.83300  0.70106  0.30462  1.0000
  N   N9        1.0  0.05732  0.50437  0.26097  1.0000
  N   N10       1.0  0.55698  0.00136  0.24606  1.0000
  N   N11       1.0  0.94875  0.50324  0.27058  1.0000
  N   N12       1.0  0.44920  0.00032  0.25069  1.0000
  H   H1        1.0  0.03084  0.50573  0.27793  1.0000
  H   H2        1.0  0.97523  0.50132  0.24749  1.0000
  H   H3        1.0  0.47435  0.00102  0.27130  1.0000
  C   C33       1.0  0.07793  0.46975  0.25444  1.0000
  C   C34       1.0  0.57769  0.96549  0.22398  1.0000
  C   C35       1.0  0.92831  0.53893  0.28756  1.0000
  C   C36       1.0  0.43067  0.03312  0.22690  1.0000
  C   C37       1.0  0.92858  0.47075  0.29481  1.0000
  C   C38       1.0  0.43003  0.96467  0.22923  1.0000
  C   C39       1.0  0.07741  0.53760  0.24390  1.0000
  C   C40       1.0  0.57694  0.03570  0.24241  1.0000
  C   C41       1.0  0.11306  0.48182  0.22989  1.0000
  C   C42       1.0  0.61269  0.97803  0.20103  1.0000
  C   C43       1.0  0.89324  0.52821  0.32509  1.0000
  C   C44       1.0  0.39852  0.01651  0.18116  1.0000
  C   C45       1.0  0.89342  0.48738  0.33385  1.0000
  C   C46       1.0  0.39784  0.97539  0.18639  1.0000
  C   C47       1.0  0.11272  0.52316  0.22724  1.0000
  C   C48       1.0  0.61214  0.01967  0.20428  1.0000
  H   H4        1.0  0.13554  0.46113  0.21380  1.0000
  H   H5        1.0  0.63559  0.95802  0.18287  1.0000
  H   H6        1.0  0.87100  0.54971  0.34624  1.0000
  H   H7        1.0  0.37884  0.03379  0.14651  1.0000
  H   H8        1.0  0.87128  0.47062  0.36827  1.0000
  H   H9        1.0  0.37706  0.95404  0.16207  1.0000
  H   H10       1.0  0.13483  0.54193  0.21195  1.0000
  H   H11       1.0  0.63430  0.03737  0.17936  1.0000
  N   N13       1.0  0.50338  0.93873  0.24561  1.0000
  N   N14       1.0  0.00330  0.44261  0.27238  1.0000
  N   N15       1.0  0.50310  0.06396  0.26536  1.0000
  N   N16       1.0  0.00256  0.56524  0.26161  1.0000
  C   C49       1.0  0.53162  0.91324  0.24078  1.0000
  C   C50       1.0  0.03182  0.41809  0.27250  1.0000
  C   C51       1.0  0.47374  0.08937  0.29007  1.0000
  C   C52       1.0  0.97443  0.58962  0.25672  1.0000
  C   C53       1.0  0.47511  0.91418  0.25382  1.0000
  C   C54       1.0  0.97583  0.41646  0.26861  1.0000
  C   C55       1.0  0.52903  0.09099  0.31067  1.0000
  C   C56       1.0  0.03067  0.58891  0.23969  1.0000
  C   C57       1.0  0.52062  0.87141  0.24700  1.0000
  C   C58       1.0  0.02194  0.37582  0.27394  1.0000
  C   C59       1.0  0.48082  0.13356  0.36190  1.0000
  C   C60       1.0  0.98509  0.62903  0.22501  1.0000
  C   C61       1.0  0.48556  0.87280  0.26268  1.0000
  C   C62       1.0  0.98778  0.37394  0.26084  1.0000
  C   C63       1.0  0.51503  0.13443  0.37870  1.0000
  C   C64       1.0  0.02012  0.62860  0.21466  1.0000
  H   H12       1.0  0.53683  0.84451  0.24195  1.0000
  H   H13       1.0  0.03858  0.35084  0.28392  1.0000
  H   H14       1.0  0.46212  0.16007  0.39834  1.0000
  H   H15       1.0  0.96792  0.65277  0.20845  1.0000
  H   H16       1.0  0.46875  0.84786  0.27737  1.0000
  H   H17       1.0  0.97276  0.34612  0.24731  1.0000
  H   H18       1.0  0.52899  0.16176  0.43476  1.0000
  H   H19       1.0  0.03747  0.65215  0.18920  1.0000
  C   C65       1.0  0.06670  0.42988  0.26339  1.0000
  C   C66       1.0  0.56670  0.92493  0.22734  1.0000
  C   C67       1.0  0.93951  0.57871  0.27736  1.0000
  C   C68       1.0  0.44047  0.07541  0.25551  1.0000
  C   C69       1.0  0.94047  0.42911  0.28067  1.0000
  C   C70       1.0  0.44076  0.92512  0.24157  1.0000
  C   C71       1.0  0.06553  0.57727  0.23836  1.0000
  C   C72       1.0  0.56488  0.07858  0.28458  1.0000
  H   H20       1.0  0.23469  0.82846  0.32353  1.0000
  O   O1        1.0  0.32128  0.72429  0.17806  1.0000
  H   H21       1.0  0.21033  0.65718  0.19656  1.0000
  H   H22       1.0  0.33528  0.75023  0.18196  1.0000
  H   H23       1.0  0.74300  0.30967  0.14144  1.0000
  O   O2        1.0  0.81694  0.24132  0.36220  1.0000
  H   H24       1.0  0.70748  0.17280  0.37008  1.0000
  H   H25       1.0  0.83163  0.26488  0.34136  1.0000
  H   H26       1.0  0.76441  0.19453  0.38629  1.0000
  O   O3        1.0  0.69026  0.26269  0.16741  1.0000
  H   H27       1.0  0.79916  0.33489  0.17887  1.0000
  H   H28       1.0  0.67515  0.23968  0.19494  1.0000
  H   H29       1.0  0.26952  0.67559  0.17689  1.0000
  O   O4        1.0  0.18284  0.77945  0.31670  1.0000
  H   H30       1.0  0.29375  0.84643  0.29335  1.0000
  H   H31       1.0  0.16904  0.75302  0.30593  1.0000
  H   H32       1.0  0.75519  0.82648  0.40278  1.0000
  O   O5        1.0  0.69292  0.72085  0.11443  1.0000
  H   H33       1.0  0.80084  0.65793  0.17103  1.0000
  H   H34       1.0  0.67656  0.74627  0.13495  1.0000
  H   H35       1.0  0.27315  0.32298  0.21339  1.0000
  O   O6        1.0  0.18551  0.23553  0.29190  1.0000
  H   H36       1.0  0.29492  0.16396  0.28720  1.0000
  H   H37       1.0  0.17233  0.25958  0.27175  1.0000
  H   H38       1.0  0.23624  0.18701  0.30752  1.0000
  O   O7        1.0  0.32425  0.27299  0.21783  1.0000
  H   H39       1.0  0.21358  0.34586  0.23158  1.0000
  H   H40       1.0  0.33768  0.24773  0.22808  1.0000
  H   H41       1.0  0.74685  0.67416  0.11060  1.0000
  O   O8        1.0  0.80853  0.77958  0.40396  1.0000
  H   H42       1.0  0.70170  0.84322  0.32367  1.0000
  H   H43       1.0  0.82428  0.75394  0.38906  1.0000
  H   H44       1.0  0.53052  0.00255  0.26221  1.0000
  C   C73       1.0  0.24033  0.78928  0.79787  1.0000
  C   C74       1.0  0.73446  0.28975  0.70948  1.0000
  C   C75       1.0  0.74994  0.21437  0.77631  1.0000
  C   C76       1.0  0.25848  0.70259  0.68976  1.0000
  C   C77       1.0  0.75851  0.78737  0.74445  1.0000
  C   C78       1.0  0.25934  0.28263  0.68466  1.0000
  C   C79       1.0  0.23908  0.21762  0.82183  1.0000
  C   C80       1.0  0.74072  0.70467  0.73642  1.0000
  C   C81       1.0  0.28465  0.73111  0.68861  1.0000
  C   C82       1.0  0.77625  0.24226  0.76774  1.0000
  C   C83       1.0  0.70816  0.26175  0.71748  1.0000
  C   C84       1.0  0.21408  0.76064  0.79150  1.0000
  C   C85       1.0  0.71561  0.73231  0.71896  1.0000
  C   C86       1.0  0.21361  0.24442  0.80125  1.0000
  C   C87       1.0  0.28481  0.25547  0.70253  1.0000
  C   C88       1.0  0.78370  0.75976  0.76166  1.0000
  C   C89       1.0  0.19748  0.68512  0.73099  1.0000
  C   C90       1.0  0.68985  0.19342  0.76395  1.0000
  C   C91       1.0  0.79406  0.31184  0.73115  1.0000
  C   C92       1.0  0.30167  0.80626  0.74910  1.0000
  C   C93       1.0  0.79978  0.68813  0.77560  1.0000
  C   C94       1.0  0.29978  0.19278  0.79002  1.0000
  C   C95       1.0  0.19841  0.30671  0.71165  1.0000
  C   C96       1.0  0.69883  0.80496  0.71776  1.0000
  C   C97       1.0  0.27540  0.77543  0.74588  1.0000
  C   C98       1.0  0.76827  0.28100  0.73506  1.0000
  C   C99       1.0  0.71606  0.22332  0.75227  1.0000
  C   C100      1.0  0.22335  0.71640  0.73842  1.0000
  C   C101      1.0  0.72463  0.77451  0.72388  1.0000
  C   C102      1.0  0.22400  0.27785  0.73296  1.0000
  C   C103      1.0  0.27452  0.22238  0.77286  1.0000
  C   C104      1.0  0.77458  0.71766  0.75824  1.0000
  N   N17       1.0  0.33422  0.79512  0.69235  1.0000
  N   N18       1.0  0.82558  0.30618  0.75920  1.0000
  N   N19       1.0  0.65794  0.19907  0.74090  1.0000
  N   N20       1.0  0.16431  0.69515  0.76685  1.0000
  N   N21       1.0  0.66654  0.79548  0.70866  1.0000
  N   N22       1.0  0.16547  0.30110  0.73934  1.0000
  N   N23       1.0  0.33294  0.19537  0.74617  1.0000
  N   N24       1.0  0.83145  0.69853  0.79768  1.0000
  N   N25       1.0  0.05248  0.49572  0.73003  1.0000
  N   N26       1.0  0.55100  0.99843  0.77978  1.0000
  N   N27       1.0  0.94430  0.49662  0.72901  1.0000
  N   N28       1.0  0.44406  0.99636  0.75073  1.0000
  H   H45       1.0  0.02616  0.49743  0.73475  1.0000
  H   H46       1.0  0.97041  0.49231  0.69075  1.0000
  H   H47       1.0  0.46959  0.99810  0.76538  1.0000
  C   C105      1.0  0.07171  0.46105  0.73434  1.0000
  C   C106      1.0  0.57090  0.96426  0.78476  1.0000
  C   C107      1.0  0.92529  0.53410  0.75931  1.0000
  C   C108      1.0  0.42375  0.03003  0.74500  1.0000
  C   C109      1.0  0.92367  0.46608  0.76786  1.0000
  C   C110      1.0  0.42550  0.96007  0.72661  1.0000
  C   C111      1.0  0.07343  0.52918  0.72638  1.0000
  C   C112      1.0  0.57035  0.03416  0.79809  1.0000
  C   C113      1.0  0.10684  0.47375  0.73477  1.0000
  C   C114      1.0  0.60404  0.98017  0.81706  1.0000
  C   C115      1.0  0.89082  0.52678  0.82317  1.0000
  C   C116      1.0  0.39056  0.01391  0.71377  1.0000
  C   C117      1.0  0.88995  0.48596  0.83173  1.0000
  C   C118      1.0  0.39147  0.97180  0.70635  1.0000
  C   C119      1.0  0.10778  0.51505  0.73227  1.0000
  C   C120      1.0  0.60427  0.02164  0.81737  1.0000
  H   H48       1.0  0.12859  0.45338  0.73358  1.0000
  H   H49       1.0  0.62492  0.96247  0.83997  1.0000
  H   H50       1.0  0.86977  0.55041  0.86197  1.0000
  H   H51       1.0  0.36917  0.03216  0.69655  1.0000
  H   H52       1.0  0.86819  0.47132  0.88207  1.0000
  H   H53       1.0  0.37096  0.94991  0.68442  1.0000
  H   H54       1.0  0.13043  0.53367  0.72977  1.0000
  H   H55       1.0  0.62594  0.04171  0.83373  1.0000
  N   N29       1.0  0.49951  0.93326  0.73473  1.0000
  N   N30       1.0  0.99711  0.43382  0.72655  1.0000
  N   N31       1.0  0.49653  0.06002  0.77621  1.0000
  N   N32       1.0  0.00004  0.55699  0.72154  1.0000
  C   C121      1.0  0.52821  0.90751  0.71980  1.0000
  C   C122      1.0  0.02537  0.40777  0.71665  1.0000
  C   C123      1.0  0.46775  0.08564  0.79051  1.0000
  C   C124      1.0  0.97266  0.58135  0.70819  1.0000
  C   C125      1.0  0.47268  0.90644  0.70543  1.0000
  C   C126      1.0  0.96915  0.40833  0.71618  1.0000
  C   C127      1.0  0.52307  0.08688  0.80881  1.0000
  C   C128      1.0  0.02871  0.57987  0.70052  1.0000
  C   C129      1.0  0.51957  0.86307  0.67053  1.0000
  C   C130      1.0  0.01511  0.36440  0.69608  1.0000
  C   C131      1.0  0.47600  0.13015  0.84008  1.0000
  C   C132      1.0  0.98450  0.61921  0.66731  1.0000
  C   C133      1.0  0.48491  0.86259  0.66798  1.0000
  C   C134      1.0  0.98065  0.36436  0.68730  1.0000
  C   C135      1.0  0.51043  0.13094  0.85287  1.0000
  C   C136      1.0  0.01948  0.61845  0.66406  1.0000
  H   H56       1.0  0.53740  0.83585  0.63975  1.0000
  H   H57       1.0  0.03191  0.33766  0.68953  1.0000
  H   H58       1.0  0.45799  0.15694  0.86599  1.0000
  H   H59       1.0  0.96850  0.64206  0.63938  1.0000
  H   H60       1.0  0.46926  0.83517  0.63962  1.0000
  H   H61       1.0  0.96499  0.33689  0.66268  1.0000
  H   H62       1.0  0.52529  0.15857  0.89230  1.0000
  H   H63       1.0  0.03742  0.64103  0.63680  1.0000
  C   C137      1.0  0.05994  0.42025  0.72711  1.0000
  C   C138      1.0  0.56162  0.92158  0.75127  1.0000
  C   C139      1.0  0.93734  0.57275  0.73879  1.0000
  C   C140      1.0  0.43396  0.07204  0.76703  1.0000
  C   C141      1.0  0.93384  0.42326  0.74516  1.0000
  C   C142      1.0  0.43773  0.91868  0.71008  1.0000
  C   C143      1.0  0.06295  0.56872  0.71347  1.0000
  C   C144      1.0  0.55836  0.07510  0.80348  1.0000
  H   H64       1.0  0.23337  0.82298  0.84194  1.0000
  O   O9        1.0  0.31782  0.71654  0.63362  1.0000
  H   H65       1.0  0.20707  0.65198  0.69438  1.0000
  H   H66       1.0  0.33186  0.74248  0.63844  1.0000
  H   H67       1.0  0.72866  0.31881  0.68126  1.0000
  O   O10       1.0  0.80827  0.23269  0.79224  1.0000
  H   H68       1.0  0.69800  0.16506  0.79291  1.0000
  H   H69       1.0  0.82276  0.25765  0.78363  1.0000
  H   H70       1.0  0.75567  0.18539  0.80523  1.0000
  O   O11       1.0  0.67603  0.27116  0.69217  1.0000
  H   H71       1.0  0.78567  0.34065  0.70588  1.0000
  H   H72       1.0  0.66152  0.24648  0.70245  1.0000
  H   H73       1.0  0.26558  0.66891  0.65046  1.0000
  O   O12       1.0  0.18062  0.77510  0.83612  1.0000
  H   H74       1.0  0.29307  0.83971  0.79848  1.0000
  H   H75       1.0  0.16638  0.74909  0.82168  1.0000
  H   H76       1.0  0.76547  0.81940  0.74756  1.0000
  O   O13       1.0  0.68334  0.71914  0.70015  1.0000
  H   H77       1.0  0.79141  0.65609  0.76843  1.0000
  H   H78       1.0  0.66929  0.74482  0.69785  1.0000
  H   H79       1.0  0.26720  0.30740  0.62938  1.0000
  O   O14       1.0  0.17976  0.23793  0.84440  1.0000
  H   H80       1.0  0.28962  0.16723  0.83832  1.0000
  H   H81       1.0  0.16630  0.26001  0.81202  1.0000
  H   H82       1.0  0.23112  0.19235  0.87476  1.0000
  O   O15       1.0  0.31842  0.26048  0.65003  1.0000
  H   H83       1.0  0.20793  0.33346  0.66963  1.0000
  H   H84       1.0  0.33209  0.23750  0.67470  1.0000
  H   H85       1.0  0.73365  0.67291  0.73622  1.0000
  O   O16       1.0  0.81593  0.77292  0.78152  1.0000
  H   H86       1.0  0.70709  0.83725  0.72912  1.0000
  H   H87       1.0  0.82922  0.74787  0.79513  1.0000
  H   H88       1.0  0.52580  0.99697  0.76024  1.0000
  C   C145      1.0  0.59048  0.85709  0.33530  1.0000
  C   C146      1.0  0.59431  0.88979  0.26295  1.0000
  C  Sn1       1.0  0.62363  0.89017  0.15060  1.0000
  C  Sn2       1.0  0.64956  0.85715  0.11015  1.0000
  C   C147      1.0  0.64547  0.82456  0.18312  1.0000
  C   C148      1.0  0.61603  0.82450  0.29542  1.0000
  H   H89       1.0  0.56769  0.85702  0.42212  1.0000
  O  Te1       1.0  0.62706  0.92308  0.07950  1.0000
  O  Te2       1.0  0.64786  0.93273  0.99820  1.0000
  H   H90       1.0  0.61306  0.79916  0.35134  1.0000
  Mg  Mg1       1.0  0.64075  0.98455  0.93392  1.0000
  C   C149      1.0  0.09985  0.34557  0.13124  1.0000
  C   C150      1.0  0.09330  0.38713  0.23140  1.0000
  C  Sn3       1.0  0.11521  0.40517  0.34492  1.0000
  C  Sn4       1.0  0.14420  0.38107  0.35811  1.0000
  C   C151      1.0  0.15053  0.33952  0.25727  1.0000
  C   C152      1.0  0.12843  0.32179  0.14412  1.0000
  H   H91       1.0  0.08276  0.33185  0.04363  1.0000
  O  Te3       1.0  0.10829  0.44673  0.44408  1.0000
  O  Te4       1.0  0.16652  0.39832  0.47049  1.0000
  H   H92       1.0  0.13352  0.28962  0.06652  1.0000
  Mg  Mg2       1.0  0.14623  0.45624  0.57861  1.0000
  C   C153      1.0  0.40595  0.16630  0.17704  1.0000
  C   C154      1.0  0.37075  0.16987  0.24041  1.0000
  C  Sn5       1.0  0.35676  0.14214  0.32466  1.0000
  C  Sn6       1.0  0.37847  0.11027  0.34571  1.0000
  C   C155      1.0  0.41365  0.10698  0.28194  1.0000
  C   C156      1.0  0.42738  0.13489  0.19779  1.0000
  H   H93       1.0  0.41658  0.18791  0.11200  1.0000
  O  Te5       1.0  0.32153  0.14613  0.38714  1.0000
  O  Te6       1.0  0.36516  0.08214  0.42946  1.0000
  H   H94       1.0  0.45464  0.13214  0.14883  1.0000
  Mg  Mg3       1.0  0.31552  0.10029  0.49211  1.0000
  C   C157      1.0  0.90528  0.66246  0.41623  1.0000
  C   C158      1.0  0.91156  0.62051  0.31972  1.0000
  C  Sn7       1.0  0.89159  0.60318  0.19674  1.0000
  C  Sn8       1.0  0.86485  0.62840  0.17015  1.0000
  C   C159      1.0  0.85878  0.67034  0.26728  1.0000
  C   C160      1.0  0.87892  0.68736  0.39004  1.0000
  H   H95       1.0  0.92087  0.67563  0.51116  1.0000
  O  Te7       1.0  0.89820  0.56121  0.10148  1.0000
  O  Te8       1.0  0.84450  0.61188  0.04803  1.0000
  H   H96       1.0  0.87406  0.71984  0.46467  1.0000
  Mg  Mg4       1.0  0.83221  0.62900  0.95013  1.0000
  C   C161      1.0  0.37209  0.90249  0.34675  1.0000
  C   C162      1.0  0.40614  0.89619  0.26600  1.0000
  C  Sn9       1.0  0.41754  0.85701  0.15555  1.0000
  C  Sn10      1.0  0.39437  0.82358  0.12562  1.0000
  C   C163      1.0  0.36034  0.83022  0.20694  1.0000
  C   C164      1.0  0.34920  0.86954  0.31725  1.0000
  H   H97       1.0  0.36346  0.93292  0.43203  1.0000
  O  Te9       1.0  0.45166  0.85125  0.07596  1.0000
  O  Te10      1.0  0.40508  0.78411  0.01580  1.0000
  H   H98       1.0  0.32283  0.87442  0.37967  1.0000
  Mg  Mg5       1.0  0.42282  0.86773  0.93731  1.0000
  C   C165      1.0  0.87701  0.39324  0.17894  1.0000
  C   C166      1.0  0.90597  0.39875  0.25999  1.0000
  C  Sn11      1.0  0.91349  0.37099  0.34660  1.0000
  C  Sn12      1.0  0.89158  0.33712  0.35191  1.0000
  C   C167      1.0  0.86269  0.33187  0.27031  1.0000
  C   C168      1.0  0.85539  0.35983  0.18405  1.0000
  H   H99       1.0  0.87137  0.41487  0.11211  1.0000
  O  Te11      1.0  0.94252  0.37696  0.42695  1.0000
  O  Te12      1.0  0.89850  0.30891  0.43751  1.0000
  H   H100      1.0  0.83298  0.35555  0.12122  1.0000
  Mg  Mg6       1.0  0.94112  0.33018  0.52743  1.0000
  C   C169      1.0  0.64623  0.12556  0.35587  1.0000
  C   C170      1.0  0.64807  0.15874  0.28578  1.0000
  C  Sn13      1.0  0.61918  0.17109  0.22884  1.0000
  C  Sn14      1.0  0.58791  0.14978  0.24254  1.0000
  C   C171      1.0  0.58633  0.11664  0.31296  1.0000
  C   C172      1.0  0.61540  0.10454  0.36949  1.0000
  H   H101      1.0  0.66871  0.11620  0.39970  1.0000
  O  Te13      1.0  0.62147  0.20429  0.15908  1.0000
  O  Te14      1.0  0.55865  0.16148  0.18668  1.0000
  H   H102      1.0  0.61396  0.07887  0.42385  1.0000
  Mg  Mg7       1.0  0.57459  0.20863  0.10082  1.0000
  C   C173      1.0  0.09241  0.65789  0.38592  1.0000
  C   C174      1.0  0.08929  0.62034  0.26370  1.0000
  C  Sn15      1.0  0.11524  0.60657  0.12902  1.0000
  C  Sn16      1.0  0.14483  0.63091  0.11683  1.0000
  C   C175      1.0  0.14771  0.66842  0.23981  1.0000
  C   C176      1.0  0.12159  0.68191  0.37402  1.0000
  H   H103      1.0  0.07221  0.66832  0.48981  1.0000
  O  Te15      1.0  0.11171  0.56898  0.00798  1.0000
  O  Te16      1.0  0.13989  0.69387  0.98357  1.0000
  H   H104      1.0  0.12402  0.71097  0.46869  1.0000
  Mg  Mg8       1.0  0.12324  0.64040  0.84994  1.0000
  C   C177      1.0  0.64598  0.87007  0.63883  1.0000
  C   C178      1.0  0.64539  0.83787  0.71372  1.0000
  C  Sn17      1.0  0.61461  0.82956  0.80055  1.0000
  C  Sn18      1.0  0.58391  0.85400  0.81237  1.0000
  C   C179      1.0  0.58477  0.88612  0.73691  1.0000
  C   C180      1.0  0.61571  0.89418  0.65037  1.0000
  H   H105      1.0  0.66991  0.87629  0.57179  1.0000
  O  Te17      1.0  0.61447  0.79728  0.87469  1.0000
  O  Te18      1.0  0.55280  0.84636  0.89835  1.0000
  H   H106      1.0  0.61616  0.91909  0.59231  1.0000
  Mg  Mg9       1.0  0.56572  0.79894  0.97836  1.0000
  C   C181      1.0  0.11097  0.32236  0.59247  1.0000
  C   C182      1.0  0.13550  0.32705  0.69874  1.0000
  C  Sn19      1.0  0.13499  0.36385  0.82899  1.0000
  C  Sn20      1.0  0.10941  0.39649  0.85300  1.0000
  C   C183      1.0  0.08496  0.39148  0.74607  1.0000
  C   C184      1.0  0.08572  0.35454  0.61610  1.0000
  H   H107      1.0  0.11154  0.29377  0.49196  1.0000
  O  Te19      1.0  0.15969  0.36802  0.93398  1.0000
  O  Te20      1.0  0.10829  0.43359  0.98222  1.0000
  H   H108      1.0  0.06671  0.35090  0.53391  1.0000
  Mg  Mg10      1.0  0.17879  0.34849  0.09237  1.0000
  C   C185      1.0  0.36554  0.11342  0.87705  1.0000
  C   C186      1.0  0.39847  0.10304  0.78551  1.0000
  C  Sn21      1.0  0.41171  0.12637  0.68135  1.0000
  C  Sn22      1.0  0.39156  0.16073  0.66890  1.0000
  C   C187      1.0  0.35865  0.17088  0.76108  1.0000
  C   C188      1.0  0.34565  0.14731  0.86489  1.0000
  H   H109      1.0  0.35548  0.09520  0.95744  1.0000
  O  Te21      1.0  0.44466  0.11556  0.59072  1.0000
  O  Te22      1.0  0.40417  0.18459  0.56579  1.0000
  H   H110      1.0  0.32016  0.15537  0.93583  1.0000
  Mg  Mg11      1.0  0.45053  0.15755  0.46713  1.0000
  C   C189      1.0  0.85890  0.61444  0.67096  1.0000
  C   C190      1.0  0.85463  0.65642  0.76900  1.0000
  C  Sn23      1.0  0.87989  0.67438  0.86425  1.0000
  C  Sn24      1.0  0.90995  0.64978  0.86100  1.0000
  C   C191      1.0  0.91399  0.60782  0.76241  1.0000
  C   C192      1.0  0.88855  0.59016  0.66763  1.0000
  H   H111      1.0  0.83923  0.60078  0.59754  1.0000
  O  Te23      1.0  0.87521  0.71636  0.96156  1.0000
  O  Te24      1.0  0.93561  0.66694  0.95494  1.0000
  H   H112      1.0  0.89187  0.55767  0.59165  1.0000
  Mg  Mg12      1.0  0.94869  0.64957  0.06795  1.0000
  C   C193      1.0  0.40889  0.83805  0.55143  1.0000
  C   C194      1.0  0.41085  0.87790  0.66224  1.0000
  C  Sn25      1.0  0.38703  0.89111  0.80533  1.0000
  C  Sn26      1.0  0.36079  0.86384  0.83777  1.0000
  C   C195      1.0  0.35906  0.82402  0.72620  1.0000
  C   C196      1.0  0.38302  0.81112  0.58337  1.0000
  H   H113      1.0  0.42744  0.82806  0.44096  1.0000
  O  Te25      1.0  0.38936  0.93104  0.91470  1.0000
  O  Te26      1.0  0.33666  0.87624  0.97986  1.0000
  H   H114      1.0  0.38150  0.78025  0.49765  1.0000
  Mg  Mg13      1.0  0.38176  0.85766  0.09145  1.0000
  C   C197      1.0  0.89076  0.33353  0.82072  1.0000
  C   C198      1.0  0.85867  0.33354  0.76664  1.0000
  C  Sn27      1.0  0.84969  0.36463  0.69760  1.0000
  C  Sn28      1.0  0.87334  0.39625  0.68255  1.0000
  C   C199      1.0  0.90539  0.39594  0.73693  1.0000
  C   C200      1.0  0.91410  0.36469  0.80587  1.0000
  H   H115      1.0  0.89751  0.30933  0.87398  1.0000
  O  Te27      1.0  0.81752  0.36418  0.64425  1.0000
  O  Te28      1.0  0.86503  0.42769  0.61397  1.0000
  H   H116      1.0  0.93896  0.36467  0.84763  1.0000
  Mg  Mg14      1.0  0.81806  0.41371  0.55923  1.0000
  C   C201      1.0  0.59633  0.15960  0.67160  1.0000
  C   C202      1.0  0.62347  0.17346  0.76062  1.0000
  C  Sn29      1.0  0.63209  0.15296  0.87100  1.0000
  C  Sn30      1.0  0.61315  0.11794  0.89236  1.0000
  C   C203      1.0  0.58606  0.10431  0.80265  1.0000
  C   C204      1.0  0.57764  0.12506  0.69256  1.0000
  H   H117      1.0  0.58983  0.17564  0.58636  1.0000
  O  Te29      1.0  0.65927  0.16723  0.95899  1.0000
  O  Te30      1.0  0.65248  0.02088  0.00183  1.0000
  H   H118      1.0  0.55664  0.11430  0.62358  1.0000
  Mg  Mg15      1.0  0.69172  0.05216  0.09366  1.0000
  C   C205      1.0  0.08622  0.65173  0.85974  1.0000
  C   C206      1.0  0.08633  0.61216  0.74430  1.0000
  C  Sn31      1.0  0.11545  0.59692  0.62725  1.0000
  C  Sn32      1.0  0.14498  0.62182  0.62609  1.0000
  C   C207      1.0  0.14462  0.66134  0.74218  1.0000
  C   C208      1.0  0.11534  0.67630  0.85873  1.0000
  H   H119      1.0  0.06357  0.66329  0.94997  1.0000
  O  Te31      1.0  0.11512  0.55733  0.51276  1.0000
  O  Te32      1.0  0.17444  0.60734  0.51052  1.0000
  H   H120      1.0  0.11527  0.70692  0.94816  1.0000
  Mg  Mg16      1.0  0.16148  0.55133  0.37968  1.0000
