data_image0
_chemical_formula_structural       C32N12H3C16H8N4C16H8C8HOH3OH3OH3OH3OH3OH3OH3OH3C32N12H3C16H8N4C16H8C8HOH3OH3OH3OH3OH3OH3OH3OH3SnCSn2CSnTe4Mg2SnCSn2CSnTe4Mg2SnCSn2CSnTe4Mg2SnCSn2CSnTe4Mg2SnCSn2CSnTe4Mg2SnCSn2CSnTe4Mg2SnCSn2CSnTe4Mg2SnCSn2CSnTe4Mg2SnCSn2CSnTe4Mg2SnCSn2CSnTe4Mg2SnCSn2CSnTe4Mg2SnCSn2CSnTe4Mg2SnCSn2CSnTe4Mg2SnCSn2CSnTe4Mg2SnCSn2CSnTe4Mg2SnCSn2CSnTe4Mg2
_chemical_formula_sum              "C176 N32 H88 O16 Sn64 Te64 Mg32"
_cell_length_a       39.0344
_cell_length_b       33.0843
_cell_length_c       8.66018
_cell_angle_alpha    106.855
_cell_angle_beta     81.9411
_cell_angle_gamma    89.8612

_symmetry_space_group_name_H-M    'P1'
_space_group_IT_number       1

loop_
  _space_group_symop_operation_xyz
  'x, y, z'

loop_
  _atom_site_type_symbol
  _atom_site_label
  _atom_site_symmetry_multiplicity
  _atom_site_fract_x
  _atom_site_fract_y
  _atom_site_fract_z
  _atom_site_occupancy
  C   C1        1.0  0.24230  0.79501  0.29008  1.0000
  C   C2        1.0  0.74761  0.28451  0.19509  1.0000
  C   C3        1.0  0.75990  0.21936  0.33143  1.0000
  C   C4        1.0  0.26194  0.70896  0.20737  1.0000
  C   C5        1.0  0.75348  0.79321  0.33879  1.0000
  C   C6        1.0  0.26513  0.29319  0.23416  1.0000
  C   C7        1.0  0.24438  0.21660  0.28612  1.0000
  C   C8        1.0  0.74857  0.70750  0.17433  1.0000
  C   C9        1.0  0.28770  0.73810  0.21278  1.0000
  C   C10       1.0  0.78634  0.24644  0.31260  1.0000
  C   C11       1.0  0.72109  0.25743  0.21407  1.0000
  C   C12       1.0  0.21650  0.76584  0.28308  1.0000
  C   C13       1.0  0.72127  0.73557  0.18306  1.0000
  C   C14       1.0  0.21915  0.24535  0.27764  1.0000
  C   C15       1.0  0.29052  0.26407  0.23912  1.0000
  C   C16       1.0  0.78067  0.76513  0.33229  1.0000
  C   C17       1.0  0.20104  0.69038  0.23012  1.0000
  C   C18       1.0  0.70072  0.19621  0.31071  1.0000
  C   C19       1.0  0.80610  0.30960  0.22890  1.0000
  C   C20       1.0  0.30332  0.81329  0.25844  1.0000
  C   C21       1.0  0.80520  0.69080  0.23684  1.0000
  C   C22       1.0  0.30502  0.19371  0.27190  1.0000
  C   C23       1.0  0.20440  0.31541  0.24381  1.0000
  C   C24       1.0  0.69715  0.80966  0.27022  1.0000
  C   C25       1.0  0.27768  0.78200  0.25452  1.0000
  C   C26       1.0  0.78000  0.27976  0.24387  1.0000
  C   C27       1.0  0.72733  0.22438  0.28447  1.0000
  C   C28       1.0  0.22666  0.72190  0.23991  1.0000
  C   C29       1.0  0.72409  0.77927  0.26493  1.0000
  C   C30       1.0  0.22974  0.28458  0.25274  1.0000
  C   C31       1.0  0.27986  0.22502  0.26662  1.0000
  C   C32       1.0  0.77813  0.72148  0.24750  1.0000
  N   N1        1.0  0.33643  0.80290  0.21948  1.0000
  N   N2        1.0  0.83624  0.30712  0.27637  1.0000
  N   N3        1.0  0.67010  0.19870  0.26775  1.0000
  N   N4        1.0  0.16805  0.70090  0.26337  1.0000
  N   N5        1.0  0.66833  0.79826  0.21524  1.0000
  N   N6        1.0  0.17174  0.30718  0.24641  1.0000
  N   N7        1.0  0.33825  0.19978  0.25491  1.0000
  N   N8        1.0  0.83300  0.70106  0.30462  1.0000
  N   N9        1.0  0.05732  0.50437  0.26097  1.0000
  N   N10       1.0  0.55698  0.00136  0.24606  1.0000
  N   N11       1.0  0.94875  0.50324  0.27058  1.0000
  N   N12       1.0  0.44920  0.00032  0.25069  1.0000
  H   H1        1.0  0.03084  0.50573  0.27793  1.0000
  H   H2        1.0  0.97523  0.50132  0.24749  1.0000
  H   H3        1.0  0.47435  0.00102  0.27130  1.0000
  C   C33       1.0  0.07793  0.46975  0.25444  1.0000
  C   C34       1.0  0.57769  0.96549  0.22398  1.0000
  C   C35       1.0  0.92831  0.53893  0.28756  1.0000
  C   C36       1.0  0.43067  0.03312  0.22690  1.0000
  C   C37       1.0  0.92858  0.47075  0.29481  1.0000
  C   C38       1.0  0.43003  0.96467  0.22923  1.0000
  C   C39       1.0  0.07741  0.53760  0.24390  1.0000
  C   C40       1.0  0.57694  0.03570  0.24241  1.0000
  C   C41       1.0  0.11306  0.48182  0.22989  1.0000
  C   C42       1.0  0.61269  0.97803  0.20103  1.0000
  C   C43       1.0  0.89324  0.52821  0.32509  1.0000
  C   C44       1.0  0.39852  0.01651  0.18116  1.0000
  C   C45       1.0  0.89342  0.48738  0.33385  1.0000
  C   C46       1.0  0.39784  0.97539  0.18639  1.0000
  C   C47       1.0  0.11272  0.52316  0.22724  1.0000
  C   C48       1.0  0.61214  0.01967  0.20428  1.0000
  H   H4        1.0  0.13554  0.46113  0.21380  1.0000
  H   H5        1.0  0.63559  0.95802  0.18287  1.0000
  H   H6        1.0  0.87100  0.54971  0.34624  1.0000
  H   H7        1.0  0.37884  0.03379  0.14651  1.0000
  H   H8        1.0  0.87128  0.47062  0.36827  1.0000
  H   H9        1.0  0.37706  0.95404  0.16207  1.0000
  H   H10       1.0  0.13483  0.54193  0.21195  1.0000
  H   H11       1.0  0.63430  0.03737  0.17936  1.0000
  N   N13       1.0  0.50338  0.93873  0.24561  1.0000
  N   N14       1.0  0.00330  0.44261  0.27238  1.0000
  N   N15       1.0  0.50310  0.06396  0.26536  1.0000
  N   N16       1.0  0.00256  0.56524  0.26161  1.0000
  C   C49       1.0  0.53162  0.91324  0.24078  1.0000
  C   C50       1.0  0.03182  0.41809  0.27250  1.0000
  C   C51       1.0  0.47374  0.08937  0.29007  1.0000
  C   C52       1.0  0.97443  0.58962  0.25672  1.0000
  C   C53       1.0  0.47511  0.91418  0.25382  1.0000
  C   C54       1.0  0.97583  0.41646  0.26861  1.0000
  C   C55       1.0  0.52903  0.09099  0.31067  1.0000
  C   C56       1.0  0.03067  0.58891  0.23969  1.0000
  C   C57       1.0  0.52062  0.87141  0.24700  1.0000
  C   C58       1.0  0.02194  0.37582  0.27394  1.0000
  C   C59       1.0  0.48082  0.13356  0.36190  1.0000
  C   C60       1.0  0.98509  0.62903  0.22501  1.0000
  C   C61       1.0  0.48556  0.87280  0.26268  1.0000
  C   C62       1.0  0.98778  0.37394  0.26084  1.0000
  C   C63       1.0  0.51503  0.13443  0.37870  1.0000
  C   C64       1.0  0.02012  0.62860  0.21466  1.0000
  H   H12       1.0  0.53683  0.84451  0.24195  1.0000
  H   H13       1.0  0.03858  0.35084  0.28392  1.0000
  H   H14       1.0  0.46212  0.16007  0.39834  1.0000
  H   H15       1.0  0.96792  0.65277  0.20845  1.0000
  H   H16       1.0  0.46875  0.84786  0.27737  1.0000
  H   H17       1.0  0.97276  0.34612  0.24731  1.0000
  H   H18       1.0  0.52899  0.16176  0.43476  1.0000
  H   H19       1.0  0.03747  0.65215  0.18920  1.0000
  C   C65       1.0  0.06670  0.42988  0.26339  1.0000
  C   C66       1.0  0.56670  0.92493  0.22734  1.0000
  C   C67       1.0  0.93951  0.57871  0.27736  1.0000
  C   C68       1.0  0.44047  0.07541  0.25551  1.0000
  C   C69       1.0  0.94047  0.42911  0.28067  1.0000
  C   C70       1.0  0.44076  0.92512  0.24157  1.0000
  C   C71       1.0  0.06553  0.57727  0.23836  1.0000
  C   C72       1.0  0.56488  0.07858  0.28458  1.0000
  H   H20       1.0  0.23469  0.82846  0.32353  1.0000
  O   O1        1.0  0.32128  0.72429  0.17806  1.0000
  H   H21       1.0  0.21033  0.65718  0.19656  1.0000
  H   H22       1.0  0.33528  0.75023  0.18196  1.0000
  H   H23       1.0  0.74300  0.30967  0.14144  1.0000
  O   O2        1.0  0.81694  0.24132  0.36220  1.0000
  H   H24       1.0  0.70748  0.17280  0.37008  1.0000
  H   H25       1.0  0.83163  0.26488  0.34136  1.0000
  H   H26       1.0  0.76441  0.19453  0.38629  1.0000
  O   O3        1.0  0.69026  0.26269  0.16741  1.0000
  H   H27       1.0  0.79916  0.33489  0.17887  1.0000
  H   H28       1.0  0.67515  0.23968  0.19494  1.0000
  H   H29       1.0  0.26952  0.67559  0.17689  1.0000
  O   O4        1.0  0.18284  0.77945  0.31670  1.0000
  H   H30       1.0  0.29375  0.84643  0.29335  1.0000
  H   H31       1.0  0.16904  0.75302  0.30593  1.0000
  H   H32       1.0  0.75519  0.82648  0.40278  1.0000
  O   O5        1.0  0.69292  0.72085  0.11443  1.0000
  H   H33       1.0  0.80084  0.65793  0.17103  1.0000
  H   H34       1.0  0.67656  0.74627  0.13495  1.0000
  H   H35       1.0  0.27315  0.32298  0.21339  1.0000
  O   O6        1.0  0.18551  0.23553  0.29190  1.0000
  H   H36       1.0  0.29492  0.16396  0.28720  1.0000
  H   H37       1.0  0.17233  0.25958  0.27175  1.0000
  H   H38       1.0  0.23624  0.18701  0.30752  1.0000
  O   O7        1.0  0.32425  0.27299  0.21783  1.0000
  H   H39       1.0  0.21358  0.34586  0.23158  1.0000
  H   H40       1.0  0.33768  0.24773  0.22808  1.0000
  H   H41       1.0  0.74685  0.67416  0.11060  1.0000
  O   O8        1.0  0.80853  0.77958  0.40396  1.0000
  H   H42       1.0  0.70170  0.84322  0.32367  1.0000
  H   H43       1.0  0.82428  0.75394  0.38906  1.0000
  H   H44       1.0  0.53052  0.00255  0.26221  1.0000
  C   C73       1.0  0.24033  0.78928  0.79787  1.0000
  C   C74       1.0  0.73446  0.28975  0.70948  1.0000
  C   C75       1.0  0.74994  0.21437  0.77631  1.0000
  C   C76       1.0  0.25848  0.70259  0.68976  1.0000
  C   C77       1.0  0.75851  0.78737  0.74445  1.0000
  C   C78       1.0  0.25934  0.28263  0.68466  1.0000
  C   C79       1.0  0.23908  0.21762  0.82183  1.0000
  C   C80       1.0  0.74072  0.70467  0.73642  1.0000
  C   C81       1.0  0.28465  0.73111  0.68861  1.0000
  C   C82       1.0  0.77625  0.24226  0.76774  1.0000
  C   C83       1.0  0.70816  0.26175  0.71748  1.0000
  C   C84       1.0  0.21408  0.76064  0.79150  1.0000
  C   C85       1.0  0.71561  0.73231  0.71896  1.0000
  C   C86       1.0  0.21361  0.24442  0.80125  1.0000
  C   C87       1.0  0.28481  0.25547  0.70253  1.0000
  C   C88       1.0  0.78370  0.75976  0.76166  1.0000
  C   C89       1.0  0.19748  0.68512  0.73099  1.0000
  C   C90       1.0  0.68985  0.19342  0.76395  1.0000
  C   C91       1.0  0.79406  0.31184  0.73115  1.0000
  C   C92       1.0  0.30167  0.80626  0.74910  1.0000
  C   C93       1.0  0.79978  0.68813  0.77560  1.0000
  C   C94       1.0  0.29978  0.19278  0.79002  1.0000
  C   C95       1.0  0.19841  0.30671  0.71165  1.0000
  C   C96       1.0  0.69883  0.80496  0.71776  1.0000
  C   C97       1.0  0.27540  0.77543  0.74588  1.0000
  C   C98       1.0  0.76827  0.28100  0.73506  1.0000
  C   C99       1.0  0.71606  0.22332  0.75227  1.0000
  C   C100      1.0  0.22335  0.71640  0.73842  1.0000
  C   C101      1.0  0.72463  0.77451  0.72388  1.0000
  C   C102      1.0  0.22400  0.27785  0.73296  1.0000
  C   C103      1.0  0.27452  0.22238  0.77286  1.0000
  C   C104      1.0  0.77458  0.71766  0.75824  1.0000
  N   N17       1.0  0.33422  0.79512  0.69235  1.0000
  N   N18       1.0  0.82558  0.30618  0.75920  1.0000
  N   N19       1.0  0.65794  0.19907  0.74090  1.0000
  N   N20       1.0  0.16431  0.69515  0.76685  1.0000
  N   N21       1.0  0.66654  0.79548  0.70866  1.0000
  N   N22       1.0  0.16547  0.30110  0.73934  1.0000
  N   N23       1.0  0.33294  0.19537  0.74617  1.0000
  N   N24       1.0  0.83145  0.69853  0.79768  1.0000
  N   N25       1.0  0.05248  0.49572  0.73003  1.0000
  N   N26       1.0  0.55100  0.99843  0.77978  1.0000
  N   N27       1.0  0.94430  0.49662  0.72901  1.0000
  N   N28       1.0  0.44406  0.99636  0.75073  1.0000
  H   H45       1.0  0.02616  0.49743  0.73475  1.0000
  H   H46       1.0  0.97041  0.49231  0.69075  1.0000
  H   H47       1.0  0.46959  0.99810  0.76538  1.0000
  C   C105      1.0  0.07171  0.46105  0.73434  1.0000
  C   C106      1.0  0.57090  0.96426  0.78476  1.0000
  C   C107      1.0  0.92529  0.53410  0.75931  1.0000
  C   C108      1.0  0.42375  0.03003  0.74500  1.0000
  C   C109      1.0  0.92367  0.46608  0.76786  1.0000
  C   C110      1.0  0.42550  0.96007  0.72661  1.0000
  C   C111      1.0  0.07343  0.52918  0.72638  1.0000
  C   C112      1.0  0.57035  0.03416  0.79809  1.0000
  C   C113      1.0  0.10684  0.47375  0.73477  1.0000
  C   C114      1.0  0.60404  0.98017  0.81706  1.0000
  C   C115      1.0  0.89082  0.52678  0.82317  1.0000
  C   C116      1.0  0.39056  0.01391  0.71377  1.0000
  C   C117      1.0  0.88995  0.48596  0.83173  1.0000
  C   C118      1.0  0.39147  0.97180  0.70635  1.0000
  C   C119      1.0  0.10778  0.51505  0.73227  1.0000
  C   C120      1.0  0.60427  0.02164  0.81737  1.0000
  H   H48       1.0  0.12859  0.45338  0.73358  1.0000
  H   H49       1.0  0.62492  0.96247  0.83997  1.0000
  H   H50       1.0  0.86977  0.55041  0.86197  1.0000
  H   H51       1.0  0.36917  0.03216  0.69655  1.0000
  H   H52       1.0  0.86819  0.47132  0.88207  1.0000
  H   H53       1.0  0.37096  0.94991  0.68442  1.0000
  H   H54       1.0  0.13043  0.53367  0.72977  1.0000
  H   H55       1.0  0.62594  0.04171  0.83373  1.0000
  N   N29       1.0  0.49951  0.93326  0.73473  1.0000
  N   N30       1.0  0.99711  0.43382  0.72655  1.0000
  N   N31       1.0  0.49653  0.06002  0.77621  1.0000
  N   N32       1.0  0.00004  0.55699  0.72154  1.0000
  C   C121      1.0  0.52821  0.90751  0.71980  1.0000
  C   C122      1.0  0.02537  0.40777  0.71665  1.0000
  C   C123      1.0  0.46775  0.08564  0.79051  1.0000
  C   C124      1.0  0.97266  0.58135  0.70819  1.0000
  C   C125      1.0  0.47268  0.90644  0.70543  1.0000
  C   C126      1.0  0.96915  0.40833  0.71618  1.0000
  C   C127      1.0  0.52307  0.08688  0.80881  1.0000
  C   C128      1.0  0.02871  0.57987  0.70052  1.0000
  C   C129      1.0  0.51957  0.86307  0.67053  1.0000
  C   C130      1.0  0.01511  0.36440  0.69608  1.0000
  C   C131      1.0  0.47600  0.13015  0.84008  1.0000
  C   C132      1.0  0.98450  0.61921  0.66731  1.0000
  C   C133      1.0  0.48491  0.86259  0.66798  1.0000
  C   C134      1.0  0.98065  0.36436  0.68730  1.0000
  C   C135      1.0  0.51043  0.13094  0.85287  1.0000
  C   C136      1.0  0.01948  0.61845  0.66406  1.0000
  H   H56       1.0  0.53740  0.83585  0.63975  1.0000
  H   H57       1.0  0.03191  0.33766  0.68953  1.0000
  H   H58       1.0  0.45799  0.15694  0.86599  1.0000
  H   H59       1.0  0.96850  0.64206  0.63938  1.0000
  H   H60       1.0  0.46926  0.83517  0.63962  1.0000
  H   H61       1.0  0.96499  0.33689  0.66268  1.0000
  H   H62       1.0  0.52529  0.15857  0.89230  1.0000
  H   H63       1.0  0.03742  0.64103  0.63680  1.0000
  C   C137      1.0  0.05994  0.42025  0.72711  1.0000
  C   C138      1.0  0.56162  0.92158  0.75127  1.0000
  C   C139      1.0  0.93734  0.57275  0.73879  1.0000
  C   C140      1.0  0.43396  0.07204  0.76703  1.0000
  C   C141      1.0  0.93384  0.42326  0.74516  1.0000
  C   C142      1.0  0.43773  0.91868  0.71008  1.0000
  C   C143      1.0  0.06295  0.56872  0.71347  1.0000
  C   C144      1.0  0.55836  0.07510  0.80348  1.0000
  H   H64       1.0  0.23337  0.82298  0.84194  1.0000
  O   O9        1.0  0.31782  0.71654  0.63362  1.0000
  H   H65       1.0  0.20707  0.65198  0.69438  1.0000
  H   H66       1.0  0.33186  0.74248  0.63844  1.0000
  H   H67       1.0  0.72866  0.31881  0.68126  1.0000
  O   O10       1.0  0.80827  0.23269  0.79224  1.0000
  H   H68       1.0  0.69800  0.16506  0.79291  1.0000
  H   H69       1.0  0.82276  0.25765  0.78363  1.0000
  H   H70       1.0  0.75567  0.18539  0.80523  1.0000
  O   O11       1.0  0.67603  0.27116  0.69217  1.0000
  H   H71       1.0  0.78567  0.34065  0.70588  1.0000
  H   H72       1.0  0.66152  0.24648  0.70245  1.0000
  H   H73       1.0  0.26558  0.66891  0.65046  1.0000
  O   O12       1.0  0.18062  0.77510  0.83612  1.0000
  H   H74       1.0  0.29307  0.83971  0.79848  1.0000
  H   H75       1.0  0.16638  0.74909  0.82168  1.0000
  H   H76       1.0  0.76547  0.81940  0.74756  1.0000
  O   O13       1.0  0.68334  0.71914  0.70015  1.0000
  H   H77       1.0  0.79141  0.65609  0.76843  1.0000
  H   H78       1.0  0.66929  0.74482  0.69785  1.0000
  H   H79       1.0  0.26720  0.30740  0.62938  1.0000
  O   O14       1.0  0.17976  0.23793  0.84440  1.0000
  H   H80       1.0  0.28962  0.16723  0.83832  1.0000
  H   H81       1.0  0.16630  0.26001  0.81202  1.0000
  H   H82       1.0  0.23112  0.19235  0.87476  1.0000
  O   O15       1.0  0.31842  0.26048  0.65003  1.0000
  H   H83       1.0  0.20793  0.33346  0.66963  1.0000
  H   H84       1.0  0.33209  0.23750  0.67470  1.0000
  H   H85       1.0  0.73365  0.67291  0.73622  1.0000
  O   O16       1.0  0.81593  0.77292  0.78152  1.0000
  H   H86       1.0  0.70709  0.83725  0.72912  1.0000
  H   H87       1.0  0.82922  0.74787  0.79513  1.0000
  H   H88       1.0  0.52580  0.99697  0.76024  1.0000
  C  Sn1       1.0  0.60044  0.83306  0.29496  1.0000
  C   C145      1.0  0.63174  0.82069  0.19039  1.0000
  C  Sn2       1.0  0.64749  0.84774  0.10714  1.0000
  C  Sn3       1.0  0.63164  0.88801  0.12893  1.0000
  C   C146      1.0  0.60036  0.90038  0.23347  1.0000
  C  Sn4       1.0  0.58459  0.87334  0.31675  1.0000
  O  Te1       1.0  0.58516  0.80551  0.37695  1.0000
  O  Te2       1.0  0.67878  0.83465  0.00320  1.0000
  O  Te3       1.0  0.64695  0.91557  0.04682  1.0000
  O  Te4       1.0  0.55332  0.88641  0.42065  1.0000
  Mg  Mg1       1.0  0.65829  0.95941  0.91857  1.0000
  Mg  Mg2       1.0  0.54254  0.83768  0.50541  1.0000
  C  Sn5       1.0  0.12110  0.33446  0.10694  1.0000
  C   C147      1.0  0.14665  0.33927  0.20815  1.0000
  C  Sn6       1.0  0.14458  0.37359  0.34892  1.0000
  C  Sn7       1.0  0.11639  0.40371  0.38946  1.0000
  C   C148      1.0  0.09086  0.39889  0.28830  1.0000
  C  Sn8       1.0  0.09290  0.36458  0.14747  1.0000
  O  Te5       1.0  0.09242  0.37589  0.96681  1.0000
  O  Te6       1.0  0.17044  0.37773  0.44818  1.0000
  O  Te7       1.0  0.11382  0.43829  0.52971  1.0000
  O  Te8       1.0  0.06706  0.36043  0.04827  1.0000
  Mg  Mg3       1.0  0.15545  0.43018  0.62613  1.0000
  Mg  Mg4       1.0  0.05076  0.38397  0.87034  1.0000
  C  Sn9       1.0  0.36956  0.10477  0.30099  1.0000
  C   C149      1.0  0.40440  0.10096  0.23142  1.0000
  C  Sn10      1.0  0.42007  0.13442  0.18525  1.0000
  C  Sn11      1.0  0.40052  0.17250  0.20920  1.0000
  C   C150      1.0  0.36572  0.17630  0.27875  1.0000
  C  Sn12      1.0  0.35002  0.14285  0.32494  1.0000
  O  Te9       1.0  0.35443  0.07091  0.34624  1.0000
  O  Te10      1.0  0.45493  0.12986  0.11588  1.0000
  O  Te11      1.0  0.41569  0.20637  0.16387  1.0000
  O  Te12      1.0  0.31519  0.14740  0.39429  1.0000
  Mg  Mg5       1.0  0.46394  0.18492  0.07429  1.0000
  Mg  Mg6       1.0  0.30615  0.09237  0.43601  1.0000
  C  Sn13      1.0  0.89795  0.65478  0.44039  1.0000
  C   C151      1.0  0.90591  0.61444  0.33146  1.0000
  C  Sn14      1.0  0.89217  0.60213  0.18516  1.0000
  C  Sn15      1.0  0.87002  0.63073  0.14688  1.0000
  C   C152      1.0  0.86206  0.67104  0.25575  1.0000
  C  Sn16      1.0  0.87579  0.68338  0.40210  1.0000
  O  Te13      1.0  0.91198  0.66642  0.58593  1.0000
  O  Te14      1.0  0.90050  0.56163  0.07822  1.0000
  O  Te15      1.0  0.85598  0.61906  0.00119  1.0000
  O  Te16      1.0  0.86748  0.72385  0.50898  1.0000
  Mg  Mg7       1.0  0.84372  0.63649  0.89502  1.0000
  Mg  Mg8       1.0  0.89300  0.72503  0.69217  1.0000
  C  Sn17      1.0  0.40441  0.82270  0.15760  1.0000
  C   C153      1.0  0.37125  0.82902  0.24814  1.0000
  C  Sn18      1.0  0.35712  0.86992  0.32567  1.0000
  C  Sn19      1.0  0.37654  0.90525  0.31235  1.0000
  C   C154      1.0  0.40968  0.89892  0.22184  1.0000
  C  Sn20      1.0  0.42382  0.85803  0.14428  1.0000
  O  Te17      1.0  0.41801  0.78154  0.08111  1.0000
  O  Te18      1.0  0.32392  0.87544  0.41555  1.0000
  O  Te19      1.0  0.36291  0.94643  0.38895  1.0000
  O  Te20      1.0  0.45700  0.85250  0.05443  1.0000
  Mg  Mg9       1.0  0.31661  0.93769  0.49750  1.0000
  Mg  Mg10      1.0  0.43307  0.86625  0.97237  1.0000
  C  Sn21      1.0  0.86891  0.36816  0.14649  1.0000
  C   C155      1.0  0.86519  0.33695  0.22640  1.0000
  C  Sn22      1.0  0.88458  0.33745  0.35079  1.0000
  C  Sn23      1.0  0.90815  0.36984  0.39634  1.0000
  C   C156      1.0  0.91185  0.40102  0.31647  1.0000
  C  Sn24      1.0  0.89248  0.40054  0.19204  1.0000
  O  Te21      1.0  0.84927  0.36704  0.02249  1.0000
  O  Te22      1.0  0.88042  0.30590  0.42887  1.0000
  O  Te23      1.0  0.92780  0.37093  0.52045  1.0000
  O  Te24      1.0  0.89662  0.43207  0.11400  1.0000
  Mg  Mg11      1.0  0.91298  0.32101  0.59048  1.0000
  Mg  Mg12      1.0  0.83281  0.49300  0.95244  1.0000
  C  Sn25      1.0  0.64898  0.11944  0.30151  1.0000
  C   C157      1.0  0.64896  0.15517  0.24636  1.0000
  C  Sn26      1.0  0.61780  0.17366  0.23216  1.0000
  C  Sn27      1.0  0.58598  0.15609  0.27407  1.0000
  C   C158      1.0  0.58600  0.12039  0.32922  1.0000
  C  Sn28      1.0  0.61716  0.10187  0.34342  1.0000
  O  Te25      1.0  0.68044  0.10147  0.31476  1.0000
  O  Te26      1.0  0.61844  0.20936  0.17669  1.0000
  O  Te27      1.0  0.55450  0.17409  0.26077  1.0000
  O  Te28      1.0  0.61652  0.06620  0.39889  1.0000
  Mg  Mg13      1.0  0.56881  0.22247  0.17944  1.0000
  Mg  Mg14      1.0  0.66614  0.05307  0.39626  1.0000
  C  Sn29      1.0  0.13713  0.62979  0.08242  1.0000
  C   C159      1.0  0.13894  0.66804  0.20314  1.0000
  C  Sn30      1.0  0.11812  0.67629  0.35475  1.0000
  C  Sn31      1.0  0.09500  0.64567  0.38643  1.0000
  C   C160      1.0  0.09320  0.60745  0.26578  1.0000
  C  Sn32      1.0  0.11402  0.59917  0.11410  1.0000
  O  Te29      1.0  0.12693  0.69820  0.93174  1.0000
  O  Te30      1.0  0.12038  0.71477  0.47349  1.0000
  O  Te31      1.0  0.07393  0.65329  0.53726  1.0000
  O  Te32      1.0  0.08050  0.63671  0.99542  1.0000
  Mg  Mg15      1.0  0.08639  0.71039  0.65975  1.0000
  Mg  Mg16      1.0  0.11449  0.64105  0.80916  1.0000
  C  Sn33      1.0  0.58915  0.85310  0.84965  1.0000
  C   C161      1.0  0.59195  0.88925  0.79702  1.0000
  C  Sn34      1.0  0.61947  0.89236  0.67978  1.0000
  C  Sn35      1.0  0.64473  0.85862  0.61367  1.0000
  C   C162      1.0  0.64193  0.82249  0.66627  1.0000
  C  Sn36      1.0  0.61441  0.81936  0.78354  1.0000
  O  Te33      1.0  0.56142  0.85068  0.96698  1.0000
  O  Te34      1.0  0.62172  0.92882  0.62912  1.0000
  O  Te35      1.0  0.67248  0.86107  0.49625  1.0000
  O  Te36      1.0  0.61215  0.78292  0.83418  1.0000
  Mg  Mg17      1.0  0.66428  0.91720  0.46638  1.0000
  Mg  Mg18      1.0  0.56960  0.79450  0.99684  1.0000
  C  Sn37      1.0  0.11965  0.32937  0.57286  1.0000
  C   C163      1.0  0.14154  0.33312  0.69041  1.0000
  C  Sn38      1.0  0.13460  0.36433  0.84052  1.0000
  C  Sn39      1.0  0.10515  0.39237  0.87390  1.0000
  C   C164      1.0  0.08328  0.38861  0.75641  1.0000
  C  Sn40      1.0  0.09020  0.35741  0.60624  1.0000
  O  Te37      1.0  0.12709  0.29793  0.42362  1.0000
  O  Te38      1.0  0.15687  0.36747  0.95610  1.0000
  O  Te39      1.0  0.12898  0.34784  0.02329  1.0000
  O  Te40      1.0  0.06795  0.35426  0.49072  1.0000
  Mg  Mg19      1.0  0.16703  0.33946  0.14143  1.0000
  Mg  Mg20      1.0  0.08901  0.30627  0.30539  1.0000
  C  Sn41      1.0  0.36384  0.10472  0.82804  1.0000
  C   C165      1.0  0.39795  0.09784  0.74800  1.0000
  C  Sn42      1.0  0.41366  0.12811  0.68138  1.0000
  C  Sn43      1.0  0.39490  0.16607  0.69513  1.0000
  C   C166      1.0  0.36082  0.17293  0.77515  1.0000
  C  Sn44      1.0  0.34508  0.14267  0.84178  1.0000
  O  Te41      1.0  0.34865  0.07401  0.89373  1.0000
  O  Te42      1.0  0.44778  0.12052  0.60187  1.0000
  O  Te43      1.0  0.41013  0.19678  0.62935  1.0000
  O  Te44      1.0  0.31098  0.15025  0.92127  1.0000
  Mg  Mg21      1.0  0.45720  0.17191  0.53250  1.0000
  Mg  Mg22      1.0  0.30154  0.09890  0.99076  1.0000
  C  Sn45      1.0  0.87979  0.60296  0.63486  1.0000
  C   C167      1.0  0.90884  0.60779  0.71518  1.0000
  C  Sn46      1.0  0.91083  0.64300  0.84915  1.0000
  C  Sn47      1.0  0.88319  0.67403  0.90407  1.0000
  C   C168      1.0  0.85416  0.66920  0.82378  1.0000
  C  Sn48      1.0  0.85215  0.63399  0.68977  1.0000
  O  Te45      1.0  0.87836  0.56750  0.50119  1.0000
  O  Te46      1.0  0.94014  0.64714  0.92744  1.0000
  O  Te47      1.0  0.91591  0.63352  0.03785  1.0000
  O  Te48      1.0  0.82286  0.62985  0.61152  1.0000
  Mg  Mg23      1.0  0.96125  0.62502  0.10413  1.0000
  Mg  Mg24      1.0  0.83297  0.57598  0.43489  1.0000
  C  Sn49      1.0  0.38322  0.88159  0.86448  1.0000
  C   C169      1.0  0.41081  0.88083  0.74178  1.0000
  C  Sn50      1.0  0.41143  0.85311  0.58512  1.0000
  C  Sn51      1.0  0.38388  0.82561  0.55032  1.0000
  C   C170      1.0  0.35631  0.82639  0.67296  1.0000
  C  Sn52      1.0  0.35567  0.85409  0.82967  1.0000
  O  Te49      1.0  0.41440  0.83357  0.02022  1.0000
  O  Te50      1.0  0.43930  0.85291  0.46448  1.0000
  O  Te51      1.0  0.38398  0.79763  0.39442  1.0000
  O  Te52      1.0  0.32782  0.85431  0.95026  1.0000
  Mg  Mg25      1.0  0.42764  0.80914  0.27109  1.0000
  Mg  Mg26      1.0  0.37071  0.82209  0.14365  1.0000
  C  Sn53      1.0  0.86305  0.40215  0.73552  1.0000
  C   C171      1.0  0.89570  0.40004  0.78227  1.0000
  C  Sn54      1.0  0.90772  0.36314  0.80860  1.0000
  C  Sn55      1.0  0.88670  0.32760  0.78766  1.0000
  C   C172      1.0  0.85408  0.32972  0.74091  1.0000
  C  Sn56      1.0  0.84203  0.36661  0.71458  1.0000
  O  Te53      1.0  0.85155  0.43936  0.70986  1.0000
  O  Te54      1.0  0.94045  0.36178  0.85533  1.0000
  O  Te55      1.0  0.89823  0.29037  0.81337  1.0000
  O  Te56      1.0  0.80933  0.36798  0.66785  1.0000
  Mg  Mg27      1.0  0.94467  0.30397  0.87575  1.0000
  Mg  Mg28      1.0  0.80509  0.42576  0.64732  1.0000
  C  Sn57      1.0  0.59137  0.16862  0.71961  1.0000
  C   C173      1.0  0.62053  0.17899  0.79764  1.0000
  C  Sn58      1.0  0.63413  0.15140  0.87125  1.0000
  C  Sn59      1.0  0.61827  0.11263  0.86669  1.0000
  C   C174      1.0  0.58913  0.10228  0.78868  1.0000
  C  Sn60      1.0  0.57551  0.12985  0.71506  1.0000
  O  Te57      1.0  0.57821  0.19668  0.64682  1.0000
  O  Te58      1.0  0.66330  0.16247  0.94857  1.0000
  O  Te59      1.0  0.63146  0.08457  0.93957  1.0000
  O  Te60      1.0  0.54636  0.11880  0.63774  1.0000
  Mg  Mg29      1.0  0.70288  0.03778  0.03000  1.0000
  Mg  Mg30      1.0  0.53803  0.16747  0.55621  1.0000
  C  Sn61      1.0  0.13238  0.59291  0.64276  1.0000
  C   C175      1.0  0.09927  0.59638  0.73246  1.0000
  C  Sn62      1.0  0.08450  0.63595  0.82570  1.0000
  C  Sn63      1.0  0.10320  0.67283  0.82929  1.0000
  C   C176      1.0  0.13629  0.66936  0.73962  1.0000
  C  Sn64      1.0  0.15108  0.62979  0.64636  1.0000
  O  Te61      1.0  0.14663  0.55302  0.55039  1.0000
  O  Te62      1.0  0.05136  0.63862  0.91439  1.0000
  O  Te63      1.0  0.08892  0.71274  0.92177  1.0000
  O  Te64      1.0  0.18419  0.62711  0.55768  1.0000
  Mg  Mg31      1.0  0.07425  0.62409  0.02175  1.0000
  Mg  Mg32      1.0  0.19258  0.56568  0.45022  1.0000
