data_image0
_chemical_formula_structural       C2OHOHOHOHC4H2C8H4N2C8H4C4O2C4OH4O2HC4OH4O2HB4N2H2C2OHOHOHOHC4H2C8H4N2C8H4C4O2C4OH4O2HC4OH4O2HB4N2H2C2Sn2C2HTe2HMgC2Sn2C2HTe2HMgC2Sn2C2HTe2HMgC2Sn2C2HTe2HMgC2Sn2C2HTe2HMgC2Sn2C2HTe2HMgC2Sn2C2HTe2HMgC2Sn2C2HTe2HMgC2Sn2C2HTe2HMgC2Sn2C2HTe2HMg
_chemical_formula_sum              "C108 O24 H72 N8 B8 Sn20 Te20 Mg10"
_cell_length_a       25.8122
_cell_length_b       25.6434
_cell_length_c       8.90858
_cell_angle_alpha    94.1075
_cell_angle_beta     101.75
_cell_angle_gamma    96.1486

_symmetry_space_group_name_H-M    'P1'
_space_group_IT_number       1

loop_
  _space_group_symop_operation_xyz
  'x, y, z'

loop_
  _atom_site_type_symbol
  _atom_site_label
  _atom_site_symmetry_multiplicity
  _atom_site_fract_x
  _atom_site_fract_y
  _atom_site_fract_z
  _atom_site_occupancy
  C   C1        1.0  0.49027  0.54635  0.18655  1.0000
  C   C2        1.0  0.50496  0.44012  0.19080  1.0000
  O   O1        1.0  0.48203  0.59860  0.19523  1.0000
  H   H1        1.0  0.51433  0.61990  0.18438  1.0000
  O   O2        1.0  0.51382  0.38750  0.19647  1.0000
  H   H2        1.0  0.48432  0.36935  0.23298  1.0000
  O   O3        1.0  0.89588  0.02802  0.26637  1.0000
  H   H3        1.0  0.88882  0.06100  0.31426  1.0000
  O   O4        1.0  0.11119  0.02352  0.26968  1.0000
  H   H4        1.0  0.12730  0.03880  0.42383  1.0000
  C   C3        1.0  0.53973  0.53088  0.17416  1.0000
  C   C4        1.0  0.45471  0.45539  0.19186  1.0000
  C   C5        1.0  0.54727  0.47765  0.17793  1.0000
  C   C6        1.0  0.44699  0.50845  0.19095  1.0000
  H   H5        1.0  0.57270  0.55997  0.16514  1.0000
  H   H6        1.0  0.42118  0.42641  0.19580  1.0000
  C   C7        1.0  0.61822  0.02052  0.24221  1.0000
  C   C8        1.0  0.37530  0.95746  0.25664  1.0000
  C   C9        1.0  0.57332  0.09170  0.25557  1.0000
  C   C10       1.0  0.42297  0.88718  0.28117  1.0000
  C   C11       1.0  0.65496  0.06712  0.24867  1.0000
  C   C12       1.0  0.33969  0.91154  0.26606  1.0000
  C   C13       1.0  0.62770  0.11021  0.25410  1.0000
  C   C14       1.0  0.36866  0.86946  0.28362  1.0000
  H   H7        1.0  0.69693  0.06669  0.24960  1.0000
  H   H8        1.0  0.29742  0.91114  0.26085  1.0000
  H   H9        1.0  0.64424  0.15103  0.25698  1.0000
  H   H10       1.0  0.35366  0.82944  0.29659  1.0000
  N   N1        1.0  0.53838  0.92688  0.26640  1.0000
  N   N2        1.0  0.45595  0.05220  0.24459  1.0000
  C   C15       1.0  0.58859  0.92396  0.23847  1.0000
  C   C16       1.0  0.40305  0.05371  0.24831  1.0000
  C   C17       1.0  0.47789  0.10418  0.25868  1.0000
  C   C18       1.0  0.51753  0.87535  0.27278  1.0000
  C   C19       1.0  0.59802  0.86888  0.21726  1.0000
  C   C20       1.0  0.39174  0.10804  0.27019  1.0000
  C   C21       1.0  0.43808  0.13948  0.27775  1.0000
  C   C22       1.0  0.55522  0.83899  0.24650  1.0000
  H   H11       1.0  0.63261  0.85515  0.18313  1.0000
  H   H12       1.0  0.35351  0.11942  0.28459  1.0000
  H   H13       1.0  0.44407  0.18232  0.29732  1.0000
  H   H14       1.0  0.54869  0.79621  0.24199  1.0000
  C   C23       1.0  0.62804  0.96701  0.23296  1.0000
  C   C24       1.0  0.36370  0.00998  0.24470  1.0000
  C   C25       1.0  0.53190  0.12283  0.26387  1.0000
  C   C26       1.0  0.46538  0.85637  0.28797  1.0000
  O   O5        1.0  0.59396  0.45773  0.16511  1.0000
  O   O6        1.0  0.39783  0.52727  0.18248  1.0000
  C   C27       1.0  0.35919  0.50686  0.25620  1.0000
  C   C28       1.0  0.31413  0.54020  0.23264  1.0000
  C   C29       1.0  0.26307  0.51165  0.26378  1.0000
  C   C30       1.0  0.21781  0.54392  0.26492  1.0000
  O   O7        1.0  0.36275  0.46880  0.33027  1.0000
  H   H15       1.0  0.30877  0.55355  0.11683  1.0000
  H   H16       1.0  0.33046  0.57618  0.31241  1.0000
  H   H17       1.0  0.27174  0.49592  0.37648  1.0000
  H   H18       1.0  0.24705  0.47654  0.18230  1.0000
  O   O8        1.0  0.23287  0.59752  0.28070  1.0000
  O   O9        1.0  0.17122  0.52559  0.25181  1.0000
  H   H19       1.0  0.19958  0.61274  0.27970  1.0000
  C   C31       1.0  0.64407  0.48411  0.23014  1.0000
  C   C32       1.0  0.68544  0.45023  0.20346  1.0000
  C   C33       1.0  0.74270  0.47795  0.25474  1.0000
  C   C34       1.0  0.78537  0.44451  0.22856  1.0000
  O   O10       1.0  0.65155  0.52717  0.30732  1.0000
  H   H20       1.0  0.67524  0.43496  0.08125  1.0000
  H   H21       1.0  0.67941  0.41482  0.26544  1.0000
  H   H22       1.0  0.75186  0.49052  0.37902  1.0000
  H   H23       1.0  0.74883  0.51378  0.19693  1.0000
  O   O11       1.0  0.77543  0.39335  0.26441  1.0000
  O   O12       1.0  0.82459  0.45959  0.18024  1.0000
  H   H24       1.0  0.80615  0.37665  0.24661  1.0000
  B   B1        1.0  0.60735  0.34994  0.34102  1.0000
  B   B2        1.0  0.41645  0.63584  0.38358  1.0000
  B   B3        1.0  0.13851  0.02947  0.12623  1.0000
  B   B4        1.0  0.84035  0.95110  0.43514  1.0000
  N   N3        1.0  0.56938  0.03743  0.24759  1.0000
  N   N4        1.0  0.42504  0.94074  0.26612  1.0000
  H   H25       1.0  0.53525  0.01296  0.24821  1.0000
  H   H26       1.0  0.45830  0.96566  0.26130  1.0000
  C   C35       1.0  0.49225  0.55909  0.70241  1.0000
  C   C36       1.0  0.50356  0.45284  0.73603  1.0000
  O   O13       1.0  0.48634  0.61199  0.69537  1.0000
  H   H27       1.0  0.52073  0.63112  0.69297  1.0000
  O   O14       1.0  0.51072  0.40077  0.75395  1.0000
  H   H28       1.0  0.48603  0.38646  0.81519  1.0000
  O   O15       1.0  0.89884  0.97544  0.74394  1.0000
  H   H29       1.0  0.89152  0.99948  0.82361  1.0000
  O   O16       1.0  0.11618  0.01205  0.75222  1.0000
  H   H30       1.0  0.13201  0.02690  0.88488  1.0000
  C   C37       1.0  0.54008  0.53982  0.69256  1.0000
  C   C38       1.0  0.45493  0.47144  0.74130  1.0000
  C   C39       1.0  0.54581  0.48680  0.70779  1.0000
  C   C40       1.0  0.44869  0.52413  0.72228  1.0000
  H   H31       1.0  0.57348  0.56599  0.67262  1.0000
  H   H32       1.0  0.42148  0.44554  0.76085  1.0000
  C   C41       1.0  0.62263  0.03944  0.74388  1.0000
  C   C42       1.0  0.38735  0.97178  0.77924  1.0000
  C   C43       1.0  0.57526  0.10798  0.75224  1.0000
  C   C44       1.0  0.43657  0.90334  0.78776  1.0000
  C   C45       1.0  0.65845  0.08675  0.75333  1.0000
  C   C46       1.0  0.36063  0.92981  0.84317  1.0000
  C   C47       1.0  0.62961  0.12850  0.75575  1.0000
  C   C48       1.0  0.38983  0.88789  0.84434  1.0000
  H   H33       1.0  0.70057  0.08879  0.75511  1.0000
  H   H34       1.0  0.32484  0.93188  0.88760  1.0000
  H   H35       1.0  0.64347  0.16990  0.75614  1.0000
  H   H36       1.0  0.38150  0.84965  0.88374  1.0000
  N   N5        1.0  0.54795  0.94290  0.75194  1.0000
  N   N6        1.0  0.45984  0.06510  0.73350  1.0000
  C   C49       1.0  0.59898  0.94231  0.73096  1.0000
  C   C50       1.0  0.40492  0.06217  0.70501  1.0000
  C   C51       1.0  0.47733  0.11638  0.71756  1.0000
  C   C52       1.0  0.52873  0.89088  0.75505  1.0000
  C   C53       1.0  0.61148  0.88836  0.71078  1.0000
  C   C54       1.0  0.38728  0.11145  0.65320  1.0000
  C   C55       1.0  0.43243  0.14615  0.66897  1.0000
  C   C56       1.0  0.56832  0.85616  0.73084  1.0000
  H   H37       1.0  0.64787  0.87645  0.68460  1.0000
  H   H38       1.0  0.34663  0.11845  0.60526  1.0000
  H   H39       1.0  0.43515  0.18683  0.64334  1.0000
  H   H40       1.0  0.56303  0.81330  0.72954  1.0000
  C   C57       1.0  0.63531  0.98759  0.73123  1.0000
  C   C58       1.0  0.36967  0.02066  0.74065  1.0000
  C   C59       1.0  0.53184  0.13712  0.74488  1.0000
  C   C60       1.0  0.47759  0.87214  0.77678  1.0000
  O   O17       1.0  0.59142  0.46559  0.68476  1.0000
  O   O18       1.0  0.40125  0.54600  0.71244  1.0000
  C   C61       1.0  0.35649  0.52280  0.75352  1.0000
  C   C62       1.0  0.31439  0.55956  0.73419  1.0000
  C   C63       1.0  0.26044  0.53219  0.74911  1.0000
  C   C64       1.0  0.21669  0.56623  0.75505  1.0000
  O   O19       1.0  0.35211  0.47930  0.79921  1.0000
  H   H41       1.0  0.31320  0.57669  0.62433  1.0000
  H   H42       1.0  0.33095  0.59252  0.82390  1.0000
  H   H43       1.0  0.26568  0.51070  0.85300  1.0000
  H   H44       1.0  0.24343  0.50126  0.65508  1.0000
  O   O20       1.0  0.23511  0.61909  0.78663  1.0000
  O   O21       1.0  0.16969  0.54947  0.74135  1.0000
  H   H45       1.0  0.20396  0.63715  0.79111  1.0000
  C   C65       1.0  0.64014  0.48624  0.77788  1.0000
  C   C66       1.0  0.68366  0.45896  0.73064  1.0000
  C   C67       1.0  0.73918  0.48900  0.79618  1.0000
  C   C68       1.0  0.78422  0.45843  0.77199  1.0000
  O   O22       1.0  0.64571  0.52175  0.87972  1.0000
  H   H46       1.0  0.67542  0.45143  0.60479  1.0000
  H   H47       1.0  0.67952  0.42017  0.77519  1.0000
  H   H48       1.0  0.74406  0.49871  0.92066  1.0000
  H   H49       1.0  0.74448  0.52619  0.74481  1.0000
  O   O23       1.0  0.77887  0.40885  0.82079  1.0000
  O   O24       1.0  0.82136  0.47347  0.71518  1.0000
  H   H50       1.0  0.81036  0.39331  0.80268  1.0000
  B   B5        1.0  0.60594  0.36299  0.87608  1.0000
  B   B6        1.0  0.41870  0.65793  0.89431  1.0000
  B   B7        1.0  0.14376  0.03029  0.61319  1.0000
  B   B8        1.0  0.84940  0.96836  0.60949  1.0000
  N   N7        1.0  0.57301  0.05402  0.74546  1.0000
  N   N8        1.0  0.43407  0.95483  0.75276  1.0000
  H   H51       1.0  0.54062  0.02739  0.74747  1.0000
  H   H52       1.0  0.46292  0.97949  0.72015  1.0000
  C   C69       1.0  0.99933  0.08229  0.30954  1.0000
  C   C70       1.0  0.95691  0.04166  0.27129  1.0000
  C  Sn1       1.0  0.07261  0.99018  0.23323  1.0000
  C  Sn2       1.0  0.12538  0.97929  0.23361  1.0000
  C   C71       1.0  0.06114  0.02020  0.27215  1.0000
  C   C72       1.0  0.05139  0.07157  0.31001  1.0000
  H   H53       1.0  0.99180  0.12203  0.33891  1.0000
  O  Te1       1.0  0.02977  0.95006  0.19524  1.0000
  O  Te2       1.0  0.13579  0.92819  0.19609  1.0000
  H   H54       1.0  0.08424  0.10302  0.33972  1.0000
  Mg  Mg1       1.0  0.06419  0.88682  0.15232  1.0000
  C   C73       1.0  0.76126  0.98166  0.16230  1.0000
  C   C74       1.0  0.78987  0.95434  0.27495  1.0000
  C  Sn3       1.0  0.76304  0.92152  0.36058  1.0000
  C  Sn4       1.0  0.70652  0.91602  0.33262  1.0000
  C   C75       1.0  0.67826  0.94349  0.21960  1.0000
  C   C76       1.0  0.70551  0.97624  0.13462  1.0000
  H   H55       1.0  0.67593  0.00698  0.09648  1.0000
  O  Te3       1.0  0.79224  0.89453  0.47272  1.0000
  O  Te4       1.0  0.67870  0.88347  0.41649  1.0000
  H   H56       1.0  0.68335  0.99736  0.04734  1.0000
  Mg  Mg2       1.0  0.73626  0.85486  0.55703  1.0000
  C   C77       1.0  0.34040  0.00587  0.32937  1.0000
  C   C78       1.0  0.20601  0.03723  0.22756  1.0000
  C  Sn5       1.0  0.23000  0.06080  0.11798  1.0000
  C  Sn6       1.0  0.28297  0.05274  0.11044  1.0000
  C   C79       1.0  0.31062  0.02127  0.21274  1.0000
  C   C80       1.0  0.39265  0.99789  0.32197  1.0000
  H   H57       1.0  0.32154  0.98775  0.41383  1.0000
  O  Te5       1.0  0.20148  0.09202  0.01718  1.0000
  O  Te6       1.0  0.30789  0.07582  0.00201  1.0000
  H   H58       1.0  0.41432  0.97358  0.40071  1.0000
  Mg  Mg3       1.0  0.32640  0.14791  0.88964  1.0000
  C   C81       1.0  0.60079  0.21598  0.41232  1.0000
  C   C82       1.0  0.55619  0.18659  0.31560  1.0000
  C  Sn7       1.0  0.52244  0.21086  0.20630  1.0000
  C  Sn8       1.0  0.53366  0.26557  0.19384  1.0000
  C   C83       1.0  0.57840  0.29462  0.29107  1.0000
  C   C84       1.0  0.61190  0.26994  0.40007  1.0000
  H   H59       1.0  0.62673  0.19688  0.49660  1.0000
  O  Te7       1.0  0.47804  0.18091  0.11062  1.0000
  O  Te8       1.0  0.50060  0.29082  0.08557  1.0000
  H   H60       1.0  0.64645  0.29270  0.47487  1.0000
  Mg  Mg4       1.0  0.51867  0.26602  0.98117  1.0000
  C   C85       1.0  0.40617  0.75186  0.19207  1.0000
  C   C86       1.0  0.44314  0.79171  0.28134  1.0000
  C  Sn9       1.0  0.48044  0.77971  0.40720  1.0000
  C  Sn10      1.0  0.48064  0.72680  0.44405  1.0000
  C   C87       1.0  0.44350  0.68722  0.35396  1.0000
  C   C88       1.0  0.40634  0.69967  0.22831  1.0000
  H   H61       1.0  0.37743  0.76149  0.09479  1.0000
  O  Te9       1.0  0.51709  0.82000  0.49521  1.0000
  O  Te10      1.0  0.51749  0.71370  0.56918  1.0000
  H   H62       1.0  0.37774  0.66881  0.15915  1.0000
  Mg  Mg5       1.0  0.55943  0.78244  0.65443  1.0000
  C   C89       1.0  0.99512  0.93517  0.73481  1.0000
  C   C90       1.0  0.95925  0.97149  0.74831  1.0000
  C  Sn11      1.0  0.86914  0.02545  0.75369  1.0000
  C  Sn12      1.0  0.92236  0.04327  0.74533  1.0000
  C   C91       1.0  0.06433  0.00662  0.73173  1.0000
  C   C92       1.0  0.04761  0.95271  0.72650  1.0000
  H   H63       1.0  0.98218  0.89346  0.73068  1.0000
  O  Te11      1.0  0.83280  0.06120  0.76725  1.0000
  O  Te12      1.0  0.93970  0.09699  0.75039  1.0000
  H   H64       1.0  0.07538  0.92460  0.71595  1.0000
  Mg  Mg6       1.0  0.87535  0.13039  0.76953  1.0000
  C   C93       1.0  0.82855  0.01567  0.59000  1.0000
  C   C94       1.0  0.79871  0.98461  0.67265  1.0000
  C  Sn13      1.0  0.82263  0.94853  0.76599  1.0000
  C  Sn14      1.0  0.87744  0.94355  0.77659  1.0000
  C   C95       1.0  0.90695  0.97482  0.69353  1.0000
  C   C96       1.0  0.88262  0.01079  0.60043  1.0000
  H   H65       1.0  0.70333  0.04351  0.51803  1.0000
  O  Te13      1.0  0.79223  0.91781  0.84775  1.0000
  O  Te14      1.0  0.90234  0.90781  0.86906  1.0000
  H   H66       1.0  0.79933  0.03485  0.53653  1.0000
  Mg  Mg7       1.0  0.84414  0.87469  0.95828  1.0000
  C   C97       1.0  0.22984  0.98163  0.66736  1.0000
  C   C98       1.0  0.10008  0.02525  0.71224  1.0000
  C  Sn15      1.0  0.13153  0.07331  0.76643  1.0000
  C  Sn16      1.0  0.18738  0.07767  0.77570  1.0000
  C   C99       1.0  0.21035  0.03382  0.73041  1.0000
  C   C100      1.0  0.28492  0.98590  0.67640  1.0000
  H   H67       1.0  0.20521  0.94456  0.62549  1.0000
  O  Te15      1.0  0.10755  0.11649  0.81085  1.0000
  O  Te16      1.0  0.21974  0.12525  0.82938  1.0000
  H   H68       1.0  0.30301  0.95214  0.64157  1.0000
  Mg  Mg8       1.0  0.16846  0.17291  0.87641  1.0000
  C   C101      1.0  0.53308  0.27358  0.66949  1.0000
  C   C102      1.0  0.56439  0.30146  0.80364  1.0000
  C  Sn17      1.0  0.59077  0.27454  0.92126  1.0000
  C  Sn18      1.0  0.58566  0.21868  0.90392  1.0000
  C   C103      1.0  0.55427  0.19115  0.76922  1.0000
  C   C104      1.0  0.52803  0.21848  0.65227  1.0000
  H   H69       1.0  0.51279  0.29472  0.57896  1.0000
  O  Te17      1.0  0.54810  0.27017  0.05456  1.0000
  O  Te18      1.0  0.53783  0.15795  0.01965  1.0000
  H   H70       1.0  0.50381  0.19688  0.54838  1.0000
  Mg  Mg9       1.0  0.57567  0.21439  0.17991  1.0000
  C   C105      1.0  0.41409  0.77094  0.68382  1.0000
  C   C106      1.0  0.45266  0.80939  0.77334  1.0000
  C  Sn19      1.0  0.48884  0.79590  0.89945  1.0000
  C  Sn20      1.0  0.48629  0.74289  0.93632  1.0000
  C   C107      1.0  0.44758  0.70471  0.84598  1.0000
  C   C108      1.0  0.41155  0.71865  0.72007  1.0000
  H   H71       1.0  0.38623  0.78171  0.58635  1.0000
  O  Te19      1.0  0.52711  0.83481  0.98770  1.0000
  O  Te20      1.0  0.44820  0.69549  0.06170  1.0000
  H   H72       1.0  0.38172  0.68886  0.65073  1.0000
  Mg  Mg10      1.0  0.49317  0.76269  0.14722  1.0000
