data_image0
_chemical_formula_structural       C2OHOHOHOHC4H2C8H4N2C8H4C10H4C4H4C2O2C4OH4O2HC4OH4O2HB4N2H2C4OHOHOHOHC8H4C8H4N2C8H4C10H4C4H4C2O2H2C4OH4O2HC4OH4O2HB4N2H2C2Sn2C2HTe2HMgC2Sn2C2HTe2HMgC2Sn2C2HTe2HMgC2Sn2C2HTe2HMgC2Sn2C2HTe2HMg
_chemical_formula_sum              "C118 O24 H82 N8 B8 Sn10 Te10 Mg5"
_cell_length_a       25.8122
_cell_length_b       25.6434
_cell_length_c       8.90858
_cell_angle_alpha    94.1075
_cell_angle_beta     101.75
_cell_angle_gamma    96.1486

_symmetry_space_group_name_H-M    'P1'
_space_group_IT_number       1

loop_
  _space_group_symop_operation_xyz
  'x, y, z'

loop_
  _atom_site_type_symbol
  _atom_site_label
  _atom_site_symmetry_multiplicity
  _atom_site_fract_x
  _atom_site_fract_y
  _atom_site_fract_z
  _atom_site_occupancy
  C   C1        1.0  0.49027  0.54635  0.18655  1.0000
  C   C2        1.0  0.50496  0.44012  0.19080  1.0000
  O   O1        1.0  0.48203  0.59860  0.19523  1.0000
  H   H1        1.0  0.51433  0.61990  0.18438  1.0000
  O   O2        1.0  0.51382  0.38750  0.19647  1.0000
  H   H2        1.0  0.48432  0.36935  0.23298  1.0000
  O   O3        1.0  0.89588  0.02802  0.26637  1.0000
  H   H3        1.0  0.88882  0.06100  0.31426  1.0000
  O   O4        1.0  0.11119  0.02352  0.26968  1.0000
  H   H4        1.0  0.12730  0.03880  0.42383  1.0000
  C   C3        1.0  0.53973  0.53088  0.17416  1.0000
  C   C4        1.0  0.45471  0.45539  0.19186  1.0000
  C   C5        1.0  0.54727  0.47765  0.17793  1.0000
  C   C6        1.0  0.44699  0.50845  0.19095  1.0000
  H   H5        1.0  0.57270  0.55997  0.16514  1.0000
  H   H6        1.0  0.42118  0.42641  0.19580  1.0000
  C   C7        1.0  0.61822  0.02052  0.24221  1.0000
  C   C8        1.0  0.37530  0.95746  0.25664  1.0000
  C   C9        1.0  0.57332  0.09170  0.25557  1.0000
  C   C10       1.0  0.42297  0.88718  0.28117  1.0000
  C   C11       1.0  0.65496  0.06712  0.24867  1.0000
  C   C12       1.0  0.33969  0.91154  0.26606  1.0000
  C   C13       1.0  0.62770  0.11021  0.25410  1.0000
  C   C14       1.0  0.36866  0.86946  0.28362  1.0000
  H   H7        1.0  0.69693  0.06669  0.24960  1.0000
  H   H8        1.0  0.29742  0.91114  0.26085  1.0000
  H   H9        1.0  0.64424  0.15103  0.25698  1.0000
  H   H10       1.0  0.35366  0.82944  0.29659  1.0000
  N   N1        1.0  0.53838  0.92688  0.26640  1.0000
  N   N2        1.0  0.45595  0.05220  0.24459  1.0000
  C   C15       1.0  0.58859  0.92396  0.23847  1.0000
  C   C16       1.0  0.40305  0.05371  0.24831  1.0000
  C   C17       1.0  0.47789  0.10418  0.25868  1.0000
  C   C18       1.0  0.51753  0.87535  0.27278  1.0000
  C   C19       1.0  0.59802  0.86888  0.21726  1.0000
  C   C20       1.0  0.39174  0.10804  0.27019  1.0000
  C   C21       1.0  0.43808  0.13948  0.27775  1.0000
  C   C22       1.0  0.55522  0.83899  0.24650  1.0000
  H   H11       1.0  0.63261  0.85515  0.18313  1.0000
  H   H12       1.0  0.35351  0.11942  0.28459  1.0000
  H   H13       1.0  0.44407  0.18232  0.29732  1.0000
  H   H14       1.0  0.54869  0.79621  0.24199  1.0000
  C   C23       1.0  0.62804  0.96701  0.23296  1.0000
  C   C24       1.0  0.36370  0.00998  0.24470  1.0000
  C   C25       1.0  0.53190  0.12283  0.26387  1.0000
  C   C26       1.0  0.46538  0.85637  0.28797  1.0000
  C   C27       1.0  0.30747  0.02091  0.22912  1.0000
  C   C28       1.0  0.54680  0.18089  0.27949  1.0000
  C   C29       1.0  0.27554  0.00302  0.32884  1.0000
  C   C30       1.0  0.28532  0.05324  0.11678  1.0000
  C   C31       1.0  0.51816  0.21436  0.18309  1.0000
  C   C32       1.0  0.59053  0.20461  0.39441  1.0000
  H   H15       1.0  0.29249  0.98100  0.42225  1.0000
  H   H16       1.0  0.30994  0.06745  0.04001  1.0000
  H   H17       1.0  0.48467  0.19648  0.09245  1.0000
  H   H18       1.0  0.61151  0.17974  0.47425  1.0000
  C   C33       1.0  0.22312  0.01319  0.30993  1.0000
  C   C34       1.0  0.23272  0.06265  0.09697  1.0000
  C   C35       1.0  0.53295  0.26870  0.19911  1.0000
  C   C36       1.0  0.60561  0.25890  0.40846  1.0000
  H   H19       1.0  0.19930  0.99805  0.38696  1.0000
  H   H20       1.0  0.21656  0.08557  0.00441  1.0000
  H   H21       1.0  0.51136  0.29359  0.12095  1.0000
  H   H22       1.0  0.63920  0.27705  0.49858  1.0000
  C   C37       1.0  0.19930  0.04096  0.18924  1.0000
  C   C38       1.0  0.57754  0.29264  0.31189  1.0000
  O   O5        1.0  0.59396  0.45773  0.16511  1.0000
  O   O6        1.0  0.39783  0.52727  0.18248  1.0000
  C   C39       1.0  0.35919  0.50686  0.25620  1.0000
  C   C40       1.0  0.31413  0.54020  0.23264  1.0000
  C   C41       1.0  0.26307  0.51165  0.26378  1.0000
  C   C42       1.0  0.21781  0.54392  0.26492  1.0000
  O   O7        1.0  0.36275  0.46880  0.33027  1.0000
  H   H23       1.0  0.30877  0.55355  0.11683  1.0000
  H   H24       1.0  0.33046  0.57618  0.31241  1.0000
  H   H25       1.0  0.27174  0.49592  0.37648  1.0000
  H   H26       1.0  0.24705  0.47654  0.18230  1.0000
  O   O8        1.0  0.23287  0.59752  0.28070  1.0000
  O   O9        1.0  0.17122  0.52559  0.25181  1.0000
  H   H27       1.0  0.19958  0.61274  0.27970  1.0000
  C   C43       1.0  0.64407  0.48411  0.23014  1.0000
  C   C44       1.0  0.68544  0.45023  0.20346  1.0000
  C   C45       1.0  0.74270  0.47795  0.25474  1.0000
  C   C46       1.0  0.78537  0.44451  0.22856  1.0000
  O   O10       1.0  0.65155  0.52717  0.30732  1.0000
  H   H28       1.0  0.67524  0.43496  0.08125  1.0000
  H   H29       1.0  0.67941  0.41482  0.26544  1.0000
  H   H30       1.0  0.75186  0.49052  0.37902  1.0000
  H   H31       1.0  0.74883  0.51378  0.19693  1.0000
  O   O11       1.0  0.77543  0.39335  0.26441  1.0000
  O   O12       1.0  0.82459  0.45959  0.18024  1.0000
  H   H32       1.0  0.80615  0.37665  0.24661  1.0000
  B   B1        1.0  0.60735  0.34994  0.34102  1.0000
  B   B2        1.0  0.41645  0.63584  0.38358  1.0000
  B   B3        1.0  0.13851  0.02947  0.12623  1.0000
  B   B4        1.0  0.84035  0.95110  0.43514  1.0000
  N   N3        1.0  0.56938  0.03743  0.24759  1.0000
  N   N4        1.0  0.42504  0.94074  0.26612  1.0000
  H   H33       1.0  0.53525  0.01296  0.24821  1.0000
  H   H34       1.0  0.45830  0.96566  0.26130  1.0000
  C   C47       1.0  0.49225  0.55909  0.70241  1.0000
  C   C48       1.0  0.50356  0.45284  0.73603  1.0000
  C   C49       1.0  0.95482  0.98402  0.73827  1.0000
  C   C50       1.0  0.06027  0.00247  0.74096  1.0000
  O   O13       1.0  0.48634  0.61199  0.69537  1.0000
  H   H35       1.0  0.52073  0.63112  0.69297  1.0000
  O   O14       1.0  0.51072  0.40077  0.75395  1.0000
  H   H36       1.0  0.48603  0.38646  0.81519  1.0000
  O   O15       1.0  0.89884  0.97544  0.74394  1.0000
  H   H37       1.0  0.89152  0.99948  0.82361  1.0000
  O   O16       1.0  0.11618  0.01205  0.75222  1.0000
  H   H38       1.0  0.13201  0.02690  0.88488  1.0000
  C   C51       1.0  0.54008  0.53982  0.69256  1.0000
  C   C52       1.0  0.45493  0.47144  0.74130  1.0000
  C   C53       1.0  0.97759  0.03620  0.74357  1.0000
  C   C54       1.0  0.03716  0.95079  0.74044  1.0000
  C   C55       1.0  0.54581  0.48680  0.70779  1.0000
  C   C56       1.0  0.44869  0.52413  0.72228  1.0000
  C   C57       1.0  0.03227  0.04543  0.74733  1.0000
  C   C58       1.0  0.98261  0.94075  0.73900  1.0000
  H   H39       1.0  0.57348  0.56599  0.67262  1.0000
  H   H40       1.0  0.42148  0.44554  0.76085  1.0000
  H   H41       1.0  0.95290  0.06806  0.74256  1.0000
  H   H42       1.0  0.06213  0.91941  0.74107  1.0000
  C   C59       1.0  0.62263  0.03944  0.74388  1.0000
  C   C60       1.0  0.38735  0.97178  0.77924  1.0000
  C   C61       1.0  0.57526  0.10798  0.75224  1.0000
  C   C62       1.0  0.43657  0.90334  0.78776  1.0000
  C   C63       1.0  0.65845  0.08675  0.75333  1.0000
  C   C64       1.0  0.36063  0.92981  0.84317  1.0000
  C   C65       1.0  0.62961  0.12850  0.75575  1.0000
  C   C66       1.0  0.38983  0.88789  0.84434  1.0000
  H   H43       1.0  0.70057  0.08879  0.75511  1.0000
  H   H44       1.0  0.32484  0.93188  0.88760  1.0000
  H   H45       1.0  0.64347  0.16990  0.75614  1.0000
  H   H46       1.0  0.38150  0.84965  0.88374  1.0000
  N   N5        1.0  0.54795  0.94290  0.75194  1.0000
  N   N6        1.0  0.45984  0.06510  0.73350  1.0000
  C   C67       1.0  0.59898  0.94231  0.73096  1.0000
  C   C68       1.0  0.40492  0.06217  0.70501  1.0000
  C   C69       1.0  0.47733  0.11638  0.71756  1.0000
  C   C70       1.0  0.52873  0.89088  0.75505  1.0000
  C   C71       1.0  0.61148  0.88836  0.71078  1.0000
  C   C72       1.0  0.38728  0.11145  0.65320  1.0000
  C   C73       1.0  0.43243  0.14615  0.66897  1.0000
  C   C74       1.0  0.56832  0.85616  0.73084  1.0000
  H   H47       1.0  0.64787  0.87645  0.68460  1.0000
  H   H48       1.0  0.34663  0.11845  0.60526  1.0000
  H   H49       1.0  0.43515  0.18683  0.64334  1.0000
  H   H50       1.0  0.56303  0.81330  0.72954  1.0000
  C   C75       1.0  0.63531  0.98759  0.73123  1.0000
  C   C76       1.0  0.36967  0.02066  0.74065  1.0000
  C   C77       1.0  0.53184  0.13712  0.74488  1.0000
  C   C78       1.0  0.47759  0.87214  0.77678  1.0000
  C   C79       1.0  0.31281  0.02724  0.73528  1.0000
  C   C80       1.0  0.46572  0.81545  0.79535  1.0000
  C   C81       1.0  0.29613  0.07662  0.77269  1.0000
  C   C82       1.0  0.27285  0.98343  0.69119  1.0000
  C   C83       1.0  0.42201  0.78405  0.69862  1.0000
  C   C84       1.0  0.49952  0.79230  0.90840  1.0000
  H   H51       1.0  0.32653  0.10981  0.82274  1.0000
  H   H52       1.0  0.28387  0.94482  0.66033  1.0000
  H   H53       1.0  0.39879  0.80217  0.60495  1.0000
  H   H54       1.0  0.53348  0.81742  0.97898  1.0000
  C   C85       1.0  0.24226  0.08336  0.74540  1.0000
  C   C86       1.0  0.21957  0.98996  0.67610  1.0000
  C   C87       1.0  0.41038  0.73166  0.72247  1.0000
  C   C88       1.0  0.48706  0.74067  0.93617  1.0000
  H   H55       1.0  0.23174  0.12202  0.77489  1.0000
  H   H56       1.0  0.18991  0.95539  0.64281  1.0000
  H   H57       1.0  0.37719  0.70716  0.64532  1.0000
  H   H58       1.0  0.51126  0.72409  0.03139  1.0000
  C   C89       1.0  0.20299  0.04017  0.69339  1.0000
  C   C90       1.0  0.44196  0.70953  0.84426  1.0000
  O   O17       1.0  0.59142  0.46559  0.68476  1.0000
  O   O18       1.0  0.40125  0.54600  0.71244  1.0000
  H   H59       1.0  0.05149  0.08568  0.75207  1.0000
  H   H60       1.0  0.96297  0.90054  0.73761  1.0000
  C   C91       1.0  0.35649  0.52280  0.75352  1.0000
  C   C92       1.0  0.31439  0.55956  0.73419  1.0000
  C   C93       1.0  0.26044  0.53219  0.74911  1.0000
  C   C94       1.0  0.21669  0.56623  0.75505  1.0000
  O   O19       1.0  0.35211  0.47930  0.79921  1.0000
  H   H61       1.0  0.31320  0.57669  0.62433  1.0000
  H   H62       1.0  0.33095  0.59252  0.82390  1.0000
  H   H63       1.0  0.26568  0.51070  0.85300  1.0000
  H   H64       1.0  0.24343  0.50126  0.65508  1.0000
  O   O20       1.0  0.23511  0.61909  0.78663  1.0000
  O   O21       1.0  0.16969  0.54947  0.74135  1.0000
  H   H65       1.0  0.20396  0.63715  0.79111  1.0000
  C   C95       1.0  0.64014  0.48624  0.77788  1.0000
  C   C96       1.0  0.68366  0.45896  0.73064  1.0000
  C   C97       1.0  0.73918  0.48900  0.79618  1.0000
  C   C98       1.0  0.78422  0.45843  0.77199  1.0000
  O   O22       1.0  0.64571  0.52175  0.87972  1.0000
  H   H66       1.0  0.67542  0.45143  0.60479  1.0000
  H   H67       1.0  0.67952  0.42017  0.77519  1.0000
  H   H68       1.0  0.74406  0.49871  0.92066  1.0000
  H   H69       1.0  0.74448  0.52619  0.74481  1.0000
  O   O23       1.0  0.77887  0.40885  0.82079  1.0000
  O   O24       1.0  0.82136  0.47347  0.71518  1.0000
  H   H70       1.0  0.81036  0.39331  0.80268  1.0000
  B   B5        1.0  0.60594  0.36299  0.87608  1.0000
  B   B6        1.0  0.41870  0.65793  0.89431  1.0000
  B   B7        1.0  0.14376  0.03029  0.61319  1.0000
  B   B8        1.0  0.84940  0.96836  0.60949  1.0000
  N   N7        1.0  0.57301  0.05402  0.74546  1.0000
  N   N8        1.0  0.43407  0.95483  0.75276  1.0000
  H   H71       1.0  0.54062  0.02739  0.74747  1.0000
  H   H72       1.0  0.46292  0.97949  0.72015  1.0000
  C   C99       1.0  0.82855  0.01567  0.59000  1.0000
  C   C100      1.0  0.79871  0.98461  0.67265  1.0000
  C  Sn1       1.0  0.82263  0.94853  0.76599  1.0000
  C  Sn2       1.0  0.87744  0.94355  0.77659  1.0000
  C   C101      1.0  0.90695  0.97482  0.69353  1.0000
  C   C102      1.0  0.88262  0.01079  0.60043  1.0000
  H   H73       1.0  0.70333  0.04351  0.51803  1.0000
  O  Te1       1.0  0.79223  0.91781  0.84775  1.0000
  O  Te2       1.0  0.90234  0.90781  0.86906  1.0000
  H   H74       1.0  0.79933  0.03485  0.53653  1.0000
  Mg  Mg1       1.0  0.84414  0.87469  0.95828  1.0000
  C   C103      1.0  0.97719  0.97217  0.22236  1.0000
  C   C104      1.0  0.84633  0.01523  0.26553  1.0000
  C  Sn3       1.0  0.87544  0.06532  0.30077  1.0000
  C  Sn4       1.0  0.93003  0.07230  0.29249  1.0000
  C   C105      1.0  0.95412  0.02898  0.24908  1.0000
  C   C106      1.0  0.03103  0.97903  0.21411  1.0000
  H   H75       1.0  0.95437  0.93353  0.19522  1.0000
  O  Te3       1.0  0.85040  0.10791  0.34375  1.0000
  O  Te4       1.0  0.96005  0.12193  0.32704  1.0000
  H   H76       1.0  0.04996  0.94570  0.18059  1.0000
  Mg  Mg2       1.0  0.90808  0.16780  0.37989  1.0000
  C   C107      1.0  0.59473  0.22707  0.92612  1.0000
  C   C108      1.0  0.55309  0.20020  0.81249  1.0000
  C  Sn5       1.0  0.52524  0.22726  0.69777  1.0000
  C  Sn6       1.0  0.53944  0.28224  0.69709  1.0000
  C   C109      1.0  0.58118  0.30875  0.81122  1.0000
  C   C110      1.0  0.60877  0.28129  0.92550  1.0000
  H   H77       1.0  0.54233  0.17298  0.01450  1.0000
  O  Te5       1.0  0.48373  0.19981  0.58514  1.0000
  O  Te6       1.0  0.51228  0.31025  0.58376  1.0000
  H   H78       1.0  0.56726  0.26925  0.01341  1.0000
  Mg  Mg3       1.0  0.45862  0.25536  0.45489  1.0000
  C   C111      1.0  0.74434  0.90439  0.35890  1.0000
  C   C112      1.0  0.78186  0.92217  0.27505  1.0000
  C  Sn7       1.0  0.77091  0.96042  0.17292  1.0000
  C  Sn8       1.0  0.72145  0.98118  0.15467  1.0000
  C   C113      1.0  0.68419  0.96315  0.23917  1.0000
  C   C114      1.0  0.69555  0.92486  0.34102  1.0000
  H   H79       1.0  0.75313  0.87478  0.43777  1.0000
  O  Te7       1.0  0.80884  0.97773  0.09000  1.0000
  O  Te8       1.0  0.60308  0.01945  0.05342  1.0000
  H   H80       1.0  0.66651  0.91112  0.40600  1.0000
  Mg  Mg4       1.0  0.74141  0.06329  0.96608  1.0000
  C   C115      1.0  0.40617  0.75186  0.19207  1.0000
  C   C116      1.0  0.44314  0.79171  0.28134  1.0000
  C  Sn9       1.0  0.48044  0.77971  0.40720  1.0000
  C  Sn10      1.0  0.48064  0.72680  0.44405  1.0000
  C   C117      1.0  0.44350  0.68722  0.35396  1.0000
  C   C118      1.0  0.40634  0.69967  0.22831  1.0000
  H   H81       1.0  0.37743  0.76149  0.09479  1.0000
  O  Te9       1.0  0.51709  0.82000  0.49521  1.0000
  O  Te10      1.0  0.51749  0.71370  0.56918  1.0000
  H   H82       1.0  0.37774  0.66881  0.15915  1.0000
  Mg  Mg5       1.0  0.55943  0.78244  0.65443  1.0000
