data_image0
_chemical_formula_structural       C2OHOHOHOHC4H2C8H4N2C8H4C10H4C4H4C2O2C4OH4O2HC4OH4O2HB4N2H2C4OHOHOHOHC8H4C8H4N2C8H4C10H4C4H4C2O2H2C4OH4O2HC4OH4O2HB4N2H2SnCSn2CSnTe4Mg2SnCSn2CSnTe4Mg2SnCSn2CSnTe4Mg2SnCSn2CSnTe4Mg2SnCSn2CSnTe4Mg2
_chemical_formula_sum              "C108 O24 H72 N8 B8 Sn20 Te20 Mg10"
_cell_length_a       25.8122
_cell_length_b       25.6434
_cell_length_c       8.90858
_cell_angle_alpha    94.1075
_cell_angle_beta     101.75
_cell_angle_gamma    96.1486

_symmetry_space_group_name_H-M    'P1'
_space_group_IT_number       1

loop_
  _space_group_symop_operation_xyz
  'x, y, z'

loop_
  _atom_site_type_symbol
  _atom_site_label
  _atom_site_symmetry_multiplicity
  _atom_site_fract_x
  _atom_site_fract_y
  _atom_site_fract_z
  _atom_site_occupancy
  C   C1        1.0  0.49027  0.54635  0.18655  1.0000
  C   C2        1.0  0.50496  0.44012  0.19080  1.0000
  O   O1        1.0  0.48203  0.59860  0.19523  1.0000
  H   H1        1.0  0.51433  0.61990  0.18438  1.0000
  O   O2        1.0  0.51382  0.38750  0.19647  1.0000
  H   H2        1.0  0.48432  0.36935  0.23298  1.0000
  O   O3        1.0  0.89588  0.02802  0.26637  1.0000
  H   H3        1.0  0.88882  0.06100  0.31426  1.0000
  O   O4        1.0  0.11119  0.02352  0.26968  1.0000
  H   H4        1.0  0.12730  0.03880  0.42383  1.0000
  C   C3        1.0  0.53973  0.53088  0.17416  1.0000
  C   C4        1.0  0.45471  0.45539  0.19186  1.0000
  C   C5        1.0  0.54727  0.47765  0.17793  1.0000
  C   C6        1.0  0.44699  0.50845  0.19095  1.0000
  H   H5        1.0  0.57270  0.55997  0.16514  1.0000
  H   H6        1.0  0.42118  0.42641  0.19580  1.0000
  C   C7        1.0  0.61822  0.02052  0.24221  1.0000
  C   C8        1.0  0.37530  0.95746  0.25664  1.0000
  C   C9        1.0  0.57332  0.09170  0.25557  1.0000
  C   C10       1.0  0.42297  0.88718  0.28117  1.0000
  C   C11       1.0  0.65496  0.06712  0.24867  1.0000
  C   C12       1.0  0.33969  0.91154  0.26606  1.0000
  C   C13       1.0  0.62770  0.11021  0.25410  1.0000
  C   C14       1.0  0.36866  0.86946  0.28362  1.0000
  H   H7        1.0  0.69693  0.06669  0.24960  1.0000
  H   H8        1.0  0.29742  0.91114  0.26085  1.0000
  H   H9        1.0  0.64424  0.15103  0.25698  1.0000
  H   H10       1.0  0.35366  0.82944  0.29659  1.0000
  N   N1        1.0  0.53838  0.92688  0.26640  1.0000
  N   N2        1.0  0.45595  0.05220  0.24459  1.0000
  C   C15       1.0  0.58859  0.92396  0.23847  1.0000
  C   C16       1.0  0.40305  0.05371  0.24831  1.0000
  C   C17       1.0  0.47789  0.10418  0.25868  1.0000
  C   C18       1.0  0.51753  0.87535  0.27278  1.0000
  C   C19       1.0  0.59802  0.86888  0.21726  1.0000
  C   C20       1.0  0.39174  0.10804  0.27019  1.0000
  C   C21       1.0  0.43808  0.13948  0.27775  1.0000
  C   C22       1.0  0.55522  0.83899  0.24650  1.0000
  H   H11       1.0  0.63261  0.85515  0.18313  1.0000
  H   H12       1.0  0.35351  0.11942  0.28459  1.0000
  H   H13       1.0  0.44407  0.18232  0.29732  1.0000
  H   H14       1.0  0.54869  0.79621  0.24199  1.0000
  C   C23       1.0  0.62804  0.96701  0.23296  1.0000
  C   C24       1.0  0.36370  0.00998  0.24470  1.0000
  C   C25       1.0  0.53190  0.12283  0.26387  1.0000
  C   C26       1.0  0.46538  0.85637  0.28797  1.0000
  C   C27       1.0  0.68320  0.95489  0.23706  1.0000
  C   C28       1.0  0.54680  0.18089  0.27949  1.0000
  C   C29       1.0  0.70395  0.91588  0.32785  1.0000
  C   C30       1.0  0.71850  0.98208  0.15659  1.0000
  C   C31       1.0  0.51816  0.21436  0.18309  1.0000
  C   C32       1.0  0.59053  0.20461  0.39441  1.0000
  H   H15       1.0  0.67759  0.89318  0.38615  1.0000
  H   H16       1.0  0.70208  0.00561  0.06569  1.0000
  H   H17       1.0  0.48467  0.19648  0.09245  1.0000
  H   H18       1.0  0.61151  0.17974  0.47425  1.0000
  C   C33       1.0  0.75678  0.90576  0.34330  1.0000
  C   C34       1.0  0.77270  0.97685  0.18831  1.0000
  C   C35       1.0  0.53295  0.26870  0.19911  1.0000
  C   C36       1.0  0.60561  0.25890  0.40846  1.0000
  H   H19       1.0  0.76986  0.87197  0.40180  1.0000
  H   H20       1.0  0.79987  0.99971  0.13249  1.0000
  H   H21       1.0  0.51136  0.29359  0.12095  1.0000
  H   H22       1.0  0.63920  0.27705  0.49858  1.0000
  C   C37       1.0  0.79469  0.94336  0.29902  1.0000
  C   C38       1.0  0.57754  0.29264  0.31189  1.0000
  O   O5        1.0  0.59396  0.45773  0.16511  1.0000
  O   O6        1.0  0.39783  0.52727  0.18248  1.0000
  C   C39       1.0  0.35919  0.50686  0.25620  1.0000
  C   C40       1.0  0.31413  0.54020  0.23264  1.0000
  C   C41       1.0  0.26307  0.51165  0.26378  1.0000
  C   C42       1.0  0.21781  0.54392  0.26492  1.0000
  O   O7        1.0  0.36275  0.46880  0.33027  1.0000
  H   H23       1.0  0.30877  0.55355  0.11683  1.0000
  H   H24       1.0  0.33046  0.57618  0.31241  1.0000
  H   H25       1.0  0.27174  0.49592  0.37648  1.0000
  H   H26       1.0  0.24705  0.47654  0.18230  1.0000
  O   O8        1.0  0.23287  0.59752  0.28070  1.0000
  O   O9        1.0  0.17122  0.52559  0.25181  1.0000
  H   H27       1.0  0.19958  0.61274  0.27970  1.0000
  C   C43       1.0  0.64407  0.48411  0.23014  1.0000
  C   C44       1.0  0.68544  0.45023  0.20346  1.0000
  C   C45       1.0  0.74270  0.47795  0.25474  1.0000
  C   C46       1.0  0.78537  0.44451  0.22856  1.0000
  O   O10       1.0  0.65155  0.52717  0.30732  1.0000
  H   H28       1.0  0.67524  0.43496  0.08125  1.0000
  H   H29       1.0  0.67941  0.41482  0.26544  1.0000
  H   H30       1.0  0.75186  0.49052  0.37902  1.0000
  H   H31       1.0  0.74883  0.51378  0.19693  1.0000
  O   O11       1.0  0.77543  0.39335  0.26441  1.0000
  O   O12       1.0  0.82459  0.45959  0.18024  1.0000
  H   H32       1.0  0.80615  0.37665  0.24661  1.0000
  B   B1        1.0  0.60735  0.34994  0.34102  1.0000
  B   B2        1.0  0.41645  0.63584  0.38358  1.0000
  B   B3        1.0  0.13851  0.02947  0.12623  1.0000
  B   B4        1.0  0.84035  0.95110  0.43514  1.0000
  N   N3        1.0  0.56938  0.03743  0.24759  1.0000
  N   N4        1.0  0.42504  0.94074  0.26612  1.0000
  H   H33       1.0  0.53525  0.01296  0.24821  1.0000
  H   H34       1.0  0.45830  0.96566  0.26130  1.0000
  C   C47       1.0  0.49225  0.55909  0.70241  1.0000
  C   C48       1.0  0.50356  0.45284  0.73603  1.0000
  C   C49       1.0  0.95482  0.98402  0.73827  1.0000
  C   C50       1.0  0.06027  0.00247  0.74096  1.0000
  O   O13       1.0  0.48634  0.61199  0.69537  1.0000
  H   H35       1.0  0.52073  0.63112  0.69297  1.0000
  O   O14       1.0  0.51072  0.40077  0.75395  1.0000
  H   H36       1.0  0.48603  0.38646  0.81519  1.0000
  O   O15       1.0  0.89884  0.97544  0.74394  1.0000
  H   H37       1.0  0.89152  0.99948  0.82361  1.0000
  O   O16       1.0  0.11618  0.01205  0.75222  1.0000
  H   H38       1.0  0.13201  0.02690  0.88488  1.0000
  C   C51       1.0  0.54008  0.53982  0.69256  1.0000
  C   C52       1.0  0.45493  0.47144  0.74130  1.0000
  C   C53       1.0  0.97759  0.03620  0.74357  1.0000
  C   C54       1.0  0.03716  0.95079  0.74044  1.0000
  C   C55       1.0  0.54581  0.48680  0.70779  1.0000
  C   C56       1.0  0.44869  0.52413  0.72228  1.0000
  C   C57       1.0  0.03227  0.04543  0.74733  1.0000
  C   C58       1.0  0.98261  0.94075  0.73900  1.0000
  H   H39       1.0  0.57348  0.56599  0.67262  1.0000
  H   H40       1.0  0.42148  0.44554  0.76085  1.0000
  H   H41       1.0  0.95290  0.06806  0.74256  1.0000
  H   H42       1.0  0.06213  0.91941  0.74107  1.0000
  C   C59       1.0  0.62263  0.03944  0.74388  1.0000
  C   C60       1.0  0.38735  0.97178  0.77924  1.0000
  C   C61       1.0  0.57526  0.10798  0.75224  1.0000
  C   C62       1.0  0.43657  0.90334  0.78776  1.0000
  C   C63       1.0  0.65845  0.08675  0.75333  1.0000
  C   C64       1.0  0.36063  0.92981  0.84317  1.0000
  C   C65       1.0  0.62961  0.12850  0.75575  1.0000
  C   C66       1.0  0.38983  0.88789  0.84434  1.0000
  H   H43       1.0  0.70057  0.08879  0.75511  1.0000
  H   H44       1.0  0.32484  0.93188  0.88760  1.0000
  H   H45       1.0  0.64347  0.16990  0.75614  1.0000
  H   H46       1.0  0.38150  0.84965  0.88374  1.0000
  N   N5        1.0  0.54795  0.94290  0.75194  1.0000
  N   N6        1.0  0.45984  0.06510  0.73350  1.0000
  C   C67       1.0  0.59898  0.94231  0.73096  1.0000
  C   C68       1.0  0.40492  0.06217  0.70501  1.0000
  C   C69       1.0  0.47733  0.11638  0.71756  1.0000
  C   C70       1.0  0.52873  0.89088  0.75505  1.0000
  C   C71       1.0  0.61148  0.88836  0.71078  1.0000
  C   C72       1.0  0.38728  0.11145  0.65320  1.0000
  C   C73       1.0  0.43243  0.14615  0.66897  1.0000
  C   C74       1.0  0.56832  0.85616  0.73084  1.0000
  H   H47       1.0  0.64787  0.87645  0.68460  1.0000
  H   H48       1.0  0.34663  0.11845  0.60526  1.0000
  H   H49       1.0  0.43515  0.18683  0.64334  1.0000
  H   H50       1.0  0.56303  0.81330  0.72954  1.0000
  C   C75       1.0  0.63531  0.98759  0.73123  1.0000
  C   C76       1.0  0.36967  0.02066  0.74065  1.0000
  C   C77       1.0  0.53184  0.13712  0.74488  1.0000
  C   C78       1.0  0.47759  0.87214  0.77678  1.0000
  C   C79       1.0  0.31281  0.02724  0.73528  1.0000
  C   C80       1.0  0.54648  0.19490  0.77069  1.0000
  C   C81       1.0  0.29613  0.07662  0.77269  1.0000
  C   C82       1.0  0.27285  0.98343  0.69119  1.0000
  C   C83       1.0  0.52512  0.23059  0.66942  1.0000
  C   C84       1.0  0.58475  0.21618  0.90356  1.0000
  H   H51       1.0  0.32653  0.10981  0.82274  1.0000
  H   H52       1.0  0.28387  0.94482  0.66033  1.0000
  H   H53       1.0  0.49876  0.21442  0.56162  1.0000
  H   H54       1.0  0.60144  0.18931  0.98308  1.0000
  C   C85       1.0  0.24226  0.08336  0.74540  1.0000
  C   C86       1.0  0.21957  0.98996  0.67610  1.0000
  C   C87       1.0  0.53975  0.28479  0.69863  1.0000
  C   C88       1.0  0.60243  0.26995  0.93116  1.0000
  H   H55       1.0  0.23174  0.12202  0.77489  1.0000
  H   H56       1.0  0.18991  0.95539  0.64281  1.0000
  H   H57       1.0  0.52187  0.31223  0.62002  1.0000
  H   H58       1.0  0.63333  0.28601  0.03336  1.0000
  C   C89       1.0  0.20299  0.04017  0.69339  1.0000
  C   C90       1.0  0.57843  0.30561  0.83226  1.0000
  O   O17       1.0  0.59142  0.46559  0.68476  1.0000
  O   O18       1.0  0.40125  0.54600  0.71244  1.0000
  H   H59       1.0  0.05149  0.08568  0.75207  1.0000
  H   H60       1.0  0.96297  0.90054  0.73761  1.0000
  C   C91       1.0  0.35649  0.52280  0.75352  1.0000
  C   C92       1.0  0.31439  0.55956  0.73419  1.0000
  C   C93       1.0  0.26044  0.53219  0.74911  1.0000
  C   C94       1.0  0.21669  0.56623  0.75505  1.0000
  O   O19       1.0  0.35211  0.47930  0.79921  1.0000
  H   H61       1.0  0.31320  0.57669  0.62433  1.0000
  H   H62       1.0  0.33095  0.59252  0.82390  1.0000
  H   H63       1.0  0.26568  0.51070  0.85300  1.0000
  H   H64       1.0  0.24343  0.50126  0.65508  1.0000
  O   O20       1.0  0.23511  0.61909  0.78663  1.0000
  O   O21       1.0  0.16969  0.54947  0.74135  1.0000
  H   H65       1.0  0.20396  0.63715  0.79111  1.0000
  C   C95       1.0  0.64014  0.48624  0.77788  1.0000
  C   C96       1.0  0.68366  0.45896  0.73064  1.0000
  C   C97       1.0  0.73918  0.48900  0.79618  1.0000
  C   C98       1.0  0.78422  0.45843  0.77199  1.0000
  O   O22       1.0  0.64571  0.52175  0.87972  1.0000
  H   H66       1.0  0.67542  0.45143  0.60479  1.0000
  H   H67       1.0  0.67952  0.42017  0.77519  1.0000
  H   H68       1.0  0.74406  0.49871  0.92066  1.0000
  H   H69       1.0  0.74448  0.52619  0.74481  1.0000
  O   O23       1.0  0.77887  0.40885  0.82079  1.0000
  O   O24       1.0  0.82136  0.47347  0.71518  1.0000
  H   H70       1.0  0.81036  0.39331  0.80268  1.0000
  B   B5        1.0  0.60594  0.36299  0.87608  1.0000
  B   B6        1.0  0.41870  0.65793  0.89431  1.0000
  B   B7        1.0  0.14376  0.03029  0.61319  1.0000
  B   B8        1.0  0.84940  0.96836  0.60949  1.0000
  N   N7        1.0  0.57301  0.05402  0.74546  1.0000
  N   N8        1.0  0.43407  0.95483  0.75276  1.0000
  H   H71       1.0  0.54062  0.02739  0.74747  1.0000
  H   H72       1.0  0.46292  0.97949  0.72015  1.0000
  C  Sn1       1.0  0.03178  0.07481  0.34615  1.0000
  C   C99       1.0  0.05583  0.03068  0.30938  1.0000
  C  Sn2       1.0  0.13108  0.98425  0.23737  1.0000
  C  Sn3       1.0  0.07472  0.98187  0.20126  1.0000
  C   C100      1.0  0.94429  0.02598  0.23800  1.0000
  C  Sn4       1.0  0.97541  0.07243  0.31004  1.0000
  O  Te1       1.0  0.06371  0.12082  0.41812  1.0000
  O  Te2       1.0  0.15604  0.94065  0.20179  1.0000
  O  Te3       1.0  0.04280  0.93581  0.12924  1.0000
  O  Te4       1.0  0.95049  0.11602  0.34559  1.0000
  Mg  Mg1       1.0  0.09540  0.88690  0.10383  1.0000
  Mg  Mg2       1.0  0.01108  0.16979  0.44347  1.0000
  C  Sn5       1.0  0.75730  0.92907  0.75143  1.0000
  C   C101      1.0  0.78343  0.95414  0.64847  1.0000
  C  Sn6       1.0  0.76505  0.99842  0.58311  1.0000
  C  Sn7       1.0  0.71962  0.01808  0.62152  1.0000
  C   C102      1.0  0.69352  0.99302  0.72444  1.0000
  C  Sn8       1.0  0.71187  0.94873  0.78984  1.0000
  O  Te5       1.0  0.77637  0.88486  0.81540  1.0000
  O  Te6       1.0  0.68542  0.02280  0.48043  1.0000
  O  Te7       1.0  0.59415  0.06233  0.55745  1.0000
  O  Te8       1.0  0.68513  0.92436  0.89248  1.0000
  Mg  Mg3       1.0  0.64419  0.08188  0.42354  1.0000
  Mg  Mg4       1.0  0.72633  0.86530  0.94950  1.0000
  C  Sn9       1.0  0.36574  0.98972  0.30431  1.0000
  C   C103      1.0  0.29715  0.00733  0.22120  1.0000
  C  Sn10      1.0  0.28820  0.04801  0.12652  1.0000
  C  Sn11      1.0  0.24046  0.07160  0.11471  1.0000
  C   C104      1.0  0.20267  0.05400  0.19780  1.0000
  C  Sn12      1.0  0.21159  0.01331  0.29250  1.0000
  O  Te9       1.0  0.37553  0.94900  0.39827  1.0000
  O  Te10      1.0  0.32659  0.06494  0.04451  1.0000
  O  Te11      1.0  0.23069  0.11235  0.02065  1.0000
  O  Te12      1.0  0.27964  0.99640  0.37449  1.0000
  Mg  Mg5       1.0  0.36880  0.15453  0.93183  1.0000
  Mg  Mg6       1.0  0.31118  0.93967  0.48727  1.0000
  C  Sn13      1.0  0.50011  0.76300  0.40548  1.0000
  C   C105      1.0  0.47011  0.79055  0.29634  1.0000
  C  Sn14      1.0  0.41935  0.76847  0.21596  1.0000
  C  Sn15      1.0  0.39811  0.71781  0.24535  1.0000
  C   C106      1.0  0.42809  0.69029  0.35445  1.0000
  C  Sn16      1.0  0.47887  0.71234  0.43487  1.0000
  O  Te13      1.0  0.55077  0.78584  0.48449  1.0000
  O  Te14      1.0  0.39012  0.79676  0.10735  1.0000
  O  Te15      1.0  0.34740  0.69498  0.16623  1.0000
  O  Te16      1.0  0.50809  0.68408  0.54344  1.0000
  Mg  Mg7       1.0  0.32298  0.74899  0.02937  1.0000
  Mg  Mg8       1.0  0.57522  0.73183  0.62154  1.0000
  C  Sn17      1.0  0.40695  0.77668  0.72336  1.0000
  C   C107      1.0  0.44924  0.81306  0.80512  1.0000
  C  Sn18      1.0  0.49263  0.79599  0.90153  1.0000
  C  Sn19      1.0  0.49381  0.74141  0.91647  1.0000
  C   C108      1.0  0.45154  0.70506  0.83473  1.0000
  C  Sn20      1.0  0.40812  0.72210  0.73830  1.0000
  O  Te17      1.0  0.36397  0.79464  0.62763  1.0000
  O  Te18      1.0  0.53443  0.83310  0.98214  1.0000
  O  Te19      1.0  0.46306  0.69063  0.01230  1.0000
  O  Te20      1.0  0.36634  0.68502  0.65771  1.0000
  Mg  Mg9       1.0  0.51043  0.75640  0.09819  1.0000
  Mg  Mg10      1.0  0.31656  0.72883  0.54157  1.0000
