data_image0
_chemical_formula_structural       C2OHOHOHOHC4H2C8H4N2C8H4C4O2C4OH4O2HC4OH4O2HB4N2H2C2OHOHOHOHC4H2C8H4N2C8H4C4O2C4OH4O2HC4OH4O2HB4N2H2SnCSn2CSnTe4Mg2SnCSn2CSnTe4Mg2SnCSn2CSnTe4Mg2SnCSn2CSnTe4Mg2SnCSn2CSnTe4Mg2SnCSn2CSnTe4Mg2SnCSn2CSnTe4Mg2SnCSn2CSnTe4Mg2SnCSn2CSnTe4Mg2SnCSn2CSnTe4Mg2
_chemical_formula_sum              "C88 O24 H52 N8 B8 Sn40 Te40 Mg20"
_cell_length_a       25.8122
_cell_length_b       25.6434
_cell_length_c       8.90858
_cell_angle_alpha    94.1075
_cell_angle_beta     101.75
_cell_angle_gamma    96.1486

_symmetry_space_group_name_H-M    'P1'
_space_group_IT_number       1

loop_
  _space_group_symop_operation_xyz
  'x, y, z'

loop_
  _atom_site_type_symbol
  _atom_site_label
  _atom_site_symmetry_multiplicity
  _atom_site_fract_x
  _atom_site_fract_y
  _atom_site_fract_z
  _atom_site_occupancy
  C   C1        1.0  0.49027  0.54635  0.18655  1.0000
  C   C2        1.0  0.50496  0.44012  0.19080  1.0000
  O   O1        1.0  0.48203  0.59860  0.19523  1.0000
  H   H1        1.0  0.51433  0.61990  0.18438  1.0000
  O   O2        1.0  0.51382  0.38750  0.19647  1.0000
  H   H2        1.0  0.48432  0.36935  0.23298  1.0000
  O   O3        1.0  0.89588  0.02802  0.26637  1.0000
  H   H3        1.0  0.88882  0.06100  0.31426  1.0000
  O   O4        1.0  0.11119  0.02352  0.26968  1.0000
  H   H4        1.0  0.12730  0.03880  0.42383  1.0000
  C   C3        1.0  0.53973  0.53088  0.17416  1.0000
  C   C4        1.0  0.45471  0.45539  0.19186  1.0000
  C   C5        1.0  0.54727  0.47765  0.17793  1.0000
  C   C6        1.0  0.44699  0.50845  0.19095  1.0000
  H   H5        1.0  0.57270  0.55997  0.16514  1.0000
  H   H6        1.0  0.42118  0.42641  0.19580  1.0000
  C   C7        1.0  0.61822  0.02052  0.24221  1.0000
  C   C8        1.0  0.37530  0.95746  0.25664  1.0000
  C   C9        1.0  0.57332  0.09170  0.25557  1.0000
  C   C10       1.0  0.42297  0.88718  0.28117  1.0000
  C   C11       1.0  0.65496  0.06712  0.24867  1.0000
  C   C12       1.0  0.33969  0.91154  0.26606  1.0000
  C   C13       1.0  0.62770  0.11021  0.25410  1.0000
  C   C14       1.0  0.36866  0.86946  0.28362  1.0000
  H   H7        1.0  0.69693  0.06669  0.24960  1.0000
  H   H8        1.0  0.29742  0.91114  0.26085  1.0000
  H   H9        1.0  0.64424  0.15103  0.25698  1.0000
  H   H10       1.0  0.35366  0.82944  0.29659  1.0000
  N   N1        1.0  0.53838  0.92688  0.26640  1.0000
  N   N2        1.0  0.45595  0.05220  0.24459  1.0000
  C   C15       1.0  0.58859  0.92396  0.23847  1.0000
  C   C16       1.0  0.40305  0.05371  0.24831  1.0000
  C   C17       1.0  0.47789  0.10418  0.25868  1.0000
  C   C18       1.0  0.51753  0.87535  0.27278  1.0000
  C   C19       1.0  0.59802  0.86888  0.21726  1.0000
  C   C20       1.0  0.39174  0.10804  0.27019  1.0000
  C   C21       1.0  0.43808  0.13948  0.27775  1.0000
  C   C22       1.0  0.55522  0.83899  0.24650  1.0000
  H   H11       1.0  0.63261  0.85515  0.18313  1.0000
  H   H12       1.0  0.35351  0.11942  0.28459  1.0000
  H   H13       1.0  0.44407  0.18232  0.29732  1.0000
  H   H14       1.0  0.54869  0.79621  0.24199  1.0000
  C   C23       1.0  0.62804  0.96701  0.23296  1.0000
  C   C24       1.0  0.36370  0.00998  0.24470  1.0000
  C   C25       1.0  0.53190  0.12283  0.26387  1.0000
  C   C26       1.0  0.46538  0.85637  0.28797  1.0000
  O   O5        1.0  0.59396  0.45773  0.16511  1.0000
  O   O6        1.0  0.39783  0.52727  0.18248  1.0000
  C   C27       1.0  0.35919  0.50686  0.25620  1.0000
  C   C28       1.0  0.31413  0.54020  0.23264  1.0000
  C   C29       1.0  0.26307  0.51165  0.26378  1.0000
  C   C30       1.0  0.21781  0.54392  0.26492  1.0000
  O   O7        1.0  0.36275  0.46880  0.33027  1.0000
  H   H15       1.0  0.30877  0.55355  0.11683  1.0000
  H   H16       1.0  0.33046  0.57618  0.31241  1.0000
  H   H17       1.0  0.27174  0.49592  0.37648  1.0000
  H   H18       1.0  0.24705  0.47654  0.18230  1.0000
  O   O8        1.0  0.23287  0.59752  0.28070  1.0000
  O   O9        1.0  0.17122  0.52559  0.25181  1.0000
  H   H19       1.0  0.19958  0.61274  0.27970  1.0000
  C   C31       1.0  0.64407  0.48411  0.23014  1.0000
  C   C32       1.0  0.68544  0.45023  0.20346  1.0000
  C   C33       1.0  0.74270  0.47795  0.25474  1.0000
  C   C34       1.0  0.78537  0.44451  0.22856  1.0000
  O   O10       1.0  0.65155  0.52717  0.30732  1.0000
  H   H20       1.0  0.67524  0.43496  0.08125  1.0000
  H   H21       1.0  0.67941  0.41482  0.26544  1.0000
  H   H22       1.0  0.75186  0.49052  0.37902  1.0000
  H   H23       1.0  0.74883  0.51378  0.19693  1.0000
  O   O11       1.0  0.77543  0.39335  0.26441  1.0000
  O   O12       1.0  0.82459  0.45959  0.18024  1.0000
  H   H24       1.0  0.80615  0.37665  0.24661  1.0000
  B   B1        1.0  0.60735  0.34994  0.34102  1.0000
  B   B2        1.0  0.41645  0.63584  0.38358  1.0000
  B   B3        1.0  0.13851  0.02947  0.12623  1.0000
  B   B4        1.0  0.84035  0.95110  0.43514  1.0000
  N   N3        1.0  0.56938  0.03743  0.24759  1.0000
  N   N4        1.0  0.42504  0.94074  0.26612  1.0000
  H   H25       1.0  0.53525  0.01296  0.24821  1.0000
  H   H26       1.0  0.45830  0.96566  0.26130  1.0000
  C   C35       1.0  0.49225  0.55909  0.70241  1.0000
  C   C36       1.0  0.50356  0.45284  0.73603  1.0000
  O   O13       1.0  0.48634  0.61199  0.69537  1.0000
  H   H27       1.0  0.52073  0.63112  0.69297  1.0000
  O   O14       1.0  0.51072  0.40077  0.75395  1.0000
  H   H28       1.0  0.48603  0.38646  0.81519  1.0000
  O   O15       1.0  0.89884  0.97544  0.74394  1.0000
  H   H29       1.0  0.89152  0.99948  0.82361  1.0000
  O   O16       1.0  0.11618  0.01205  0.75222  1.0000
  H   H30       1.0  0.13201  0.02690  0.88488  1.0000
  C   C37       1.0  0.54008  0.53982  0.69256  1.0000
  C   C38       1.0  0.45493  0.47144  0.74130  1.0000
  C   C39       1.0  0.54581  0.48680  0.70779  1.0000
  C   C40       1.0  0.44869  0.52413  0.72228  1.0000
  H   H31       1.0  0.57348  0.56599  0.67262  1.0000
  H   H32       1.0  0.42148  0.44554  0.76085  1.0000
  C   C41       1.0  0.62263  0.03944  0.74388  1.0000
  C   C42       1.0  0.38735  0.97178  0.77924  1.0000
  C   C43       1.0  0.57526  0.10798  0.75224  1.0000
  C   C44       1.0  0.43657  0.90334  0.78776  1.0000
  C   C45       1.0  0.65845  0.08675  0.75333  1.0000
  C   C46       1.0  0.36063  0.92981  0.84317  1.0000
  C   C47       1.0  0.62961  0.12850  0.75575  1.0000
  C   C48       1.0  0.38983  0.88789  0.84434  1.0000
  H   H33       1.0  0.70057  0.08879  0.75511  1.0000
  H   H34       1.0  0.32484  0.93188  0.88760  1.0000
  H   H35       1.0  0.64347  0.16990  0.75614  1.0000
  H   H36       1.0  0.38150  0.84965  0.88374  1.0000
  N   N5        1.0  0.54795  0.94290  0.75194  1.0000
  N   N6        1.0  0.45984  0.06510  0.73350  1.0000
  C   C49       1.0  0.59898  0.94231  0.73096  1.0000
  C   C50       1.0  0.40492  0.06217  0.70501  1.0000
  C   C51       1.0  0.47733  0.11638  0.71756  1.0000
  C   C52       1.0  0.52873  0.89088  0.75505  1.0000
  C   C53       1.0  0.61148  0.88836  0.71078  1.0000
  C   C54       1.0  0.38728  0.11145  0.65320  1.0000
  C   C55       1.0  0.43243  0.14615  0.66897  1.0000
  C   C56       1.0  0.56832  0.85616  0.73084  1.0000
  H   H37       1.0  0.64787  0.87645  0.68460  1.0000
  H   H38       1.0  0.34663  0.11845  0.60526  1.0000
  H   H39       1.0  0.43515  0.18683  0.64334  1.0000
  H   H40       1.0  0.56303  0.81330  0.72954  1.0000
  C   C57       1.0  0.63531  0.98759  0.73123  1.0000
  C   C58       1.0  0.36967  0.02066  0.74065  1.0000
  C   C59       1.0  0.53184  0.13712  0.74488  1.0000
  C   C60       1.0  0.47759  0.87214  0.77678  1.0000
  O   O17       1.0  0.59142  0.46559  0.68476  1.0000
  O   O18       1.0  0.40125  0.54600  0.71244  1.0000
  C   C61       1.0  0.35649  0.52280  0.75352  1.0000
  C   C62       1.0  0.31439  0.55956  0.73419  1.0000
  C   C63       1.0  0.26044  0.53219  0.74911  1.0000
  C   C64       1.0  0.21669  0.56623  0.75505  1.0000
  O   O19       1.0  0.35211  0.47930  0.79921  1.0000
  H   H41       1.0  0.31320  0.57669  0.62433  1.0000
  H   H42       1.0  0.33095  0.59252  0.82390  1.0000
  H   H43       1.0  0.26568  0.51070  0.85300  1.0000
  H   H44       1.0  0.24343  0.50126  0.65508  1.0000
  O   O20       1.0  0.23511  0.61909  0.78663  1.0000
  O   O21       1.0  0.16969  0.54947  0.74135  1.0000
  H   H45       1.0  0.20396  0.63715  0.79111  1.0000
  C   C65       1.0  0.64014  0.48624  0.77788  1.0000
  C   C66       1.0  0.68366  0.45896  0.73064  1.0000
  C   C67       1.0  0.73918  0.48900  0.79618  1.0000
  C   C68       1.0  0.78422  0.45843  0.77199  1.0000
  O   O22       1.0  0.64571  0.52175  0.87972  1.0000
  H   H46       1.0  0.67542  0.45143  0.60479  1.0000
  H   H47       1.0  0.67952  0.42017  0.77519  1.0000
  H   H48       1.0  0.74406  0.49871  0.92066  1.0000
  H   H49       1.0  0.74448  0.52619  0.74481  1.0000
  O   O23       1.0  0.77887  0.40885  0.82079  1.0000
  O   O24       1.0  0.82136  0.47347  0.71518  1.0000
  H   H50       1.0  0.81036  0.39331  0.80268  1.0000
  B   B5        1.0  0.60594  0.36299  0.87608  1.0000
  B   B6        1.0  0.41870  0.65793  0.89431  1.0000
  B   B7        1.0  0.14376  0.03029  0.61319  1.0000
  B   B8        1.0  0.84940  0.96836  0.60949  1.0000
  N   N7        1.0  0.57301  0.05402  0.74546  1.0000
  N   N8        1.0  0.43407  0.95483  0.75276  1.0000
  H   H51       1.0  0.54062  0.02739  0.74747  1.0000
  H   H52       1.0  0.46292  0.97949  0.72015  1.0000
  C  Sn1       1.0  0.98055  0.97361  0.27444  1.0000
  C   C69       1.0  0.84949  0.01816  0.30250  1.0000
  C  Sn2       1.0  0.87510  0.06852  0.29600  1.0000
  C  Sn3       1.0  0.92643  0.07446  0.26061  1.0000
  C   C70       1.0  0.95106  0.02992  0.23254  1.0000
  C  Sn4       1.0  0.03188  0.97955  0.23905  1.0000
  O  Te1       1.0  0.95420  0.92365  0.28155  1.0000
  O  Te2       1.0  0.84965  0.11247  0.32454  1.0000
  O  Te3       1.0  0.95277  0.12447  0.25352  1.0000
  O  Te4       1.0  0.05730  0.93562  0.21050  1.0000
  Mg  Mg1       1.0  0.90174  0.17227  0.30123  1.0000
  Mg  Mg2       1.0  0.00524  0.87580  0.23370  1.0000
  C  Sn5       1.0  0.76354  0.99196  0.20711  1.0000
  C   C71       1.0  0.79067  0.96010  0.30908  1.0000
  C  Sn6       1.0  0.76279  0.91781  0.36127  1.0000
  C  Sn7       1.0  0.70662  0.90713  0.31042  1.0000
  C   C72       1.0  0.67953  0.93898  0.20851  1.0000
  C  Sn8       1.0  0.70738  0.98128  0.15627  1.0000
  O  Te5       1.0  0.68582  0.03402  0.15642  1.0000
  O  Te6       1.0  0.79078  0.88652  0.46322  1.0000
  O  Te7       1.0  0.67795  0.86503  0.36121  1.0000
  O  Te8       1.0  0.57301  0.01256  0.05436  1.0000
  Mg  Mg3       1.0  0.73395  0.83373  0.49959  1.0000
  Mg  Mg4       1.0  0.62980  0.06533  0.01786  1.0000
  C  Sn9       1.0  0.36574  0.98972  0.30431  1.0000
  C   C73       1.0  0.29715  0.00733  0.22120  1.0000
  C  Sn10      1.0  0.28820  0.04801  0.12652  1.0000
  C  Sn11      1.0  0.24046  0.07160  0.11471  1.0000
  C   C74       1.0  0.20267  0.05400  0.19780  1.0000
  C  Sn12      1.0  0.21159  0.01331  0.29250  1.0000
  O  Te9       1.0  0.37553  0.94900  0.39827  1.0000
  O  Te10      1.0  0.32659  0.06494  0.04451  1.0000
  O  Te11      1.0  0.23069  0.11235  0.02065  1.0000
  O  Te12      1.0  0.27964  0.99640  0.37449  1.0000
  Mg  Mg5       1.0  0.36880  0.15453  0.93183  1.0000
  Mg  Mg6       1.0  0.31118  0.93967  0.48727  1.0000
  C  Sn13      1.0  0.52821  0.22441  0.14816  1.0000
  C   C75       1.0  0.55098  0.18686  0.23798  1.0000
  C  Sn14      1.0  0.58537  0.20243  0.38048  1.0000
  C  Sn15      1.0  0.59722  0.25666  0.43438  1.0000
  C   C76       1.0  0.57445  0.29418  0.34460  1.0000
  C  Sn16      1.0  0.54006  0.27864  0.20206  1.0000
  O  Te13      1.0  0.49394  0.20795  0.00607  1.0000
  O  Te14      1.0  0.60766  0.16417  0.46820  1.0000
  O  Te15      1.0  0.63152  0.27310  0.57659  1.0000
  O  Te16      1.0  0.51777  0.31687  0.11438  1.0000
  Mg  Mg7       1.0  0.65198  0.20616  0.65409  1.0000
  Mg  Mg8       1.0  0.54721  0.30776  0.92852  1.0000
  C  Sn17      1.0  0.39880  0.75707  0.23170  1.0000
  C   C77       1.0  0.43960  0.79507  0.31318  1.0000
  C  Sn18      1.0  0.48425  0.77998  0.40925  1.0000
  C  Sn19      1.0  0.48821  0.72577  0.42413  1.0000
  C   C78       1.0  0.44744  0.68780  0.34266  1.0000
  C  Sn20      1.0  0.40277  0.70286  0.24658  1.0000
  O  Te17      1.0  0.35454  0.77305  0.13632  1.0000
  O  Te18      1.0  0.52451  0.81869  0.48958  1.0000
  O  Te19      1.0  0.53252  0.70981  0.51962  1.0000
  O  Te20      1.0  0.36253  0.66418  0.16627  1.0000
  Mg  Mg9       1.0  0.57696  0.77725  0.60521  1.0000
  Mg  Mg10      1.0  0.31008  0.70557  0.05054  1.0000
  C  Sn21      1.0  0.02344  0.04851  0.79299  1.0000
  C   C79       1.0  0.16584  0.01159  0.79082  1.0000
  C  Sn22      1.0  0.14735  0.95835  0.74724  1.0000
  C  Sn23      1.0  0.09173  0.94167  0.70483  1.0000
  C   C80       1.0  0.05577  0.97858  0.70698  1.0000
  C  Sn24      1.0  0.96782  0.03182  0.75058  1.0000
  O  Te21      1.0  0.04282  0.10153  0.83695  1.0000
  O  Te22      1.0  0.18411  0.92217  0.74602  1.0000
  O  Te23      1.0  0.07237  0.88860  0.66086  1.0000
  O  Te24      1.0  0.93110  0.06799  0.75178  1.0000
  Mg  Mg11      1.0  0.13818  0.85428  0.67748  1.0000
  Mg  Mg12      1.0  0.97698  0.13589  0.82022  1.0000
  C  Sn25      1.0  0.75730  0.92907  0.75143  1.0000
  C   C81       1.0  0.78343  0.95414  0.64847  1.0000
  C  Sn26      1.0  0.76505  0.99842  0.58311  1.0000
  C  Sn27      1.0  0.71962  0.01808  0.62152  1.0000
  C   C82       1.0  0.69352  0.99302  0.72444  1.0000
  C  Sn28      1.0  0.71187  0.94873  0.78984  1.0000
  O  Te25      1.0  0.77637  0.88486  0.81540  1.0000
  O  Te26      1.0  0.68542  0.02280  0.48043  1.0000
  O  Te27      1.0  0.59415  0.06233  0.55745  1.0000
  O  Te28      1.0  0.68513  0.92436  0.89248  1.0000
  Mg  Mg13      1.0  0.64419  0.08188  0.42354  1.0000
  Mg  Mg14      1.0  0.72633  0.86530  0.94950  1.0000
  C  Sn29      1.0  0.28534  0.07928  0.81410  1.0000
  C   C83       1.0  0.30829  0.03305  0.79367  1.0000
  C  Sn30      1.0  0.38431  0.98846  0.70726  1.0000
  C  Sn31      1.0  0.32985  0.99012  0.63976  1.0000
  C   C84       1.0  0.20052  0.03633  0.66017  1.0000
  C  Sn32      1.0  0.23088  0.08094  0.74660  1.0000
  O  Te29      1.0  0.31647  0.12339  0.90093  1.0000
  O  Te30      1.0  0.40813  0.94269  0.68849  1.0000
  O  Te31      1.0  0.29872  0.94596  0.55287  1.0000
  O  Te32      1.0  0.20709  0.12670  0.76535  1.0000
  Mg  Mg15      1.0  0.34922  0.89284  0.56011  1.0000
  Mg  Mg16      1.0  0.26596  0.17657  0.89364  1.0000
  C  Sn33      1.0  0.53713  0.24232  0.64323  1.0000
  C   C85       1.0  0.55625  0.20232  0.72946  1.0000
  C  Sn34      1.0  0.58330  0.21391  0.88283  1.0000
  C  Sn35      1.0  0.59138  0.26659  0.95148  1.0000
  C   C86       1.0  0.57226  0.30656  0.86527  1.0000
  C  Sn36      1.0  0.54521  0.29500  0.71188  1.0000
  O  Te33      1.0  0.51020  0.22982  0.49010  1.0000
  O  Te34      1.0  0.60206  0.17325  0.96670  1.0000
  O  Te35      1.0  0.54456  0.24623  0.10473  1.0000
  O  Te36      1.0  0.52645  0.33562  0.62804  1.0000
  Mg  Mg17      1.0  0.56258  0.17720  0.17153  1.0000
  Mg  Mg18      1.0  0.49213  0.29888  0.42324  1.0000
  C  Sn37      1.0  0.41897  0.73825  0.67943  1.0000
  C   C87       1.0  0.44590  0.71022  0.79330  1.0000
  C  Sn38      1.0  0.48188  0.73688  0.92131  1.0000
  C  Sn39      1.0  0.49113  0.79271  0.93586  1.0000
  C   C88       1.0  0.46421  0.82071  0.82206  1.0000
  C  Sn40      1.0  0.42822  0.79409  0.69399  1.0000
  O  Te37      1.0  0.38317  0.71079  0.55245  1.0000
  O  Te38      1.0  0.43456  0.67516  0.03362  1.0000
  O  Te39      1.0  0.45319  0.78733  0.06298  1.0000
  O  Te40      1.0  0.40176  0.82294  0.58174  1.0000
  Mg  Mg19      1.0  0.47953  0.73045  0.18543  1.0000
  Mg  Mg20      1.0  0.35677  0.76769  0.42994  1.0000
