data_image0
_chemical_formula_structural       C32N12H4C16H8N4C16H8C8H17OHOH2CHCH2OHOH2CHCH2OHOH2CHCH2OHOH2CHCH5C32N12H4C16H8N4C16H8C8H17OHOH2CHCH2OHOH2CHCH2OHOH2CHCH2OHOH2CHCH5C2Sn2C2HTe2HMgC2Sn2C2HTe2HMgC2Sn2C2HTe2HMgC2Sn2C2HTe2HMgC2Sn2C2HTe2HMgC2Sn2C2HTe2HMgC2Sn2C2HTe2HMgC2Sn2C2HTe2HMgC2Sn2C2HTe2HMgC2Sn2C2HTe2HMgC2Sn2C2HTe2HMgC2Sn2C2HTe2HMgC2Sn2C2HTe2HMgC2Sn2C2HTe2HMgC2Sn2C2HTe2HMgC2Sn2C2HTe2HMg
_chemical_formula_sum              "C224 N32 H160 O16 Sn32 Te32 Mg16"
_cell_length_a       40.279
_cell_length_b       31.5753
_cell_length_c       10.9191
_cell_angle_alpha    68.5769
_cell_angle_beta     126.29
_cell_angle_gamma    90.2175

_symmetry_space_group_name_H-M    'P1'
_space_group_IT_number       1

loop_
  _space_group_symop_operation_xyz
  'x, y, z'

loop_
  _atom_site_type_symbol
  _atom_site_label
  _atom_site_symmetry_multiplicity
  _atom_site_fract_x
  _atom_site_fract_y
  _atom_site_fract_z
  _atom_site_occupancy
  C   C1        1.0  0.76225  0.99825  0.29167  1.0000
  C   C2        1.0  0.23821  0.60254  0.23167  1.0000
  C   C3        1.0  0.25990  0.50473  0.35024  1.0000
  C   C4        1.0  0.74309  0.09344  0.21745  1.0000
  C   C5        1.0  0.25920  0.00809  0.28623  1.0000
  C   C6        1.0  0.75972  0.60008  0.24442  1.0000
  C   C7        1.0  0.75687  0.50949  0.26807  1.0000
  C   C8        1.0  0.25477  0.10374  0.19467  1.0000
  C   C9        1.0  0.71654  0.06593  0.22933  1.0000
  C   C10       1.0  0.28520  0.52975  0.32553  1.0000
  C   C11       1.0  0.21223  0.57710  0.25704  1.0000
  C   C12       1.0  0.78819  0.02530  0.27935  1.0000
  C   C13       1.0  0.28126  0.07605  0.19075  1.0000
  C   C14       1.0  0.73082  0.53290  0.27995  1.0000
  C   C15       1.0  0.78741  0.57572  0.23719  1.0000
  C   C16       1.0  0.23383  0.03521  0.29208  1.0000
  C   C17       1.0  0.80662  0.10269  0.23221  1.0000
  C   C18       1.0  0.19711  0.49624  0.32761  1.0000
  C   C19       1.0  0.30142  0.60677  0.24522  1.0000
  C   C20       1.0  0.70016  0.98577  0.27719  1.0000
  C   C21       1.0  0.20410  0.11358  0.24811  1.0000
  C   C22       1.0  0.81200  0.49887  0.24595  1.0000
  C   C23       1.0  0.70139  0.60586  0.26222  1.0000
  C   C24       1.0  0.30777  0.99402  0.23337  1.0000
  C   C25       1.0  0.72584  0.01752  0.26686  1.0000
  C   C26       1.0  0.27467  0.57928  0.26536  1.0000
  C   C27       1.0  0.22283  0.52718  0.31526  1.0000
  C   C28       1.0  0.77937  0.07340  0.24260  1.0000
  C   C29       1.0  0.28354  0.02715  0.23624  1.0000
  C   C30       1.0  0.73125  0.57896  0.26516  1.0000
  C   C31       1.0  0.78558  0.52977  0.24669  1.0000
  C   C32       1.0  0.23105  0.08369  0.24644  1.0000
  N   N1        1.0  0.66362  0.99810  0.24144  1.0000
  N   N2        1.0  0.33711  0.58743  0.28615  1.0000
  N   N3        1.0  0.15974  0.50912  0.28403  1.0000
  N   N4        1.0  0.84222  0.08575  0.26808  1.0000
  N   N5        1.0  0.33502  0.00254  0.20680  1.0000
  N   N6        1.0  0.67836  0.58665  0.30086  1.0000
  N   N7        1.0  0.84114  0.50801  0.23138  1.0000
  N   N8        1.0  0.17788  0.09859  0.27475  1.0000
  N   N9        1.0  0.05732  0.29800  0.25895  1.0000
  N   N10       1.0  0.54989  0.79292  0.22356  1.0000
  N   N11       1.0  0.95204  0.28948  0.26869  1.0000
  N   N12       1.0  0.45223  0.78478  0.27921  1.0000
  H   H1        1.0  0.02476  0.30915  0.18371  1.0000
  H   H2        1.0  0.53575  0.78557  0.27805  1.0000
  H   H3        1.0  0.96716  0.29857  0.21851  1.0000
  H   H4        1.0  0.48457  0.77147  0.37499  1.0000
  C   C33       1.0  0.93276  0.32233  0.28263  1.0000
  C   C34       1.0  0.07895  0.26175  0.26498  1.0000
  C   C35       1.0  0.42763  0.82669  0.23526  1.0000
  C   C36       1.0  0.56746  0.75818  0.21020  1.0000
  C   C37       1.0  0.08307  0.32766  0.31001  1.0000
  C   C38       1.0  0.93337  0.25200  0.26545  1.0000
  C   C39       1.0  0.56993  0.82933  0.22308  1.0000
  C   C40       1.0  0.42613  0.75628  0.22026  1.0000
  C   C41       1.0  0.90242  0.30391  0.29422  1.0000
  C   C42       1.0  0.11972  0.26802  0.32833  1.0000
  C   C43       1.0  0.38496  0.82511  0.14063  1.0000
  C   C44       1.0  0.59729  0.77506  0.19100  1.0000
  C   C45       1.0  0.12205  0.30883  0.35387  1.0000
  C   C46       1.0  0.90336  0.26049  0.28660  1.0000
  C   C47       1.0  0.59849  0.81849  0.19766  1.0000
  C   C48       1.0  0.38397  0.78217  0.12852  1.0000
  H   H5        1.0  0.88216  0.32005  0.30883  1.0000
  H   H6        1.0  0.14519  0.24430  0.35669  1.0000
  H   H7        1.0  0.35778  0.85313  0.08399  1.0000
  H   H8        1.0  0.61605  0.75737  0.17379  1.0000
  H   H9        1.0  0.14913  0.32337  0.40072  1.0000
  H   H10       1.0  0.88479  0.23687  0.29777  1.0000
  H   H11       1.0  0.61776  0.84053  0.18378  1.0000
  H   H12       1.0  0.35591  0.77039  0.06103  1.0000
  N   N13       1.0  0.50003  0.72280  0.24462  1.0000
  N   N14       1.0  0.50179  0.85587  0.24992  1.0000
  N   N15       1.0  0.00353  0.23023  0.24152  1.0000
  N   N16       1.0  0.00720  0.35416  0.29747  1.0000
  C   C49       1.0  0.53108  0.69603  0.25737  1.0000
  C   C50       1.0  0.47873  0.87671  0.28366  1.0000
  C   C51       1.0  0.02842  0.21035  0.21216  1.0000
  C   C52       1.0  0.97756  0.37923  0.29664  1.0000
  C   C53       1.0  0.47827  0.69260  0.28470  1.0000
  C   C54       1.0  0.53301  0.87983  0.26514  1.0000
  C   C55       1.0  0.97338  0.20404  0.22651  1.0000
  C   C56       1.0  0.03650  0.38122  0.30758  1.0000
  C   C57       1.0  0.52976  0.64774  0.31756  1.0000
  C   C58       1.0  0.49891  0.91129  0.33447  1.0000
  C   C59       1.0  0.01035  0.17439  0.16403  1.0000
  C   C60       1.0  0.98970  0.42159  0.30756  1.0000
  C   C61       1.0  0.50010  0.64546  0.34200  1.0000
  C   C62       1.0  0.53057  0.91370  0.32047  1.0000
  C   C63       1.0  0.97845  0.16998  0.17614  1.0000
  C   C64       1.0  0.02429  0.42291  0.31267  1.0000
  H   H13       1.0  0.55036  0.61804  0.34474  1.0000
  H   H14       1.0  0.49096  0.93028  0.38282  1.0000
  H   H15       1.0  0.02010  0.15554  0.12000  1.0000
  H   H16       1.0  0.97384  0.44739  0.31355  1.0000
  H   H17       1.0  0.49417  0.61352  0.39812  1.0000
  H   H18       1.0  0.55211  0.93570  0.35268  1.0000
  H   H19       1.0  0.95833  0.14651  0.14570  1.0000
  H   H20       1.0  0.04119  0.44977  0.32368  1.0000
  C   C65       1.0  0.94316  0.36622  0.28369  1.0000
  C   C66       1.0  0.06338  0.22313  0.22817  1.0000
  C   C67       1.0  0.44338  0.86567  0.26871  1.0000
  C   C68       1.0  0.55973  0.71227  0.23238  1.0000
  C   C69       1.0  0.07035  0.36968  0.31280  1.0000
  C   C70       1.0  0.94287  0.21271  0.24292  1.0000
  C   C71       1.0  0.56280  0.86928  0.24660  1.0000
  C   C72       1.0  0.44196  0.70760  0.26279  1.0000
  H   H21       1.0  0.84002  0.62981  0.11547  1.0000
  H   H22       1.0  0.78721  0.68070  0.13182  1.0000
  H   H23       1.0  0.35563  0.09963  0.34369  1.0000
  H   H24       1.0  0.30804  0.14578  0.35470  1.0000
  H   H25       1.0  0.16609  0.56134  0.37765  1.0000
  H   H26       1.0  0.19960  0.67149  0.25616  1.0000
  H   H27       1.0  0.64634  0.13325  0.94737  1.0000
  H   H28       1.0  0.69123  0.16944  0.19337  1.0000
  H   H29       1.0  0.20147  0.59722  0.45013  1.0000
  H   H30       1.0  0.25710  0.64735  0.40937  1.0000
  H   H31       1.0  0.63184  0.07897  0.99741  1.0000
  H   H32       1.0  0.74050  0.12735  0.39041  1.0000
  H   H33       1.0  0.81899  0.58303  0.06664  1.0000
  H   H34       1.0  0.73370  0.67819  0.98417  1.0000
  H   H35       1.0  0.36199  0.05482  0.28671  1.0000
  H   H36       1.0  0.30068  0.17218  0.16048  1.0000
  H   H37       1.0  0.76930  0.96121  0.31899  1.0000
  O   O1        1.0  0.68246  0.08726  0.20761  1.0000
  H   H38       1.0  0.79572  0.14004  0.19674  1.0000
  O   O2        1.0  0.22845  0.65118  0.16882  1.0000
  H   H39       1.0  0.31338  0.51243  0.35115  1.0000
  H   H40       1.0  0.21114  0.45901  0.37003  1.0000
  C   C73       1.0  0.81420  0.61292  0.08808  1.0000
  H   H41       1.0  0.78314  0.63915  0.97632  1.0000
  C   C74       1.0  0.75604  0.68129  0.10267  1.0000
  H   H42       1.0  0.74259  0.71460  0.08791  1.0000
  H   H43       1.0  0.26758  0.46652  0.39470  1.0000
  O   O3        1.0  0.17630  0.60382  0.20959  1.0000
  H   H44       1.0  0.28987  0.64513  0.19434  1.0000
  O   O4        1.0  0.73350  0.14112  0.17093  1.0000
  H   H45       1.0  0.81598  0.01024  0.29802  1.0000
  H   H46       1.0  0.71390  0.94916  0.31291  1.0000
  C   C75       1.0  0.34572  0.09151  0.23888  1.0000
  H   H47       1.0  0.35300  0.11601  0.16211  1.0000
  C   C76       1.0  0.28509  0.16916  0.21706  1.0000
  H   H48       1.0  0.27290  0.20432  0.19511  1.0000
  H   H49       1.0  0.26106  0.97066  0.32089  1.0000
  O   O5        1.0  0.29967  0.10003  0.12361  1.0000
  H   H50       1.0  0.20705  0.14969  0.22356  1.0000
  O   O6        1.0  0.76044  0.64402  0.24101  1.0000
  H   H51       1.0  0.70892  0.51719  0.29702  1.0000
  H   H52       1.0  0.80486  0.46457  0.25806  1.0000
  C   C77       1.0  0.17238  0.59558  0.33956  1.0000
  H   H53       1.0  0.14482  0.62438  0.27964  1.0000
  C   C78       1.0  0.22952  0.66955  0.27456  1.0000
  H   H54       1.0  0.23318  0.70525  0.23317  1.0000
  H   H55       1.0  0.75620  0.47404  0.27723  1.0000
  O   O7        1.0  0.81758  0.59658  0.23865  1.0000
  H   H56       1.0  0.69938  0.64359  0.22539  1.0000
  O   O8        1.0  0.24803  0.15207  0.13616  1.0000
  H   H57       1.0  0.21545  0.02013  0.33133  1.0000
  H   H58       1.0  0.30122  0.95928  0.25802  1.0000
  C   C79       1.0  0.64268  0.10718  0.03520  1.0000
  H   H59       1.0  0.61926  0.12475  0.03519  1.0000
  C   C80       1.0  0.72579  0.15638  0.26465  1.0000
  H   H60       1.0  0.74108  0.18492  0.27946  1.0000
  H   H61       1.0  0.48203  0.75603  0.14681  1.0000
  H   H62       1.0  0.48394  0.84901  0.14733  1.0000
  H   H63       1.0  0.02099  0.23504  0.34869  1.0000
  H   H64       1.0  0.02200  0.31930  0.38680  1.0000
  C   C81       1.0  0.73839  0.02065  0.69063  1.0000
  C   C82       1.0  0.24469  0.59375  0.81839  1.0000
  C   C83       1.0  0.24665  0.51281  0.77048  1.0000
  C   C84       1.0  0.74574  0.09356  0.78573  1.0000
  C   C85       1.0  0.25390  0.00738  0.77245  1.0000
  C   C86       1.0  0.75324  0.60217  0.70938  1.0000
  C   C87       1.0  0.75750  0.50620  0.81080  1.0000
  C   C88       1.0  0.25400  0.10058  0.72040  1.0000
  C   C89       1.0  0.71860  0.06578  0.78952  1.0000
  C   C90       1.0  0.27449  0.53904  0.77444  1.0000
  C   C91       1.0  0.21533  0.56765  0.80945  1.0000
  C   C92       1.0  0.76528  0.04745  0.68899  1.0000
  C   C93       1.0  0.27719  0.07638  0.69591  1.0000
  C   C94       1.0  0.73522  0.53394  0.82687  1.0000
  C   C95       1.0  0.77594  0.57400  0.69280  1.0000
  C   C96       1.0  0.23072  0.03141  0.79443  1.0000
  C   C97       1.0  0.79751  0.11279  0.73382  1.0000
  C   C98       1.0  0.19041  0.49386  0.78762  1.0000
  C   C99       1.0  0.30186  0.60923  0.79466  1.0000
  C   C100      1.0  0.69293  0.99337  0.76099  1.0000
  C   C101      1.0  0.20342  0.10582  0.77784  1.0000
  C   C102      1.0  0.80233  0.49222  0.73909  1.0000
  C   C103      1.0  0.70484  0.61353  0.77191  1.0000
  C   C104      1.0  0.30284  0.99897  0.71501  1.0000
  C   C105      1.0  0.71555  0.02794  0.74535  1.0000
  C   C106      1.0  0.27404  0.58007  0.79746  1.0000
  C   C107      1.0  0.21645  0.52610  0.78709  1.0000
  C   C108      1.0  0.76977  0.08405  0.73780  1.0000
  C   C109      1.0  0.27800  0.02879  0.72497  1.0000
  C   C110      1.0  0.73214  0.58273  0.77452  1.0000
  C   C111      1.0  0.77855  0.52510  0.74454  1.0000
  C   C112      1.0  0.23015  0.07860  0.76813  1.0000
  N   N17       1.0  0.67324  0.99105  0.82268  1.0000
  N   N18       1.0  0.32647  0.59990  0.76185  1.0000
  N   N19       1.0  0.15970  0.50020  0.79329  1.0000
  N   N20       1.0  0.82057  0.10393  0.69416  1.0000
  N   N21       1.0  0.33342  0.00823  0.70984  1.0000
  N   N22       1.0  0.67918  0.59817  0.80145  1.0000
  N   N23       1.0  0.83191  0.50041  0.72622  1.0000
  N   N24       1.0  0.17708  0.08896  0.80055  1.0000
  N   N25       1.0  0.04860  0.29359  0.73465  1.0000
  N   N26       1.0  0.54688  0.80027  0.71745  1.0000
  N   N27       1.0  0.94575  0.28856  0.76221  1.0000
  N   N28       1.0  0.45321  0.78708  0.79793  1.0000
  H   H65       1.0  0.03264  0.28458  0.78122  1.0000
  H   H66       1.0  0.51634  0.81913  0.60718  1.0000
  H   H67       1.0  0.97818  0.27460  0.85196  1.0000
  H   H68       1.0  0.48492  0.77225  0.90243  1.0000
  C   C113      1.0  0.92285  0.32802  0.73748  1.0000
  C   C114      1.0  0.06656  0.26122  0.71504  1.0000
  C   C115      1.0  0.42848  0.82907  0.75660  1.0000
  C   C116      1.0  0.56897  0.75996  0.73975  1.0000
  C   C117      1.0  0.06855  0.32992  0.74386  1.0000
  C   C118      1.0  0.91811  0.26369  0.68498  1.0000
  C   C119      1.0  0.57630  0.82518  0.79056  1.0000
  C   C120      1.0  0.42652  0.75837  0.74057  1.0000
  C   C121      1.0  0.87960  0.32838  0.63854  1.0000
  C   C122      1.0  0.09714  0.27945  0.70372  1.0000
  C   C123      1.0  0.38611  0.82657  0.66831  1.0000
  C   C124      1.0  0.61226  0.75942  0.83296  1.0000
  C   C125      1.0  0.09754  0.32187  0.71734  1.0000
  C   C126      1.0  0.87667  0.28898  0.60500  1.0000
  C   C127      1.0  0.61672  0.79906  0.86506  1.0000
  C   C128      1.0  0.38490  0.78361  0.65694  1.0000
  H   H69       1.0  0.85343  0.35570  0.59255  1.0000
  H   H70       1.0  0.11718  0.26342  0.68809  1.0000
  H   H71       1.0  0.35904  0.85450  0.61311  1.0000
  H   H72       1.0  0.63796  0.73130  0.87979  1.0000
  H   H73       1.0  0.11623  0.34535  0.70647  1.0000
  H   H74       1.0  0.84789  0.27906  0.53042  1.0000
  H   H75       1.0  0.64622  0.80800  0.93897  1.0000
  H   H76       1.0  0.35678  0.77167  0.59159  1.0000
  N   N29       1.0  0.49311  0.72919  0.71736  1.0000
  N   N30       1.0  0.50470  0.85855  0.78459  1.0000
  N   N31       1.0  0.99286  0.23073  0.70404  1.0000
  N   N32       1.0  0.00052  0.35293  0.77879  1.0000
  C   C129      1.0  0.51952  0.70730  0.70105  1.0000
  C   C130      1.0  0.47717  0.88206  0.79237  1.0000
  C   C131      1.0  0.02407  0.20286  0.71958  1.0000
  C   C132      1.0  0.97802  0.37232  0.81722  1.0000
  C   C133      1.0  0.46903  0.70017  0.74175  1.0000
  C   C134      1.0  0.53414  0.88314  0.79120  1.0000
  C   C135      1.0  0.96560  0.20325  0.71252  1.0000
  C   C136      1.0  0.03429  0.37394  0.81172  1.0000
  C   C137      1.0  0.50904  0.66339  0.70448  1.0000
  C   C138      1.0  0.49045  0.92390  0.80356  1.0000
  C   C139      1.0  0.01612  0.15715  0.74420  1.0000
  C   C140      1.0  0.00139  0.40188  0.89109  1.0000
  C   C141      1.0  0.48125  0.65792  0.73877  1.0000
  C   C142      1.0  0.52315  0.92544  0.79629  1.0000
  C   C143      1.0  0.98223  0.15702  0.74451  1.0000
  C   C144      1.0  0.03495  0.40280  0.88835  1.0000
  H   H77       1.0  0.52231  0.63872  0.68663  1.0000
  H   H78       1.0  0.47601  0.94953  0.81478  1.0000
  H   H79       1.0  0.03509  0.12763  0.76339  1.0000
  H   H80       1.0  0.99421  0.41776  0.94847  1.0000
  H   H81       1.0  0.47002  0.62703  0.76044  1.0000
  H   H82       1.0  0.53900  0.95314  0.79617  1.0000
  H   H83       1.0  0.96967  0.12730  0.76707  1.0000
  H   H84       1.0  0.05988  0.41980  0.94289  1.0000
  C   C145      1.0  0.94061  0.36393  0.78810  1.0000
  C   C146      1.0  0.05704  0.21659  0.72077  1.0000
  C   C147      1.0  0.44214  0.87003  0.77747  1.0000
  C   C148      1.0  0.55298  0.72118  0.70495  1.0000
  C   C149      1.0  0.06267  0.36647  0.78358  1.0000
  C   C150      1.0  0.93046  0.21854  0.69629  1.0000
  C   C151      1.0  0.56743  0.86841  0.79572  1.0000
  C   C152      1.0  0.43858  0.71209  0.75621  1.0000
  H   H85       1.0  0.85777  0.56483  0.80148  1.0000
  H   H86       1.0  0.73605  0.66976  0.42607  1.0000
  H   H87       1.0  0.34063  0.11122  0.84808  1.0000
  H   H88       1.0  0.24150  0.17466  0.46339  1.0000
  H   H89       1.0  0.13307  0.58351  0.61269  1.0000
  H   H90       1.0  0.18503  0.67488  0.66020  1.0000
  H   H91       1.0  0.63908  0.08278  0.62155  1.0000
  H   H92       1.0  0.68684  0.16834  0.65210  1.0000
  H   H93       1.0  0.12700  0.59600  0.74608  1.0000
  H   H94       1.0  0.20270  0.65108  0.87300  1.0000
  H   H95       1.0  0.64177  0.06798  0.80172  1.0000
  H   H96       1.0  0.70964  0.14843  0.87012  1.0000
  H   H97       1.0  0.84007  0.62217  0.63216  1.0000
  H   H98       1.0  0.69136  0.67925  0.42277  1.0000
  H   H99       1.0  0.36163  0.06633  0.82560  1.0000
  H   H100      1.0  0.19579  0.18193  0.45415  1.0000
  H   H101      1.0  0.73476  0.99249  0.65232  1.0000
  O   O9        1.0  0.69859  0.07487  0.84791  1.0000
  H   H102      1.0  0.79732  0.14247  0.76278  1.0000
  O   O10       1.0  0.24879  0.63176  0.85324  1.0000
  H   H103      1.0  0.29704  0.52932  0.75817  1.0000
  H   H104      1.0  0.19844  0.46238  0.77848  1.0000
  C   C153      1.0  0.83452  0.60012  0.71908  1.0000
  H   H105      1.0  0.83693  0.61734  0.79412  1.0000
  C   C154      1.0  0.72477  0.68023  0.48381  1.0000
  H   H106      1.0  0.72702  0.71600  0.47055  1.0000
  H   H107      1.0  0.24739  0.48105  0.75333  1.0000
  O   O11       1.0  0.18911  0.58105  0.83836  1.0000
  H   H108      1.0  0.30004  0.63976  0.81782  1.0000
  O   O12       1.0  0.75211  0.12934  0.83369  1.0000
  H   H109      1.0  0.78342  0.04148  0.64984  1.0000
  H   H110      1.0  0.69479  0.96729  0.71897  1.0000
  C   C155      1.0  0.33914  0.10129  0.75877  1.0000
  H   H111      1.0  0.34691  0.12797  0.68874  1.0000
  C   C156      1.0  0.22971  0.18155  0.52477  1.0000
  H   H112      1.0  0.23321  0.21563  0.52797  1.0000
  H   H113      1.0  0.25442  0.97082  0.79371  1.0000
  O   O13       1.0  0.29606  0.10128  0.63215  1.0000
  H   H114      1.0  0.20619  0.14170  0.76147  1.0000
  O   O14       1.0  0.75223  0.64943  0.66560  1.0000
  H   H115      1.0  0.71881  0.51950  0.87661  1.0000
  H   H116      1.0  0.79418  0.45835  0.75326  1.0000
  C   C157      1.0  0.14385  0.60133  0.69388  1.0000
  H   H117      1.0  0.13728  0.63946  0.62024  1.0000
  C   C158      1.0  0.21217  0.66513  0.79384  1.0000
  H   H118      1.0  0.22302  0.69646  0.80400  1.0000
  H   H119      1.0  0.75965  0.46859  0.85139  1.0000
  O   O15       1.0  0.79165  0.59613  0.61163  1.0000
  H   H120      1.0  0.70593  0.65049  0.73662  1.0000
  O   O16       1.0  0.25509  0.14621  0.70045  1.0000
  H   H121      1.0  0.21212  0.01506  0.83057  1.0000
  H   H122      1.0  0.29440  0.96566  0.71680  1.0000
  C   C159      1.0  0.65221  0.08903  0.73240  1.0000
  H   H123      1.0  0.64101  0.12703  0.69027  1.0000
  C   C160      1.0  0.71571  0.16178  0.77933  1.0000
  H   H124      1.0  0.72446  0.19497  0.77415  1.0000
  H   H125      1.0  0.49100  0.76196  0.71075  1.0000
  H   H126      1.0  0.50821  0.82475  0.80129  1.0000
  H   H127      1.0  0.97719  0.26453  0.60677  1.0000
  H   H128      1.0  0.98204  0.35040  0.66725  1.0000
  C   C161      1.0  0.61319  0.67248  0.10917  1.0000
  C   C162      1.0  0.64433  0.62981  0.24745  1.0000
  C  Sn1       1.0  0.64639  0.60901  0.38964  1.0000
  C  Sn2       1.0  0.61668  0.63141  0.39308  1.0000
  C   C163      1.0  0.58563  0.67407  0.25405  1.0000
  C   C164      1.0  0.58386  0.69459  0.11243  1.0000
  H   H129      1.0  0.77189  0.56281  0.99955  1.0000
  O  Te1       1.0  0.67771  0.56638  0.52673  1.0000
  O  Te2       1.0  0.61800  0.61138  0.53356  1.0000
  H   H130      1.0  0.55974  0.72761  0.00534  1.0000
  Mg  Mg1       1.0  0.66658  0.55296  0.68932  1.0000
  C   C165      1.0  0.39197  0.88728  0.35499  1.0000
  C   C166      1.0  0.40891  0.89480  0.27064  1.0000
  C  Sn3       1.0  0.40278  0.94087  0.16455  1.0000
  C  Sn4       1.0  0.37925  0.98006  0.14277  1.0000
  C   C167      1.0  0.35949  0.97216  0.22781  1.0000
  C   C168      1.0  0.36877  0.92591  0.33364  1.0000
  H   H131      1.0  0.39687  0.85150  0.43694  1.0000
  O  Te3       1.0  0.41991  0.94775  0.08118  1.0000
  O  Te4       1.0  0.36968  0.02647  0.03754  1.0000
  H   H132      1.0  0.35568  0.92010  0.39901  1.0000
  Mg  Mg2       1.0  0.55942  0.89214  0.95118  1.0000
  C   C169      1.0  0.11342  0.20828  0.12898  1.0000
  C   C170      1.0  0.09421  0.19662  0.20480  1.0000
  C  Sn5       1.0  0.10410  0.14956  0.31563  1.0000
  C  Sn6       1.0  0.13379  0.11357  0.35100  1.0000
  C   C171      1.0  0.15285  0.12561  0.27460  1.0000
  C   C172      1.0  0.14272  0.17282  0.16385  1.0000
  H   H133      1.0  0.10560  0.24481  0.04337  1.0000
  O  Te5       1.0  0.08460  0.13852  0.39024  1.0000
  O  Te6       1.0  0.14426  0.06625  0.46133  1.0000
  H   H134      1.0  0.15762  0.18184  0.10525  1.0000
  Mg  Mg3       1.0  0.10925  0.06892  0.53180  1.0000
  C   C173      1.0  0.88171  0.48108  0.12411  1.0000
  C   C174      1.0  0.86595  0.47613  0.21179  1.0000
  C  Sn7       1.0  0.87611  0.43168  0.33740  1.0000
  C  Sn8       1.0  0.90255  0.39152  0.37567  1.0000
  C   C175      1.0  0.91817  0.39685  0.28731  1.0000
  C   C176      1.0  0.90780  0.44149  0.16182  1.0000
  H   H135      1.0  0.87370  0.51562  0.02708  1.0000
  O  Te7       1.0  0.86009  0.42736  0.42374  1.0000
  O  Te8       1.0  0.91322  0.34669  0.50065  1.0000
  H   H136      1.0  0.92002  0.44532  0.09403  1.0000
  Mg  Mg4       1.0  0.88357  0.35883  0.58334  1.0000
  C   C177      1.0  0.38319  0.68078  0.32491  1.0000
  C   C178      1.0  0.41275  0.67545  0.29939  1.0000
  C  Sn9       1.0  0.41585  0.64034  0.25466  1.0000
  C  Sn10      1.0  0.38879  0.61006  0.23517  1.0000
  C   C179      1.0  0.35930  0.61570  0.26087  1.0000
  C   C180      1.0  0.35648  0.65094  0.30565  1.0000
  H   H137      1.0  0.38098  0.70806  0.35947  1.0000
  O  Te9       1.0  0.44558  0.63549  0.22969  1.0000
  O  Te10      1.0  0.39120  0.57469  0.19048  1.0000
  H   H138      1.0  0.33356  0.65508  0.32530  1.0000
  Mg  Mg5       1.0  0.43683  0.58201  0.17019  1.0000
  C   C181      1.0  0.64628  0.88668  0.38453  1.0000
  C   C182      1.0  0.60177  0.89735  0.28992  1.0000
  C  Sn11      1.0  0.57584  0.94374  0.16750  1.0000
  C  Sn12      1.0  0.59491  0.98005  0.13954  1.0000
  C   C183      1.0  0.63947  0.96901  0.23478  1.0000
  C   C184      1.0  0.66512  0.92247  0.35699  1.0000
  H   H139      1.0  0.66613  0.85067  0.47903  1.0000
  O  Te11      1.0  0.53143  0.95378  0.07414  1.0000
  O  Te12      1.0  0.56677  0.02671  0.01795  1.0000
  H   H140      1.0  0.69958  0.91422  0.43015  1.0000
  Mg  Mg6       1.0  0.66779  0.89723  0.92282  1.0000
  C   C185      1.0  0.93505  0.12002  0.38988  1.0000
  C   C186      1.0  0.92226  0.16600  0.26564  1.0000
  C  Sn13      1.0  0.87876  0.18891  0.12772  1.0000
  C  Sn14      1.0  0.84755  0.16528  0.11431  1.0000
  C   C187      1.0  0.86067  0.11930  0.23934  1.0000
  C   C188      1.0  0.90429  0.09669  0.37678  1.0000
  H   H141      1.0  0.96880  0.10253  0.49628  1.0000
  O  Te13      1.0  0.86654  0.23484  0.00469  1.0000
  O  Te14      1.0  0.96393  0.06183  0.97783  1.0000
  H   H142      1.0  0.91418  0.06111  0.47302  1.0000
  Mg  Mg7       1.0  0.96320  0.12457  0.84243  1.0000
  C   C189      1.0  0.07334  0.46285  0.15136  1.0000
  C   C190      1.0  0.08927  0.41568  0.27362  1.0000
  C  Sn15      1.0  0.13212  0.39790  0.42204  1.0000
  C  Sn16      1.0  0.15944  0.42798  0.44822  1.0000
  C   C191      1.0  0.14318  0.47512  0.32519  1.0000
  C   C192      1.0  0.10026  0.49255  0.17710  1.0000
  H   H143      1.0  0.04012  0.47635  0.03682  1.0000
  O  Te15      1.0  0.14752  0.35068  0.54286  1.0000
  O  Te16      1.0  0.20239  0.41113  0.59543  1.0000
  H   H144      1.0  0.08793  0.52908  0.08252  1.0000
  Mg  Mg8       1.0  0.20842  0.34416  0.72282  1.0000
  C   C193      1.0  0.62352  0.69061  0.63506  1.0000
  C   C194      1.0  0.64570  0.64258  0.74607  1.0000
  C  Sn17      1.0  0.63568  0.61571  0.84761  1.0000
  C  Sn18      1.0  0.60282  0.63743  0.83751  1.0000
  C   C195      1.0  0.58080  0.68550  0.72597  1.0000
  C   C196      1.0  0.59110  0.71205  0.62498  1.0000
  H   H145      1.0  0.63147  0.71116  0.55685  1.0000
  O  Te17      1.0  0.65817  0.56777  0.95787  1.0000
  O  Te18      1.0  0.59214  0.61140  0.93750  1.0000
  H   H146      1.0  0.57390  0.74923  0.53896  1.0000
  Mg  Mg9       1.0  0.47186  0.67271  0.06828  1.0000
  C   C197      1.0  0.37060  0.91157  0.84016  1.0000
  C   C198      1.0  0.35821  0.96105  0.75330  1.0000
  C  Sn19      1.0  0.36937  0.98361  0.65165  1.0000
  C  Sn20      1.0  0.39337  0.95602  0.63690  1.0000
  C   C199      1.0  0.40857  0.90654  0.72421  1.0000
  C   C200      1.0  0.39724  0.88433  0.82562  1.0000
  H   H147      1.0  0.36182  0.89438  0.91855  1.0000
  O  Te19      1.0  0.35674  0.03308  0.56579  1.0000
  O  Te20      1.0  0.40494  0.97765  0.53611  1.0000
  H   H148      1.0  0.40682  0.84602  0.89277  1.0000
  Mg  Mg10      1.0  0.38024  0.04614  0.44397  1.0000
  C   C201      1.0  0.11921  0.17895  0.62589  1.0000
  C   C202      1.0  0.14521  0.13296  0.75350  1.0000
  C  Sn21      1.0  0.14088  0.10971  0.87735  1.0000
  C  Sn22      1.0  0.10989  0.13301  0.87302  1.0000
  C   C203      1.0  0.08400  0.17901  0.74476  1.0000
  C   C204      1.0  0.08862  0.20195  0.62148  1.0000
  H   H149      1.0  0.12276  0.19670  0.53045  1.0000
  O  Te21      1.0  0.00706  0.18931  0.00398  1.0000
  O  Te22      1.0  0.10487  0.11059  0.99519  1.0000
  H   H150      1.0  0.06846  0.23754  0.52263  1.0000
  Mg  Mg11      1.0  0.98811  0.17353  0.14228  1.0000
  C   C205      1.0  0.88573  0.38527  0.86008  1.0000
  C   C206      1.0  0.90561  0.39328  0.78686  1.0000
  C  Sn23      1.0  0.90306  0.43952  0.69564  1.0000
  C  Sn24      1.0  0.88017  0.47839  0.67765  1.0000
  C   C207      1.0  0.86041  0.47000  0.75147  1.0000
  C   C208      1.0  0.86316  0.42359  0.84244  1.0000
  H   H151      1.0  0.88787  0.34936  0.93054  1.0000
  O  Te23      1.0  0.92310  0.44689  0.62326  1.0000
  O  Te24      1.0  0.87712  0.52497  0.58719  1.0000
  H   H152      1.0  0.84778  0.41740  0.89921  1.0000
  Mg  Mg12      1.0  0.90984  0.51686  0.51182  1.0000
  C   C209      1.0  0.37524  0.63071  0.66328  1.0000
  C   C210      1.0  0.36113  0.62287  0.75768  1.0000
  C  Sn25      1.0  0.37081  0.64722  0.85400  1.0000
  C  Sn26      1.0  0.39507  0.68002  0.85554  1.0000
  C   C211      1.0  0.40901  0.68764  0.76057  1.0000
  C   C212      1.0  0.39915  0.66307  0.66468  1.0000
  H   H153      1.0  0.36759  0.61173  0.58901  1.0000
  O  Te25      1.0  0.35648  0.63894  0.94763  1.0000
  O  Te26      1.0  0.40519  0.70484  0.95064  1.0000
  H   H154      1.0  0.41006  0.66918  0.59152  1.0000
  Mg  Mg13      1.0  0.21835  0.80691  0.05739  1.0000
  C   C213      1.0  0.61819  0.92495  0.94651  1.0000
  C   C214      1.0  0.59709  0.90300  0.84085  1.0000
  C  Sn27      1.0  0.60555  0.90725  0.72236  1.0000
  C  Sn28      1.0  0.62972  0.93398  0.70976  1.0000
  C   C215      1.0  0.65071  0.95578  0.81613  1.0000
  C   C216      1.0  0.64498  0.95131  0.93421  1.0000
  H   H155      1.0  0.45370  0.04701  0.03794  1.0000
  O  Te27      1.0  0.58422  0.88510  0.61773  1.0000
  O  Te28      1.0  0.63579  0.93879  0.59250  1.0000
  H   H156      1.0  0.50127  0.09382  0.01608  1.0000
  Mg  Mg14      1.0  0.60273  0.90202  0.47785  1.0000
  C   C217      1.0  0.86572  0.13980  0.58199  1.0000
  C   C218      1.0  0.85324  0.12901  0.68254  1.0000
  C  Sn29      1.0  0.86483  0.15032  0.78915  1.0000
  C  Sn30      1.0  0.88936  0.18303  0.79489  1.0000
  C   C219      1.0  0.90166  0.19361  0.69372  1.0000
  C   C220      1.0  0.88990  0.17208  0.58753  1.0000
  H   H157      1.0  0.85660  0.12316  0.49976  1.0000
  O  Te29      1.0  0.85211  0.13913  0.88881  1.0000
  O  Te30      1.0  0.90137  0.20485  0.90027  1.0000
  H   H158      1.0  0.89954  0.18046  0.50961  1.0000
  Mg  Mg15      1.0  0.71626  0.30361  0.01214  1.0000
  C   C221      1.0  0.15839  0.40402  0.91967  1.0000
  C   C222      1.0  0.14397  0.45308  0.81884  1.0000
  C  Sn31      1.0  0.10019  0.47682  0.70536  1.0000
  C  Sn32      1.0  0.07036  0.45087  0.69290  1.0000
  C   C223      1.0  0.08512  0.40181  0.79441  1.0000
  C   C224      1.0  0.12900  0.37840  0.90751  1.0000
  H   H159      1.0  0.03226  0.51145  0.00725  1.0000
  O  Te31      1.0  0.08633  0.52584  0.60552  1.0000
  O  Te32      1.0  0.02643  0.47371  0.58058  1.0000
  H   H160      1.0  0.14015  0.34043  0.98564  1.0000
  Mg  Mg16      1.0  0.02324  0.54098  0.47137  1.0000
