data_image0
_chemical_formula_structural       C32N12H4C16H8N4C16H8C8OH3OH3OH3OH3OH3OH3OH3OH3C32N12H4C16H8N4C16H8C8OH3OH3OH3OH3OH3OH3OH3OH3SnCSn2CSnTe4Mg2SnCSn2CSnTe4Mg2SnCSn2CSnTe4Mg2SnCSn2CSnTe4Mg2SnCSn2CSnTe4Mg2SnCSn2CSnTe4Mg2SnCSn2CSnTe4Mg2SnCSn2CSnTe4Mg2SnCSn2CSnTe4Mg2SnCSn2CSnTe4Mg2SnCSn2CSnTe4Mg2SnCSn2CSnTe4Mg2SnCSn2CSnTe4Mg2SnCSn2CSnTe4Mg2SnCSn2CSnTe4Mg2SnCSn2CSnTe4Mg2
_chemical_formula_sum              "C176 N32 H88 O16 Sn64 Te64 Mg32"
_cell_length_a       39.474
_cell_length_b       32.5461
_cell_length_c       9.63573
_cell_angle_alpha    78.4486
_cell_angle_beta     70.6211
_cell_angle_gamma    90.1824

_symmetry_space_group_name_H-M    'P1'
_space_group_IT_number       1

loop_
  _space_group_symop_operation_xyz
  'x, y, z'

loop_
  _atom_site_type_symbol
  _atom_site_label
  _atom_site_symmetry_multiplicity
  _atom_site_fract_x
  _atom_site_fract_y
  _atom_site_fract_z
  _atom_site_occupancy
  C   C1        1.0  0.24779  0.59481  0.20375  1.0000
  C   C2        1.0  0.75969  0.01061  0.21816  1.0000
  C   C3        1.0  0.74028  0.08875  0.28760  1.0000
  C   C4        1.0  0.25472  0.50993  0.31394  1.0000
  C   C5        1.0  0.75793  0.58940  0.25903  1.0000
  C   C6        1.0  0.24014  0.00968  0.21982  1.0000
  C   C7        1.0  0.25651  0.09259  0.23123  1.0000
  C   C8        1.0  0.74514  0.51198  0.18889  1.0000
  C   C9        1.0  0.27985  0.54038  0.30858  1.0000
  C   C10       1.0  0.71392  0.06046  0.28180  1.0000
  C   C11       1.0  0.78522  0.03839  0.22516  1.0000
  C   C12       1.0  0.22229  0.56373  0.20774  1.0000
  C   C13       1.0  0.72050  0.54195  0.19275  1.0000
  C   C14       1.0  0.28169  0.06234  0.23807  1.0000
  C   C15       1.0  0.21516  0.03916  0.21775  1.0000
  C   C16       1.0  0.78322  0.55886  0.25515  1.0000
  C   C17       1.0  0.19919  0.48972  0.26642  1.0000
  C   C18       1.0  0.80225  0.10804  0.27000  1.0000
  C   C19       1.0  0.69619  0.99209  0.24426  1.0000
  C   C20       1.0  0.30302  0.61614  0.24680  1.0000
  C   C21       1.0  0.80252  0.48860  0.22008  1.0000
  C   C22       1.0  0.19703  0.11306  0.21930  1.0000
  C   C23       1.0  0.30006  0.99008  0.23462  1.0000
  C   C24       1.0  0.70062  0.61298  0.23372  1.0000
  C   C25       1.0  0.27693  0.58353  0.25299  1.0000
  C   C26       1.0  0.72343  0.02096  0.24703  1.0000
  C   C27       1.0  0.77602  0.07804  0.26088  1.0000
  C   C28       1.0  0.22542  0.52097  0.26301  1.0000
  C   C29       1.0  0.72638  0.58117  0.22842  1.0000
  C   C30       1.0  0.27390  0.02055  0.23053  1.0000
  C   C31       1.0  0.22299  0.08128  0.22278  1.0000
  C   C32       1.0  0.77694  0.51977  0.22081  1.0000
  N   N1        1.0  0.33130  0.60649  0.28483  1.0000
  N   N2        1.0  0.66244  0.00087  0.27960  1.0000
  N   N3        1.0  0.83470  0.09878  0.26214  1.0000
  N   N4        1.0  0.17242  0.50026  0.21812  1.0000
  N   N5        1.0  0.67015  0.60581  0.21680  1.0000
  N   N6        1.0  0.33035  0.99964  0.25275  1.0000
  N   N7        1.0  0.16301  0.10305  0.25827  1.0000
  N   N8        1.0  0.83133  0.49555  0.25349  1.0000
  N   N9        1.0  0.05553  0.30488  0.22881  1.0000
  N   N10       1.0  0.55313  0.80220  0.26383  1.0000
  N   N11       1.0  0.94748  0.30123  0.24407  1.0000
  N   N12       1.0  0.44704  0.80523  0.25492  1.0000
  H   H1        1.0  0.02867  0.30420  0.24385  1.0000
  H   H2        1.0  0.52660  0.79906  0.27338  1.0000
  H   H3        1.0  0.97457  0.30183  0.22332  1.0000
  H   H4        1.0  0.47423  0.80783  0.23217  1.0000
  C   C33       1.0  0.07643  0.27106  0.21222  1.0000
  C   C34       1.0  0.92663  0.33494  0.26553  1.0000
  C   C35       1.0  0.57509  0.76915  0.25116  1.0000
  C   C36       1.0  0.42551  0.83847  0.27346  1.0000
  C   C37       1.0  0.92646  0.26525  0.26068  1.0000
  C   C38       1.0  0.07568  0.33960  0.22884  1.0000
  C   C39       1.0  0.42650  0.76851  0.27867  1.0000
  C   C40       1.0  0.57187  0.83813  0.26401  1.0000
  C   C41       1.0  0.11201  0.28560  0.19767  1.0000
  C   C42       1.0  0.89014  0.31877  0.30318  1.0000
  C   C43       1.0  0.60992  0.78569  0.23904  1.0000
  C   C44       1.0  0.38918  0.82149  0.31775  1.0000
  C   C45       1.0  0.89006  0.27675  0.29955  1.0000
  C   C46       1.0  0.11166  0.32732  0.20601  1.0000
  C   C47       1.0  0.38970  0.77898  0.32096  1.0000
  C   C48       1.0  0.60754  0.82674  0.25383  1.0000
  H   H5        1.0  0.13473  0.26633  0.18121  1.0000
  H   H6        1.0  0.86693  0.33699  0.33188  1.0000
  H   H7        1.0  0.63391  0.76871  0.21994  1.0000
  H   H8        1.0  0.36592  0.83954  0.34779  1.0000
  H   H9        1.0  0.86687  0.25531  0.32344  1.0000
  H   H10       1.0  0.13409  0.34818  0.19693  1.0000
  H   H11       1.0  0.36686  0.75639  0.35308  1.0000
  H   H12       1.0  0.62878  0.84764  0.25461  1.0000
  N   N13       1.0  0.50187  0.74117  0.25866  1.0000
  N   N14       1.0  0.49815  0.86693  0.25943  1.0000
  N   N15       1.0  0.00111  0.24038  0.23369  1.0000
  N   N16       1.0  0.00111  0.36529  0.24729  1.0000
  C   C49       1.0  0.52898  0.71482  0.26180  1.0000
  C   C50       1.0  0.47270  0.89388  0.23776  1.0000
  C   C51       1.0  0.03030  0.21663  0.22009  1.0000
  C   C52       1.0  0.97352  0.39064  0.24347  1.0000
  C   C53       1.0  0.47363  0.71598  0.25924  1.0000
  C   C54       1.0  0.52700  0.89227  0.24912  1.0000
  C   C55       1.0  0.97420  0.21422  0.22977  1.0000
  C   C56       1.0  0.02864  0.39130  0.24709  1.0000
  C   C57       1.0  0.51697  0.67171  0.26990  1.0000
  C   C58       1.0  0.48665  0.93751  0.20429  1.0000
  C   C59       1.0  0.02179  0.17432  0.20650  1.0000
  C   C60       1.0  0.98454  0.43422  0.23523  1.0000
  C   C61       1.0  0.48341  0.67287  0.26021  1.0000
  C   C62       1.0  0.52028  0.93663  0.21393  1.0000
  C   C63       1.0  0.98710  0.17311  0.20877  1.0000
  C   C64       1.0  0.01803  0.43413  0.24547  1.0000
  H   H13       1.0  0.53161  0.64407  0.28262  1.0000
  H   H14       1.0  0.47281  0.96469  0.17373  1.0000
  H   H15       1.0  0.04019  0.14972  0.19439  1.0000
  H   H16       1.0  0.96922  0.46126  0.22280  1.0000
  H   H17       1.0  0.46695  0.64695  0.25553  1.0000
  H   H18       1.0  0.53930  0.96304  0.19449  1.0000
  H   H19       1.0  0.97204  0.14736  0.19523  1.0000
  H   H20       1.0  0.03404  0.46038  0.25044  1.0000
  C   C65       1.0  0.06496  0.23004  0.21297  1.0000
  C   C66       1.0  0.93850  0.37711  0.25356  1.0000
  C   C67       1.0  0.56429  0.72741  0.25361  1.0000
  C   C68       1.0  0.43735  0.88087  0.25216  1.0000
  C   C69       1.0  0.93853  0.22493  0.24587  1.0000
  C   C70       1.0  0.06339  0.37974  0.24217  1.0000
  C   C71       1.0  0.43873  0.72804  0.26707  1.0000
  C   C72       1.0  0.56020  0.87901  0.26125  1.0000
  O   O1        1.0  0.24366  0.63592  0.14948  1.0000
  H   H21       1.0  0.30240  0.53246  0.34741  1.0000
  H   H22       1.0  0.20260  0.45673  0.30924  1.0000
  H   H23       1.0  0.76695  0.98027  0.19042  1.0000
  O   O2        1.0  0.68002  0.07283  0.31190  1.0000
  H   H24       1.0  0.79304  0.13902  0.28643  1.0000
  H   H25       1.0  0.22189  0.63586  0.12203  1.0000
  H   H26       1.0  0.66487  0.04721  0.30714  1.0000
  O   O3        1.0  0.73013  0.12672  0.32137  1.0000
  H   H27       1.0  0.81306  0.03086  0.20377  1.0000
  H   H28       1.0  0.70440  0.96188  0.21448  1.0000
  H   H29       1.0  0.25704  0.47699  0.35784  1.0000
  O   O4        1.0  0.19535  0.57724  0.15647  1.0000
  H   H30       1.0  0.29734  0.64869  0.21169  1.0000
  H   H31       1.0  0.70445  0.12676  0.33461  1.0000
  H   H32       1.0  0.18015  0.54987  0.16692  1.0000
  O   O5        1.0  0.76451  0.62677  0.29414  1.0000
  H   H33       1.0  0.69603  0.53680  0.16822  1.0000
  H   H34       1.0  0.79686  0.45873  0.19248  1.0000
  H   H35       1.0  0.23416  0.97751  0.21438  1.0000
  O   O6        1.0  0.31294  0.07526  0.25078  1.0000
  H   H36       1.0  0.20779  0.14605  0.18482  1.0000
  H   H37       1.0  0.78691  0.62411  0.31688  1.0000
  H   H38       1.0  0.32688  0.04842  0.25833  1.0000
  O   O7        1.0  0.26493  0.13302  0.23600  1.0000
  H   H39       1.0  0.18907  0.03118  0.21091  1.0000
  H   H40       1.0  0.29351  0.95827  0.22408  1.0000
  H   H41       1.0  0.74067  0.48194  0.16156  1.0000
  O   O8        1.0  0.81288  0.56867  0.28600  1.0000
  H   H42       1.0  0.70886  0.64336  0.25072  1.0000
  H   H43       1.0  0.28864  0.13325  0.24793  1.0000
  H   H44       1.0  0.82708  0.54163  0.28290  1.0000
  C   C73       1.0  0.24232  0.58893  0.75636  1.0000
  C   C74       1.0  0.76084  0.00620  0.74605  1.0000
  C   C75       1.0  0.74301  0.08965  0.75164  1.0000
  C   C76       1.0  0.25915  0.50454  0.79138  1.0000
  C   C77       1.0  0.75590  0.58856  0.75713  1.0000
  C   C78       1.0  0.23588  0.00698  0.79433  1.0000
  C   C79       1.0  0.25916  0.09252  0.71565  1.0000
  C   C80       1.0  0.74606  0.51049  0.68583  1.0000
  C   C81       1.0  0.28252  0.53499  0.79870  1.0000
  C   C82       1.0  0.71723  0.05945  0.75220  1.0000
  C   C83       1.0  0.78566  0.03569  0.74875  1.0000
  C   C84       1.0  0.21872  0.55801  0.74596  1.0000
  C   C85       1.0  0.72097  0.53970  0.68466  1.0000
  C   C86       1.0  0.28440  0.06218  0.71773  1.0000
  C   C87       1.0  0.21128  0.03687  0.79282  1.0000
  C   C88       1.0  0.78187  0.55894  0.75665  1.0000
  C   C89       1.0  0.20168  0.48457  0.75675  1.0000
  C   C90       1.0  0.80334  0.10926  0.75391  1.0000
  C   C91       1.0  0.69935  0.98741  0.74679  1.0000
  C   C92       1.0  0.29994  0.61032  0.78214  1.0000
  C   C93       1.0  0.80287  0.48872  0.72517  1.0000
  C   C94       1.0  0.19654  0.11214  0.75189  1.0000
  C   C95       1.0  0.29899  0.98827  0.76026  1.0000
  C   C96       1.0  0.69849  0.60983  0.72430  1.0000
  C   C97       1.0  0.27471  0.57797  0.78007  1.0000
  C   C98       1.0  0.72597  0.01749  0.74816  1.0000
  C   C99       1.0  0.77725  0.07797  0.75171  1.0000
  C   C100      1.0  0.22678  0.51542  0.76373  1.0000
  C   C101      1.0  0.72525  0.57917  0.72143  1.0000
  C   C102      1.0  0.27302  0.01887  0.75734  1.0000
  C   C103      1.0  0.22242  0.08045  0.75370  1.0000
  C   C104      1.0  0.77699  0.51941  0.72246  1.0000
  N   N17       1.0  0.33043  0.60091  0.79939  1.0000
  N   N18       1.0  0.66643  0.99739  0.76180  1.0000
  N   N19       1.0  0.83441  0.09918  0.76346  1.0000
  N   N20       1.0  0.17240  0.49588  0.72810  1.0000
  N   N21       1.0  0.66809  0.60114  0.70921  1.0000
  N   N22       1.0  0.33317  0.99969  0.72852  1.0000
  N   N23       1.0  0.16279  0.10160  0.78229  1.0000
  N   N24       1.0  0.83197  0.49634  0.75563  1.0000
  N   N25       1.0  0.05187  0.30076  0.76086  1.0000
  N   N26       1.0  0.55421  0.79953  0.74649  1.0000
  N   N27       1.0  0.94757  0.30104  0.73349  1.0000
  N   N28       1.0  0.44796  0.80377  0.73909  1.0000
  H   H45       1.0  0.02634  0.30210  0.75720  1.0000
  H   H46       1.0  0.52797  0.79808  0.75093  1.0000
  H   H47       1.0  0.97487  0.30253  0.70614  1.0000
  H   H48       1.0  0.47304  0.80395  0.74809  1.0000
  C   C105      1.0  0.07060  0.26498  0.76702  1.0000
  C   C106      1.0  0.92638  0.33395  0.76286  1.0000
  C   C107      1.0  0.57513  0.76549  0.73577  1.0000
  C   C108      1.0  0.42925  0.83940  0.72763  1.0000
  C   C109      1.0  0.92666  0.26469  0.75514  1.0000
  C   C110      1.0  0.07231  0.33518  0.76212  1.0000
  C   C111      1.0  0.42806  0.76895  0.73680  1.0000
  C   C112      1.0  0.57374  0.83454  0.74891  1.0000
  C   C113      1.0  0.10428  0.27732  0.77765  1.0000
  C   C114      1.0  0.88981  0.31691  0.81167  1.0000
  C   C115      1.0  0.61020  0.78045  0.72584  1.0000
  C   C116      1.0  0.39645  0.82654  0.70991  1.0000
  C   C117      1.0  0.89001  0.27494  0.80589  1.0000
  C   C118      1.0  0.10593  0.31982  0.76885  1.0000
  C   C119      1.0  0.39487  0.78374  0.72332  1.0000
  C   C120      1.0  0.60897  0.82159  0.73965  1.0000
  H   H49       1.0  0.12485  0.25628  0.78800  1.0000
  H   H50       1.0  0.86652  0.33443  0.84927  1.0000
  H   H51       1.0  0.63343  0.76208  0.71080  1.0000
  H   H52       1.0  0.37658  0.84728  0.68913  1.0000
  H   H53       1.0  0.86707  0.25258  0.83731  1.0000
  H   H54       1.0  0.12866  0.33870  0.76687  1.0000
  H   H55       1.0  0.37265  0.76433  0.72303  1.0000
  H   H56       1.0  0.63053  0.84132  0.74412  1.0000
  N   N29       1.0  0.50094  0.73908  0.74448  1.0000
  N   N30       1.0  0.49995  0.86427  0.75410  1.0000
  N   N31       1.0  0.00000  0.23793  0.74206  1.0000
  N   N32       1.0  0.00100  0.36389  0.74323  1.0000
  C   C121      1.0  0.52763  0.71221  0.75041  1.0000
  C   C122      1.0  0.47219  0.89016  0.76131  1.0000
  C   C123      1.0  0.02828  0.21324  0.73447  1.0000
  C   C124      1.0  0.97392  0.38958  0.73238  1.0000
  C   C125      1.0  0.47256  0.71417  0.74515  1.0000
  C   C126      1.0  0.52733  0.88814  0.76590  1.0000
  C   C127      1.0  0.97450  0.21404  0.71860  1.0000
  C   C128      1.0  0.02823  0.38967  0.74672  1.0000
  C   C129      1.0  0.51521  0.66919  0.76066  1.0000
  C   C130      1.0  0.48176  0.93082  0.78522  1.0000
  C   C131      1.0  0.02110  0.17316  0.69995  1.0000
  C   C132      1.0  0.98530  0.43318  0.71998  1.0000
  C   C133      1.0  0.48187  0.67077  0.74922  1.0000
  C   C134      1.0  0.51638  0.93025  0.78206  1.0000
  C   C135      1.0  0.98781  0.17401  0.68669  1.0000
  C   C136      1.0  0.01794  0.43287  0.73868  1.0000
  H   H57       1.0  0.52976  0.64147  0.77457  1.0000
  H   H58       1.0  0.46422  0.95616  0.80364  1.0000
  H   H59       1.0  0.03923  0.14825  0.68659  1.0000
  H   H60       1.0  0.97064  0.46037  0.70049  1.0000
  H   H61       1.0  0.46534  0.64497  0.74381  1.0000
  H   H62       1.0  0.53257  0.95587  0.79101  1.0000
  H   H63       1.0  0.97375  0.15061  0.65593  1.0000
  H   H64       1.0  0.03296  0.45929  0.74824  1.0000
  C   C137      1.0  0.06069  0.22475  0.75373  1.0000
  C   C138      1.0  0.93850  0.37626  0.74685  1.0000
  C   C139      1.0  0.56311  0.72393  0.74142  1.0000
  C   C140      1.0  0.43919  0.87965  0.74323  1.0000
  C   C141      1.0  0.93905  0.22499  0.73422  1.0000
  C   C142      1.0  0.06201  0.37708  0.75567  1.0000
  C   C143      1.0  0.43838  0.72721  0.74401  1.0000
  C   C144      1.0  0.56199  0.87516  0.75895  1.0000
  O   O9        1.0  0.23257  0.62941  0.74220  1.0000
  H   H65       1.0  0.30758  0.52744  0.81878  1.0000
  H   H66       1.0  0.20755  0.45146  0.77654  1.0000
  H   H67       1.0  0.76756  0.97392  0.74251  1.0000
  O   O10       1.0  0.68462  0.07277  0.75598  1.0000
  H   H68       1.0  0.79536  0.14159  0.74909  1.0000
  H   H69       1.0  0.20953  0.62853  0.72471  1.0000
  H   H70       1.0  0.66940  0.04579  0.76197  1.0000
  O   O11       1.0  0.73383  0.13017  0.75155  1.0000
  H   H71       1.0  0.81244  0.02775  0.74787  1.0000
  H   H72       1.0  0.70717  0.95554  0.73561  1.0000
  H   H73       1.0  0.26528  0.47174  0.80643  1.0000
  O   O12       1.0  0.18854  0.57124  0.72036  1.0000
  H   H74       1.0  0.29198  0.64276  0.76864  1.0000
  H   H75       1.0  0.70899  0.13045  0.75208  1.0000
  H   H76       1.0  0.17553  0.54384  0.71324  1.0000
  O   O13       1.0  0.76102  0.62627  0.79257  1.0000
  H   H77       1.0  0.69725  0.53365  0.65581  1.0000
  H   H78       1.0  0.79701  0.45824  0.70242  1.0000
  H   H79       1.0  0.22705  0.97367  0.82550  1.0000
  O   O14       1.0  0.31910  0.07645  0.68028  1.0000
  H   H80       1.0  0.20703  0.14515  0.72549  1.0000
  H   H81       1.0  0.78303  0.62473  0.81853  1.0000
  H   H82       1.0  0.33270  0.04924  0.69122  1.0000
  O   O15       1.0  0.27127  0.13410  0.67422  1.0000
  H   H83       1.0  0.18273  0.02835  0.82225  1.0000
  H   H84       1.0  0.28909  0.95507  0.78914  1.0000
  H   H85       1.0  0.74264  0.48014  0.65869  1.0000
  O   O16       1.0  0.81088  0.56997  0.79027  1.0000
  H   H86       1.0  0.70578  0.64091  0.73912  1.0000
  H   H87       1.0  0.29722  0.13523  0.65655  1.0000
  H   H88       1.0  0.82592  0.54409  0.78605  1.0000
  C  Sn1       1.0  0.59129  0.64910  0.19593  1.0000
  C   C145      1.0  0.58721  0.68419  0.26160  1.0000
  C  Sn2       1.0  0.61421  0.69794  0.30926  1.0000
  C  Sn3       1.0  0.64596  0.67620  0.29083  1.0000
  C   C146      1.0  0.65003  0.64114  0.22517  1.0000
  C  Sn4       1.0  0.62304  0.62736  0.17750  1.0000
  O  Te1       1.0  0.56396  0.63591  0.14909  1.0000
  O  Te2       1.0  0.60951  0.73309  0.37465  1.0000
  O  Te3       1.0  0.67330  0.68942  0.33773  1.0000
  O  Te4       1.0  0.62773  0.59224  0.11212  1.0000
  Mg  Mg1       1.0  0.65439  0.73895  0.42041  1.0000
  Mg  Mg2       1.0  0.58288  0.58636  0.06625  1.0000
  C  Sn5       1.0  0.36079  0.92570  0.17917  1.0000
  C   C147      1.0  0.35133  0.95701  0.26245  1.0000
  C  Sn6       1.0  0.37378  0.96920  0.33497  1.0000
  C  Sn7       1.0  0.40639  0.94971  0.32395  1.0000
  C   C148      1.0  0.41583  0.91842  0.24070  1.0000
  C  Sn8       1.0  0.39339  0.90621  0.16816  1.0000
  O  Te5       1.0  0.33793  0.91401  0.10759  1.0000
  O  Te6       1.0  0.36112  0.00057  0.41762  1.0000
  O  Te7       1.0  0.42925  0.96143  0.39563  1.0000
  O  Te8       1.0  0.40342  0.87486  0.08553  1.0000
  Mg  Mg3       1.0  0.40123  0.00567  0.49492  1.0000
  Mg  Mg4       1.0  0.36334  0.86976  0.00813  1.0000
  C  Sn9       1.0  0.09431  0.16806  0.37935  1.0000
  C   C149      1.0  0.09608  0.19868  0.25219  1.0000
  C  Sn10      1.0  0.11892  0.19528  0.10965  1.0000
  C  Sn11      1.0  0.14042  0.16054  0.09383  1.0000
  C   C150      1.0  0.13863  0.12993  0.22092  1.0000
  C  Sn12      1.0  0.11581  0.13331  0.36353  1.0000
  O  Te9       1.0  0.07129  0.17209  0.52075  1.0000
  O  Te10      1.0  0.03909  0.16671  0.98420  1.0000
  O  Te11      1.0  0.08230  0.09692  0.95227  1.0000
  O  Te12      1.0  0.11447  0.10231  0.48892  1.0000
  Mg  Mg5       1.0  0.07463  0.14725  0.81535  1.0000
  Mg  Mg6       1.0  0.07893  0.12172  0.65780  1.0000
  C  Sn13      1.0  0.89468  0.44127  0.37352  1.0000
  C   C151      1.0  0.90286  0.40774  0.30025  1.0000
  C  Sn14      1.0  0.89102  0.40561  0.18023  1.0000
  C  Sn15      1.0  0.87059  0.43768  0.13236  1.0000
  C   C152      1.0  0.86242  0.47118  0.20559  1.0000
  C  Sn16      1.0  0.87425  0.47334  0.32565  1.0000
  O  Te13      1.0  0.90679  0.44276  0.49324  1.0000
  O  Te14      1.0  0.89953  0.37177  0.10878  1.0000
  O  Te15      1.0  0.85848  0.43616  0.01254  1.0000
  O  Te16      1.0  0.86575  0.50715  0.39707  1.0000
  Mg  Mg7       1.0  0.79579  0.32415  0.95108  1.0000
  Mg  Mg8       1.0  0.88834  0.49522  0.55471  1.0000
  C  Sn17      1.0  0.37585  0.63695  0.40809  1.0000
  C   C153      1.0  0.35510  0.64074  0.31418  1.0000
  C  Sn18      1.0  0.36466  0.67186  0.18208  1.0000
  C  Sn19      1.0  0.39563  0.69977  0.14296  1.0000
  C   C154      1.0  0.41637  0.69597  0.23682  1.0000
  C  Sn20      1.0  0.40682  0.66486  0.36897  1.0000
  O  Te17      1.0  0.36578  0.60559  0.53960  1.0000
  O  Te18      1.0  0.34349  0.67504  0.09002  1.0000
  O  Te19      1.0  0.40568  0.73114  0.01133  1.0000
  O  Te20      1.0  0.42798  0.66167  0.46098  1.0000
  Mg  Mg9       1.0  0.28709  0.66327  0.92255  1.0000
  Mg  Mg10      1.0  0.40326  0.61384  0.62843  1.0000
  C  Sn21      1.0  0.57716  0.95126  0.36070  1.0000
  C   C155      1.0  0.58153  0.92542  0.25725  1.0000
  C  Sn22      1.0  0.61583  0.92059  0.16033  1.0000
  C  Sn23      1.0  0.64641  0.94201  0.16701  1.0000
  C   C156      1.0  0.64204  0.96783  0.27043  1.0000
  C  Sn24      1.0  0.60774  0.97268  0.36738  1.0000
  O  Te21      1.0  0.54262  0.95562  0.45651  1.0000
  O  Te22      1.0  0.61952  0.89460  0.05783  1.0000
  O  Te23      1.0  0.68098  0.93763  0.07108  1.0000
  O  Te24      1.0  0.60142  0.99864  0.46985  1.0000
  Mg  Mg11      1.0  0.59101  0.83912  0.95089  1.0000
  Mg  Mg12      1.0  0.54880  0.99453  0.57689  1.0000
  C  Sn25      1.0  0.87459  0.17543  0.12807  1.0000
  C   C157      1.0  0.86574  0.13489  0.21808  1.0000
  C  Sn26      1.0  0.87775  0.12305  0.34034  1.0000
  C  Sn27      1.0  0.89904  0.15236  0.37340  1.0000
  C   C158      1.0  0.90788  0.19287  0.28344  1.0000
  C  Sn28      1.0  0.89588  0.20474  0.16113  1.0000
  O  Te25      1.0  0.86228  0.18658  0.00642  1.0000
  O  Te26      1.0  0.86856  0.08234  0.42867  1.0000
  O  Te27      1.0  0.91134  0.14117  0.49517  1.0000
  O  Te28      1.0  0.90505  0.24542  0.07285  1.0000
  Mg  Mg13      1.0  0.89173  0.08206  0.58226  1.0000
  Mg  Mg14      1.0  0.80073  0.18614  0.91929  1.0000
  C  Sn29      1.0  0.10751  0.41434  0.38074  1.0000
  C   C159      1.0  0.08748  0.41672  0.28432  1.0000
  C  Sn30      1.0  0.09866  0.44526  0.14569  1.0000
  C  Sn31      1.0  0.13052  0.47197  0.10246  1.0000
  C   C160      1.0  0.15053  0.46958  0.19883  1.0000
  C  Sn32      1.0  0.13938  0.44105  0.33751  1.0000
  O  Te29      1.0  0.09584  0.38558  0.51880  1.0000
  O  Te30      1.0  0.07818  0.44707  0.05122  1.0000
  O  Te31      1.0  0.06103  0.44115  0.96427  1.0000
  O  Te32      1.0  0.15983  0.43923  0.43193  1.0000
  Mg  Mg15      1.0  0.02401  0.43182  0.87450  1.0000
  Mg  Mg16      1.0  0.13289  0.39488  0.60864  1.0000
  C  Sn33      1.0  0.62668  0.69371  0.78823  1.0000
  C   C161      1.0  0.59987  0.69668  0.72238  1.0000
  C  Sn34      1.0  0.59182  0.66367  0.66275  1.0000
  C  Sn35      1.0  0.61094  0.62692  0.66915  1.0000
  C   C162      1.0  0.63772  0.62395  0.73499  1.0000
  C  Sn36      1.0  0.64579  0.65695  0.79463  1.0000
  O  Te33      1.0  0.63428  0.72709  0.84713  1.0000
  O  Te34      1.0  0.56491  0.66738  0.59744  1.0000
  O  Te35      1.0  0.60331  0.59353  0.61017  1.0000
  O  Te36      1.0  0.67267  0.65325  0.85993  1.0000
  Mg  Mg17      1.0  0.56434  0.61343  0.53271  1.0000
  Mg  Mg18      1.0  0.67325  0.70717  0.92476  1.0000
  C  Sn37      1.0  0.35398  0.92496  0.86754  1.0000
  C   C163      1.0  0.35545  0.96571  0.78039  1.0000
  C  Sn38      1.0  0.38747  0.98015  0.66144  1.0000
  C  Sn39      1.0  0.41861  0.95328  0.62885  1.0000
  C   C164      1.0  0.41450  0.91255  0.71595  1.0000
  C  Sn40      1.0  0.38249  0.89809  0.83495  1.0000
  O  Te37      1.0  0.32173  0.91119  0.98591  1.0000
  O  Te38      1.0  0.39095  0.02102  0.57593  1.0000
  O  Te39      1.0  0.45088  0.96709  0.51037  1.0000
  O  Te40      1.0  0.37901  0.85724  0.92041  1.0000
  Mg  Mg19      1.0  0.44007  0.02534  0.42630  1.0000
  Mg  Mg20      1.0  0.41105  0.91248  0.07000  1.0000
  C  Sn41      1.0  0.09283  0.12379  0.84872  1.0000
  C   C165      1.0  0.12889  0.12632  0.75650  1.0000
  C  Sn42      1.0  0.14616  0.16485  0.66720  1.0000
  C  Sn43      1.0  0.12699  0.20164  0.67019  1.0000
  C   C166      1.0  0.09096  0.19910  0.76239  1.0000
  C  Sn44      1.0  0.07366  0.16057  0.85172  1.0000
  O  Te41      1.0  0.07611  0.08493  0.93707  1.0000
  O  Te42      1.0  0.18222  0.16659  0.57587  1.0000
  O  Te43      1.0  0.14375  0.24051  0.58174  1.0000
  O  Te44      1.0  0.03763  0.15882  0.94302  1.0000
  Mg  Mg21      1.0  0.19322  0.22683  0.47593  1.0000
  Mg  Mg22      1.0  0.10776  0.15821  0.04306  1.0000
  C  Sn45      1.0  0.88626  0.41638  0.63214  1.0000
  C   C167      1.0  0.91239  0.41487  0.70129  1.0000
  C  Sn46      1.0  0.90935  0.43742  0.81335  1.0000
  C  Sn47      1.0  0.87956  0.46198  0.85731  1.0000
  C   C168      1.0  0.85346  0.46348  0.78820  1.0000
  C  Sn48      1.0  0.85648  0.44094  0.67609  1.0000
  O  Te45      1.0  0.88985  0.39358  0.52037  1.0000
  O  Te46      1.0  0.93581  0.43544  0.88081  1.0000
  O  Te47      1.0  0.87600  0.48479  0.96917  1.0000
  O  Te48      1.0  0.83003  0.44291  0.60867  1.0000
  Mg  Mg23      1.0  0.00015  0.53163  0.02773  1.0000
  Mg  Mg24      1.0  0.84681  0.40632  0.46181  1.0000
  C  Sn49      1.0  0.37422  0.67285  0.63747  1.0000
  C   C169      1.0  0.36200  0.63579  0.74722  1.0000
  C  Sn50      1.0  0.37224  0.62863  0.87505  1.0000
  C  Sn51      1.0  0.39516  0.65917  0.89364  1.0000
  C   C170      1.0  0.40737  0.69620  0.78395  1.0000
  C  Sn52      1.0  0.39715  0.70339  0.65605  1.0000
  O  Te49      1.0  0.36364  0.67935  0.51057  1.0000
  O  Te50      1.0  0.35968  0.59133  0.98321  1.0000
  O  Te51      1.0  0.48690  0.71224  0.02066  1.0000
  O  Te52      1.0  0.40969  0.74066  0.54795  1.0000
  Mg  Mg25      1.0  0.46273  0.65651  0.13663  1.0000
  Mg  Mg26      1.0  0.38779  0.73512  0.39454  1.0000
  C  Sn53      1.0  0.58108  0.94739  0.84948  1.0000
  C   C171      1.0  0.58535  0.91890  0.75504  1.0000
  C  Sn54      1.0  0.61961  0.91287  0.66066  1.0000
  C  Sn55      1.0  0.65023  0.93576  0.66073  1.0000
  C   C172      1.0  0.64333  0.96422  0.75514  1.0000
  C  Sn56      1.0  0.60908  0.97028  0.84955  1.0000
  O  Te53      1.0  0.54395  0.95292  0.94291  1.0000
  O  Te54      1.0  0.62321  0.88423  0.56721  1.0000
  O  Te55      1.0  0.68475  0.93021  0.56719  1.0000
  O  Te56      1.0  0.60547  0.99890  0.94298  1.0000
  Mg  Mg27      1.0  0.67581  0.88763  0.46019  1.0000
  Mg  Mg28      1.0  0.63404  0.05510  0.05009  1.0000
  C  Sn57      1.0  0.88061  0.13094  0.88036  1.0000
  C   C173      1.0  0.85779  0.13348  0.79532  1.0000
  C  Sn58      1.0  0.86422  0.16532  0.66660  1.0000
  C  Sn59      1.0  0.89409  0.19523  0.62187  1.0000
  C   C174      1.0  0.91690  0.19268  0.70687  1.0000
  C  Sn60      1.0  0.91048  0.16086  0.83563  1.0000
  O  Te57      1.0  0.95482  0.15845  0.00864  1.0000
  O  Te58      1.0  0.84102  0.16722  0.58343  1.0000
  O  Te59      1.0  0.90102  0.22734  0.49348  1.0000
  O  Te60      1.0  0.93367  0.15894  0.91876  1.0000
  Mg  Mg29      1.0  0.86172  0.21676  0.41727  1.0000
  Mg  Mg30      1.0  0.99415  0.16901  0.08488  1.0000
  C  Sn61      1.0  0.10912  0.47874  0.67639  1.0000
  C   C175      1.0  0.13181  0.47438  0.76228  1.0000
  C  Sn62      1.0  0.13622  0.43467  0.83902  1.0000
  C  Sn63      1.0  0.11758  0.39856  0.82964  1.0000
  C   C176      1.0  0.09491  0.40293  0.74376  1.0000
  C  Sn64      1.0  0.09048  0.44263  0.66700  1.0000
  O  Te61      1.0  0.10512  0.51874  0.60060  1.0000
  O  Te62      1.0  0.15904  0.43110  0.92422  1.0000
  O  Te63      1.0  0.12160  0.35854  0.90552  1.0000
  O  Te64      1.0  0.06769  0.44621  0.58182  1.0000
  Mg  Mg31      1.0  0.23685  0.42945  0.00704  1.0000
  Mg  Mg32      1.0  0.07103  0.50744  0.49890  1.0000
