data_image0
_chemical_formula_structural       C32N12H4C16H8N4C16H8C8OH3OH3OH3OH3OH3OH3OH3OH3C32N12H4C16H8N4C16H8C8OH3OH3OH3OH3OH3OH3OH3OH3C2Sn2C2HTe2HMgC2Sn2C2HTe2HMgC2Sn2C2HTe2HMgC2Sn2C2HTe2HMgC2Sn2C2HTe2HMgC2Sn2C2HTe2HMgC2Sn2C2HTe2HMgC2Sn2C2HTe2HMgC2Sn2C2HTe2HMgC2Sn2C2HTe2HMgC2Sn2C2HTe2HMgC2Sn2C2HTe2HMgC2Sn2C2HTe2HMgC2Sn2C2HTe2HMgC2Sn2C2HTe2HMgC2Sn2C2HTe2HMg
_chemical_formula_sum              "C208 N32 H120 O16 Sn32 Te32 Mg16"
_cell_length_a       39.474
_cell_length_b       32.5461
_cell_length_c       9.63573
_cell_angle_alpha    78.4486
_cell_angle_beta     70.6211
_cell_angle_gamma    90.1824

_symmetry_space_group_name_H-M    'P1'
_space_group_IT_number       1

loop_
  _space_group_symop_operation_xyz
  'x, y, z'

loop_
  _atom_site_type_symbol
  _atom_site_label
  _atom_site_symmetry_multiplicity
  _atom_site_fract_x
  _atom_site_fract_y
  _atom_site_fract_z
  _atom_site_occupancy
  C   C1        1.0  0.24779  0.59481  0.20375  1.0000
  C   C2        1.0  0.75969  0.01061  0.21816  1.0000
  C   C3        1.0  0.74028  0.08875  0.28760  1.0000
  C   C4        1.0  0.25472  0.50993  0.31394  1.0000
  C   C5        1.0  0.75793  0.58940  0.25903  1.0000
  C   C6        1.0  0.24014  0.00968  0.21982  1.0000
  C   C7        1.0  0.25651  0.09259  0.23123  1.0000
  C   C8        1.0  0.74514  0.51198  0.18889  1.0000
  C   C9        1.0  0.27985  0.54038  0.30858  1.0000
  C   C10       1.0  0.71392  0.06046  0.28180  1.0000
  C   C11       1.0  0.78522  0.03839  0.22516  1.0000
  C   C12       1.0  0.22229  0.56373  0.20774  1.0000
  C   C13       1.0  0.72050  0.54195  0.19275  1.0000
  C   C14       1.0  0.28169  0.06234  0.23807  1.0000
  C   C15       1.0  0.21516  0.03916  0.21775  1.0000
  C   C16       1.0  0.78322  0.55886  0.25515  1.0000
  C   C17       1.0  0.19919  0.48972  0.26642  1.0000
  C   C18       1.0  0.80225  0.10804  0.27000  1.0000
  C   C19       1.0  0.69619  0.99209  0.24426  1.0000
  C   C20       1.0  0.30302  0.61614  0.24680  1.0000
  C   C21       1.0  0.80252  0.48860  0.22008  1.0000
  C   C22       1.0  0.19703  0.11306  0.21930  1.0000
  C   C23       1.0  0.30006  0.99008  0.23462  1.0000
  C   C24       1.0  0.70062  0.61298  0.23372  1.0000
  C   C25       1.0  0.27693  0.58353  0.25299  1.0000
  C   C26       1.0  0.72343  0.02096  0.24703  1.0000
  C   C27       1.0  0.77602  0.07804  0.26088  1.0000
  C   C28       1.0  0.22542  0.52097  0.26301  1.0000
  C   C29       1.0  0.72638  0.58117  0.22842  1.0000
  C   C30       1.0  0.27390  0.02055  0.23053  1.0000
  C   C31       1.0  0.22299  0.08128  0.22278  1.0000
  C   C32       1.0  0.77694  0.51977  0.22081  1.0000
  N   N1        1.0  0.33130  0.60649  0.28483  1.0000
  N   N2        1.0  0.66244  0.00087  0.27960  1.0000
  N   N3        1.0  0.83470  0.09878  0.26214  1.0000
  N   N4        1.0  0.17242  0.50026  0.21812  1.0000
  N   N5        1.0  0.67015  0.60581  0.21680  1.0000
  N   N6        1.0  0.33035  0.99964  0.25275  1.0000
  N   N7        1.0  0.16301  0.10305  0.25827  1.0000
  N   N8        1.0  0.83133  0.49555  0.25349  1.0000
  N   N9        1.0  0.05553  0.30488  0.22881  1.0000
  N   N10       1.0  0.55313  0.80220  0.26383  1.0000
  N   N11       1.0  0.94748  0.30123  0.24407  1.0000
  N   N12       1.0  0.44704  0.80523  0.25492  1.0000
  H   H1        1.0  0.02867  0.30420  0.24385  1.0000
  H   H2        1.0  0.52660  0.79906  0.27338  1.0000
  H   H3        1.0  0.97457  0.30183  0.22332  1.0000
  H   H4        1.0  0.47423  0.80783  0.23217  1.0000
  C   C33       1.0  0.07643  0.27106  0.21222  1.0000
  C   C34       1.0  0.92663  0.33494  0.26553  1.0000
  C   C35       1.0  0.57509  0.76915  0.25116  1.0000
  C   C36       1.0  0.42551  0.83847  0.27346  1.0000
  C   C37       1.0  0.92646  0.26525  0.26068  1.0000
  C   C38       1.0  0.07568  0.33960  0.22884  1.0000
  C   C39       1.0  0.42650  0.76851  0.27867  1.0000
  C   C40       1.0  0.57187  0.83813  0.26401  1.0000
  C   C41       1.0  0.11201  0.28560  0.19767  1.0000
  C   C42       1.0  0.89014  0.31877  0.30318  1.0000
  C   C43       1.0  0.60992  0.78569  0.23904  1.0000
  C   C44       1.0  0.38918  0.82149  0.31775  1.0000
  C   C45       1.0  0.89006  0.27675  0.29955  1.0000
  C   C46       1.0  0.11166  0.32732  0.20601  1.0000
  C   C47       1.0  0.38970  0.77898  0.32096  1.0000
  C   C48       1.0  0.60754  0.82674  0.25383  1.0000
  H   H5        1.0  0.13473  0.26633  0.18121  1.0000
  H   H6        1.0  0.86693  0.33699  0.33188  1.0000
  H   H7        1.0  0.63391  0.76871  0.21994  1.0000
  H   H8        1.0  0.36592  0.83954  0.34779  1.0000
  H   H9        1.0  0.86687  0.25531  0.32344  1.0000
  H   H10       1.0  0.13409  0.34818  0.19693  1.0000
  H   H11       1.0  0.36686  0.75639  0.35308  1.0000
  H   H12       1.0  0.62878  0.84764  0.25461  1.0000
  N   N13       1.0  0.50187  0.74117  0.25866  1.0000
  N   N14       1.0  0.49815  0.86693  0.25943  1.0000
  N   N15       1.0  0.00111  0.24038  0.23369  1.0000
  N   N16       1.0  0.00111  0.36529  0.24729  1.0000
  C   C49       1.0  0.52898  0.71482  0.26180  1.0000
  C   C50       1.0  0.47270  0.89388  0.23776  1.0000
  C   C51       1.0  0.03030  0.21663  0.22009  1.0000
  C   C52       1.0  0.97352  0.39064  0.24347  1.0000
  C   C53       1.0  0.47363  0.71598  0.25924  1.0000
  C   C54       1.0  0.52700  0.89227  0.24912  1.0000
  C   C55       1.0  0.97420  0.21422  0.22977  1.0000
  C   C56       1.0  0.02864  0.39130  0.24709  1.0000
  C   C57       1.0  0.51697  0.67171  0.26990  1.0000
  C   C58       1.0  0.48665  0.93751  0.20429  1.0000
  C   C59       1.0  0.02179  0.17432  0.20650  1.0000
  C   C60       1.0  0.98454  0.43422  0.23523  1.0000
  C   C61       1.0  0.48341  0.67287  0.26021  1.0000
  C   C62       1.0  0.52028  0.93663  0.21393  1.0000
  C   C63       1.0  0.98710  0.17311  0.20877  1.0000
  C   C64       1.0  0.01803  0.43413  0.24547  1.0000
  H   H13       1.0  0.53161  0.64407  0.28262  1.0000
  H   H14       1.0  0.47281  0.96469  0.17373  1.0000
  H   H15       1.0  0.04019  0.14972  0.19439  1.0000
  H   H16       1.0  0.96922  0.46126  0.22280  1.0000
  H   H17       1.0  0.46695  0.64695  0.25553  1.0000
  H   H18       1.0  0.53930  0.96304  0.19449  1.0000
  H   H19       1.0  0.97204  0.14736  0.19523  1.0000
  H   H20       1.0  0.03404  0.46038  0.25044  1.0000
  C   C65       1.0  0.06496  0.23004  0.21297  1.0000
  C   C66       1.0  0.93850  0.37711  0.25356  1.0000
  C   C67       1.0  0.56429  0.72741  0.25361  1.0000
  C   C68       1.0  0.43735  0.88087  0.25216  1.0000
  C   C69       1.0  0.93853  0.22493  0.24587  1.0000
  C   C70       1.0  0.06339  0.37974  0.24217  1.0000
  C   C71       1.0  0.43873  0.72804  0.26707  1.0000
  C   C72       1.0  0.56020  0.87901  0.26125  1.0000
  O   O1        1.0  0.24366  0.63592  0.14948  1.0000
  H   H21       1.0  0.30240  0.53246  0.34741  1.0000
  H   H22       1.0  0.20260  0.45673  0.30924  1.0000
  H   H23       1.0  0.76695  0.98027  0.19042  1.0000
  O   O2        1.0  0.68002  0.07283  0.31190  1.0000
  H   H24       1.0  0.79304  0.13902  0.28643  1.0000
  H   H25       1.0  0.22189  0.63586  0.12203  1.0000
  H   H26       1.0  0.66487  0.04721  0.30714  1.0000
  O   O3        1.0  0.73013  0.12672  0.32137  1.0000
  H   H27       1.0  0.81306  0.03086  0.20377  1.0000
  H   H28       1.0  0.70440  0.96188  0.21448  1.0000
  H   H29       1.0  0.25704  0.47699  0.35784  1.0000
  O   O4        1.0  0.19535  0.57724  0.15647  1.0000
  H   H30       1.0  0.29734  0.64869  0.21169  1.0000
  H   H31       1.0  0.70445  0.12676  0.33461  1.0000
  H   H32       1.0  0.18015  0.54987  0.16692  1.0000
  O   O5        1.0  0.76451  0.62677  0.29414  1.0000
  H   H33       1.0  0.69603  0.53680  0.16822  1.0000
  H   H34       1.0  0.79686  0.45873  0.19248  1.0000
  H   H35       1.0  0.23416  0.97751  0.21438  1.0000
  O   O6        1.0  0.31294  0.07526  0.25078  1.0000
  H   H36       1.0  0.20779  0.14605  0.18482  1.0000
  H   H37       1.0  0.78691  0.62411  0.31688  1.0000
  H   H38       1.0  0.32688  0.04842  0.25833  1.0000
  O   O7        1.0  0.26493  0.13302  0.23600  1.0000
  H   H39       1.0  0.18907  0.03118  0.21091  1.0000
  H   H40       1.0  0.29351  0.95827  0.22408  1.0000
  H   H41       1.0  0.74067  0.48194  0.16156  1.0000
  O   O8        1.0  0.81288  0.56867  0.28600  1.0000
  H   H42       1.0  0.70886  0.64336  0.25072  1.0000
  H   H43       1.0  0.28864  0.13325  0.24793  1.0000
  H   H44       1.0  0.82708  0.54163  0.28290  1.0000
  C   C73       1.0  0.24232  0.58893  0.75636  1.0000
  C   C74       1.0  0.76084  0.00620  0.74605  1.0000
  C   C75       1.0  0.74301  0.08965  0.75164  1.0000
  C   C76       1.0  0.25915  0.50454  0.79138  1.0000
  C   C77       1.0  0.75590  0.58856  0.75713  1.0000
  C   C78       1.0  0.23588  0.00698  0.79433  1.0000
  C   C79       1.0  0.25916  0.09252  0.71565  1.0000
  C   C80       1.0  0.74606  0.51049  0.68583  1.0000
  C   C81       1.0  0.28252  0.53499  0.79870  1.0000
  C   C82       1.0  0.71723  0.05945  0.75220  1.0000
  C   C83       1.0  0.78566  0.03569  0.74875  1.0000
  C   C84       1.0  0.21872  0.55801  0.74596  1.0000
  C   C85       1.0  0.72097  0.53970  0.68466  1.0000
  C   C86       1.0  0.28440  0.06218  0.71773  1.0000
  C   C87       1.0  0.21128  0.03687  0.79282  1.0000
  C   C88       1.0  0.78187  0.55894  0.75665  1.0000
  C   C89       1.0  0.20168  0.48457  0.75675  1.0000
  C   C90       1.0  0.80334  0.10926  0.75391  1.0000
  C   C91       1.0  0.69935  0.98741  0.74679  1.0000
  C   C92       1.0  0.29994  0.61032  0.78214  1.0000
  C   C93       1.0  0.80287  0.48872  0.72517  1.0000
  C   C94       1.0  0.19654  0.11214  0.75189  1.0000
  C   C95       1.0  0.29899  0.98827  0.76026  1.0000
  C   C96       1.0  0.69849  0.60983  0.72430  1.0000
  C   C97       1.0  0.27471  0.57797  0.78007  1.0000
  C   C98       1.0  0.72597  0.01749  0.74816  1.0000
  C   C99       1.0  0.77725  0.07797  0.75171  1.0000
  C   C100      1.0  0.22678  0.51542  0.76373  1.0000
  C   C101      1.0  0.72525  0.57917  0.72143  1.0000
  C   C102      1.0  0.27302  0.01887  0.75734  1.0000
  C   C103      1.0  0.22242  0.08045  0.75370  1.0000
  C   C104      1.0  0.77699  0.51941  0.72246  1.0000
  N   N17       1.0  0.33043  0.60091  0.79939  1.0000
  N   N18       1.0  0.66643  0.99739  0.76180  1.0000
  N   N19       1.0  0.83441  0.09918  0.76346  1.0000
  N   N20       1.0  0.17240  0.49588  0.72810  1.0000
  N   N21       1.0  0.66809  0.60114  0.70921  1.0000
  N   N22       1.0  0.33317  0.99969  0.72852  1.0000
  N   N23       1.0  0.16279  0.10160  0.78229  1.0000
  N   N24       1.0  0.83197  0.49634  0.75563  1.0000
  N   N25       1.0  0.05187  0.30076  0.76086  1.0000
  N   N26       1.0  0.55421  0.79953  0.74649  1.0000
  N   N27       1.0  0.94757  0.30104  0.73349  1.0000
  N   N28       1.0  0.44796  0.80377  0.73909  1.0000
  H   H45       1.0  0.02634  0.30210  0.75720  1.0000
  H   H46       1.0  0.52797  0.79808  0.75093  1.0000
  H   H47       1.0  0.97487  0.30253  0.70614  1.0000
  H   H48       1.0  0.47304  0.80395  0.74809  1.0000
  C   C105      1.0  0.07060  0.26498  0.76702  1.0000
  C   C106      1.0  0.92638  0.33395  0.76286  1.0000
  C   C107      1.0  0.57513  0.76549  0.73577  1.0000
  C   C108      1.0  0.42925  0.83940  0.72763  1.0000
  C   C109      1.0  0.92666  0.26469  0.75514  1.0000
  C   C110      1.0  0.07231  0.33518  0.76212  1.0000
  C   C111      1.0  0.42806  0.76895  0.73680  1.0000
  C   C112      1.0  0.57374  0.83454  0.74891  1.0000
  C   C113      1.0  0.10428  0.27732  0.77765  1.0000
  C   C114      1.0  0.88981  0.31691  0.81167  1.0000
  C   C115      1.0  0.61020  0.78045  0.72584  1.0000
  C   C116      1.0  0.39645  0.82654  0.70991  1.0000
  C   C117      1.0  0.89001  0.27494  0.80589  1.0000
  C   C118      1.0  0.10593  0.31982  0.76885  1.0000
  C   C119      1.0  0.39487  0.78374  0.72332  1.0000
  C   C120      1.0  0.60897  0.82159  0.73965  1.0000
  H   H49       1.0  0.12485  0.25628  0.78800  1.0000
  H   H50       1.0  0.86652  0.33443  0.84927  1.0000
  H   H51       1.0  0.63343  0.76208  0.71080  1.0000
  H   H52       1.0  0.37658  0.84728  0.68913  1.0000
  H   H53       1.0  0.86707  0.25258  0.83731  1.0000
  H   H54       1.0  0.12866  0.33870  0.76687  1.0000
  H   H55       1.0  0.37265  0.76433  0.72303  1.0000
  H   H56       1.0  0.63053  0.84132  0.74412  1.0000
  N   N29       1.0  0.50094  0.73908  0.74448  1.0000
  N   N30       1.0  0.49995  0.86427  0.75410  1.0000
  N   N31       1.0  0.00000  0.23793  0.74206  1.0000
  N   N32       1.0  0.00100  0.36389  0.74323  1.0000
  C   C121      1.0  0.52763  0.71221  0.75041  1.0000
  C   C122      1.0  0.47219  0.89016  0.76131  1.0000
  C   C123      1.0  0.02828  0.21324  0.73447  1.0000
  C   C124      1.0  0.97392  0.38958  0.73238  1.0000
  C   C125      1.0  0.47256  0.71417  0.74515  1.0000
  C   C126      1.0  0.52733  0.88814  0.76590  1.0000
  C   C127      1.0  0.97450  0.21404  0.71860  1.0000
  C   C128      1.0  0.02823  0.38967  0.74672  1.0000
  C   C129      1.0  0.51521  0.66919  0.76066  1.0000
  C   C130      1.0  0.48176  0.93082  0.78522  1.0000
  C   C131      1.0  0.02110  0.17316  0.69995  1.0000
  C   C132      1.0  0.98530  0.43318  0.71998  1.0000
  C   C133      1.0  0.48187  0.67077  0.74922  1.0000
  C   C134      1.0  0.51638  0.93025  0.78206  1.0000
  C   C135      1.0  0.98781  0.17401  0.68669  1.0000
  C   C136      1.0  0.01794  0.43287  0.73868  1.0000
  H   H57       1.0  0.52976  0.64147  0.77457  1.0000
  H   H58       1.0  0.46422  0.95616  0.80364  1.0000
  H   H59       1.0  0.03923  0.14825  0.68659  1.0000
  H   H60       1.0  0.97064  0.46037  0.70049  1.0000
  H   H61       1.0  0.46534  0.64497  0.74381  1.0000
  H   H62       1.0  0.53257  0.95587  0.79101  1.0000
  H   H63       1.0  0.97375  0.15061  0.65593  1.0000
  H   H64       1.0  0.03296  0.45929  0.74824  1.0000
  C   C137      1.0  0.06069  0.22475  0.75373  1.0000
  C   C138      1.0  0.93850  0.37626  0.74685  1.0000
  C   C139      1.0  0.56311  0.72393  0.74142  1.0000
  C   C140      1.0  0.43919  0.87965  0.74323  1.0000
  C   C141      1.0  0.93905  0.22499  0.73422  1.0000
  C   C142      1.0  0.06201  0.37708  0.75567  1.0000
  C   C143      1.0  0.43838  0.72721  0.74401  1.0000
  C   C144      1.0  0.56199  0.87516  0.75895  1.0000
  O   O9        1.0  0.23257  0.62941  0.74220  1.0000
  H   H65       1.0  0.30758  0.52744  0.81878  1.0000
  H   H66       1.0  0.20755  0.45146  0.77654  1.0000
  H   H67       1.0  0.76756  0.97392  0.74251  1.0000
  O   O10       1.0  0.68462  0.07277  0.75598  1.0000
  H   H68       1.0  0.79536  0.14159  0.74909  1.0000
  H   H69       1.0  0.20953  0.62853  0.72471  1.0000
  H   H70       1.0  0.66940  0.04579  0.76197  1.0000
  O   O11       1.0  0.73383  0.13017  0.75155  1.0000
  H   H71       1.0  0.81244  0.02775  0.74787  1.0000
  H   H72       1.0  0.70717  0.95554  0.73561  1.0000
  H   H73       1.0  0.26528  0.47174  0.80643  1.0000
  O   O12       1.0  0.18854  0.57124  0.72036  1.0000
  H   H74       1.0  0.29198  0.64276  0.76864  1.0000
  H   H75       1.0  0.70899  0.13045  0.75208  1.0000
  H   H76       1.0  0.17553  0.54384  0.71324  1.0000
  O   O13       1.0  0.76102  0.62627  0.79257  1.0000
  H   H77       1.0  0.69725  0.53365  0.65581  1.0000
  H   H78       1.0  0.79701  0.45824  0.70242  1.0000
  H   H79       1.0  0.22705  0.97367  0.82550  1.0000
  O   O14       1.0  0.31910  0.07645  0.68028  1.0000
  H   H80       1.0  0.20703  0.14515  0.72549  1.0000
  H   H81       1.0  0.78303  0.62473  0.81853  1.0000
  H   H82       1.0  0.33270  0.04924  0.69122  1.0000
  O   O15       1.0  0.27127  0.13410  0.67422  1.0000
  H   H83       1.0  0.18273  0.02835  0.82225  1.0000
  H   H84       1.0  0.28909  0.95507  0.78914  1.0000
  H   H85       1.0  0.74264  0.48014  0.65869  1.0000
  O   O16       1.0  0.81088  0.56997  0.79027  1.0000
  H   H86       1.0  0.70578  0.64091  0.73912  1.0000
  H   H87       1.0  0.29722  0.13523  0.65655  1.0000
  H   H88       1.0  0.82592  0.54409  0.78605  1.0000
  C   C145      1.0  0.59856  0.65499  0.14865  1.0000
  C   C146      1.0  0.59149  0.68775  0.22603  1.0000
  C  Sn1       1.0  0.61263  0.69558  0.31028  1.0000
  C  Sn2       1.0  0.64138  0.67010  0.31695  1.0000
  C   C147      1.0  0.64826  0.63742  0.23905  1.0000
  C   C148      1.0  0.62692  0.62985  0.15511  1.0000
  H   H89       1.0  0.58207  0.64915  0.08364  1.0000
  O  Te1       1.0  0.60519  0.72843  0.38696  1.0000
  O  Te2       1.0  0.66295  0.67724  0.40027  1.0000
  H   H90       1.0  0.63242  0.60450  0.09514  1.0000
  Mg  Mg1       1.0  0.64216  0.72576  0.48539  1.0000
  C   C149      1.0  0.36884  0.93324  0.13610  1.0000
  C   C150      1.0  0.35634  0.96182  0.22895  1.0000
  C  Sn3       1.0  0.37248  0.96686  0.33404  1.0000
  C  Sn4       1.0  0.40167  0.94279  0.34611  1.0000
  C   C151      1.0  0.41399  0.91430  0.25263  1.0000
  C   C152      1.0  0.39764  0.90950  0.14789  1.0000
  H   H91       1.0  0.35620  0.92954  0.05500  1.0000
  O  Te3       1.0  0.35702  0.99555  0.42598  1.0000
  O  Te4       1.0  0.41830  0.94721  0.45014  1.0000
  H   H92       1.0  0.40734  0.88738  0.07594  1.0000
  Mg  Mg2       1.0  0.38852  0.99036  0.55045  1.0000
  C   C153      1.0  0.08701  0.15793  0.37543  1.0000
  C   C154      1.0  0.09010  0.19146  0.25482  1.0000
  C  Sn5       1.0  0.11883  0.19539  0.11959  1.0000
  C  Sn6       1.0  0.14490  0.16515  0.10517  1.0000
  C   C155      1.0  0.14155  0.13171  0.22645  1.0000
  C   C156      1.0  0.11270  0.12808  0.36128  1.0000
  H   H93       1.0  0.06468  0.15511  0.47972  1.0000
  O  Te5       1.0  0.12153  0.22908  0.00023  1.0000
  O  Te6       1.0  0.09272  0.10872  0.97127  1.0000
  H   H94       1.0  0.11030  0.10211  0.45461  1.0000
  Mg  Mg3       1.0  0.08471  0.16024  0.84053  1.0000
  C   C157      1.0  0.88020  0.40928  0.15782  1.0000
  C   C158      1.0  0.90739  0.40957  0.22070  1.0000
  C  Sn7       1.0  0.90820  0.43840  0.30945  1.0000
  C  Sn8       1.0  0.88123  0.46744  0.33557  1.0000
  C   C159      1.0  0.85413  0.46688  0.27224  1.0000
  C   C160      1.0  0.85359  0.43790  0.18358  1.0000
  H   H95       1.0  0.87977  0.38685  0.08928  1.0000
  O  Te7       1.0  0.93556  0.43826  0.37137  1.0000
  O  Te8       1.0  0.88139  0.49658  0.42387  1.0000
  H   H96       1.0  0.83252  0.43767  0.13499  1.0000
  Mg  Mg4       1.0  0.92426  0.48407  0.48373  1.0000
  C   C161      1.0  0.39817  0.64650  0.38605  1.0000
  C   C162      1.0  0.41132  0.68552  0.28922  1.0000
  C  Sn9       1.0  0.39588  0.70199  0.18074  1.0000
  C  Sn10      1.0  0.36673  0.67890  0.16928  1.0000
  C   C163      1.0  0.35376  0.63990  0.26674  1.0000
  C   C164      1.0  0.36942  0.62370  0.37486  1.0000
  H   H97       1.0  0.41027  0.63397  0.46975  1.0000
  O  Te9       1.0  0.40936  0.74102  0.08486  1.0000
  O  Te10      1.0  0.35079  0.69463  0.06191  1.0000
  H   H98       1.0  0.35921  0.59350  0.44988  1.0000
  Mg  Mg5       1.0  0.29752  0.68962  0.95681  1.0000
  C   C165      1.0  0.59283  0.96074  0.39409  1.0000
  C   C166      1.0  0.62860  0.97104  0.30019  1.0000
  C  Sn11      1.0  0.64306  0.95249  0.17637  1.0000
  C  Sn12      1.0  0.62122  0.92312  0.14627  1.0000
  C   C167      1.0  0.58545  0.91305  0.24083  1.0000
  C   C168      1.0  0.57127  0.93178  0.36445  1.0000
  H   H99       1.0  0.57922  0.97525  0.48970  1.0000
  O  Te11      1.0  0.67886  0.96313  0.08374  1.0000
  O  Te12      1.0  0.63498  0.90413  0.02325  1.0000
  H   H100      1.0  0.54356  0.92382  0.43708  1.0000
  Mg  Mg6       1.0  0.60418  0.86922  0.92986  1.0000
  C   C169      1.0  0.90279  0.14076  0.35723  1.0000
  C   C170      1.0  0.91178  0.18167  0.27033  1.0000
  C  Sn13      1.0  0.89298  0.19803  0.17429  1.0000
  C  Sn14      1.0  0.86465  0.17291  0.16536  1.0000
  C   C171      1.0  0.85584  0.13203  0.25284  1.0000
  C   C172      1.0  0.87484  0.11596  0.34853  1.0000
  H   H101      1.0  0.91747  0.12834  0.43134  1.0000
  O  Te13      1.0  0.90233  0.23896  0.08822  1.0000
  O  Te14      1.0  0.84540  0.18848  0.07034  1.0000
  H   H102      1.0  0.86785  0.08430  0.41587  1.0000
  Mg  Mg7       1.0  0.78704  0.18652  0.97541  1.0000
  C   C173      1.0  0.10398  0.46086  0.11922  1.0000
  C   C174      1.0  0.09269  0.42088  0.21153  1.0000
  C  Sn15      1.0  0.10701  0.40609  0.32518  1.0000
  C  Sn16      1.0  0.13311  0.43188  0.34657  1.0000
  C   C175      1.0  0.14421  0.47185  0.25370  1.0000
  C   C176      1.0  0.12971  0.48633  0.14028  1.0000
  H   H103      1.0  0.09276  0.47208  0.03152  1.0000
  O  Te15      1.0  0.09544  0.36605  0.41636  1.0000
  O  Te16      1.0  0.14785  0.41789  0.45935  1.0000
  H   H104      1.0  0.13844  0.51730  0.06889  1.0000
  Mg  Mg8       1.0  0.12348  0.36099  0.55479  1.0000
  C   C177      1.0  0.63574  0.67141  0.82387  1.0000
  C   C178      1.0  0.64222  0.63823  0.74839  1.0000
  C  Sn17      1.0  0.62226  0.63202  0.65769  1.0000
  C  Sn18      1.0  0.59534  0.65960  0.64246  1.0000
  C   C179      1.0  0.58908  0.69271  0.71835  1.0000
  C   C180      1.0  0.60920  0.69863  0.80886  1.0000
  H   H105      1.0  0.65132  0.67600  0.89384  1.0000
  O  Te17      1.0  0.62908  0.59872  0.58311  1.0000
  O  Te18      1.0  0.57501  0.65412  0.55248  1.0000
  H   H106      1.0  0.60419  0.72433  0.86721  1.0000
  Mg  Mg9       1.0  0.59429  0.60417  0.47347  1.0000
  C   C181      1.0  0.41641  0.96421  0.64691  1.0000
  C   C182      1.0  0.41545  0.92246  0.72526  1.0000
  C  Sn19      1.0  0.38147  0.90323  0.81587  1.0000
  C  Sn20      1.0  0.35055  0.92630  0.82800  1.0000
  C   C183      1.0  0.35179  0.96803  0.74907  1.0000
  C   C184      1.0  0.38592  0.98697  0.65877  1.0000
  H   H107      1.0  0.44281  0.97886  0.57697  1.0000
  O  Te19      1.0  0.37837  0.86150  0.89343  1.0000
  O  Te20      1.0  0.31626  0.90784  0.91771  1.0000
  H   H108      1.0  0.38869  0.01929  0.59804  1.0000
  Mg  Mg10      1.0  0.40703  0.90977  0.00152  1.0000
  C   C185      1.0  0.13240  0.19694  0.63998  1.0000
  C   C186      1.0  0.09565  0.19378  0.72339  1.0000
  C  Sn21      1.0  0.08031  0.15883  0.83975  1.0000
  C  Sn22      1.0  0.10224  0.12650  0.87299  1.0000
  C   C187      1.0  0.13898  0.12998  0.78895  1.0000
  C   C188      1.0  0.15405  0.16508  0.67273  1.0000
  H   H109      1.0  0.14407  0.22411  0.55010  1.0000
  O  Te21      1.0  0.04355  0.15616  0.92193  1.0000
  O  Te22      1.0  0.08761  0.09124  0.98871  1.0000
  H   H110      1.0  0.18251  0.16754  0.60823  1.0000
  Mg  Mg11      1.0  0.11726  0.16153  0.06878  1.0000
  C   C189      1.0  0.87758  0.40719  0.66765  1.0000
  C   C190      1.0  0.90619  0.40757  0.72245  1.0000
  C  Sn23      1.0  0.90945  0.43767  0.80318  1.0000
  C  Sn24      1.0  0.88353  0.46790  0.82940  1.0000
  C   C191      1.0  0.85499  0.46723  0.77420  1.0000
  C   C192      1.0  0.85200  0.43698  0.69351  1.0000
  H   H111      1.0  0.87525  0.38377  0.60529  1.0000
  O  Te23      1.0  0.93821  0.43761  0.85709  1.0000
  O  Te24      1.0  0.88612  0.49832  0.90980  1.0000
  H   H112      1.0  0.82983  0.43668  0.65118  1.0000
  Mg  Mg12      1.0  0.93015  0.48538  0.96042  1.0000
  C   C193      1.0  0.38258  0.69683  0.64607  1.0000
  C   C194      1.0  0.40538  0.69679  0.73030  1.0000
  C  Sn25      1.0  0.40369  0.66243  0.84616  1.0000
  C  Sn26      1.0  0.37869  0.62748  0.87801  1.0000
  C   C195      1.0  0.35602  0.62781  0.79303  1.0000
  C   C196      1.0  0.35793  0.66237  0.67737  1.0000
  H   H113      1.0  0.38407  0.72355  0.55653  1.0000
  O  Te25      1.0  0.42666  0.66291  0.92925  1.0000
  O  Te26      1.0  0.37645  0.59272  0.99315  1.0000
  H   H114      1.0  0.34029  0.66237  0.61212  1.0000
  Mg  Mg13      1.0  0.49458  0.66776  0.07488  1.0000
  C   C197      1.0  0.58411  0.93955  0.88737  1.0000
  C   C198      1.0  0.58633  0.91365  0.78564  1.0000
  C  Sn27      1.0  0.61793  0.91493  0.66330  1.0000
  C  Sn28      1.0  0.64783  0.94266  0.64274  1.0000
  C   C199      1.0  0.64272  0.96842  0.74520  1.0000
  C   C200      1.0  0.61096  0.96690  0.86721  1.0000
  H   H115      1.0  0.55954  0.93836  0.98181  1.0000
  O  Te27      1.0  0.61969  0.88886  0.56271  1.0000
  O  Te28      1.0  0.67975  0.94456  0.52148  1.0000
  H   H116      1.0  0.60926  0.98693  0.94601  1.0000
  Mg  Mg14      1.0  0.66903  0.90286  0.41485  1.0000
  C   C201      1.0  0.86755  0.18221  0.64476  1.0000
  C   C202      1.0  0.86064  0.14046  0.72464  1.0000
  C  Sn29      1.0  0.87905  0.12497  0.82315  1.0000
  C  Sn30      1.0  0.90484  0.15186  0.84184  1.0000
  C   C203      1.0  0.91153  0.19359  0.76149  1.0000
  C   C204      1.0  0.89296  0.20876  0.66317  1.0000
  H   H117      1.0  0.85317  0.19396  0.56875  1.0000
  O  Te29      1.0  0.87183  0.08316  0.90204  1.0000
  O  Te30      1.0  0.92361  0.13719  0.93961  1.0000
  H   H118      1.0  0.89830  0.24109  0.60141  1.0000
  Mg  Mg15      1.0  0.98551  0.13740  0.02210  1.0000
  C   C205      1.0  0.13281  0.41683  0.85675  1.0000
  C   C206      1.0  0.14727  0.45443  0.75270  1.0000
  C  Sn31      1.0  0.13067  0.47158  0.64904  1.0000
  C  Sn32      1.0  0.09901  0.45064  0.64986  1.0000
  C   C207      1.0  0.08474  0.41305  0.75448  1.0000
  C   C208      1.0  0.10157  0.39616  0.85767  1.0000
  H   H119      1.0  0.14582  0.40377  0.93665  1.0000
  O  Te31      1.0  0.14549  0.50917  0.54583  1.0000
  O  Te32      1.0  0.08186  0.46710  0.54755  1.0000
  H   H120      1.0  0.09035  0.36706  0.93828  1.0000
  Mg  Mg16      1.0  0.11235  0.51911  0.42881  1.0000
