data_image0
_chemical_formula_structural       C6N12C30H6O12H6C6H6C6H6C18H6C6N12C30H6O12H6C6H6C6H6C18H6C2Sn2C2HTe2HMgC2Sn2C2HTe2HMgC2Sn2C2HTe2HMgC2Sn2C2HTe2HMgC2Sn2C2HTe2HMgC2Sn2C2HTe2HMg
_chemical_formula_sum              "C156 N24 H72 O24 Sn12 Te12 Mg6"
_cell_length_a       44.0605
_cell_length_b       43.8643
_cell_length_c       8.09898
_cell_angle_alpha    89.5806
_cell_angle_beta     118.421
_cell_angle_gamma    120.394

_symmetry_space_group_name_H-M    'P1'
_space_group_IT_number       1

loop_
  _space_group_symop_operation_xyz
  'x, y, z'

loop_
  _atom_site_type_symbol
  _atom_site_label
  _atom_site_symmetry_multiplicity
  _atom_site_fract_x
  _atom_site_fract_y
  _atom_site_fract_z
  _atom_site_occupancy
  C   C1        1.0  0.85959  0.44940  0.27272  1.0000
  C   C2        1.0  0.55589  0.40961  0.25417  1.0000
  C   C3        1.0  0.59690  0.14866  0.27615  1.0000
  C   C4        1.0  0.14756  0.55468  0.25821  1.0000
  C   C5        1.0  0.44194  0.58687  0.23638  1.0000
  C   C6        1.0  0.41191  0.85477  0.24221  1.0000
  N   N1        1.0  0.87804  0.43490  0.25821  1.0000
  N   N2        1.0  0.56859  0.44356  0.25360  1.0000
  N   N3        1.0  0.56351  0.12807  0.28109  1.0000
  N   N4        1.0  0.12451  0.56663  0.23339  1.0000
  N   N5        1.0  0.43061  0.55392  0.25361  1.0000
  N   N6        1.0  0.44405  0.87471  0.22741  1.0000
  N   N7        1.0  0.91471  0.45709  0.26650  1.0000
  N   N8        1.0  0.54769  0.45722  0.26639  1.0000
  N   N9        1.0  0.55027  0.09249  0.28367  1.0000
  N   N10       1.0  0.09077  0.54611  0.24961  1.0000
  N   N11       1.0  0.45176  0.54010  0.24550  1.0000
  N   N12       1.0  0.45796  0.91065  0.23061  1.0000
  C   C7        1.0  0.00188  0.53424  0.25112  1.0000
  C   C8        1.0  0.46781  0.46498  0.26170  1.0000
  C   C9        1.0  0.53668  0.00235  0.24912  1.0000
  C   C10       1.0  0.00378  0.46900  0.26661  1.0000
  C   C11       1.0  0.53178  0.53231  0.25398  1.0000
  C   C12       1.0  0.47145  0.00077  0.26453  1.0000
  C   C13       1.0  0.97153  0.50168  0.25555  1.0000
  C   C14       1.0  0.50150  0.46828  0.26678  1.0000
  C   C15       1.0  0.53588  0.03356  0.26401  1.0000
  C   C16       1.0  0.03402  0.50156  0.26114  1.0000
  C   C17       1.0  0.49807  0.52896  0.24859  1.0000
  C   C18       1.0  0.47225  0.96954  0.24974  1.0000
  C   C19       1.0  0.97257  0.47022  0.26407  1.0000
  C   C20       1.0  0.53241  0.50086  0.26287  1.0000
  C   C21       1.0  0.50439  0.03285  0.27168  1.0000
  C   C22       1.0  0.03319  0.53311  0.25408  1.0000
  C   C23       1.0  0.46721  0.49647  0.25316  1.0000
  C   C24       1.0  0.50371  0.97026  0.24182  1.0000
  C   C25       1.0  0.93444  0.49383  0.25519  1.0000
  C   C26       1.0  0.51105  0.44002  0.27324  1.0000
  C   C27       1.0  0.56532  0.07129  0.26832  1.0000
  C   C28       1.0  0.07066  0.50916  0.25816  1.0000
  C   C29       1.0  0.48846  0.55714  0.23964  1.0000
  C   C30       1.0  0.44299  0.93183  0.24676  1.0000
  C   C31       1.0  0.93645  0.44099  0.27153  1.0000
  C   C32       1.0  0.56234  0.49457  0.26055  1.0000
  C   C33       1.0  0.51299  0.07050  0.28723  1.0000
  C   C34       1.0  0.06913  0.56225  0.24489  1.0000
  C   C35       1.0  0.43726  0.50290  0.25447  1.0000
  C   C36       1.0  0.49521  0.93265  0.22718  1.0000
  H   H1        1.0  0.14107  0.52864  0.29023  1.0000
  H   H2        1.0  0.46726  0.60373  0.21332  1.0000
  H   H3        1.0  0.39497  0.86531  0.25299  1.0000
  H   H4        1.0  0.87257  0.47891  0.29678  1.0000
  H   H5        1.0  0.52952  0.39142  0.26843  1.0000
  H   H6        1.0  0.61567  0.13914  0.27917  1.0000
  O   O1        1.0  0.08125  0.48817  0.25896  1.0000
  O   O2        1.0  0.50793  0.58843  0.22968  1.0000
  O   O3        1.0  0.41289  0.92117  0.26056  1.0000
  O   O4        1.0  0.92286  0.51429  0.24639  1.0000
  O   O5        1.0  0.49181  0.40863  0.28237  1.0000
  O   O6        1.0  0.59560  0.08199  0.25615  1.0000
  O   O7        1.0  0.07883  0.59302  0.23192  1.0000
  O   O8        1.0  0.40734  0.48240  0.26643  1.0000
  O   O9        1.0  0.51458  0.92168  0.21417  1.0000
  O   O10       1.0  0.92685  0.41025  0.28438  1.0000
  O   O11       1.0  0.59227  0.51529  0.24893  1.0000
  O   O12       1.0  0.49388  0.08159  0.30214  1.0000
  H   H7        1.0  0.00435  0.44448  0.27165  1.0000
  H   H8        1.0  0.55573  0.55753  0.25040  1.0000
  H   H9        1.0  0.44693  0.00004  0.27043  1.0000
  H   H10       1.0  0.00121  0.55869  0.24564  1.0000
  H   H11       1.0  0.44372  0.43973  0.26425  1.0000
  H   H12       1.0  0.56117  0.00302  0.24322  1.0000
  C   C37       1.0  0.79878  0.38650  0.20793  1.0000
  C   C38       1.0  0.76048  0.36437  0.18982  1.0000
  C   C39       1.0  0.61207  0.41564  0.21701  1.0000
  C   C40       1.0  0.63217  0.40035  0.20510  1.0000
  C   C41       1.0  0.58576  0.19960  0.24117  1.0000
  C   C42       1.0  0.59930  0.23530  0.22962  1.0000
  H   H13       1.0  0.81304  0.37430  0.18321  1.0000
  H   H14       1.0  0.74471  0.33445  0.14795  1.0000
  H   H15       1.0  0.62261  0.44381  0.21107  1.0000
  H   H16       1.0  0.65827  0.41721  0.18789  1.0000
  H   H17       1.0  0.55626  0.18156  0.23127  1.0000
  H   H18       1.0  0.57943  0.24455  0.20937  1.0000
  C   C43       1.0  0.64797  0.20945  0.27748  1.0000
  C   C44       1.0  0.66151  0.24536  0.26752  1.0000
  C   C45       1.0  0.80088  0.44093  0.28475  1.0000
  C   C46       1.0  0.76263  0.41853  0.26826  1.0000
  C   C47       1.0  0.56393  0.35827  0.23950  1.0000
  C   C48       1.0  0.58434  0.34320  0.22822  1.0000
  H   H19       1.0  0.66705  0.19935  0.29516  1.0000
  H   H20       1.0  0.69109  0.26242  0.27750  1.0000
  H   H21       1.0  0.81680  0.47094  0.32313  1.0000
  H   H22       1.0  0.74975  0.43163  0.29896  1.0000
  H   H23       1.0  0.53756  0.34185  0.25584  1.0000
  H   H24       1.0  0.57314  0.31513  0.23657  1.0000
  C   C49       1.0  0.35263  0.70468  0.26969  1.0000
  C   C50       1.0  0.29826  0.64476  0.25547  1.0000
  C   C51       1.0  0.35813  0.65172  0.26695  1.0000
  C   C52       1.0  0.37456  0.68931  0.28034  1.0000
  C   C53       1.0  0.31482  0.68197  0.26023  1.0000
  C   C54       1.0  0.31984  0.62997  0.25323  1.0000
  C   C55       1.0  0.65099  0.29704  0.22342  1.0000
  C   C56       1.0  0.70150  0.35590  0.21067  1.0000
  C   C57       1.0  0.64176  0.34810  0.20565  1.0000
  C   C58       1.0  0.60990  0.18592  0.26456  1.0000
  C   C59       1.0  0.81972  0.42534  0.25566  1.0000
  C   C60       1.0  0.57752  0.39482  0.23530  1.0000
  C   C61       1.0  0.63739  0.25926  0.24132  1.0000
  C   C62       1.0  0.74135  0.37966  0.22024  1.0000
  C   C63       1.0  0.61915  0.36376  0.21124  1.0000
  C   C64       1.0  0.62868  0.31186  0.21457  1.0000
  C   C65       1.0  0.68734  0.31966  0.22121  1.0000
  C   C66       1.0  0.67803  0.36943  0.20120  1.0000
  H   H25       1.0  0.29804  0.69353  0.25885  1.0000
  H   H26       1.0  0.30590  0.60059  0.23487  1.0000
  H   H27       1.0  0.40471  0.70673  0.29630  1.0000
  H   H28       1.0  0.70553  0.30914  0.23085  1.0000
  H   H29       1.0  0.68835  0.39720  0.18999  1.0000
  H   H30       1.0  0.60126  0.29519  0.22217  1.0000
  C   C67       1.0  0.85528  0.44688  0.77234  1.0000
  C   C68       1.0  0.55333  0.41008  0.74194  1.0000
  C   C69       1.0  0.59140  0.14599  0.76723  1.0000
  C   C70       1.0  0.14290  0.55100  0.75493  1.0000
  C   C71       1.0  0.44581  0.59079  0.76711  1.0000
  C   C72       1.0  0.40618  0.85240  0.74064  1.0000
  N   N13       1.0  0.87349  0.43221  0.75700  1.0000
  N   N14       1.0  0.56873  0.44500  0.75802  1.0000
  N   N15       1.0  0.55985  0.12622  0.78629  1.0000
  N   N16       1.0  0.11995  0.56306  0.73083  1.0000
  N   N17       1.0  0.43061  0.55582  0.74731  1.0000
  N   N18       1.0  0.43913  0.87263  0.73196  1.0000
  N   N19       1.0  0.91026  0.45429  0.76602  1.0000
  N   N20       1.0  0.54743  0.45876  0.76431  1.0000
  N   N21       1.0  0.54584  0.09028  0.78288  1.0000
  N   N22       1.0  0.08612  0.54253  0.74663  1.0000
  N   N23       1.0  0.45334  0.54289  0.75209  1.0000
  N   N24       1.0  0.45304  0.90850  0.73326  1.0000
  C   C73       1.0  0.99756  0.53113  0.74967  1.0000
  C   C74       1.0  0.46840  0.46736  0.76175  1.0000
  C   C75       1.0  0.53225  0.00008  0.75228  1.0000
  C   C76       1.0  0.99966  0.46604  0.76957  1.0000
  C   C77       1.0  0.53296  0.53472  0.75736  1.0000
  C   C78       1.0  0.46689  0.99879  0.76468  1.0000
  C   C79       1.0  0.96720  0.49868  0.75520  1.0000
  C   C80       1.0  0.50197  0.47050  0.76681  1.0000
  C   C81       1.0  0.53158  0.03141  0.76607  1.0000
  C   C82       1.0  0.02987  0.49842  0.76297  1.0000
  C   C83       1.0  0.49937  0.53160  0.75250  1.0000
  C   C84       1.0  0.46760  0.96750  0.75133  1.0000
  C   C85       1.0  0.96830  0.46727  0.76562  1.0000
  C   C86       1.0  0.53315  0.50303  0.76412  1.0000
  C   C87       1.0  0.49999  0.03078  0.77218  1.0000
  C   C88       1.0  0.02889  0.52989  0.75367  1.0000
  C   C89       1.0  0.46814  0.49900  0.75453  1.0000
  C   C90       1.0  0.49916  0.96809  0.74493  1.0000
  C   C91       1.0  0.92989  0.49087  0.75241  1.0000
  C   C92       1.0  0.51090  0.44191  0.77160  1.0000
  C   C93       1.0  0.56104  0.06911  0.76963  1.0000
  C   C94       1.0  0.06643  0.50586  0.75923  1.0000
  C   C95       1.0  0.49025  0.56010  0.74743  1.0000
  C   C96       1.0  0.43805  0.92982  0.74733  1.0000
  C   C97       1.0  0.93223  0.43823  0.77425  1.0000
  C   C98       1.0  0.56273  0.49631  0.76087  1.0000
  C   C99       1.0  0.50843  0.06835  0.78509  1.0000
  C   C100      1.0  0.06464  0.55880  0.74252  1.0000
  C   C101      1.0  0.43815  0.50538  0.75537  1.0000
  C   C102      1.0  0.49046  0.93041  0.73050  1.0000
  H   H31       1.0  0.13616  0.52478  0.78507  1.0000
  H   H32       1.0  0.47621  0.61061  0.78745  1.0000
  H   H33       1.0  0.38838  0.86253  0.74447  1.0000
  H   H34       1.0  0.86852  0.47646  0.79748  1.0000
  H   H35       1.0  0.52442  0.39130  0.73647  1.0000
  H   H36       1.0  0.60800  0.13545  0.75237  1.0000
  O   O13       1.0  0.07719  0.48494  0.76226  1.0000
  O   O14       1.0  0.50976  0.59155  0.73980  1.0000
  O   O15       1.0  0.40767  0.91925  0.75849  1.0000
  O   O16       1.0  0.91796  0.51114  0.73946  1.0000
  O   O17       1.0  0.49127  0.41056  0.78025  1.0000
  O   O18       1.0  0.59148  0.07984  0.75877  1.0000
  O   O19       1.0  0.07425  0.58951  0.72864  1.0000
  O   O20       1.0  0.40791  0.48469  0.76481  1.0000
  O   O21       1.0  0.50970  0.91929  0.71744  1.0000
  O   O22       1.0  0.92282  0.40770  0.79096  1.0000
  O   O23       1.0  0.59276  0.51679  0.74959  1.0000
  O   O24       1.0  0.48885  0.07928  0.79585  1.0000
  H   H37       1.0  0.00038  0.44162  0.77638  1.0000
  H   H38       1.0  0.55718  0.55996  0.75539  1.0000
  H   H39       1.0  0.44241  0.99835  0.76948  1.0000
  H   H40       1.0  0.99686  0.55556  0.74220  1.0000
  H   H41       1.0  0.44412  0.44209  0.76311  1.0000
  H   H42       1.0  0.55675  0.00061  0.74711  1.0000
  C   C103      1.0  0.19158  0.60806  0.70967  1.0000
  C   C104      1.0  0.22851  0.62975  0.71505  1.0000
  C   C105      1.0  0.61283  0.41645  0.73701  1.0000
  C   C106      1.0  0.63283  0.40067  0.73013  1.0000
  C   C107      1.0  0.58435  0.19926  0.76698  1.0000
  C   C108      1.0  0.59825  0.23514  0.75786  1.0000
  H   H43       1.0  0.17093  0.61709  0.67474  1.0000
  H   H44       1.0  0.23578  0.65545  0.67850  1.0000
  H   H45       1.0  0.62592  0.44559  0.74728  1.0000
  H   H46       1.0  0.66184  0.41827  0.73569  1.0000
  H   H47       1.0  0.55722  0.18265  0.77748  1.0000
  H   H48       1.0  0.58152  0.24621  0.76387  1.0000
  C   C109      1.0  0.20641  0.56196  0.78699  1.0000
  C   C110      1.0  0.24373  0.58417  0.79534  1.0000
  C   C111      1.0  0.64030  0.20547  0.74967  1.0000
  C   C112      1.0  0.65386  0.24134  0.73936  1.0000
  C   C113      1.0  0.55867  0.35730  0.71686  1.0000
  C   C114      1.0  0.57883  0.34165  0.70911  1.0000
  H   H49       1.0  0.19784  0.53545  0.81593  1.0000
  H   H50       1.0  0.26390  0.57457  0.83223  1.0000
  H   H51       1.0  0.65669  0.19387  0.74456  1.0000
  H   H52       1.0  0.68047  0.25667  0.72429  1.0000
  H   H53       1.0  0.52992  0.34035  0.71477  1.0000
  H   H54       1.0  0.56489  0.31247  0.69877  1.0000
  C   C115      1.0  0.34638  0.70145  0.75653  1.0000
  C   C116      1.0  0.29549  0.64249  0.76701  1.0000
  C   C117      1.0  0.35247  0.64886  0.74937  1.0000
  C   C118      1.0  0.17997  0.57376  0.74745  1.0000
  C   C119      1.0  0.25605  0.61882  0.76126  1.0000
  C   C120      1.0  0.36576  0.68516  0.74171  1.0000
  C   C121      1.0  0.31170  0.67976  0.77266  1.0000
  C   C122      1.0  0.31709  0.62798  0.76077  1.0000
  C   C123      1.0  0.64699  0.29513  0.72642  1.0000
  C   C124      1.0  0.69724  0.35349  0.70912  1.0000
  C   C125      1.0  0.63832  0.34644  0.70869  1.0000
  C   C126      1.0  0.60520  0.18368  0.76257  1.0000
  C   C127      1.0  0.57520  0.39493  0.73062  1.0000
  C   C128      1.0  0.63316  0.25723  0.74249  1.0000
  C   C129      1.0  0.61647  0.36281  0.71523  1.0000
  C   C130      1.0  0.62516  0.31032  0.72024  1.0000
  C   C131      1.0  0.68330  0.31750  0.72346  1.0000
  C   C132      1.0  0.67374  0.36708  0.69740  1.0000
  H   H55       1.0  0.29743  0.69227  0.79349  1.0000
  H   H56       1.0  0.30570  0.59961  0.76252  1.0000
  H   H57       1.0  0.39082  0.70067  0.71649  1.0000
  H   H58       1.0  0.70177  0.30710  0.73666  1.0000
  H   H59       1.0  0.68321  0.39422  0.67761  1.0000
  H   H60       1.0  0.59820  0.29415  0.73181  1.0000
  C   C133      1.0  0.20266  0.62008  0.20241  1.0000
  C   C134      1.0  0.18541  0.58519  0.23038  1.0000
  C  Sn1       1.0  0.20685  0.56826  0.27802  1.0000
  C  Sn2       1.0  0.24630  0.58668  0.29798  1.0000
  C   C135      1.0  0.26330  0.62159  0.26984  1.0000
  C   C136      1.0  0.24157  0.63827  0.22214  1.0000
  H   H61       1.0  0.18586  0.63300  0.16562  1.0000
  O  Te1       1.0  0.18916  0.53339  0.30539  1.0000
  O  Te2       1.0  0.26841  0.57040  0.34556  1.0000
  H   H62       1.0  0.25495  0.66530  0.20062  1.0000
  Mg  Mg1       1.0  0.23132  0.52256  0.36840  1.0000
  C   C137      1.0  0.40994  0.77293  0.23633  1.0000
  C   C138      1.0  0.37820  0.74863  0.26573  1.0000
  C  Sn3       1.0  0.35401  0.75880  0.28041  1.0000
  C  Sn4       1.0  0.36180  0.79396  0.26526  1.0000
  C   C139      1.0  0.39360  0.81806  0.23570  1.0000
  C   C140      1.0  0.41763  0.80760  0.22129  1.0000
  H   H63       1.0  0.42851  0.76483  0.22506  1.0000
  O  Te3       1.0  0.32244  0.73420  0.30986  1.0000
  O  Te4       1.0  0.33808  0.80483  0.27932  1.0000
  H   H64       1.0  0.44218  0.82641  0.19839  1.0000
  Mg  Mg2       1.0  0.29856  0.76164  0.31960  1.0000
  C   C141      1.0  0.40803  0.77253  0.76352  1.0000
  C   C142      1.0  0.37304  0.74646  0.76784  1.0000
  C  Sn5       1.0  0.34473  0.75431  0.74940  1.0000
  C  Sn6       1.0  0.35167  0.78891  0.72618  1.0000
  C   C143      1.0  0.38676  0.81479  0.72191  1.0000
  C   C144      1.0  0.41489  0.80666  0.74055  1.0000
  H   H65       1.0  0.42979  0.76623  0.77784  1.0000
  O  Te5       1.0  0.30994  0.72796  0.75409  1.0000
  O  Te6       1.0  0.32387  0.79746  0.70736  1.0000
  H   H66       1.0  0.44197  0.82683  0.73708  1.0000
  Mg  Mg3       1.0  0.28102  0.75251  0.72267  1.0000
  C   C145      1.0  0.35950  0.58705  0.71974  1.0000
  C   C146      1.0  0.37099  0.62360  0.74646  1.0000
  C  Sn7       1.0  0.40898  0.65182  0.77221  1.0000
  C  Sn8       1.0  0.43589  0.64320  0.77106  1.0000
  C   C147      1.0  0.42410  0.60654  0.74408  1.0000
  C   C148      1.0  0.38602  0.57852  0.71851  1.0000
  H   H67       1.0  0.33004  0.56536  0.69984  1.0000
  O  Te7       1.0  0.41998  0.68819  0.79880  1.0000
  O  Te8       1.0  0.47403  0.67086  0.79639  1.0000
  H   H68       1.0  0.37712  0.55022  0.69769  1.0000
  Mg  Mg4       1.0  0.47519  0.71624  0.82742  1.0000
  C   C149      1.0  0.78745  0.43758  0.78162  1.0000
  C   C150      1.0  0.81200  0.42782  0.76769  1.0000
  C  Sn9       1.0  0.79746  0.39052  0.71822  1.0000
  C  Sn10      1.0  0.75758  0.36255  0.68206  1.0000
  C   C151      1.0  0.73324  0.37260  0.69624  1.0000
  C   C152      1.0  0.74810  0.41000  0.74591  1.0000
  H   H69       1.0  0.79893  0.46652  0.81994  1.0000
  O  Te9       1.0  0.82241  0.38125  0.70501  1.0000
  O  Te10      1.0  0.74228  0.32506  0.63229  1.0000
  H   H70       1.0  0.72906  0.41755  0.75656  1.0000
  Mg  Mg5       1.0  0.78787  0.32634  0.63258  1.0000
  C   C153      1.0  0.36844  0.59144  0.28643  1.0000
  C   C154      1.0  0.37785  0.62685  0.28044  1.0000
  C  Sn11      1.0  0.40866  0.65041  0.24426  1.0000
  C  Sn12      1.0  0.43041  0.63822  0.21351  1.0000
  C   C155      1.0  0.42074  0.60274  0.21965  1.0000
  C   C156      1.0  0.38986  0.57939  0.25603  1.0000
  H   H71       1.0  0.34453  0.57337  0.31446  1.0000
  O  Te11      1.0  0.41768  0.68571  0.23885  1.0000
  O  Te12      1.0  0.46134  0.66120  0.17699  1.0000
  H   H72       1.0  0.38256  0.55197  0.26053  1.0000
  Mg  Mg6       1.0  0.46242  0.70687  0.18392  1.0000
