data_image0
_chemical_formula_structural       C6N12C30H6O12H6C12H6C6N12C30H6O12H6C12H6C2Sn2C2HTe2HMgC2Sn2C2HTe2HMgC2Sn2C2HTe2HMgC2Sn2C2HTe2HMgC2Sn2C2HTe2HMgC2Sn2C2HTe2HMgC2Sn2C2HTe2HMgC2Sn2C2HTe2HMgC2Sn2C2HTe2HMgC2Sn2C2HTe2HMgC2Sn2C2HTe2HMgC2Sn2C2HTe2HMg
_chemical_formula_sum              "C144 N24 H60 O24 Sn24 Te24 Mg12"
_cell_length_a       44.0605
_cell_length_b       43.8643
_cell_length_c       8.09898
_cell_angle_alpha    89.5806
_cell_angle_beta     118.421
_cell_angle_gamma    120.394

_symmetry_space_group_name_H-M    'P1'
_space_group_IT_number       1

loop_
  _space_group_symop_operation_xyz
  'x, y, z'

loop_
  _atom_site_type_symbol
  _atom_site_label
  _atom_site_symmetry_multiplicity
  _atom_site_fract_x
  _atom_site_fract_y
  _atom_site_fract_z
  _atom_site_occupancy
  C   C1        1.0  0.85959  0.44940  0.27272  1.0000
  C   C2        1.0  0.55589  0.40961  0.25417  1.0000
  C   C3        1.0  0.59690  0.14866  0.27615  1.0000
  C   C4        1.0  0.14756  0.55468  0.25821  1.0000
  C   C5        1.0  0.44194  0.58687  0.23638  1.0000
  C   C6        1.0  0.41191  0.85477  0.24221  1.0000
  N   N1        1.0  0.87804  0.43490  0.25821  1.0000
  N   N2        1.0  0.56859  0.44356  0.25360  1.0000
  N   N3        1.0  0.56351  0.12807  0.28109  1.0000
  N   N4        1.0  0.12451  0.56663  0.23339  1.0000
  N   N5        1.0  0.43061  0.55392  0.25361  1.0000
  N   N6        1.0  0.44405  0.87471  0.22741  1.0000
  N   N7        1.0  0.91471  0.45709  0.26650  1.0000
  N   N8        1.0  0.54769  0.45722  0.26639  1.0000
  N   N9        1.0  0.55027  0.09249  0.28367  1.0000
  N   N10       1.0  0.09077  0.54611  0.24961  1.0000
  N   N11       1.0  0.45176  0.54010  0.24550  1.0000
  N   N12       1.0  0.45796  0.91065  0.23061  1.0000
  C   C7        1.0  0.00188  0.53424  0.25112  1.0000
  C   C8        1.0  0.46781  0.46498  0.26170  1.0000
  C   C9        1.0  0.53668  0.00235  0.24912  1.0000
  C   C10       1.0  0.00378  0.46900  0.26661  1.0000
  C   C11       1.0  0.53178  0.53231  0.25398  1.0000
  C   C12       1.0  0.47145  0.00077  0.26453  1.0000
  C   C13       1.0  0.97153  0.50168  0.25555  1.0000
  C   C14       1.0  0.50150  0.46828  0.26678  1.0000
  C   C15       1.0  0.53588  0.03356  0.26401  1.0000
  C   C16       1.0  0.03402  0.50156  0.26114  1.0000
  C   C17       1.0  0.49807  0.52896  0.24859  1.0000
  C   C18       1.0  0.47225  0.96954  0.24974  1.0000
  C   C19       1.0  0.97257  0.47022  0.26407  1.0000
  C   C20       1.0  0.53241  0.50086  0.26287  1.0000
  C   C21       1.0  0.50439  0.03285  0.27168  1.0000
  C   C22       1.0  0.03319  0.53311  0.25408  1.0000
  C   C23       1.0  0.46721  0.49647  0.25316  1.0000
  C   C24       1.0  0.50371  0.97026  0.24182  1.0000
  C   C25       1.0  0.93444  0.49383  0.25519  1.0000
  C   C26       1.0  0.51105  0.44002  0.27324  1.0000
  C   C27       1.0  0.56532  0.07129  0.26832  1.0000
  C   C28       1.0  0.07066  0.50916  0.25816  1.0000
  C   C29       1.0  0.48846  0.55714  0.23964  1.0000
  C   C30       1.0  0.44299  0.93183  0.24676  1.0000
  C   C31       1.0  0.93645  0.44099  0.27153  1.0000
  C   C32       1.0  0.56234  0.49457  0.26055  1.0000
  C   C33       1.0  0.51299  0.07050  0.28723  1.0000
  C   C34       1.0  0.06913  0.56225  0.24489  1.0000
  C   C35       1.0  0.43726  0.50290  0.25447  1.0000
  C   C36       1.0  0.49521  0.93265  0.22718  1.0000
  H   H1        1.0  0.14107  0.52864  0.29023  1.0000
  H   H2        1.0  0.46726  0.60373  0.21332  1.0000
  H   H3        1.0  0.39497  0.86531  0.25299  1.0000
  H   H4        1.0  0.87257  0.47891  0.29678  1.0000
  H   H5        1.0  0.52952  0.39142  0.26843  1.0000
  H   H6        1.0  0.61567  0.13914  0.27917  1.0000
  O   O1        1.0  0.08125  0.48817  0.25896  1.0000
  O   O2        1.0  0.50793  0.58843  0.22968  1.0000
  O   O3        1.0  0.41289  0.92117  0.26056  1.0000
  O   O4        1.0  0.92286  0.51429  0.24639  1.0000
  O   O5        1.0  0.49181  0.40863  0.28237  1.0000
  O   O6        1.0  0.59560  0.08199  0.25615  1.0000
  O   O7        1.0  0.07883  0.59302  0.23192  1.0000
  O   O8        1.0  0.40734  0.48240  0.26643  1.0000
  O   O9        1.0  0.51458  0.92168  0.21417  1.0000
  O   O10       1.0  0.92685  0.41025  0.28438  1.0000
  O   O11       1.0  0.59227  0.51529  0.24893  1.0000
  O   O12       1.0  0.49388  0.08159  0.30214  1.0000
  H   H7        1.0  0.00435  0.44448  0.27165  1.0000
  H   H8        1.0  0.55573  0.55753  0.25040  1.0000
  H   H9        1.0  0.44693  0.00004  0.27043  1.0000
  H   H10       1.0  0.00121  0.55869  0.24564  1.0000
  H   H11       1.0  0.44372  0.43973  0.26425  1.0000
  H   H12       1.0  0.56117  0.00302  0.24322  1.0000
  C   C37       1.0  0.35263  0.70468  0.26969  1.0000
  C   C38       1.0  0.29826  0.64476  0.25547  1.0000
  C   C39       1.0  0.35813  0.65172  0.26695  1.0000
  C   C40       1.0  0.37456  0.68931  0.28034  1.0000
  C   C41       1.0  0.31482  0.68197  0.26023  1.0000
  C   C42       1.0  0.31984  0.62997  0.25323  1.0000
  C   C43       1.0  0.65099  0.29704  0.22342  1.0000
  C   C44       1.0  0.70150  0.35590  0.21067  1.0000
  C   C45       1.0  0.64176  0.34810  0.20565  1.0000
  C   C46       1.0  0.62868  0.31186  0.21457  1.0000
  C   C47       1.0  0.68734  0.31966  0.22121  1.0000
  C   C48       1.0  0.67803  0.36943  0.20120  1.0000
  H   H13       1.0  0.29804  0.69353  0.25885  1.0000
  H   H14       1.0  0.30590  0.60059  0.23487  1.0000
  H   H15       1.0  0.40471  0.70673  0.29630  1.0000
  H   H16       1.0  0.70553  0.30914  0.23085  1.0000
  H   H17       1.0  0.68835  0.39720  0.18999  1.0000
  H   H18       1.0  0.60126  0.29519  0.22217  1.0000
  C   C49       1.0  0.85528  0.44688  0.77234  1.0000
  C   C50       1.0  0.55333  0.41008  0.74194  1.0000
  C   C51       1.0  0.59140  0.14599  0.76723  1.0000
  C   C52       1.0  0.14290  0.55100  0.75493  1.0000
  C   C53       1.0  0.44581  0.59079  0.76711  1.0000
  C   C54       1.0  0.40618  0.85240  0.74064  1.0000
  N   N13       1.0  0.87349  0.43221  0.75700  1.0000
  N   N14       1.0  0.56873  0.44500  0.75802  1.0000
  N   N15       1.0  0.55985  0.12622  0.78629  1.0000
  N   N16       1.0  0.11995  0.56306  0.73083  1.0000
  N   N17       1.0  0.43061  0.55582  0.74731  1.0000
  N   N18       1.0  0.43913  0.87263  0.73196  1.0000
  N   N19       1.0  0.91026  0.45429  0.76602  1.0000
  N   N20       1.0  0.54743  0.45876  0.76431  1.0000
  N   N21       1.0  0.54584  0.09028  0.78288  1.0000
  N   N22       1.0  0.08612  0.54253  0.74663  1.0000
  N   N23       1.0  0.45334  0.54289  0.75209  1.0000
  N   N24       1.0  0.45304  0.90850  0.73326  1.0000
  C   C55       1.0  0.99756  0.53113  0.74967  1.0000
  C   C56       1.0  0.46840  0.46736  0.76175  1.0000
  C   C57       1.0  0.53225  0.00008  0.75228  1.0000
  C   C58       1.0  0.99966  0.46604  0.76957  1.0000
  C   C59       1.0  0.53296  0.53472  0.75736  1.0000
  C   C60       1.0  0.46689  0.99879  0.76468  1.0000
  C   C61       1.0  0.96720  0.49868  0.75520  1.0000
  C   C62       1.0  0.50197  0.47050  0.76681  1.0000
  C   C63       1.0  0.53158  0.03141  0.76607  1.0000
  C   C64       1.0  0.02987  0.49842  0.76297  1.0000
  C   C65       1.0  0.49937  0.53160  0.75250  1.0000
  C   C66       1.0  0.46760  0.96750  0.75133  1.0000
  C   C67       1.0  0.96830  0.46727  0.76562  1.0000
  C   C68       1.0  0.53315  0.50303  0.76412  1.0000
  C   C69       1.0  0.49999  0.03078  0.77218  1.0000
  C   C70       1.0  0.02889  0.52989  0.75367  1.0000
  C   C71       1.0  0.46814  0.49900  0.75453  1.0000
  C   C72       1.0  0.49916  0.96809  0.74493  1.0000
  C   C73       1.0  0.92989  0.49087  0.75241  1.0000
  C   C74       1.0  0.51090  0.44191  0.77160  1.0000
  C   C75       1.0  0.56104  0.06911  0.76963  1.0000
  C   C76       1.0  0.06643  0.50586  0.75923  1.0000
  C   C77       1.0  0.49025  0.56010  0.74743  1.0000
  C   C78       1.0  0.43805  0.92982  0.74733  1.0000
  C   C79       1.0  0.93223  0.43823  0.77425  1.0000
  C   C80       1.0  0.56273  0.49631  0.76087  1.0000
  C   C81       1.0  0.50843  0.06835  0.78509  1.0000
  C   C82       1.0  0.06464  0.55880  0.74252  1.0000
  C   C83       1.0  0.43815  0.50538  0.75537  1.0000
  C   C84       1.0  0.49046  0.93041  0.73050  1.0000
  H   H19       1.0  0.13616  0.52478  0.78507  1.0000
  H   H20       1.0  0.47621  0.61061  0.78745  1.0000
  H   H21       1.0  0.38838  0.86253  0.74447  1.0000
  H   H22       1.0  0.86852  0.47646  0.79748  1.0000
  H   H23       1.0  0.52442  0.39130  0.73647  1.0000
  H   H24       1.0  0.60800  0.13545  0.75237  1.0000
  O   O13       1.0  0.07719  0.48494  0.76226  1.0000
  O   O14       1.0  0.50976  0.59155  0.73980  1.0000
  O   O15       1.0  0.40767  0.91925  0.75849  1.0000
  O   O16       1.0  0.91796  0.51114  0.73946  1.0000
  O   O17       1.0  0.49127  0.41056  0.78025  1.0000
  O   O18       1.0  0.59148  0.07984  0.75877  1.0000
  O   O19       1.0  0.07425  0.58951  0.72864  1.0000
  O   O20       1.0  0.40791  0.48469  0.76481  1.0000
  O   O21       1.0  0.50970  0.91929  0.71744  1.0000
  O   O22       1.0  0.92282  0.40770  0.79096  1.0000
  O   O23       1.0  0.59276  0.51679  0.74959  1.0000
  O   O24       1.0  0.48885  0.07928  0.79585  1.0000
  H   H25       1.0  0.00038  0.44162  0.77638  1.0000
  H   H26       1.0  0.55718  0.55996  0.75539  1.0000
  H   H27       1.0  0.44241  0.99835  0.76948  1.0000
  H   H28       1.0  0.99686  0.55556  0.74220  1.0000
  H   H29       1.0  0.44412  0.44209  0.76311  1.0000
  H   H30       1.0  0.55675  0.00061  0.74711  1.0000
  C   C85       1.0  0.34638  0.70145  0.75653  1.0000
  C   C86       1.0  0.29549  0.64249  0.76701  1.0000
  C   C87       1.0  0.35247  0.64886  0.74937  1.0000
  C   C88       1.0  0.36576  0.68516  0.74171  1.0000
  C   C89       1.0  0.31170  0.67976  0.77266  1.0000
  C   C90       1.0  0.31709  0.62798  0.76077  1.0000
  C   C91       1.0  0.64699  0.29513  0.72642  1.0000
  C   C92       1.0  0.69724  0.35349  0.70912  1.0000
  C   C93       1.0  0.63832  0.34644  0.70869  1.0000
  C   C94       1.0  0.62516  0.31032  0.72024  1.0000
  C   C95       1.0  0.68330  0.31750  0.72346  1.0000
  C   C96       1.0  0.67374  0.36708  0.69740  1.0000
  H   H31       1.0  0.29743  0.69227  0.79349  1.0000
  H   H32       1.0  0.30570  0.59961  0.76252  1.0000
  H   H33       1.0  0.39082  0.70067  0.71649  1.0000
  H   H34       1.0  0.70177  0.30710  0.73666  1.0000
  H   H35       1.0  0.68321  0.39422  0.67761  1.0000
  H   H36       1.0  0.59820  0.29415  0.73181  1.0000
  C   C97       1.0  0.22131  0.63068  0.19386  1.0000
  C   C98       1.0  0.25321  0.62563  0.24554  1.0000
  C  Sn1       1.0  0.24961  0.59390  0.29495  1.0000
  C  Sn2       1.0  0.21336  0.56676  0.29240  1.0000
  C   C99       1.0  0.18161  0.57205  0.24036  1.0000
  C   C100      1.0  0.18554  0.60392  0.19124  1.0000
  H   H37       1.0  0.22434  0.65532  0.15575  1.0000
  O  Te1       1.0  0.28177  0.58929  0.34630  1.0000
  O  Te2       1.0  0.20895  0.53477  0.34107  1.0000
  H   H38       1.0  0.16083  0.60781  0.15111  1.0000
  Mg  Mg1       1.0  0.26128  0.54106  0.40108  1.0000
  C   C101      1.0  0.38072  0.58359  0.29429  1.0000
  C   C102      1.0  0.40980  0.59538  0.24073  1.0000
  C  Sn3       1.0  0.42603  0.62951  0.20415  1.0000
  C  Sn4       1.0  0.41284  0.65219  0.22167  1.0000
  C   C103      1.0  0.38375  0.64015  0.27546  1.0000
  C   C104      1.0  0.36770  0.60595  0.31167  1.0000
  H   H39       1.0  0.36832  0.55713  0.32241  1.0000
  O  Te3       1.0  0.45505  0.64086  0.15072  1.0000
  O  Te4       1.0  0.42857  0.68643  0.18602  1.0000
  H   H40       1.0  0.34521  0.59683  0.35326  1.0000
  Mg  Mg2       1.0  0.46746  0.68979  0.11724  1.0000
  C   C105      1.0  0.34833  0.76830  0.27766  1.0000
  C   C106      1.0  0.36159  0.74635  0.25800  1.0000
  C  Sn5       1.0  0.39573  0.76107  0.23810  1.0000
  C  Sn6       1.0  0.41693  0.79846  0.23800  1.0000
  C   C107      1.0  0.40345  0.82019  0.25790  1.0000
  C   C108      1.0  0.36924  0.80519  0.27765  1.0000
  H   H41       1.0  0.32188  0.75670  0.29306  1.0000
  O  Te5       1.0  0.40855  0.73875  0.21853  1.0000
  O  Te6       1.0  0.45116  0.81387  0.21842  1.0000
  H   H42       1.0  0.35900  0.82219  0.29300  1.0000
  Mg  Mg3       1.0  0.45682  0.77235  0.19597  1.0000
  C   C109      1.0  0.79187  0.44011  0.28328  1.0000
  C   C110      1.0  0.81640  0.43033  0.26917  1.0000
  C  Sn7       1.0  0.80189  0.39304  0.22013  1.0000
  C  Sn8       1.0  0.76206  0.36507  0.18460  1.0000
  C   C111      1.0  0.73774  0.37514  0.19895  1.0000
  C   C112      1.0  0.75257  0.41254  0.24818  1.0000
  H   H43       1.0  0.80333  0.46904  0.32127  1.0000
  O  Te7       1.0  0.82681  0.38375  0.20673  1.0000
  O  Te8       1.0  0.74679  0.32759  0.13527  1.0000
  H   H44       1.0  0.73356  0.42010  0.25898  1.0000
  Mg  Mg4       1.0  0.79234  0.32885  0.13507  1.0000
  C   C113      1.0  0.57652  0.34242  0.23800  1.0000
  C   C114      1.0  0.60885  0.35723  0.20458  1.0000
  C  Sn9       1.0  0.62759  0.39338  0.19294  1.0000
  C  Sn10      1.0  0.61363  0.41504  0.21530  1.0000
  C   C115      1.0  0.58128  0.39998  0.24883  1.0000
  C   C116      1.0  0.56275  0.36377  0.26015  1.0000
  H   H45       1.0  0.56219  0.31441  0.24687  1.0000
  O  Te9       1.0  0.65984  0.40774  0.15940  1.0000
  O  Te10      1.0  0.63181  0.45125  0.20441  1.0000
  H   H46       1.0  0.53773  0.35232  0.28616  1.0000
  Mg  Mg5       1.0  0.67474  0.45849  0.15637  1.0000
  C   C117      1.0  0.58433  0.20733  0.24050  1.0000
  C   C118      1.0  0.60209  0.18796  0.25024  1.0000
  C  Sn11      1.0  0.64041  0.20561  0.26493  1.0000
  C  Sn12      1.0  0.66128  0.24336  0.26998  1.0000
  C   C119      1.0  0.64327  0.26250  0.26030  1.0000
  C   C120      1.0  0.60490  0.24457  0.24556  1.0000
  H   H47       1.0  0.55466  0.19346  0.22921  1.0000
  O  Te11      1.0  0.65770  0.18585  0.27443  1.0000
  O  Te12      1.0  0.69962  0.26168  0.28468  1.0000
  H   H48       1.0  0.59117  0.25958  0.23816  1.0000
  Mg  Mg6       1.0  0.71056  0.22294  0.29338  1.0000
  C   C121      1.0  0.19928  0.61713  0.70836  1.0000
  C   C122      1.0  0.18127  0.58178  0.73054  1.0000
  C  Sn13      1.0  0.20235  0.56452  0.77635  1.0000
  C  Sn14      1.0  0.24219  0.58307  0.80036  1.0000
  C   C123      1.0  0.25994  0.61845  0.77799  1.0000
  C   C124      1.0  0.23858  0.63545  0.73208  1.0000
  H   H49       1.0  0.18276  0.63030  0.67295  1.0000
  O  Te13      1.0  0.18391  0.52919  0.79793  1.0000
  O  Te14      1.0  0.26394  0.56647  0.84623  1.0000
  H   H50       1.0  0.25254  0.66283  0.71504  1.0000
  Mg  Mg7       1.0  0.22582  0.51805  0.86070  1.0000
  C   C125      1.0  0.43581  0.64976  0.77148  1.0000
  C   C126      1.0  0.42689  0.61432  0.77133  1.0000
  C  Sn15      1.0  0.38918  0.58622  0.74844  1.0000
  C  Sn16      1.0  0.35991  0.59382  0.72524  1.0000
  C   C127      1.0  0.36912  0.62936  0.72545  1.0000
  C   C128      1.0  0.40695  0.65728  0.74853  1.0000
  H   H51       1.0  0.46507  0.67136  0.78923  1.0000
  O  Te15      1.0  0.38077  0.55096  0.74871  1.0000
  O  Te16      1.0  0.32198  0.56625  0.70201  1.0000
  H   H52       1.0  0.41384  0.68471  0.74851  1.0000
  Mg  Mg8       1.0  0.32481  0.52258  0.71225  1.0000
  C   C129      1.0  0.41738  0.79285  0.77303  1.0000
  C   C130      1.0  0.39730  0.81091  0.73594  1.0000
  C  Sn17      1.0  0.35830  0.79329  0.71431  1.0000
  C  Sn18      1.0  0.33913  0.75691  0.73025  1.0000
  C   C131      1.0  0.35949  0.73909  0.76752  1.0000
  C   C132      1.0  0.39850  0.75698  0.78885  1.0000
  H   H53       1.0  0.44757  0.80670  0.78964  1.0000
  O  Te17      1.0  0.33867  0.81172  0.67723  1.0000
  O  Te18      1.0  0.30018  0.73865  0.70933  1.0000
  H   H54       1.0  0.41405  0.74300  0.81769  1.0000
  Mg  Mg9       1.0  0.28583  0.77529  0.65997  1.0000
  C   C133      1.0  0.76416  0.36248  0.68033  1.0000
  C   C134      1.0  0.74204  0.37257  0.71733  1.0000
  C  Sn19      1.0  0.75682  0.40990  0.76908  1.0000
  C  Sn20      1.0  0.79445  0.43757  0.78389  1.0000
  C   C135      1.0  0.81634  0.42718  0.74644  1.0000
  C   C136      1.0  0.80127  0.38975  0.69482  1.0000
  H   H55       1.0  0.75250  0.33351  0.64029  1.0000
  O  Te19      1.0  0.73434  0.41951  0.80563  1.0000
  O  Te20      1.0  0.80992  0.47508  0.83527  1.0000
  H   H56       1.0  0.81839  0.38194  0.66606  1.0000
  Mg  Mg10      1.0  0.76812  0.47431  0.87092  1.0000
  C   C137      1.0  0.63190  0.40871  0.72786  1.0000
  C   C138      1.0  0.62260  0.37323  0.73072  1.0000
  C  Sn21      1.0  0.58643  0.34656  0.72483  1.0000
  C  Sn22      1.0  0.55913  0.35565  0.71587  1.0000
  C   C139      1.0  0.56870  0.39121  0.71292  1.0000
  C   C140      1.0  0.60498  0.41769  0.71893  1.0000
  H   H57       1.0  0.65995  0.42919  0.73240  1.0000
  O  Te21      1.0  0.57762  0.31126  0.72788  1.0000
  O  Te22      1.0  0.52277  0.32952  0.70977  1.0000
  H   H58       1.0  0.61216  0.44515  0.71658  1.0000
  Mg  Mg11      1.0  0.52430  0.28517  0.71713  1.0000
  C   C141      1.0  0.58377  0.20739  0.77222  1.0000
  C   C142      1.0  0.59758  0.18599  0.75214  1.0000
  C  Sn23      1.0  0.63222  0.20150  0.73567  1.0000
  C  Sn24      1.0  0.65337  0.23915  0.73947  1.0000
  C   C143      1.0  0.63933  0.26034  0.75975  1.0000
  C   C144      1.0  0.60462  0.24454  0.77606  1.0000
  H   H59       1.0  0.55693  0.19517  0.78494  1.0000
  O  Te23      1.0  0.64560  0.17972  0.71564  1.0000
  O  Te24      1.0  0.68809  0.25536  0.72337  1.0000
  H   H60       1.0  0.59395  0.26112  0.79172  1.0000
  Mg  Mg12      1.0  0.69441  0.21434  0.69874  1.0000
