data_image0
_chemical_formula_structural       C6N12C30H6O12H6C12H6C6N12C30H6O12H6C12H6SnCSn2CSnTe4Mg2SnCSn2CSnTe4Mg2SnCSn2CSnTe4Mg2SnCSn2CSnTe4Mg2SnCSn2CSnTe4Mg2SnCSn2CSnTe4Mg2SnCSn2CSnTe4Mg2SnCSn2CSnTe4Mg2SnCSn2CSnTe4Mg2SnCSn2CSnTe4Mg2SnCSn2CSnTe4Mg2SnCSn2CSnTe4Mg2
_chemical_formula_sum              "C120 N24 H36 O24 Sn48 Te48 Mg24"
_cell_length_a       44.0605
_cell_length_b       43.8643
_cell_length_c       8.09898
_cell_angle_alpha    89.5806
_cell_angle_beta     118.421
_cell_angle_gamma    120.394

_symmetry_space_group_name_H-M    'P1'
_space_group_IT_number       1

loop_
  _space_group_symop_operation_xyz
  'x, y, z'

loop_
  _atom_site_type_symbol
  _atom_site_label
  _atom_site_symmetry_multiplicity
  _atom_site_fract_x
  _atom_site_fract_y
  _atom_site_fract_z
  _atom_site_occupancy
  C   C1        1.0  0.85959  0.44940  0.27272  1.0000
  C   C2        1.0  0.55589  0.40961  0.25417  1.0000
  C   C3        1.0  0.59690  0.14866  0.27615  1.0000
  C   C4        1.0  0.14756  0.55468  0.25821  1.0000
  C   C5        1.0  0.44194  0.58687  0.23638  1.0000
  C   C6        1.0  0.41191  0.85477  0.24221  1.0000
  N   N1        1.0  0.87804  0.43490  0.25821  1.0000
  N   N2        1.0  0.56859  0.44356  0.25360  1.0000
  N   N3        1.0  0.56351  0.12807  0.28109  1.0000
  N   N4        1.0  0.12451  0.56663  0.23339  1.0000
  N   N5        1.0  0.43061  0.55392  0.25361  1.0000
  N   N6        1.0  0.44405  0.87471  0.22741  1.0000
  N   N7        1.0  0.91471  0.45709  0.26650  1.0000
  N   N8        1.0  0.54769  0.45722  0.26639  1.0000
  N   N9        1.0  0.55027  0.09249  0.28367  1.0000
  N   N10       1.0  0.09077  0.54611  0.24961  1.0000
  N   N11       1.0  0.45176  0.54010  0.24550  1.0000
  N   N12       1.0  0.45796  0.91065  0.23061  1.0000
  C   C7        1.0  0.00188  0.53424  0.25112  1.0000
  C   C8        1.0  0.46781  0.46498  0.26170  1.0000
  C   C9        1.0  0.53668  0.00235  0.24912  1.0000
  C   C10       1.0  0.00378  0.46900  0.26661  1.0000
  C   C11       1.0  0.53178  0.53231  0.25398  1.0000
  C   C12       1.0  0.47145  0.00077  0.26453  1.0000
  C   C13       1.0  0.97153  0.50168  0.25555  1.0000
  C   C14       1.0  0.50150  0.46828  0.26678  1.0000
  C   C15       1.0  0.53588  0.03356  0.26401  1.0000
  C   C16       1.0  0.03402  0.50156  0.26114  1.0000
  C   C17       1.0  0.49807  0.52896  0.24859  1.0000
  C   C18       1.0  0.47225  0.96954  0.24974  1.0000
  C   C19       1.0  0.97257  0.47022  0.26407  1.0000
  C   C20       1.0  0.53241  0.50086  0.26287  1.0000
  C   C21       1.0  0.50439  0.03285  0.27168  1.0000
  C   C22       1.0  0.03319  0.53311  0.25408  1.0000
  C   C23       1.0  0.46721  0.49647  0.25316  1.0000
  C   C24       1.0  0.50371  0.97026  0.24182  1.0000
  C   C25       1.0  0.93444  0.49383  0.25519  1.0000
  C   C26       1.0  0.51105  0.44002  0.27324  1.0000
  C   C27       1.0  0.56532  0.07129  0.26832  1.0000
  C   C28       1.0  0.07066  0.50916  0.25816  1.0000
  C   C29       1.0  0.48846  0.55714  0.23964  1.0000
  C   C30       1.0  0.44299  0.93183  0.24676  1.0000
  C   C31       1.0  0.93645  0.44099  0.27153  1.0000
  C   C32       1.0  0.56234  0.49457  0.26055  1.0000
  C   C33       1.0  0.51299  0.07050  0.28723  1.0000
  C   C34       1.0  0.06913  0.56225  0.24489  1.0000
  C   C35       1.0  0.43726  0.50290  0.25447  1.0000
  C   C36       1.0  0.49521  0.93265  0.22718  1.0000
  H   H1        1.0  0.14107  0.52864  0.29023  1.0000
  H   H2        1.0  0.46726  0.60373  0.21332  1.0000
  H   H3        1.0  0.39497  0.86531  0.25299  1.0000
  H   H4        1.0  0.87257  0.47891  0.29678  1.0000
  H   H5        1.0  0.52952  0.39142  0.26843  1.0000
  H   H6        1.0  0.61567  0.13914  0.27917  1.0000
  O   O1        1.0  0.08125  0.48817  0.25896  1.0000
  O   O2        1.0  0.50793  0.58843  0.22968  1.0000
  O   O3        1.0  0.41289  0.92117  0.26056  1.0000
  O   O4        1.0  0.92286  0.51429  0.24639  1.0000
  O   O5        1.0  0.49181  0.40863  0.28237  1.0000
  O   O6        1.0  0.59560  0.08199  0.25615  1.0000
  O   O7        1.0  0.07883  0.59302  0.23192  1.0000
  O   O8        1.0  0.40734  0.48240  0.26643  1.0000
  O   O9        1.0  0.51458  0.92168  0.21417  1.0000
  O   O10       1.0  0.92685  0.41025  0.28438  1.0000
  O   O11       1.0  0.59227  0.51529  0.24893  1.0000
  O   O12       1.0  0.49388  0.08159  0.30214  1.0000
  H   H7        1.0  0.00435  0.44448  0.27165  1.0000
  H   H8        1.0  0.55573  0.55753  0.25040  1.0000
  H   H9        1.0  0.44693  0.00004  0.27043  1.0000
  H   H10       1.0  0.00121  0.55869  0.24564  1.0000
  H   H11       1.0  0.44372  0.43973  0.26425  1.0000
  H   H12       1.0  0.56117  0.00302  0.24322  1.0000
  C   C37       1.0  0.35263  0.70468  0.26969  1.0000
  C   C38       1.0  0.29826  0.64476  0.25547  1.0000
  C   C39       1.0  0.35813  0.65172  0.26695  1.0000
  C   C40       1.0  0.37456  0.68931  0.28034  1.0000
  C   C41       1.0  0.31482  0.68197  0.26023  1.0000
  C   C42       1.0  0.31984  0.62997  0.25323  1.0000
  C   C43       1.0  0.65099  0.29704  0.22342  1.0000
  C   C44       1.0  0.70150  0.35590  0.21067  1.0000
  C   C45       1.0  0.64176  0.34810  0.20565  1.0000
  C   C46       1.0  0.62868  0.31186  0.21457  1.0000
  C   C47       1.0  0.68734  0.31966  0.22121  1.0000
  C   C48       1.0  0.67803  0.36943  0.20120  1.0000
  H   H13       1.0  0.29804  0.69353  0.25885  1.0000
  H   H14       1.0  0.30590  0.60059  0.23487  1.0000
  H   H15       1.0  0.40471  0.70673  0.29630  1.0000
  H   H16       1.0  0.70553  0.30914  0.23085  1.0000
  H   H17       1.0  0.68835  0.39720  0.18999  1.0000
  H   H18       1.0  0.60126  0.29519  0.22217  1.0000
  C   C49       1.0  0.85528  0.44688  0.77234  1.0000
  C   C50       1.0  0.55333  0.41008  0.74194  1.0000
  C   C51       1.0  0.59140  0.14599  0.76723  1.0000
  C   C52       1.0  0.14290  0.55100  0.75493  1.0000
  C   C53       1.0  0.44581  0.59079  0.76711  1.0000
  C   C54       1.0  0.40618  0.85240  0.74064  1.0000
  N   N13       1.0  0.87349  0.43221  0.75700  1.0000
  N   N14       1.0  0.56873  0.44500  0.75802  1.0000
  N   N15       1.0  0.55985  0.12622  0.78629  1.0000
  N   N16       1.0  0.11995  0.56306  0.73083  1.0000
  N   N17       1.0  0.43061  0.55582  0.74731  1.0000
  N   N18       1.0  0.43913  0.87263  0.73196  1.0000
  N   N19       1.0  0.91026  0.45429  0.76602  1.0000
  N   N20       1.0  0.54743  0.45876  0.76431  1.0000
  N   N21       1.0  0.54584  0.09028  0.78288  1.0000
  N   N22       1.0  0.08612  0.54253  0.74663  1.0000
  N   N23       1.0  0.45334  0.54289  0.75209  1.0000
  N   N24       1.0  0.45304  0.90850  0.73326  1.0000
  C   C55       1.0  0.99756  0.53113  0.74967  1.0000
  C   C56       1.0  0.46840  0.46736  0.76175  1.0000
  C   C57       1.0  0.53225  0.00008  0.75228  1.0000
  C   C58       1.0  0.99966  0.46604  0.76957  1.0000
  C   C59       1.0  0.53296  0.53472  0.75736  1.0000
  C   C60       1.0  0.46689  0.99879  0.76468  1.0000
  C   C61       1.0  0.96720  0.49868  0.75520  1.0000
  C   C62       1.0  0.50197  0.47050  0.76681  1.0000
  C   C63       1.0  0.53158  0.03141  0.76607  1.0000
  C   C64       1.0  0.02987  0.49842  0.76297  1.0000
  C   C65       1.0  0.49937  0.53160  0.75250  1.0000
  C   C66       1.0  0.46760  0.96750  0.75133  1.0000
  C   C67       1.0  0.96830  0.46727  0.76562  1.0000
  C   C68       1.0  0.53315  0.50303  0.76412  1.0000
  C   C69       1.0  0.49999  0.03078  0.77218  1.0000
  C   C70       1.0  0.02889  0.52989  0.75367  1.0000
  C   C71       1.0  0.46814  0.49900  0.75453  1.0000
  C   C72       1.0  0.49916  0.96809  0.74493  1.0000
  C   C73       1.0  0.92989  0.49087  0.75241  1.0000
  C   C74       1.0  0.51090  0.44191  0.77160  1.0000
  C   C75       1.0  0.56104  0.06911  0.76963  1.0000
  C   C76       1.0  0.06643  0.50586  0.75923  1.0000
  C   C77       1.0  0.49025  0.56010  0.74743  1.0000
  C   C78       1.0  0.43805  0.92982  0.74733  1.0000
  C   C79       1.0  0.93223  0.43823  0.77425  1.0000
  C   C80       1.0  0.56273  0.49631  0.76087  1.0000
  C   C81       1.0  0.50843  0.06835  0.78509  1.0000
  C   C82       1.0  0.06464  0.55880  0.74252  1.0000
  C   C83       1.0  0.43815  0.50538  0.75537  1.0000
  C   C84       1.0  0.49046  0.93041  0.73050  1.0000
  H   H19       1.0  0.13616  0.52478  0.78507  1.0000
  H   H20       1.0  0.47621  0.61061  0.78745  1.0000
  H   H21       1.0  0.38838  0.86253  0.74447  1.0000
  H   H22       1.0  0.86852  0.47646  0.79748  1.0000
  H   H23       1.0  0.52442  0.39130  0.73647  1.0000
  H   H24       1.0  0.60800  0.13545  0.75237  1.0000
  O   O13       1.0  0.07719  0.48494  0.76226  1.0000
  O   O14       1.0  0.50976  0.59155  0.73980  1.0000
  O   O15       1.0  0.40767  0.91925  0.75849  1.0000
  O   O16       1.0  0.91796  0.51114  0.73946  1.0000
  O   O17       1.0  0.49127  0.41056  0.78025  1.0000
  O   O18       1.0  0.59148  0.07984  0.75877  1.0000
  O   O19       1.0  0.07425  0.58951  0.72864  1.0000
  O   O20       1.0  0.40791  0.48469  0.76481  1.0000
  O   O21       1.0  0.50970  0.91929  0.71744  1.0000
  O   O22       1.0  0.92282  0.40770  0.79096  1.0000
  O   O23       1.0  0.59276  0.51679  0.74959  1.0000
  O   O24       1.0  0.48885  0.07928  0.79585  1.0000
  H   H25       1.0  0.00038  0.44162  0.77638  1.0000
  H   H26       1.0  0.55718  0.55996  0.75539  1.0000
  H   H27       1.0  0.44241  0.99835  0.76948  1.0000
  H   H28       1.0  0.99686  0.55556  0.74220  1.0000
  H   H29       1.0  0.44412  0.44209  0.76311  1.0000
  H   H30       1.0  0.55675  0.00061  0.74711  1.0000
  C   C85       1.0  0.34638  0.70145  0.75653  1.0000
  C   C86       1.0  0.29549  0.64249  0.76701  1.0000
  C   C87       1.0  0.35247  0.64886  0.74937  1.0000
  C   C88       1.0  0.36576  0.68516  0.74171  1.0000
  C   C89       1.0  0.31170  0.67976  0.77266  1.0000
  C   C90       1.0  0.31709  0.62798  0.76077  1.0000
  C   C91       1.0  0.64699  0.29513  0.72642  1.0000
  C   C92       1.0  0.69724  0.35349  0.70912  1.0000
  C   C93       1.0  0.63832  0.34644  0.70869  1.0000
  C   C94       1.0  0.62516  0.31032  0.72024  1.0000
  C   C95       1.0  0.68330  0.31750  0.72346  1.0000
  C   C96       1.0  0.67374  0.36708  0.69740  1.0000
  H   H31       1.0  0.29743  0.69227  0.79349  1.0000
  H   H32       1.0  0.30570  0.59961  0.76252  1.0000
  H   H33       1.0  0.39082  0.70067  0.71649  1.0000
  H   H34       1.0  0.70177  0.30710  0.73666  1.0000
  H   H35       1.0  0.68321  0.39422  0.67761  1.0000
  H   H36       1.0  0.59820  0.29415  0.73181  1.0000
  C  Sn1       1.0  0.19557  0.61175  0.14339  1.0000
  C   C97       1.0  0.18121  0.57874  0.19190  1.0000
  C  Sn2       1.0  0.20804  0.56758  0.28945  1.0000
  C  Sn3       1.0  0.25011  0.58991  0.33968  1.0000
  C   C98       1.0  0.26445  0.62290  0.29121  1.0000
  C  Sn4       1.0  0.23764  0.63407  0.19362  1.0000
  O  Te1       1.0  0.16820  0.62236  0.04586  1.0000
  O  Te2       1.0  0.19296  0.53446  0.33634  1.0000
  O  Te3       1.0  0.27748  0.57927  0.43727  1.0000
  O  Te4       1.0  0.25270  0.66718  0.14677  1.0000
  Mg  Mg1       1.0  0.24228  0.53183  0.46963  1.0000
  Mg  Mg2       1.0  0.20342  0.66985  0.01358  1.0000
  C  Sn5       1.0  0.40960  0.64699  0.16396  1.0000
  C   C99       1.0  0.37757  0.63291  0.19920  1.0000
  C  Sn6       1.0  0.36888  0.60396  0.28216  1.0000
  C  Sn7       1.0  0.39271  0.58877  0.33104  1.0000
  C   C100      1.0  0.42472  0.60285  0.29583  1.0000
  C  Sn8       1.0  0.43343  0.63180  0.21284  1.0000
  O  Te5       1.0  0.41774  0.67594  0.08091  1.0000
  O  Te6       1.0  0.33670  0.59034  0.31595  1.0000
  O  Te7       1.0  0.38454  0.55979  0.41415  1.0000
  O  Te8       1.0  0.46559  0.64542  0.17908  1.0000
  Mg  Mg3       1.0  0.33754  0.55069  0.43208  1.0000
  Mg  Mg4       1.0  0.46480  0.68508  0.06306  1.0000
  C  Sn9       1.0  0.34171  0.76342  0.21200  1.0000
  C   C101      1.0  0.35831  0.74340  0.21241  1.0000
  C  Sn10      1.0  0.39843  0.76151  0.24629  1.0000
  C  Sn11      1.0  0.42247  0.80044  0.28061  1.0000
  C   C102      1.0  0.40587  0.82043  0.28022  1.0000
  C  Sn12      1.0  0.36575  0.80234  0.24631  1.0000
  O  Te9       1.0  0.30154  0.74474  0.17781  1.0000
  O  Te10      1.0  0.41435  0.74090  0.24592  1.0000
  O  Te11      1.0  0.46267  0.81910  0.31480  1.0000
  O  Te12      1.0  0.34984  0.82293  0.24670  1.0000
  Mg  Mg5       1.0  0.47066  0.77891  0.29984  1.0000
  Mg  Mg6       1.0  0.29354  0.78495  0.19291  1.0000
  C  Sn13      1.0  0.79925  0.43922  0.34311  1.0000
  C   C103      1.0  0.82108  0.42839  0.30823  1.0000
  C  Sn14      1.0  0.80118  0.39145  0.20905  1.0000
  C  Sn15      1.0  0.75858  0.36477  0.14323  1.0000
  C   C104      1.0  0.73677  0.37560  0.17809  1.0000
  C  Sn16      1.0  0.75664  0.41254  0.27730  1.0000
  O  Te13      1.0  0.81976  0.47630  0.44255  1.0000
  O  Te14      1.0  0.82366  0.38129  0.17596  1.0000
  O  Te15      1.0  0.73807  0.32766  0.04373  1.0000
  O  Te16      1.0  0.73418  0.42270  0.31036  1.0000
  Mg  Mg7       1.0  0.78197  0.32740  0.03383  1.0000
  Mg  Mg8       1.0  0.77583  0.47658  0.45237  1.0000
  C  Sn17      1.0  0.61022  0.41072  0.15365  1.0000
  C   C105      1.0  0.57677  0.39474  0.17946  1.0000
  C  Sn18      1.0  0.56555  0.36305  0.24073  1.0000
  C  Sn19      1.0  0.58826  0.34700  0.27708  1.0000
  C   C106      1.0  0.62169  0.36298  0.25130  1.0000
  C  Sn20      1.0  0.63293  0.39468  0.19000  1.0000
  O  Te17      1.0  0.62089  0.44241  0.09231  1.0000
  O  Te18      1.0  0.53199  0.34756  0.26545  1.0000
  O  Te19      1.0  0.57756  0.31529  0.33846  1.0000
  O  Te20      1.0  0.66648  0.41016  0.16531  1.0000
  Mg  Mg9       1.0  0.52945  0.30441  0.35135  1.0000
  Mg  Mg10      1.0  0.66905  0.45332  0.07952  1.0000
  C  Sn21      1.0  0.60024  0.23127  0.29022  1.0000
  C   C107      1.0  0.63614  0.25774  0.29349  1.0000
  C  Sn22      1.0  0.65896  0.24739  0.26522  1.0000
  C  Sn23      1.0  0.64560  0.20980  0.23288  1.0000
  C   C108      1.0  0.60971  0.18335  0.22959  1.0000
  C  Sn24      1.0  0.58688  0.19368  0.25789  1.0000
  O  Te21      1.0  0.57791  0.24224  0.31882  1.0000
  O  Te22      1.0  0.69475  0.27435  0.26919  1.0000
  O  Te23      1.0  0.66796  0.19885  0.20428  1.0000
  O  Te24      1.0  0.55110  0.16674  0.25390  1.0000
  Mg  Mg11      1.0  0.71464  0.24575  0.22253  1.0000
  Mg  Mg12      1.0  0.53118  0.19531  0.30044  1.0000
  C  Sn25      1.0  0.22102  0.57008  0.85028  1.0000
  C   C109      1.0  0.18998  0.57624  0.80045  1.0000
  C  Sn26      1.0  0.18924  0.60312  0.70827  1.0000
  C  Sn27      1.0  0.22015  0.62426  0.66485  1.0000
  C   C110      1.0  0.25116  0.61810  0.71464  1.0000
  C  Sn28      1.0  0.25193  0.59123  0.80687  1.0000
  O  Te25      1.0  0.22116  0.54307  0.94236  1.0000
  O  Te26      1.0  0.15791  0.60878  0.65993  1.0000
  O  Te27      1.0  0.22000  0.65129  0.57270  1.0000
  O  Te28      1.0  0.28324  0.58555  0.85516  1.0000
  Mg  Mg13      1.0  0.17092  0.64875  0.53578  1.0000
  Mg  Mg14      1.0  0.27024  0.54558  0.97921  1.0000
  C  Sn29      1.0  0.41552  0.65282  0.71047  1.0000
  C   C111      1.0  0.37706  0.63437  0.69493  1.0000
  C  Sn30      1.0  0.36078  0.59989  0.72785  1.0000
  C  Sn31      1.0  0.38342  0.58352  0.77746  1.0000
  C   C112      1.0  0.42185  0.60197  0.79302  1.0000
  C  Sn32      1.0  0.43816  0.63645  0.76009  1.0000
  O  Te29      1.0  0.43120  0.68727  0.67694  1.0000
  O  Te30      1.0  0.32226  0.58198  0.71138  1.0000
  O  Te31      1.0  0.36770  0.54905  0.81099  1.0000
  O  Te32      1.0  0.47666  0.65436  0.77657  1.0000
  Mg  Mg15      1.0  0.31394  0.53552  0.77106  1.0000
  Mg  Mg16      1.0  0.48501  0.70083  0.71702  1.0000
  C  Sn33      1.0  0.41200  0.77556  0.82702  1.0000
  C   C113      1.0  0.37458  0.74865  0.81055  1.0000
  C  Sn34      1.0  0.34183  0.75319  0.73957  1.0000
  C  Sn35      1.0  0.34657  0.78527  0.68377  1.0000
  C   C114      1.0  0.38396  0.81215  0.70021  1.0000
  C  Sn36      1.0  0.41674  0.80764  0.77121  1.0000
  O  Te33      1.0  0.44432  0.77045  0.89834  1.0000
  O  Te34      1.0  0.30472  0.72591  0.72449  1.0000
  O  Te35      1.0  0.31420  0.79036  0.61240  1.0000
  O  Te36      1.0  0.45382  0.83488  0.78627  1.0000
  Mg  Mg17      1.0  0.26968  0.74545  0.61885  1.0000
  Mg  Mg18      1.0  0.48887  0.81537  0.89179  1.0000
  C  Sn37      1.0  0.76002  0.42187  0.71411  1.0000
  C   C115      1.0  0.73591  0.38335  0.67438  1.0000
  C  Sn38      1.0  0.75322  0.36342  0.68814  1.0000
  C  Sn39      1.0  0.79551  0.38237  0.74287  1.0000
  C   C116      1.0  0.81960  0.42087  0.78259  1.0000
  C  Sn40      1.0  0.80231  0.44083  0.76884  1.0000
  O  Te37      1.0  0.74207  0.44124  0.69944  1.0000
  O  Te38      1.0  0.72849  0.32492  0.64764  1.0000
  O  Te39      1.0  0.81345  0.36297  0.75750  1.0000
  O  Te40      1.0  0.82701  0.47930  0.80933  1.0000
  Mg  Mg19      1.0  0.76711  0.31080  0.68788  1.0000
  Mg  Mg20      1.0  0.78844  0.49345  0.76924  1.0000
  C  Sn41      1.0  0.61263  0.41273  0.67675  1.0000
  C   C117      1.0  0.57593  0.39587  0.67682  1.0000
  C  Sn42      1.0  0.56011  0.36191  0.71532  1.0000
  C  Sn43      1.0  0.58145  0.34445  0.75470  1.0000
  C   C118      1.0  0.61813  0.36131  0.75466  1.0000
  C  Sn44      1.0  0.63397  0.39526  0.71613  1.0000
  O  Te41      1.0  0.62788  0.44668  0.63789  1.0000
  O  Te42      1.0  0.52336  0.34559  0.71451  1.0000
  O  Te43      1.0  0.56617  0.31047  0.79357  1.0000
  O  Te44      1.0  0.67070  0.41159  0.71697  1.0000
  Mg  Mg21      1.0  0.51499  0.29923  0.77594  1.0000
  Mg  Mg22      1.0  0.67911  0.45795  0.65566  1.0000
  C  Sn45      1.0  0.64551  0.22986  0.68145  1.0000
  C   C119      1.0  0.62926  0.24983  0.68792  1.0000
  C  Sn46      1.0  0.60207  0.23801  0.75304  1.0000
  C  Sn47      1.0  0.59091  0.20558  0.81308  1.0000
  C   C120      1.0  0.60716  0.18564  0.80662  1.0000
  C  Sn48      1.0  0.63435  0.19743  0.74148  1.0000
  O  Te45      1.0  0.67265  0.24218  0.61583  1.0000
  O  Te46      1.0  0.58622  0.25843  0.75814  1.0000
  O  Te47      1.0  0.56375  0.19327  0.87871  1.0000
  O  Te48      1.0  0.65020  0.17704  0.73640  1.0000
  Mg  Mg23      1.0  0.55037  0.23048  0.85904  1.0000
  Mg  Mg24      1.0  0.68607  0.20497  0.63563  1.0000
