data_image0
_chemical_formula_structural       C6N12C30H6O12H6C6H6C6H6C18H6C6N12C30H6O12H6C6H6C6H6C18H6SnCSn2CSnTe4Mg2SnCSn2CSnTe4Mg2SnCSn2CSnTe4Mg2SnCSn2CSnTe4Mg2SnCSn2CSnTe4Mg2SnCSn2CSnTe4Mg2
_chemical_formula_sum              "C144 N24 H60 O24 Sn24 Te24 Mg12"
_cell_length_a       44.0605
_cell_length_b       43.8643
_cell_length_c       8.09898
_cell_angle_alpha    89.5806
_cell_angle_beta     118.421
_cell_angle_gamma    120.394

_symmetry_space_group_name_H-M    'P1'
_space_group_IT_number       1

loop_
  _space_group_symop_operation_xyz
  'x, y, z'

loop_
  _atom_site_type_symbol
  _atom_site_label
  _atom_site_symmetry_multiplicity
  _atom_site_fract_x
  _atom_site_fract_y
  _atom_site_fract_z
  _atom_site_occupancy
  C   C1        1.0  0.85959  0.44940  0.27272  1.0000
  C   C2        1.0  0.55589  0.40961  0.25417  1.0000
  C   C3        1.0  0.59690  0.14866  0.27615  1.0000
  C   C4        1.0  0.14756  0.55468  0.25821  1.0000
  C   C5        1.0  0.44194  0.58687  0.23638  1.0000
  C   C6        1.0  0.41191  0.85477  0.24221  1.0000
  N   N1        1.0  0.87804  0.43490  0.25821  1.0000
  N   N2        1.0  0.56859  0.44356  0.25360  1.0000
  N   N3        1.0  0.56351  0.12807  0.28109  1.0000
  N   N4        1.0  0.12451  0.56663  0.23339  1.0000
  N   N5        1.0  0.43061  0.55392  0.25361  1.0000
  N   N6        1.0  0.44405  0.87471  0.22741  1.0000
  N   N7        1.0  0.91471  0.45709  0.26650  1.0000
  N   N8        1.0  0.54769  0.45722  0.26639  1.0000
  N   N9        1.0  0.55027  0.09249  0.28367  1.0000
  N   N10       1.0  0.09077  0.54611  0.24961  1.0000
  N   N11       1.0  0.45176  0.54010  0.24550  1.0000
  N   N12       1.0  0.45796  0.91065  0.23061  1.0000
  C   C7        1.0  0.00188  0.53424  0.25112  1.0000
  C   C8        1.0  0.46781  0.46498  0.26170  1.0000
  C   C9        1.0  0.53668  0.00235  0.24912  1.0000
  C   C10       1.0  0.00378  0.46900  0.26661  1.0000
  C   C11       1.0  0.53178  0.53231  0.25398  1.0000
  C   C12       1.0  0.47145  0.00077  0.26453  1.0000
  C   C13       1.0  0.97153  0.50168  0.25555  1.0000
  C   C14       1.0  0.50150  0.46828  0.26678  1.0000
  C   C15       1.0  0.53588  0.03356  0.26401  1.0000
  C   C16       1.0  0.03402  0.50156  0.26114  1.0000
  C   C17       1.0  0.49807  0.52896  0.24859  1.0000
  C   C18       1.0  0.47225  0.96954  0.24974  1.0000
  C   C19       1.0  0.97257  0.47022  0.26407  1.0000
  C   C20       1.0  0.53241  0.50086  0.26287  1.0000
  C   C21       1.0  0.50439  0.03285  0.27168  1.0000
  C   C22       1.0  0.03319  0.53311  0.25408  1.0000
  C   C23       1.0  0.46721  0.49647  0.25316  1.0000
  C   C24       1.0  0.50371  0.97026  0.24182  1.0000
  C   C25       1.0  0.93444  0.49383  0.25519  1.0000
  C   C26       1.0  0.51105  0.44002  0.27324  1.0000
  C   C27       1.0  0.56532  0.07129  0.26832  1.0000
  C   C28       1.0  0.07066  0.50916  0.25816  1.0000
  C   C29       1.0  0.48846  0.55714  0.23964  1.0000
  C   C30       1.0  0.44299  0.93183  0.24676  1.0000
  C   C31       1.0  0.93645  0.44099  0.27153  1.0000
  C   C32       1.0  0.56234  0.49457  0.26055  1.0000
  C   C33       1.0  0.51299  0.07050  0.28723  1.0000
  C   C34       1.0  0.06913  0.56225  0.24489  1.0000
  C   C35       1.0  0.43726  0.50290  0.25447  1.0000
  C   C36       1.0  0.49521  0.93265  0.22718  1.0000
  H   H1        1.0  0.14107  0.52864  0.29023  1.0000
  H   H2        1.0  0.46726  0.60373  0.21332  1.0000
  H   H3        1.0  0.39497  0.86531  0.25299  1.0000
  H   H4        1.0  0.87257  0.47891  0.29678  1.0000
  H   H5        1.0  0.52952  0.39142  0.26843  1.0000
  H   H6        1.0  0.61567  0.13914  0.27917  1.0000
  O   O1        1.0  0.08125  0.48817  0.25896  1.0000
  O   O2        1.0  0.50793  0.58843  0.22968  1.0000
  O   O3        1.0  0.41289  0.92117  0.26056  1.0000
  O   O4        1.0  0.92286  0.51429  0.24639  1.0000
  O   O5        1.0  0.49181  0.40863  0.28237  1.0000
  O   O6        1.0  0.59560  0.08199  0.25615  1.0000
  O   O7        1.0  0.07883  0.59302  0.23192  1.0000
  O   O8        1.0  0.40734  0.48240  0.26643  1.0000
  O   O9        1.0  0.51458  0.92168  0.21417  1.0000
  O   O10       1.0  0.92685  0.41025  0.28438  1.0000
  O   O11       1.0  0.59227  0.51529  0.24893  1.0000
  O   O12       1.0  0.49388  0.08159  0.30214  1.0000
  H   H7        1.0  0.00435  0.44448  0.27165  1.0000
  H   H8        1.0  0.55573  0.55753  0.25040  1.0000
  H   H9        1.0  0.44693  0.00004  0.27043  1.0000
  H   H10       1.0  0.00121  0.55869  0.24564  1.0000
  H   H11       1.0  0.44372  0.43973  0.26425  1.0000
  H   H12       1.0  0.56117  0.00302  0.24322  1.0000
  C   C37       1.0  0.19515  0.61112  0.20530  1.0000
  C   C38       1.0  0.23146  0.63244  0.20534  1.0000
  C   C39       1.0  0.38779  0.58364  0.28093  1.0000
  C   C40       1.0  0.36829  0.59988  0.28907  1.0000
  C   C41       1.0  0.61207  0.41564  0.21701  1.0000
  C   C42       1.0  0.63217  0.40035  0.20510  1.0000
  H   H13       1.0  0.17431  0.61994  0.17038  1.0000
  H   H14       1.0  0.23826  0.65785  0.16600  1.0000
  H   H15       1.0  0.37873  0.55667  0.30407  1.0000
  H   H16       1.0  0.34451  0.58542  0.32346  1.0000
  H   H17       1.0  0.62261  0.44381  0.21107  1.0000
  H   H18       1.0  0.65827  0.41721  0.18789  1.0000
  C   C43       1.0  0.21097  0.56569  0.28940  1.0000
  C   C44       1.0  0.24769  0.58754  0.29231  1.0000
  C   C45       1.0  0.43223  0.63748  0.22119  1.0000
  C   C46       1.0  0.41197  0.65325  0.22583  1.0000
  C   C47       1.0  0.56393  0.35827  0.23950  1.0000
  C   C48       1.0  0.58434  0.34320  0.22822  1.0000
  H   H19       1.0  0.20305  0.53970  0.32407  1.0000
  H   H20       1.0  0.26825  0.57831  0.33109  1.0000
  H   H21       1.0  0.45692  0.65201  0.19221  1.0000
  H   H22       1.0  0.42076  0.67968  0.19631  1.0000
  H   H23       1.0  0.53756  0.34185  0.25584  1.0000
  H   H24       1.0  0.57314  0.31513  0.23657  1.0000
  C   C49       1.0  0.35263  0.70468  0.26969  1.0000
  C   C50       1.0  0.29826  0.64476  0.25547  1.0000
  C   C51       1.0  0.35813  0.65172  0.26695  1.0000
  C   C52       1.0  0.18435  0.57731  0.24834  1.0000
  C   C53       1.0  0.42034  0.60235  0.24746  1.0000
  C   C54       1.0  0.25893  0.62146  0.25026  1.0000
  C   C55       1.0  0.37967  0.63501  0.26107  1.0000
  C   C56       1.0  0.37456  0.68931  0.28034  1.0000
  C   C57       1.0  0.31482  0.68197  0.26023  1.0000
  C   C58       1.0  0.31984  0.62997  0.25323  1.0000
  C   C59       1.0  0.65099  0.29704  0.22342  1.0000
  C   C60       1.0  0.70150  0.35590  0.21067  1.0000
  C   C61       1.0  0.64176  0.34810  0.20565  1.0000
  C   C62       1.0  0.57752  0.39482  0.23530  1.0000
  C   C63       1.0  0.61915  0.36376  0.21124  1.0000
  C   C64       1.0  0.62868  0.31186  0.21457  1.0000
  C   C65       1.0  0.68734  0.31966  0.22121  1.0000
  C   C66       1.0  0.67803  0.36943  0.20120  1.0000
  H   H25       1.0  0.29804  0.69353  0.25885  1.0000
  H   H26       1.0  0.30590  0.60059  0.23487  1.0000
  H   H27       1.0  0.40471  0.70673  0.29630  1.0000
  H   H28       1.0  0.70553  0.30914  0.23085  1.0000
  H   H29       1.0  0.68835  0.39720  0.18999  1.0000
  H   H30       1.0  0.60126  0.29519  0.22217  1.0000
  C   C67       1.0  0.85528  0.44688  0.77234  1.0000
  C   C68       1.0  0.55333  0.41008  0.74194  1.0000
  C   C69       1.0  0.59140  0.14599  0.76723  1.0000
  C   C70       1.0  0.14290  0.55100  0.75493  1.0000
  C   C71       1.0  0.44581  0.59079  0.76711  1.0000
  C   C72       1.0  0.40618  0.85240  0.74064  1.0000
  N   N13       1.0  0.87349  0.43221  0.75700  1.0000
  N   N14       1.0  0.56873  0.44500  0.75802  1.0000
  N   N15       1.0  0.55985  0.12622  0.78629  1.0000
  N   N16       1.0  0.11995  0.56306  0.73083  1.0000
  N   N17       1.0  0.43061  0.55582  0.74731  1.0000
  N   N18       1.0  0.43913  0.87263  0.73196  1.0000
  N   N19       1.0  0.91026  0.45429  0.76602  1.0000
  N   N20       1.0  0.54743  0.45876  0.76431  1.0000
  N   N21       1.0  0.54584  0.09028  0.78288  1.0000
  N   N22       1.0  0.08612  0.54253  0.74663  1.0000
  N   N23       1.0  0.45334  0.54289  0.75209  1.0000
  N   N24       1.0  0.45304  0.90850  0.73326  1.0000
  C   C73       1.0  0.99756  0.53113  0.74967  1.0000
  C   C74       1.0  0.46840  0.46736  0.76175  1.0000
  C   C75       1.0  0.53225  0.00008  0.75228  1.0000
  C   C76       1.0  0.99966  0.46604  0.76957  1.0000
  C   C77       1.0  0.53296  0.53472  0.75736  1.0000
  C   C78       1.0  0.46689  0.99879  0.76468  1.0000
  C   C79       1.0  0.96720  0.49868  0.75520  1.0000
  C   C80       1.0  0.50197  0.47050  0.76681  1.0000
  C   C81       1.0  0.53158  0.03141  0.76607  1.0000
  C   C82       1.0  0.02987  0.49842  0.76297  1.0000
  C   C83       1.0  0.49937  0.53160  0.75250  1.0000
  C   C84       1.0  0.46760  0.96750  0.75133  1.0000
  C   C85       1.0  0.96830  0.46727  0.76562  1.0000
  C   C86       1.0  0.53315  0.50303  0.76412  1.0000
  C   C87       1.0  0.49999  0.03078  0.77218  1.0000
  C   C88       1.0  0.02889  0.52989  0.75367  1.0000
  C   C89       1.0  0.46814  0.49900  0.75453  1.0000
  C   C90       1.0  0.49916  0.96809  0.74493  1.0000
  C   C91       1.0  0.92989  0.49087  0.75241  1.0000
  C   C92       1.0  0.51090  0.44191  0.77160  1.0000
  C   C93       1.0  0.56104  0.06911  0.76963  1.0000
  C   C94       1.0  0.06643  0.50586  0.75923  1.0000
  C   C95       1.0  0.49025  0.56010  0.74743  1.0000
  C   C96       1.0  0.43805  0.92982  0.74733  1.0000
  C   C97       1.0  0.93223  0.43823  0.77425  1.0000
  C   C98       1.0  0.56273  0.49631  0.76087  1.0000
  C   C99       1.0  0.50843  0.06835  0.78509  1.0000
  C   C100      1.0  0.06464  0.55880  0.74252  1.0000
  C   C101      1.0  0.43815  0.50538  0.75537  1.0000
  C   C102      1.0  0.49046  0.93041  0.73050  1.0000
  H   H31       1.0  0.13616  0.52478  0.78507  1.0000
  H   H32       1.0  0.47621  0.61061  0.78745  1.0000
  H   H33       1.0  0.38838  0.86253  0.74447  1.0000
  H   H34       1.0  0.86852  0.47646  0.79748  1.0000
  H   H35       1.0  0.52442  0.39130  0.73647  1.0000
  H   H36       1.0  0.60800  0.13545  0.75237  1.0000
  O   O13       1.0  0.07719  0.48494  0.76226  1.0000
  O   O14       1.0  0.50976  0.59155  0.73980  1.0000
  O   O15       1.0  0.40767  0.91925  0.75849  1.0000
  O   O16       1.0  0.91796  0.51114  0.73946  1.0000
  O   O17       1.0  0.49127  0.41056  0.78025  1.0000
  O   O18       1.0  0.59148  0.07984  0.75877  1.0000
  O   O19       1.0  0.07425  0.58951  0.72864  1.0000
  O   O20       1.0  0.40791  0.48469  0.76481  1.0000
  O   O21       1.0  0.50970  0.91929  0.71744  1.0000
  O   O22       1.0  0.92282  0.40770  0.79096  1.0000
  O   O23       1.0  0.59276  0.51679  0.74959  1.0000
  O   O24       1.0  0.48885  0.07928  0.79585  1.0000
  H   H37       1.0  0.00038  0.44162  0.77638  1.0000
  H   H38       1.0  0.55718  0.55996  0.75539  1.0000
  H   H39       1.0  0.44241  0.99835  0.76948  1.0000
  H   H40       1.0  0.99686  0.55556  0.74220  1.0000
  H   H41       1.0  0.44412  0.44209  0.76311  1.0000
  H   H42       1.0  0.55675  0.00061  0.74711  1.0000
  C   C103      1.0  0.41515  0.80008  0.76315  1.0000
  C   C104      1.0  0.40035  0.76386  0.76751  1.0000
  C   C105      1.0  0.79438  0.38396  0.70591  1.0000
  C   C106      1.0  0.75602  0.36177  0.68711  1.0000
  C   C107      1.0  0.61283  0.41645  0.73701  1.0000
  C   C108      1.0  0.63283  0.40067  0.73013  1.0000
  H   H43       1.0  0.44486  0.81787  0.77458  1.0000
  H   H44       1.0  0.41956  0.75396  0.78558  1.0000
  H   H45       1.0  0.80878  0.37189  0.68140  1.0000
  H   H46       1.0  0.74019  0.33183  0.64495  1.0000
  H   H47       1.0  0.62592  0.44559  0.74728  1.0000
  H   H48       1.0  0.66184  0.41827  0.73569  1.0000
  C   C109      1.0  0.35352  0.79129  0.72922  1.0000
  C   C110      1.0  0.33844  0.75471  0.72934  1.0000
  C   C111      1.0  0.79647  0.43841  0.78319  1.0000
  C   C112      1.0  0.75815  0.41597  0.76606  1.0000
  C   C113      1.0  0.55867  0.35730  0.71686  1.0000
  C   C114      1.0  0.57883  0.34165  0.70911  1.0000
  H   H49       1.0  0.33521  0.80205  0.71550  1.0000
  H   H50       1.0  0.30820  0.73749  0.71315  1.0000
  H   H51       1.0  0.81247  0.46844  0.82205  1.0000
  H   H52       1.0  0.74525  0.42905  0.79681  1.0000
  H   H53       1.0  0.52992  0.34035  0.71477  1.0000
  H   H54       1.0  0.56489  0.31247  0.69877  1.0000
  C   C115      1.0  0.34638  0.70145  0.75653  1.0000
  C   C116      1.0  0.29549  0.64249  0.76701  1.0000
  C   C117      1.0  0.35247  0.64886  0.74937  1.0000
  C   C118      1.0  0.39200  0.81459  0.74514  1.0000
  C   C119      1.0  0.36163  0.74003  0.75047  1.0000
  C   C120      1.0  0.36576  0.68516  0.74171  1.0000
  C   C121      1.0  0.31170  0.67976  0.77266  1.0000
  C   C122      1.0  0.31709  0.62798  0.76077  1.0000
  C   C123      1.0  0.64699  0.29513  0.72642  1.0000
  C   C124      1.0  0.69724  0.35349  0.70912  1.0000
  C   C125      1.0  0.63832  0.34644  0.70869  1.0000
  C   C126      1.0  0.81531  0.42281  0.75446  1.0000
  C   C127      1.0  0.57520  0.39493  0.73062  1.0000
  C   C128      1.0  0.73696  0.37712  0.71788  1.0000
  C   C129      1.0  0.61647  0.36281  0.71523  1.0000
  C   C130      1.0  0.62516  0.31032  0.72024  1.0000
  C   C131      1.0  0.68330  0.31750  0.72346  1.0000
  C   C132      1.0  0.67374  0.36708  0.69740  1.0000
  H   H55       1.0  0.29743  0.69227  0.79349  1.0000
  H   H56       1.0  0.30570  0.59961  0.76252  1.0000
  H   H57       1.0  0.39082  0.70067  0.71649  1.0000
  H   H58       1.0  0.70177  0.30710  0.73666  1.0000
  H   H59       1.0  0.68321  0.39422  0.67761  1.0000
  H   H60       1.0  0.59820  0.29415  0.73181  1.0000
  C  Sn1       1.0  0.22659  0.63221  0.76976  1.0000
  C   C133      1.0  0.25572  0.62446  0.80187  1.0000
  C  Sn2       1.0  0.24552  0.58846  0.79233  1.0000
  C  Sn3       1.0  0.20535  0.55960  0.74969  1.0000
  C   C134      1.0  0.17625  0.56736  0.71757  1.0000
  C  Sn4       1.0  0.18642  0.60334  0.72711  1.0000
  O  Te1       1.0  0.23747  0.66839  0.78001  1.0000
  O  Te2       1.0  0.27517  0.58140  0.82504  1.0000
  O  Te3       1.0  0.19450  0.52340  0.73946  1.0000
  O  Te4       1.0  0.15679  0.61041  0.69440  1.0000
  Mg  Mg1       1.0  0.24557  0.52761  0.79502  1.0000
  Mg  Mg2       1.0  0.18635  0.66419  0.72429  1.0000
  C  Sn5       1.0  0.57739  0.20275  0.70656  1.0000
  C   C135      1.0  0.59449  0.18323  0.70667  1.0000
  C  Sn6       1.0  0.63493  0.20196  0.74397  1.0000
  C  Sn7       1.0  0.65879  0.24101  0.78208  1.0000
  C   C136      1.0  0.64169  0.26051  0.78199  1.0000
  C  Sn8       1.0  0.60125  0.24181  0.74466  1.0000
  O  Te5       1.0  0.53690  0.18347  0.66892  1.0000
  O  Te6       1.0  0.65135  0.18184  0.74324  1.0000
  O  Te7       1.0  0.69931  0.26029  0.81973  1.0000
  O  Te8       1.0  0.58483  0.26190  0.74542  1.0000
  Mg  Mg3       1.0  0.70795  0.22061  0.80273  1.0000
  Mg  Mg4       1.0  0.52825  0.22317  0.68606  1.0000
  C  Sn9       1.0  0.65938  0.22130  0.33620  1.0000
  C   C137      1.0  0.62214  0.19398  0.32005  1.0000
  C  Sn10      1.0  0.58866  0.19758  0.24527  1.0000
  C  Sn11      1.0  0.59247  0.22912  0.18526  1.0000
  C   C138      1.0  0.62968  0.25641  0.20138  1.0000
  C  Sn12      1.0  0.66318  0.25284  0.27619  1.0000
  O  Te9       1.0  0.69244  0.21713  0.41137  1.0000
  O  Te10      1.0  0.55176  0.16992  0.23059  1.0000
  O  Te11      1.0  0.55936  0.23327  0.11005  1.0000
  O  Te12      1.0  0.70006  0.28048  0.29084  1.0000
  Mg  Mg5       1.0  0.51547  0.18814  0.11875  1.0000
  Mg  Mg6       1.0  0.73636  0.26227  0.40256  1.0000
  C  Sn13      1.0  0.34171  0.76342  0.21200  1.0000
  C   C139      1.0  0.35831  0.74340  0.21241  1.0000
  C  Sn14      1.0  0.39843  0.76151  0.24629  1.0000
  C  Sn15      1.0  0.42247  0.80044  0.28061  1.0000
  C   C140      1.0  0.40587  0.82043  0.28022  1.0000
  C  Sn16      1.0  0.36575  0.80234  0.24631  1.0000
  O  Te13      1.0  0.30154  0.74474  0.17781  1.0000
  O  Te14      1.0  0.41435  0.74090  0.24592  1.0000
  O  Te15      1.0  0.46267  0.81910  0.31480  1.0000
  O  Te16      1.0  0.34984  0.82293  0.24670  1.0000
  Mg  Mg7       1.0  0.47066  0.77891  0.29984  1.0000
  Mg  Mg8       1.0  0.29354  0.78495  0.19291  1.0000
  C  Sn17      1.0  0.36761  0.59253  0.78578  1.0000
  C   C141      1.0  0.37788  0.62850  0.79255  1.0000
  C  Sn18      1.0  0.40959  0.65339  0.76444  1.0000
  C  Sn19      1.0  0.43147  0.64207  0.72870  1.0000
  C   C142      1.0  0.42119  0.60611  0.72191  1.0000
  C  Sn20      1.0  0.38949  0.58121  0.75003  1.0000
  O  Te17      1.0  0.33579  0.56811  0.81428  1.0000
  O  Te18      1.0  0.41932  0.68922  0.77194  1.0000
  O  Te19      1.0  0.46331  0.66652  0.70019  1.0000
  O  Te20      1.0  0.37976  0.54540  0.74251  1.0000
  Mg  Mg9       1.0  0.46510  0.71237  0.72394  1.0000
  Mg  Mg10      1.0  0.33397  0.52222  0.79039  1.0000
  C  Sn21      1.0  0.77457  0.36783  0.24896  1.0000
  C   C143      1.0  0.75097  0.37840  0.26711  1.0000
  C  Sn22      1.0  0.76012  0.41384  0.26497  1.0000
  C  Sn23      1.0  0.79354  0.43923  0.24412  1.0000
  C   C144      1.0  0.81711  0.42865  0.22595  1.0000
  C  Sn24      1.0  0.80799  0.39322  0.22812  1.0000
  O  Te21      1.0  0.76487  0.33226  0.25147  1.0000
  O  Te22      1.0  0.73609  0.42378  0.28342  1.0000
  O  Te23      1.0  0.80323  0.47483  0.24163  1.0000
  O  Te24      1.0  0.83200  0.38328  0.20965  1.0000
  Mg  Mg11      1.0  0.76145  0.47538  0.27156  1.0000
  Mg  Mg12      1.0  0.80665  0.33168  0.22138  1.0000
