data_image0
_chemical_formula_structural       HCOC2HC2HCOC2HC2OC2HC2HCOC2HC2HCOC2HC2OC2HC2OC2HC2HCOC2HC2HCOC2HC2OC2HC2HCOC2HC2HCOC2HC3BCB2CBCB2OC2HC2HCOC2HC2OC2HC2OC2HC2HCOC2HC2OC2HC2OC2HC2HCOC2HC2OC2HC2OC2HC2HCOC2HC2OC2HC2BCB3CB2SnCSn2CSnTe4Mg2SnCSn2CSnTe4Mg2SnCSn2CSnTe4Mg2
_chemical_formula_sum              "H36 C120 O24 B12 Sn12 Te12 Mg6"
_cell_length_a       35.3121
_cell_length_b       35.3272
_cell_length_c       8.07886
_cell_angle_alpha    106.372
_cell_angle_beta     105.517
_cell_angle_gamma    120.075

_symmetry_space_group_name_H-M    'P1'
_space_group_IT_number       1

loop_
  _space_group_symop_operation_xyz
  'x, y, z'

loop_
  _atom_site_type_symbol
  _atom_site_label
  _atom_site_symmetry_multiplicity
  _atom_site_fract_x
  _atom_site_fract_y
  _atom_site_fract_z
  _atom_site_occupancy
  H   H1        1.0  0.04463  0.58270  0.01289  1.0000
  C   C1        1.0  0.02664  0.54723  0.01392  1.0000
  O   O1        1.0  0.12649  0.59584  0.01574  1.0000
  C   C2        1.0  0.16812  0.60330  0.00731  1.0000
  C   C3        1.0  0.20611  0.64315  0.00529  1.0000
  H   H2        1.0  0.20597  0.67390  0.00669  1.0000
  C   C4        1.0  0.24566  0.64261  0.00146  1.0000
  C   C5        1.0  0.28534  0.68245  0.99933  1.0000
  H   H3        1.0  0.41939  0.45857  0.98010  1.0000
  C   C6        1.0  0.45537  0.47693  0.98306  1.0000
  O   O2        1.0  0.40750  0.52886  0.99021  1.0000
  C   C7        1.0  0.39909  0.56317  0.99056  1.0000
  C   C8        1.0  0.35925  0.56154  0.99195  1.0000
  H   H4        1.0  0.32879  0.53098  0.99415  1.0000
  C   C9        1.0  0.35966  0.60189  0.99312  1.0000
  C   C10       1.0  0.31973  0.60183  0.99424  1.0000
  O   O3        1.0  0.47405  0.87975  0.00754  1.0000
  C   C11       1.0  0.43945  0.83644  0.00373  1.0000
  C   C12       1.0  0.44095  0.79793  0.00062  1.0000
  H   H5        1.0  0.47153  0.79790  0.99819  1.0000
  C   C13       1.0  0.40040  0.75745  0.99717  1.0000
  C   C14       1.0  0.40052  0.71752  0.99653  1.0000
  H   H6        1.0  0.96192  0.41973  0.01016  1.0000
  C   C15       1.0  0.98005  0.45529  0.00974  1.0000
  O   O4        1.0  0.87904  0.40593  0.99989  1.0000
  C   C16       1.0  0.83677  0.39802  0.00245  1.0000
  C   C17       1.0  0.79802  0.35780  0.00006  1.0000
  H   H7        1.0  0.79778  0.32685  0.99862  1.0000
  C   C18       1.0  0.75825  0.35836  0.00010  1.0000
  C   C19       1.0  0.71798  0.31847  0.99945  1.0000
  H   H8        1.0  0.58433  0.54289  0.99854  1.0000
  C   C20       1.0  0.54835  0.52455  0.99556  1.0000
  O   O5        1.0  0.59615  0.47225  0.99198  1.0000
  C   C21       1.0  0.60422  0.43778  0.99340  1.0000
  C   C22       1.0  0.64430  0.43941  0.99560  1.0000
  H   H9        1.0  0.67506  0.47004  0.99495  1.0000
  C   C23       1.0  0.64366  0.39908  0.99626  1.0000
  C   C24       1.0  0.68375  0.39897  0.99857  1.0000
  O   O6        1.0  0.52890  0.12340  0.99811  1.0000
  C   C25       1.0  0.56332  0.16603  0.99815  1.0000
  C   C26       1.0  0.56173  0.20423  0.99715  1.0000
  H   H10       1.0  0.53115  0.20444  0.99790  1.0000
  C   C27       1.0  0.60226  0.24416  0.99850  1.0000
  C   C28       1.0  0.60220  0.28387  0.99592  1.0000
  O   O7        1.0  0.59559  0.12448  0.00754  1.0000
  C   C29       1.0  0.60340  0.16643  0.00215  1.0000
  C   C30       1.0  0.64345  0.20462  0.00202  1.0000
  H   H11       1.0  0.67431  0.20465  0.00380  1.0000
  C   C31       1.0  0.64302  0.24427  0.99976  1.0000
  C   C32       1.0  0.68304  0.28411  0.99919  1.0000
  H   H12       1.0  0.46004  0.41835  0.98052  1.0000
  C   C33       1.0  0.47827  0.45434  0.98357  1.0000
  O   O8        1.0  0.53006  0.40683  0.99164  1.0000
  C   C34       1.0  0.56422  0.39821  0.99209  1.0000
  C   C35       1.0  0.56219  0.35813  0.99241  1.0000
  H   H13       1.0  0.53153  0.32782  0.99470  1.0000
  C   C36       1.0  0.60241  0.35829  0.99346  1.0000
  C   C37       1.0  0.60214  0.31828  0.99411  1.0000
  H   H14       1.0  0.96237  0.54156  0.00414  1.0000
  C   C38       1.0  0.98041  0.52401  0.00831  1.0000
  O   O9        1.0  0.88048  0.47277  0.00890  1.0000
  C   C39       1.0  0.83744  0.43822  0.00650  1.0000
  C   C40       1.0  0.79919  0.43996  0.00564  1.0000
  H   H15       1.0  0.79952  0.47084  0.00574  1.0000
  C   C41       1.0  0.75864  0.39928  0.00119  1.0000
  C   C42       1.0  0.71854  0.39916  0.00008  1.0000
  O   O10       1.0  0.40660  0.87751  0.99524  1.0000
  C   C43       1.0  0.39906  0.83551  0.99914  1.0000
  C   C44       1.0  0.35898  0.79680  0.99746  1.0000
  H   H16       1.0  0.32795  0.79644  0.99582  1.0000
  C   C45       1.0  0.35959  0.75708  0.99764  1.0000
  C   C46       1.0  0.31982  0.71701  0.99847  1.0000
  H   H17       1.0  0.54355  0.58300  0.99702  1.0000
  C   C47       1.0  0.52540  0.54711  0.99469  1.0000
  O   O11       1.0  0.47286  0.59442  0.98846  1.0000
  C   C48       1.0  0.43865  0.60284  0.99054  1.0000
  C   C49       1.0  0.44045  0.64295  0.99218  1.0000
  H   H18       1.0  0.47090  0.67337  0.98952  1.0000
  C   C50       1.0  0.40045  0.64280  0.99447  1.0000
  C   C51       1.0  0.40053  0.68291  0.99609  1.0000
  H   H19       1.0  0.04426  0.46092  0.01913  1.0000
  C   C52       1.0  0.02629  0.47853  0.01539  1.0000
  O   O12       1.0  0.12523  0.52894  0.00430  1.0000
  C   C53       1.0  0.16766  0.56315  0.00240  1.0000
  C   C54       1.0  0.20571  0.56140  0.99955  1.0000
  H   H20       1.0  0.20583  0.53073  0.99968  1.0000
  C   C55       1.0  0.24557  0.60183  0.99999  1.0000
  C   C56       1.0  0.28519  0.60167  0.99624  1.0000
  C   C57       1.0  0.05027  0.52480  0.01678  1.0000
  B   B1        1.0  0.10014  0.54964  0.01351  1.0000
  C   C58       1.0  0.47850  0.52369  0.98844  1.0000
  B   B2        1.0  0.45321  0.54857  0.98854  1.0000
  B   B3        1.0  0.45320  0.90470  0.00125  1.0000
  C   C59       1.0  0.95633  0.47764  0.00592  1.0000
  B   B4        1.0  0.90591  0.45238  0.00449  1.0000
  C   C60       1.0  0.52515  0.47775  0.98987  1.0000
  B   B5        1.0  0.55017  0.45265  0.99091  1.0000
  B   B6        1.0  0.54925  0.09799  0.00401  1.0000
  O   O13       1.0  0.12340  0.59503  0.51766  1.0000
  C   C61       1.0  0.16476  0.60191  0.50858  1.0000
  C   C62       1.0  0.20317  0.64168  0.50796  1.0000
  H   H21       1.0  0.20367  0.67289  0.51177  1.0000
  C   C63       1.0  0.24227  0.64044  0.50287  1.0000
  C   C64       1.0  0.28224  0.68007  0.50112  1.0000
  H   H22       1.0  0.41487  0.45545  0.48370  1.0000
  C   C65       1.0  0.45072  0.47371  0.48562  1.0000
  O   O14       1.0  0.40324  0.52604  0.49326  1.0000
  C   C66       1.0  0.39508  0.56052  0.49381  1.0000
  C   C67       1.0  0.35550  0.55918  0.49687  1.0000
  H   H23       1.0  0.32543  0.52900  0.50194  1.0000
  C   C68       1.0  0.35582  0.59934  0.49618  1.0000
  C   C69       1.0  0.31606  0.59954  0.49772  1.0000
  O   O15       1.0  0.47019  0.87626  0.50171  1.0000
  C   C70       1.0  0.43580  0.83337  0.50051  1.0000
  C   C71       1.0  0.43713  0.79472  0.49699  1.0000
  H   H24       1.0  0.46742  0.79439  0.49246  1.0000
  C   C72       1.0  0.39679  0.75459  0.49577  1.0000
  C   C73       1.0  0.39664  0.71451  0.49478  1.0000
  O   O16       1.0  0.87577  0.40512  0.50323  1.0000
  C   C74       1.0  0.83333  0.39716  0.50440  1.0000
  C   C75       1.0  0.79460  0.35696  0.50203  1.0000
  H   H25       1.0  0.79458  0.32620  0.50157  1.0000
  C   C76       1.0  0.75461  0.35728  0.50033  1.0000
  C   C77       1.0  0.71433  0.31737  0.49959  1.0000
  H   H26       1.0  0.57921  0.53943  0.49711  1.0000
  C   C78       1.0  0.54336  0.52120  0.49518  1.0000
  O   O17       1.0  0.59162  0.46968  0.49159  1.0000
  C   C79       1.0  0.60009  0.43552  0.49352  1.0000
  C   C80       1.0  0.63996  0.43706  0.49318  1.0000
  H   H27       1.0  0.67039  0.46747  0.49019  1.0000
  C   C81       1.0  0.63963  0.39694  0.49486  1.0000
  C   C82       1.0  0.67979  0.39715  0.49667  1.0000
  O   O18       1.0  0.52625  0.12022  0.49388  1.0000
  C   C83       1.0  0.56054  0.16334  0.49580  1.0000
  C   C84       1.0  0.55846  0.20137  0.49545  1.0000
  H   H28       1.0  0.52749  0.20089  0.49567  1.0000
  C   C85       1.0  0.59886  0.24189  0.49833  1.0000
  C   C86       1.0  0.59853  0.28155  0.49597  1.0000
  O   O19       1.0  0.59401  0.12288  0.50773  1.0000
  C   C87       1.0  0.60114  0.16457  0.50164  1.0000
  C   C88       1.0  0.64104  0.20325  0.50249  1.0000
  H   H29       1.0  0.67222  0.20379  0.50499  1.0000
  C   C89       1.0  0.64000  0.24261  0.50019  1.0000
  C   C90       1.0  0.67973  0.28274  0.49968  1.0000
  H   H30       1.0  0.45595  0.41563  0.48632  1.0000
  C   C91       1.0  0.47382  0.45134  0.48719  1.0000
  O   O20       1.0  0.52647  0.40464  0.49649  1.0000
  C   C92       1.0  0.56064  0.39612  0.49512  1.0000
  C   C93       1.0  0.55876  0.35607  0.49477  1.0000
  H   H31       1.0  0.52812  0.32567  0.49667  1.0000
  C   C94       1.0  0.59883  0.35617  0.49403  1.0000
  C   C95       1.0  0.59876  0.31616  0.49438  1.0000
  O   O21       1.0  0.87697  0.47166  0.50912  1.0000
  C   C96       1.0  0.83388  0.43721  0.50666  1.0000
  C   C97       1.0  0.79540  0.43873  0.50404  1.0000
  H   H32       1.0  0.79532  0.46929  0.50205  1.0000
  C   C98       1.0  0.75497  0.39808  0.50030  1.0000
  C   C99       1.0  0.71482  0.39782  0.49870  1.0000
  O   O22       1.0  0.40399  0.87552  0.49832  1.0000
  C   C100      1.0  0.39604  0.83316  0.50025  1.0000
  C   C101      1.0  0.35613  0.79472  0.50039  1.0000
  H   H33       1.0  0.32557  0.79487  0.50201  1.0000
  C   C102      1.0  0.35638  0.75470  0.49888  1.0000
  C   C103      1.0  0.31671  0.71469  0.50042  1.0000
  H   H34       1.0  0.53819  0.57935  0.49495  1.0000
  C   C104      1.0  0.52028  0.54359  0.49374  1.0000
  O   O23       1.0  0.46825  0.59092  0.48729  1.0000
  C   C105      1.0  0.43439  0.59975  0.49099  1.0000
  C   C106      1.0  0.43616  0.63975  0.49133  1.0000
  H   H35       1.0  0.46639  0.66996  0.48697  1.0000
  C   C107      1.0  0.39630  0.63979  0.49456  1.0000
  C   C108      1.0  0.39635  0.67978  0.49467  1.0000
  O   O24       1.0  0.12061  0.52700  0.50057  1.0000
  C   C109      1.0  0.16348  0.56118  0.50093  1.0000
  C   C110      1.0  0.20127  0.55893  0.49852  1.0000
  H   H36       1.0  0.20084  0.52796  0.49815  1.0000
  C   C111      1.0  0.24161  0.59932  0.50075  1.0000
  C   C112      1.0  0.28133  0.59913  0.49869  1.0000
  B   B7        1.0  0.09626  0.54846  0.51185  1.0000
  C   C113      1.0  0.47358  0.52020  0.48879  1.0000
  B   B8        1.0  0.44858  0.54528  0.48915  1.0000
  B   B9        1.0  0.45006  0.90198  0.49954  1.0000
  B   B10       1.0  0.90254  0.45140  0.50649  1.0000
  C   C114      1.0  0.52051  0.47472  0.49183  1.0000
  B   B11       1.0  0.54596  0.45010  0.49341  1.0000
  B   B12       1.0  0.54746  0.09559  0.50202  1.0000
  C  Sn1       1.0  0.97479  0.01775  0.54634  1.0000
  C   C115      1.0  0.02120  0.04700  0.55561  1.0000
  C  Sn2       1.0  0.04507  0.02649  0.51827  1.0000
  C  Sn3       1.0  0.02206  0.97568  0.47054  1.0000
  C   C116      1.0  0.97567  0.94646  0.46127  1.0000
  C  Sn4       1.0  0.95177  0.96694  0.49862  1.0000
  O  Te1       1.0  0.95160  0.03904  0.58422  1.0000
  O  Te2       1.0  0.09147  0.05648  0.52848  1.0000
  O  Te3       1.0  0.04529  0.95441  0.43267  1.0000
  O  Te4       1.0  0.90540  0.93698  0.48839  1.0000
  Mg  Mg1       1.0  0.10822  0.01041  0.46463  1.0000
  Mg  Mg2       1.0  0.88860  0.98300  0.55212  1.0000
  C  Sn5       1.0  0.99415  0.46480  0.57392  1.0000
  C   C117      1.0  0.96474  0.48053  0.56379  1.0000
  C  Sn6       1.0  0.97387  0.51716  0.50930  1.0000
  C  Sn7       1.0  0.01320  0.53850  0.46386  1.0000
  C   C118      1.0  0.04259  0.52277  0.47397  1.0000
  C  Sn8       1.0  0.03349  0.48614  0.52848  1.0000
  O  Te5       1.0  0.98436  0.42813  0.62873  1.0000
  O  Te6       1.0  0.94396  0.53229  0.50028  1.0000
  O  Te7       1.0  0.02298  0.57520  0.40903  1.0000
  O  Te8       1.0  0.06336  0.47101  0.53748  1.0000
  Mg  Mg3       1.0  0.97195  0.58341  0.41799  1.0000
  Mg  Mg4       1.0  0.03539  0.41987  0.61965  1.0000
  C  Sn9       1.0  0.54001  0.99796  0.07748  1.0000
  C   C119      1.0  0.49257  0.96696  0.05796  1.0000
  C  Sn10      1.0  0.58191  0.10100  0.99156  1.0000
  C  Sn11      1.0  0.09268  0.13979  0.94356  1.0000
  C   C120      1.0  0.14009  0.17074  0.96305  1.0000
  C  Sn12      1.0  0.05078  0.03674  0.02947  1.0000
  O  Te9       1.0  0.57496  0.99026  0.14411  1.0000
  O  Te10      1.0  0.53474  0.06955  0.97331  1.0000
  O  Te11      1.0  0.05768  0.14746  0.87689  1.0000
  O  Te12      1.0  0.09792  0.06816  0.04770  1.0000
  Mg  Mg5       1.0  0.49983  0.09490  0.87637  1.0000
  Mg  Mg6       1.0  0.13285  0.04283  0.14452  1.0000
