data_image0
_chemical_formula_structural       C60B6H12O12C60B6H12O12SnCSn2CSnTe4Mg2SnCSn2CSnTe4Mg2SnCSn2CSnTe4Mg2SnCSn2CSnTe4Mg2SnCSn2CSnTe4Mg2SnCSn2CSnTe4Mg2
_chemical_formula_sum              "C132 B12 H24 O24 Sn24 Te24 Mg12"
_cell_length_a       40.4503
_cell_length_b       40.5433
_cell_length_c       8.0633
_cell_angle_alpha    111.514
_cell_angle_beta     98.5755
_cell_angle_gamma    120.317

_symmetry_space_group_name_H-M    'P1'
_space_group_IT_number       1

loop_
  _space_group_symop_operation_xyz
  'x, y, z'

loop_
  _atom_site_type_symbol
  _atom_site_label
  _atom_site_symmetry_multiplicity
  _atom_site_fract_x
  _atom_site_fract_y
  _atom_site_fract_z
  _atom_site_occupancy
  C   C1        1.0  0.85470  0.44351  0.24500  1.0000
  C   C2        1.0  0.55524  0.41172  0.25793  1.0000
  C   C3        1.0  0.58576  0.14306  0.24295  1.0000
  C   C4        1.0  0.14479  0.55379  0.25804  1.0000
  C   C5        1.0  0.44530  0.58878  0.23539  1.0000
  C   C6        1.0  0.40995  0.85488  0.25227  1.0000
  C   C7        1.0  0.44484  0.85548  0.24866  1.0000
  C   C8        1.0  0.41094  0.55458  0.24040  1.0000
  C   C9        1.0  0.14520  0.58887  0.26141  1.0000
  C   C10       1.0  0.55147  0.14350  0.24890  1.0000
  C   C11       1.0  0.58968  0.44598  0.25369  1.0000
  C   C12       1.0  0.85405  0.40850  0.24436  1.0000
  C   C13       1.0  0.82131  0.44498  0.24138  1.0000
  C   C14       1.0  0.55362  0.37692  0.25770  1.0000
  C   C15       1.0  0.62054  0.17629  0.24119  1.0000
  C   C16       1.0  0.17824  0.55252  0.25930  1.0000
  C   C17       1.0  0.44699  0.62369  0.23634  1.0000
  C   C18       1.0  0.37552  0.82124  0.25385  1.0000
  C   C19       1.0  0.44655  0.82197  0.24247  1.0000
  C   C20       1.0  0.37654  0.55355  0.24617  1.0000
  C   C21       1.0  0.17866  0.62386  0.26170  1.0000
  C   C22       1.0  0.55057  0.17749  0.25570  1.0000
  C   C23       1.0  0.62412  0.44710  0.24859  1.0000
  C   C24       1.0  0.82026  0.37364  0.24311  1.0000
  C   C25       1.0  0.75106  0.40970  0.23690  1.0000
  C   C26       1.0  0.58808  0.34184  0.25165  1.0000
  C   C27       1.0  0.65546  0.24641  0.24554  1.0000
  C   C28       1.0  0.24850  0.58858  0.26264  1.0000
  C   C29       1.0  0.41241  0.65868  0.24347  1.0000
  C   C30       1.0  0.34205  0.75157  0.25275  1.0000
  C   C31       1.0  0.41204  0.75202  0.24014  1.0000
  C   C32       1.0  0.34262  0.58925  0.25335  1.0000
  C   C33       1.0  0.24827  0.65819  0.25976  1.0000
  C   C34       1.0  0.58620  0.24747  0.25729  1.0000
  C   C35       1.0  0.65801  0.41134  0.24285  1.0000
  C   C36       1.0  0.75030  0.33960  0.24205  1.0000
  C   C37       1.0  0.72077  0.41000  0.23645  1.0000
  C   C38       1.0  0.58738  0.31124  0.25304  1.0000
  C   C39       1.0  0.68607  0.27662  0.24435  1.0000
  C   C40       1.0  0.27928  0.58927  0.26257  1.0000
  C   C41       1.0  0.41242  0.68894  0.24247  1.0000
  C   C42       1.0  0.31180  0.72132  0.25537  1.0000
  C   C43       1.0  0.41224  0.72184  0.24109  1.0000
  C   C44       1.0  0.31245  0.58944  0.25877  1.0000
  C   C45       1.0  0.27871  0.68840  0.25786  1.0000
  C   C46       1.0  0.58684  0.27800  0.25513  1.0000
  C   C47       1.0  0.68795  0.41060  0.23913  1.0000
  C   C48       1.0  0.71954  0.30952  0.24321  1.0000
  C   C49       1.0  0.78579  0.40967  0.23933  1.0000
  C   C50       1.0  0.58838  0.37661  0.25207  1.0000
  C   C51       1.0  0.62080  0.21180  0.24697  1.0000
  C   C52       1.0  0.21352  0.58806  0.26129  1.0000
  C   C53       1.0  0.41223  0.62395  0.24253  1.0000
  C   C54       1.0  0.37618  0.78634  0.24975  1.0000
  C   C55       1.0  0.41165  0.78656  0.24260  1.0000
  C   C56       1.0  0.37685  0.58876  0.24678  1.0000
  C   C57       1.0  0.21357  0.62360  0.26081  1.0000
  C   C58       1.0  0.58578  0.21247  0.25477  1.0000
  C   C59       1.0  0.62377  0.41188  0.24822  1.0000
  C   C60       1.0  0.78534  0.37405  0.24154  1.0000
  B   B1        1.0  0.91465  0.45562  0.24535  1.0000
  B   B2        1.0  0.54224  0.45844  0.25344  1.0000
  B   B3        1.0  0.53867  0.08332  0.24625  1.0000
  B   B4        1.0  0.08508  0.54157  0.26327  1.0000
  B   B5        1.0  0.45835  0.54207  0.23994  1.0000
  B   B6        1.0  0.45636  0.91515  0.24998  1.0000
  H   H1        1.0  0.82148  0.47153  0.23708  1.0000
  H   H2        1.0  0.52717  0.35070  0.26333  1.0000
  H   H3        1.0  0.64703  0.17590  0.23692  1.0000
  H   H4        1.0  0.17835  0.52598  0.26200  1.0000
  H   H5        1.0  0.47350  0.65014  0.23176  1.0000
  H   H6        1.0  0.34857  0.82080  0.25676  1.0000
  H   H7        1.0  0.47312  0.82192  0.23560  1.0000
  H   H8        1.0  0.35027  0.52735  0.25286  1.0000
  H   H9        1.0  0.17880  0.65075  0.26219  1.0000
  H   H10       1.0  0.52431  0.17812  0.26317  1.0000
  H   H11       1.0  0.65031  0.47321  0.24115  1.0000
  H   H12       1.0  0.81996  0.34676  0.24384  1.0000
  O   O1        1.0  0.89239  0.47338  0.24648  1.0000
  O   O2        1.0  0.52526  0.41898  0.25852  1.0000
  O   O3        1.0  0.57840  0.10577  0.24139  1.0000
  O   O4        1.0  0.10729  0.52375  0.25767  1.0000
  O   O5        1.0  0.47516  0.58135  0.23341  1.0000
  O   O6        1.0  0.41643  0.89167  0.25148  1.0000
  O   O7        1.0  0.47432  0.89309  0.24879  1.0000
  O   O8        1.0  0.41847  0.52504  0.24304  1.0000
  O   O9        1.0  0.10831  0.58197  0.26617  1.0000
  O   O10       1.0  0.52147  0.10612  0.24891  1.0000
  O   O11       1.0  0.58214  0.47549  0.25056  1.0000
  O   O12       1.0  0.89111  0.41530  0.24305  1.0000
  C   C61       1.0  0.85565  0.44785  0.74685  1.0000
  C   C62       1.0  0.55362  0.40998  0.75863  1.0000
  C   C63       1.0  0.59069  0.14477  0.74296  1.0000
  C   C64       1.0  0.14564  0.55698  0.75807  1.0000
  C   C65       1.0  0.44417  0.58731  0.73638  1.0000
  C   C66       1.0  0.41432  0.85674  0.75411  1.0000
  C   C67       1.0  0.44867  0.85626  0.74976  1.0000
  C   C68       1.0  0.40940  0.55304  0.73900  1.0000
  C   C69       1.0  0.14637  0.59211  0.76007  1.0000
  C   C70       1.0  0.55599  0.14431  0.74984  1.0000
  C   C71       1.0  0.58804  0.44430  0.75463  1.0000
  C   C72       1.0  0.85561  0.41315  0.74633  1.0000
  C   C73       1.0  0.82188  0.44865  0.74254  1.0000
  C   C74       1.0  0.55202  0.37517  0.75829  1.0000
  C   C75       1.0  0.62493  0.17855  0.74102  1.0000
  C   C76       1.0  0.17881  0.55522  0.75907  1.0000
  C   C77       1.0  0.44635  0.62251  0.73856  1.0000
  C   C78       1.0  0.37938  0.82354  0.75523  1.0000
  C   C79       1.0  0.44953  0.82236  0.74469  1.0000
  C   C80       1.0  0.37510  0.55225  0.74379  1.0000
  C   C81       1.0  0.18012  0.62693  0.76096  1.0000
  C   C82       1.0  0.55410  0.17782  0.75752  1.0000
  C   C83       1.0  0.62252  0.44550  0.74970  1.0000
  C   C84       1.0  0.82198  0.37776  0.74307  1.0000
  C   C85       1.0  0.75132  0.41191  0.73585  1.0000
  C   C86       1.0  0.58689  0.34045  0.75306  1.0000
  C   C87       1.0  0.65815  0.24852  0.74437  1.0000
  C   C88       1.0  0.24879  0.59016  0.75984  1.0000
  C   C89       1.0  0.41234  0.65809  0.74496  1.0000
  C   C90       1.0  0.34418  0.75340  0.75106  1.0000
  C   C91       1.0  0.41357  0.75237  0.74247  1.0000
  C   C92       1.0  0.34187  0.58870  0.75156  1.0000
  C   C93       1.0  0.24970  0.66054  0.75801  1.0000
  C   C94       1.0  0.58820  0.24783  0.76016  1.0000
  C   C95       1.0  0.65654  0.40999  0.74295  1.0000
  C   C96       1.0  0.75187  0.34263  0.73994  1.0000
  C   C97       1.0  0.72037  0.41089  0.73547  1.0000
  C   C98       1.0  0.58726  0.31049  0.75586  1.0000
  C   C99       1.0  0.68832  0.27904  0.74244  1.0000
  C   C100      1.0  0.27912  0.59001  0.75894  1.0000
  C   C101      1.0  0.41272  0.68857  0.74408  1.0000
  C   C102      1.0  0.31360  0.72327  0.75282  1.0000
  C   C103      1.0  0.41314  0.72185  0.74325  1.0000
  C   C104      1.0  0.31194  0.58943  0.75573  1.0000
  C   C105      1.0  0.28029  0.69051  0.75544  1.0000
  C   C106      1.0  0.58775  0.27783  0.75856  1.0000
  C   C107      1.0  0.68696  0.41029  0.73824  1.0000
  C   C108      1.0  0.72138  0.31225  0.74090  1.0000
  C   C109      1.0  0.78654  0.41283  0.73880  1.0000
  C   C110      1.0  0.58686  0.37501  0.75292  1.0000
  C   C111      1.0  0.62415  0.21354  0.74719  1.0000
  C   C112      1.0  0.21422  0.59038  0.76000  1.0000
  C   C113      1.0  0.41169  0.62306  0.74336  1.0000
  C   C114      1.0  0.37899  0.78801  0.75024  1.0000
  C   C115      1.0  0.41408  0.78736  0.74443  1.0000
  C   C116      1.0  0.37592  0.58781  0.74561  1.0000
  C   C117      1.0  0.21480  0.62621  0.75989  1.0000
  C   C118      1.0  0.58874  0.21327  0.75648  1.0000
  C   C119      1.0  0.62223  0.41032  0.74914  1.0000
  C   C120      1.0  0.78667  0.37745  0.74015  1.0000
  B   B7        1.0  0.91604  0.46102  0.74871  1.0000
  B   B8        1.0  0.54050  0.45660  0.75354  1.0000
  B   B9        1.0  0.54459  0.08442  0.74574  1.0000
  B   B10       1.0  0.08602  0.54531  0.76184  1.0000
  B   B11       1.0  0.45650  0.54012  0.74043  1.0000
  B   B12       1.0  0.46166  0.91639  0.75084  1.0000
  H   H13       1.0  0.82161  0.47509  0.73959  1.0000
  H   H14       1.0  0.52555  0.34875  0.76297  1.0000
  H   H15       1.0  0.65181  0.17898  0.73607  1.0000
  H   H16       1.0  0.17855  0.52856  0.76230  1.0000
  H   H17       1.0  0.47326  0.64901  0.73634  1.0000
  H   H18       1.0  0.35284  0.82394  0.75811  1.0000
  H   H19       1.0  0.47592  0.82180  0.73953  1.0000
  H   H20       1.0  0.34859  0.52604  0.74931  1.0000
  H   H21       1.0  0.18046  0.65388  0.76086  1.0000
  H   H22       1.0  0.52756  0.17778  0.76607  1.0000
  H   H23       1.0  0.64877  0.47165  0.74275  1.0000
  H   H24       1.0  0.82203  0.35100  0.74310  1.0000
  O   O13       1.0  0.89331  0.47821  0.74930  1.0000
  O   O14       1.0  0.52360  0.41719  0.75881  1.0000
  O   O15       1.0  0.58425  0.10774  0.74123  1.0000
  O   O16       1.0  0.10806  0.52729  0.75797  1.0000
  O   O17       1.0  0.47384  0.57962  0.73540  1.0000
  O   O18       1.0  0.42180  0.89397  0.75436  1.0000
  O   O19       1.0  0.47877  0.89356  0.74955  1.0000
  O   O20       1.0  0.41648  0.52318  0.74139  1.0000
  O   O21       1.0  0.10950  0.58552  0.76325  1.0000
  O   O22       1.0  0.52672  0.10667  0.74997  1.0000
  O   O23       1.0  0.58036  0.47363  0.75067  1.0000
  O   O24       1.0  0.89306  0.42081  0.74769  1.0000
  C  Sn1       1.0  0.00667  0.46552  0.20216  1.0000
  C   C121      1.0  0.03215  0.50565  0.20756  1.0000
  C  Sn2       1.0  0.02255  0.53559  0.25280  1.0000
  C  Sn3       1.0  0.98675  0.52523  0.29362  1.0000
  C   C122      1.0  0.96129  0.48513  0.28824  1.0000
  C  Sn4       1.0  0.97086  0.45516  0.24298  1.0000
  O  Te1       1.0  0.01686  0.43608  0.15661  1.0000
  O  Te2       1.0  0.04849  0.57550  0.25723  1.0000
  O  Te3       1.0  0.97657  0.55471  0.33919  1.0000
  O  Te4       1.0  0.94495  0.41528  0.23857  1.0000
  Mg  Mg1       1.0  0.02155  0.60483  0.32694  1.0000
  Mg  Mg2       1.0  0.97188  0.38593  0.16898  1.0000
  C  Sn5       1.0  0.46746  0.48129  0.30735  1.0000
  C   C123      1.0  0.48185  0.51954  0.29668  1.0000
  C  Sn6       1.0  0.51538  0.53726  0.24375  1.0000
  C  Sn7       1.0  0.53491  0.51630  0.20047  1.0000
  C   C124      1.0  0.52051  0.47806  0.21111  1.0000
  C  Sn8       1.0  0.48699  0.46032  0.26406  1.0000
  O  Te5       1.0  0.43389  0.46415  0.36056  1.0000
  O  Te6       1.0  0.52922  0.57555  0.23415  1.0000
  O  Te7       1.0  0.56850  0.53347  0.14723  1.0000
  O  Te8       1.0  0.47314  0.42206  0.27364  1.0000
  Mg  Mg3       1.0  0.57602  0.58624  0.15461  1.0000
  Mg  Mg4       1.0  0.42634  0.41133  0.35306  1.0000
  C  Sn9       1.0  0.98149  0.01699  0.30784  1.0000
  C   C125      1.0  0.51461  0.04164  0.30267  1.0000
  C  Sn10      1.0  0.04080  0.02252  0.25079  1.0000
  C  Sn11      1.0  0.02160  0.97784  0.20294  1.0000
  C   C126      1.0  0.98256  0.95322  0.20808  1.0000
  C  Sn12      1.0  0.96229  0.97231  0.25999  1.0000
  O  Te9       1.0  0.96182  0.03677  0.36011  1.0000
  O  Te10      1.0  0.57390  0.04783  0.24673  1.0000
  O  Te11      1.0  0.04131  0.95807  0.15065  1.0000
  O  Te12      1.0  0.92326  0.94703  0.26403  1.0000
  Mg  Mg5       1.0  0.09420  0.00609  0.16631  1.0000
  Mg  Mg6       1.0  0.90888  0.98872  0.34432  1.0000
  C  Sn13      1.0  0.99445  0.47317  0.82131  1.0000
  C   C127      1.0  0.96909  0.48677  0.80643  1.0000
  C  Sn14      1.0  0.97864  0.51791  0.74877  1.0000
  C  Sn15      1.0  0.01425  0.53581  0.70494  1.0000
  C   C128      1.0  0.03958  0.52221  0.71980  1.0000
  C  Sn16      1.0  0.03006  0.49107  0.77749  1.0000
  O  Te13      1.0  0.98431  0.44199  0.87923  1.0000
  O  Te14      1.0  0.95283  0.53100  0.73501  1.0000
  O  Te15      1.0  0.02438  0.56701  0.64700  1.0000
  O  Te16      1.0  0.05585  0.47797  0.79122  1.0000
  Mg  Mg7       1.0  0.97963  0.57435  0.64985  1.0000
  Mg  Mg8       1.0  0.02907  0.43460  0.87626  1.0000
  C  Sn17      1.0  0.52043  0.52949  0.68936  1.0000
  C   C129      1.0  0.48112  0.51517  0.69187  1.0000
  C  Sn18      1.0  0.46081  0.48329  0.74397  1.0000
  C  Sn19      1.0  0.48022  0.46536  0.79475  1.0000
  C   C130      1.0  0.51952  0.47967  0.79226  1.0000
  C  Sn20      1.0  0.53984  0.51155  0.74014  1.0000
  O  Te17      1.0  0.54016  0.56139  0.63682  1.0000
  O  Te18      1.0  0.42151  0.46950  0.74535  1.0000
  O  Te19      1.0  0.46046  0.43342  0.84731  1.0000
  O  Te20      1.0  0.57912  0.52535  0.73878  1.0000
  Mg  Mg9       1.0  0.40719  0.42529  0.82732  1.0000
  Mg  Mg10      1.0  0.59348  0.56957  0.65694  1.0000
  C  Sn21      1.0  0.53562  0.99631  0.80660  1.0000
  C   C131      1.0  0.49562  0.97066  0.80173  1.0000
  C  Sn22      1.0  0.46633  0.97787  0.75084  1.0000
  C  Sn23      1.0  0.47722  0.01141  0.70370  1.0000
  C   C132      1.0  0.51719  0.03703  0.70854  1.0000
  C  Sn24      1.0  0.54651  0.02985  0.75946  1.0000
  O  Te21      1.0  0.56441  0.98852  0.85788  1.0000
  O  Te22      1.0  0.42654  0.95181  0.74706  1.0000
  O  Te23      1.0  0.44839  0.01919  0.65240  1.0000
  O  Te24      1.0  0.58627  0.05588  0.76322  1.0000
  Mg  Mg11      1.0  0.39818  0.97503  0.66809  1.0000
  Mg  Mg12      1.0  0.61465  0.03267  0.84206  1.0000
