data_image0
_chemical_formula_structural       CNC2NC2NC2NC2NC2NC3H3C2H2C2HC2H3C2HC2H3C2H2C4H2C2H3C2H2C2H2C4HC2H3C2H2C2HC2H3C2H2C4H6CNCNC2NC2NCNC2NCHC2HC2H3C2HC2H3C2H3C2H2C2HC2H3C2HC2H3C2H2C4H6SnCSn2CSnTe4Mg2SnCSn2CSnTe4Mg2SnCSn2CSnTe4Mg2SnCSn2CSnTe4Mg2SnCSn2CSnTe4Mg2SnCSn2CSnTe4Mg2SnCSn2CSnTe4Mg2SnCSn2CSnTe4Mg2SnCSn2CSnTe4Mg2
_chemical_formula_sum              "C108 N12 H72 Sn36 Te36 Mg18"
_cell_length_a       36.6976
_cell_length_b       36.2752
_cell_length_c       7.86936
_cell_angle_alpha    96.3855
_cell_angle_beta     98.977
_cell_angle_gamma    118.914

_symmetry_space_group_name_H-M    'P1'
_space_group_IT_number       1

loop_
  _space_group_symop_operation_xyz
  'x, y, z'

loop_
  _atom_site_type_symbol
  _atom_site_label
  _atom_site_symmetry_multiplicity
  _atom_site_fract_x
  _atom_site_fract_y
  _atom_site_fract_z
  _atom_site_occupancy
  C   C1        1.0  0.54056  0.10536  0.42131  1.0000
  N   N1        1.0  0.56511  0.08472  0.47021  1.0000
  C   C2        1.0  0.54553  0.03987  0.41029  1.0000
  C   C3        1.0  0.88228  0.41573  0.38616  1.0000
  N   N2        1.0  0.90550  0.44743  0.28830  1.0000
  C   C4        1.0  0.94815  0.45962  0.28334  1.0000
  C   C5        1.0  0.57493  0.45492  0.18948  1.0000
  N   N3        1.0  0.53379  0.44086  0.23500  1.0000
  C   C6        1.0  0.51785  0.46886  0.26426  1.0000
  C   C7        1.0  0.46691  0.88012  0.43314  1.0000
  N   N4        1.0  0.46628  0.90426  0.29914  1.0000
  C   C8        1.0  0.49693  0.94860  0.32521  1.0000
  C   C9        1.0  0.10722  0.56259  0.40967  1.0000
  N   N5        1.0  0.08255  0.51573  0.34718  1.0000
  C   C10       1.0  0.03727  0.49517  0.31246  1.0000
  C   C11       1.0  0.42119  0.53304  0.35007  1.0000
  N   N6        1.0  0.45841  0.54475  0.27735  1.0000
  C   C12       1.0  0.47724  0.51845  0.27605  1.0000
  C   C13       1.0  0.55560  0.01563  0.51488  1.0000
  C   C14       1.0  0.53198  0.97070  0.47196  1.0000
  H   H1        1.0  0.58021  0.03210  0.63772  1.0000
  H   H2        1.0  0.53952  0.95290  0.55956  1.0000
  H   H3        1.0  0.39974  0.49781  0.32103  1.0000
  C   C15       1.0  0.39611  0.81706  0.24017  1.0000
  C   C16       1.0  0.36574  0.77295  0.19547  1.0000
  H   H4        1.0  0.38815  0.83946  0.18750  1.0000
  H   H5        1.0  0.33490  0.76127  0.10520  1.0000
  C   C17       1.0  0.27121  0.63721  0.22332  1.0000
  C   C18       1.0  0.28717  0.60892  0.20790  1.0000
  H   H6        1.0  0.28851  0.70416  0.25548  1.0000
  C   C19       1.0  0.97023  0.49168  0.19284  1.0000
  C   C20       1.0  0.01409  0.50930  0.20692  1.0000
  H   H7        1.0  0.95304  0.50368  0.11304  1.0000
  H   H8        1.0  0.03028  0.53475  0.13810  1.0000
  H   H9        1.0  0.49877  0.88409  0.48090  1.0000
  C   C21       1.0  0.33032  0.62381  0.20741  1.0000
  C   C22       1.0  0.35722  0.66795  0.21892  1.0000
  H   H10       1.0  0.26566  0.57493  0.20232  1.0000
  C   C23       1.0  0.47863  0.45341  0.31315  1.0000
  C   C24       1.0  0.45878  0.47780  0.31948  1.0000
  H   H11       1.0  0.46316  0.42170  0.34482  1.0000
  H   H12       1.0  0.42876  0.46471  0.36024  1.0000
  H   H13       1.0  0.08538  0.57435  0.36990  1.0000
  C   C25       1.0  0.44560  0.80298  0.41835  1.0000
  C   C26       1.0  0.41527  0.75928  0.37603  1.0000
  H   H14       1.0  0.47645  0.81456  0.50816  1.0000
  H   H15       1.0  0.42241  0.73698  0.43421  1.0000
  C   C27       1.0  0.34269  0.69704  0.23572  1.0000
  C   C28       1.0  0.43597  0.83276  0.35695  1.0000
  C   C29       1.0  0.37439  0.74349  0.26649  1.0000
  C   C30       1.0  0.29958  0.68140  0.23756  1.0000
  H   H16       1.0  0.39078  0.68055  0.21982  1.0000
  H   H17       1.0  0.52804  0.42005  0.31768  1.0000
  C   C31       1.0  0.48983  0.97267  0.21056  1.0000
  C   C32       1.0  0.51435  0.01751  0.25006  1.0000
  H   H18       1.0  0.46336  0.95616  0.09354  1.0000
  H   H19       1.0  0.50734  0.03502  0.15964  1.0000
  H   H20       1.0  0.60035  0.48528  0.27967  1.0000
  C   C33       1.0  0.60734  0.16652  0.37492  1.0000
  C   C34       1.0  0.62808  0.20508  0.32124  1.0000
  H   H21       1.0  0.62538  0.15719  0.46520  1.0000
  H   H22       1.0  0.66236  0.22673  0.37501  1.0000
  C   C35       1.0  0.81072  0.35006  0.34306  1.0000
  C   C36       1.0  0.76626  0.32893  0.30265  1.0000
  H   H23       1.0  0.82710  0.33648  0.41697  1.0000
  H   H24       1.0  0.74842  0.29940  0.34785  1.0000
  C   C37       1.0  0.69761  0.32680  0.19670  1.0000
  C   C38       1.0  0.83498  0.39037  0.30247  1.0000
  C   C39       1.0  0.74418  0.34669  0.21485  1.0000
  C   C40       1.0  0.67856  0.35216  0.20459  1.0000
  H   H25       1.0  0.68605  0.26227  0.17826  1.0000
  C   C41       1.0  0.01440  0.46033  0.38813  1.0000
  C   C42       1.0  0.97073  0.44302  0.37540  1.0000
  H   H26       1.0  0.03169  0.44867  0.46934  1.0000
  H   H27       1.0  0.95518  0.41792  0.44632  1.0000
  H   H28       1.0  0.50897  0.08066  0.33846  1.0000
  C   C43       1.0  0.81305  0.40661  0.20368  1.0000
  C   C44       1.0  0.76831  0.38496  0.15952  1.0000
  H   H29       1.0  0.83045  0.43724  0.16509  1.0000
  H   H30       1.0  0.75194  0.39819  0.08311  1.0000
  C   C45       1.0  0.63487  0.33383  0.20086  1.0000
  C   C46       1.0  0.60982  0.28927  0.18971  1.0000
  H   H31       1.0  0.69805  0.38676  0.21622  1.0000
  C   C47       1.0  0.51735  0.53465  0.23575  1.0000
  C   C48       1.0  0.53760  0.51059  0.23203  1.0000
  H   H32       1.0  0.53275  0.56645  0.20467  1.0000
  H   H33       1.0  0.56841  0.52426  0.19787  1.0000
  H   H34       1.0  0.89330  0.39247  0.39080  1.0000
  C   C49       1.0  0.53991  0.15118  0.19740  1.0000
  C   C50       1.0  0.56101  0.18993  0.14068  1.0000
  H   H35       1.0  0.50523  0.13036  0.15007  1.0000
  H   H36       1.0  0.54294  0.19856  0.04659  1.0000
  C   C51       1.0  0.62840  0.26337  0.18671  1.0000
  C   C52       1.0  0.56252  0.14022  0.32263  1.0000
  C   C53       1.0  0.60518  0.21857  0.20962  1.0000
  C   C54       1.0  0.67192  0.28253  0.18631  1.0000
  H   H37       1.0  0.57638  0.27520  0.19522  1.0000
  H   H38       1.0  0.45614  0.55452  0.16184  1.0000
  H   H39       1.0  0.57731  0.09313  0.60344  1.0000
  H   H40       1.0  0.88726  0.44415  0.16976  1.0000
  H   H41       1.0  0.45798  0.88689  0.17395  1.0000
  H   H42       1.0  0.09263  0.50205  0.43555  1.0000
  C   C55       1.0  0.53111  0.12541  0.59515  1.0000
  N   N7        1.0  0.53260  0.10303  0.73551  1.0000
  C   C56       1.0  0.89174  0.43786  0.59923  1.0000
  N   N8        1.0  0.92039  0.48446  0.64330  1.0000
  C   C57       1.0  0.96531  0.50220  0.68096  1.0000
  C   C58       1.0  0.57376  0.46566  0.99406  1.0000
  N   N9        1.0  0.52972  0.44778  0.89438  1.0000
  C   C59       1.0  0.51783  0.47579  0.82599  1.0000
  C   C60       1.0  0.45657  0.89737  0.61260  1.0000
  N   N10       1.0  0.43397  0.92057  0.57601  1.0000
  C   C61       1.0  0.12215  0.57742  0.62516  1.0000
  N   N11       1.0  0.09637  0.54334  0.71126  1.0000
  C   C62       1.0  0.05455  0.53398  0.72026  1.0000
  C   C63       1.0  0.43610  0.54724  0.56609  1.0000
  N   N12       1.0  0.48101  0.56089  0.63339  1.0000
  C   C64       1.0  0.49276  0.53267  0.69959  1.0000
  H   H43       1.0  0.41680  0.51772  0.61058  1.0000
  C   C65       1.0  0.30627  0.66125  0.76948  1.0000
  C   C66       1.0  0.32923  0.63993  0.75853  1.0000
  H   H44       1.0  0.31022  0.72273  0.77968  1.0000
  C   C67       1.0  0.99087  0.53817  0.61561  1.0000
  C   C68       1.0  0.03457  0.55380  0.63485  1.0000
  H   H45       1.0  0.97591  0.55272  0.53978  1.0000
  H   H46       1.0  0.05258  0.58061  0.57538  1.0000
  H   H47       1.0  0.48796  0.92015  0.70171  1.0000
  C   C69       1.0  0.37286  0.66160  0.75798  1.0000
  C   C70       1.0  0.39395  0.70660  0.77216  1.0000
  H   H48       1.0  0.31245  0.60529  0.74811  1.0000
  C   C71       1.0  0.47896  0.47268  0.84270  1.0000
  C   C72       1.0  0.46670  0.50063  0.78202  1.0000
  H   H49       1.0  0.45896  0.44914  0.91183  1.0000
  H   H50       1.0  0.43705  0.49790  0.80438  1.0000
  H   H51       1.0  0.11773  0.60517  0.65586  1.0000
  C   C73       1.0  0.37164  0.72906  0.77965  1.0000
  C   C74       1.0  0.32791  0.70585  0.77806  1.0000
  H   H52       1.0  0.42778  0.72440  0.77178  1.0000
  H   H53       1.0  0.50905  0.42983  0.96492  1.0000
  H   H54       1.0  0.59026  0.50106  0.01571  1.0000
  C   C75       1.0  0.60342  0.19239  0.75929  1.0000
  C   C76       1.0  0.63281  0.23638  0.77980  1.0000
  H   H55       1.0  0.61352  0.17253  0.82253  1.0000
  H   H56       1.0  0.66504  0.25035  0.86153  1.0000
  C   C77       1.0  0.72088  0.37201  0.72346  1.0000
  C   C78       1.0  0.70353  0.39888  0.74481  1.0000
  H   H57       1.0  0.70709  0.30621  0.69044  1.0000
  C   C79       1.0  0.02999  0.50124  0.80362  1.0000
  C   C80       1.0  0.98627  0.48567  0.78482  1.0000
  H   H58       1.0  0.04488  0.48694  0.88170  1.0000
  H   H59       1.0  0.96843  0.45992  0.84970  1.0000
  H   H60       1.0  0.49890  0.12052  0.54611  1.0000
  C   C81       1.0  0.66048  0.38203  0.75000  1.0000
  C   C82       1.0  0.63478  0.33751  0.73472  1.0000
  H   H61       1.0  0.72399  0.43349  0.75850  1.0000
  C   C83       1.0  0.53212  0.53634  0.68611  1.0000
  C   C84       1.0  0.54435  0.50823  0.74645  1.0000
  H   H62       1.0  0.55269  0.56067  0.62138  1.0000
  H   H63       1.0  0.57442  0.51120  0.72872  1.0000
  H   H64       1.0  0.90809  0.42393  0.67251  1.0000
  C   C85       1.0  0.54962  0.20056  0.57964  1.0000
  C   C86       1.0  0.57879  0.24419  0.59970  1.0000
  H   H65       1.0  0.51728  0.18666  0.49842  1.0000
  H   H66       1.0  0.56904  0.26396  0.53400  1.0000
  C   C87       1.0  0.65106  0.30975  0.71593  1.0000
  C   C88       1.0  0.56166  0.17354  0.65404  1.0000
  C   C89       1.0  0.62133  0.26303  0.69861  1.0000
  C   C90       1.0  0.69434  0.32746  0.71120  1.0000
  H   H67       1.0  0.60202  0.32464  0.74811  1.0000
  H   H68       1.0  0.49917  0.57668  0.55123  1.0000
  H   H69       1.0  0.54130  0.12106  0.85991  1.0000
  H   H70       1.0  0.91142  0.49837  0.55272  1.0000
  H   H71       1.0  0.41855  0.91149  0.44586  1.0000
  H   H72       1.0  0.11421  0.54417  0.82660  1.0000
  C  Sn1       1.0  0.34083  0.53141  0.25503  1.0000
  C   C91       1.0  0.38089  0.54135  0.22608  1.0000
  C  Sn2       1.0  0.40877  0.58209  0.19909  1.0000
  C  Sn3       1.0  0.39636  0.61356  0.20119  1.0000
  C   C92       1.0  0.35633  0.60361  0.23016  1.0000
  C  Sn4       1.0  0.32843  0.56288  0.25713  1.0000
  O  Te1       1.0  0.31348  0.49047  0.28171  1.0000
  O  Te2       1.0  0.44864  0.59127  0.17035  1.0000
  O  Te3       1.0  0.42375  0.65452  0.17447  1.0000
  O  Te4       1.0  0.28858  0.55369  0.28588  1.0000
  Mg  Mg1       1.0  0.47471  0.65162  0.14074  1.0000
  Mg  Mg2       1.0  0.26249  0.49337  0.31560  1.0000
  C  Sn5       1.0  0.82003  0.44924  0.64188  1.0000
  C   C93       1.0  0.84993  0.43688  0.69492  1.0000
  C  Sn6       1.0  0.83702  0.39766  0.74658  1.0000
  C  Sn7       1.0  0.79332  0.37019  0.74509  1.0000
  C   C94       1.0  0.76345  0.38255  0.69205  1.0000
  C  Sn8       1.0  0.77633  0.42177  0.64039  1.0000
  O  Te5       1.0  0.83365  0.48859  0.59077  1.0000
  O  Te6       1.0  0.86750  0.38601  0.79914  1.0000
  O  Te7       1.0  0.77971  0.33081  0.79627  1.0000
  O  Te8       1.0  0.74587  0.43342  0.58784  1.0000
  Mg  Mg3       1.0  0.83325  0.32917  0.85702  1.0000
  Mg  Mg4       1.0  0.78009  0.49023  0.52984  1.0000
  C  Sn9       1.0  0.57667  0.40253  0.76241  1.0000
  C   C95       1.0  0.59297  0.43814  0.90107  1.0000
  C  Sn10      1.0  0.63717  0.46426  0.97121  1.0000
  C  Sn11      1.0  0.66567  0.45459  0.90123  1.0000
  C   C96       1.0  0.64936  0.41900  0.76264  1.0000
  C  Sn12      1.0  0.60517  0.39286  0.69243  1.0000
  O  Te9       1.0  0.53237  0.37686  0.69433  1.0000
  O  Te10      1.0  0.59399  0.44683  0.10986  1.0000
  O  Te11      1.0  0.71000  0.48029  0.96944  1.0000
  O  Te12      1.0  0.58963  0.35746  0.55385  1.0000
  Mg  Mg5       1.0  0.65693  0.47214  0.15800  1.0000
  Mg  Mg6       1.0  0.52670  0.33215  0.50555  1.0000
  C  Sn13      1.0  0.18035  0.63832  0.33834  1.0000
  C   C97       1.0  0.14567  0.59607  0.28093  1.0000
  C  Sn14      1.0  0.15155  0.56303  0.20761  1.0000
  C  Sn15      1.0  0.19296  0.57240  0.19141  1.0000
  C   C98       1.0  0.22761  0.61463  0.24882  1.0000
  C  Sn16      1.0  0.22176  0.64769  0.32214  1.0000
  O  Te13      1.0  0.17373  0.67085  0.41124  1.0000
  O  Te14      1.0  0.11639  0.52104  0.15110  1.0000
  O  Te15      1.0  0.19955  0.53983  0.11843  1.0000
  O  Te16      1.0  0.25689  0.68965  0.37866  1.0000
  Mg  Mg7       1.0  0.14164  0.48775  0.06070  1.0000
  Mg  Mg8       1.0  0.23168  0.72296  0.46915  1.0000
  C  Sn17      1.0  0.19945  0.56968  0.68566  1.0000
  C   C99       1.0  0.17415  0.58545  0.73982  1.0000
  C  Sn18      1.0  0.19158  0.62968  0.79962  1.0000
  C  Sn19      1.0  0.23520  0.65878  0.80530  1.0000
  C   C100      1.0  0.26047  0.64302  0.75113  1.0000
  C  Sn20      1.0  0.24307  0.59878  0.69134  1.0000
  O  Te17      1.0  0.18136  0.52533  0.62635  1.0000
  O  Te18      1.0  0.16566  0.64467  0.85313  1.0000
  O  Te19      1.0  0.25328  0.70316  0.86467  1.0000
  O  Te20      1.0  0.26896  0.58379  0.63782  1.0000
  Mg  Mg9       1.0  0.20500  0.70792  0.92346  1.0000
  Mg  Mg10      1.0  0.22965  0.52055  0.56738  1.0000
  C  Sn21      1.0  0.37367  0.79363  0.60975  1.0000
  C   C101      1.0  0.39158  0.77548  0.71744  1.0000
  C  Sn22      1.0  0.43079  0.80172  0.84060  1.0000
  C  Sn23      1.0  0.45255  0.84706  0.85655  1.0000
  C   C102      1.0  0.43463  0.86520  0.74892  1.0000
  C  Sn24      1.0  0.39542  0.83898  0.62570  1.0000
  O  Te21      1.0  0.33443  0.76678  0.48755  1.0000
  O  Te22      1.0  0.44807  0.78282  0.94676  1.0000
  O  Te23      1.0  0.49182  0.87392  0.97888  1.0000
  O  Te24      1.0  0.37814  0.85785  0.51961  1.0000
  Mg  Mg11      1.0  0.44360  0.78010  0.09370  1.0000
  Mg  Mg12      1.0  0.32389  0.80777  0.37269  1.0000
  C  Sn25      1.0  0.37783  0.56603  0.69174  1.0000
  C   C103      1.0  0.41179  0.57424  0.61265  1.0000
  C  Sn26      1.0  0.44147  0.61642  0.60646  1.0000
  C  Sn27      1.0  0.43714  0.65112  0.68096  1.0000
  C   C104      1.0  0.40321  0.64290  0.76001  1.0000
  C  Sn28      1.0  0.37351  0.60073  0.76624  1.0000
  O  Te25      1.0  0.34853  0.52361  0.69644  1.0000
  O  Te26      1.0  0.47514  0.62382  0.52664  1.0000
  O  Te27      1.0  0.46648  0.69356  0.67620  1.0000
  O  Te28      1.0  0.33986  0.59332  0.84603  1.0000
  Mg  Mg13      1.0  0.50689  0.68724  0.55309  1.0000
  Mg  Mg14      1.0  0.30810  0.52992  0.81973  1.0000
  C  Sn29      1.0  0.93017  0.02507  0.57760  1.0000
  C   C105      1.0  0.48717  0.05315  0.71850  1.0000
  C  Sn30      1.0  0.98825  0.03812  0.81663  1.0000
  C  Sn31      1.0  0.97624  0.99411  0.77296  1.0000
  C   C106      1.0  0.94133  0.96606  0.63213  1.0000
  C  Sn32      1.0  0.91816  0.98105  0.53394  1.0000
  O  Te29      1.0  0.42957  0.04079  0.48131  1.0000
  O  Te30      1.0  0.54511  0.06681  0.95694  1.0000
  O  Te31      1.0  0.99894  0.97840  0.86940  1.0000
  O  Te32      1.0  0.88339  0.95240  0.39368  1.0000
  Mg  Mg15      1.0  0.98521  0.97717  0.04865  1.0000
  Mg  Mg16      1.0  0.86250  0.98915  0.30183  1.0000
  C  Sn33      1.0  0.63283  0.40624  0.37583  1.0000
  C   C107      1.0  0.61395  0.36495  0.27035  1.0000
  C  Sn34      1.0  0.58182  0.35183  0.11749  1.0000
  C  Sn35      1.0  0.56829  0.38060  0.06898  1.0000
  C   C108      1.0  0.58716  0.42186  0.17441  1.0000
  C  Sn36      1.0  0.61929  0.43500  0.32732  1.0000
  O  Te33      1.0  0.66489  0.41866  0.52806  1.0000
  O  Te34      1.0  0.56341  0.31039  0.01418  1.0000
  O  Te35      1.0  0.59491  0.42098  0.91661  1.0000
  O  Te36      1.0  0.63770  0.47642  0.43058  1.0000
  Mg  Mg17      1.0  0.57961  0.36127  0.81894  1.0000
  Mg  Mg18      1.0  0.68023  0.47843  0.62578  1.0000
