data_image0
_chemical_formula_structural       CNCNCNCNCNCNHC2H2C2H2C2H3C2H2C2H2C2H6CNCNCNCNCNCNHC2H2C2H2C2H3C2H2C2H2C2H6C2Sn2C2HTe2HMgC2Sn2C2HTe2HMgC2Sn2C2HTe2HMgC2Sn2C2HTe2HMgC2Sn2C2HTe2HMgC2Sn2C2HTe2HMgC2Sn2C2HTe2HMgC2Sn2C2HTe2HMgC2Sn2C2HTe2HMgC2Sn2C2HTe2HMgC2Sn2C2HTe2HMgC2Sn2C2HTe2HMgC2Sn2C2HTe2HMgC2Sn2C2HTe2HMgC2Sn2C2HTe2HMgC2Sn2C2HTe2HMgC2Sn2C2HTe2HMgC2Sn2C2HTe2HMg
_chemical_formula_sum              "C108 N12 H72 Sn36 Te36 Mg18"
_cell_length_a       36.6976
_cell_length_b       36.2752
_cell_length_c       7.86936
_cell_angle_alpha    96.3855
_cell_angle_beta     98.977
_cell_angle_gamma    118.914

_symmetry_space_group_name_H-M    'P1'
_space_group_IT_number       1

loop_
  _space_group_symop_operation_xyz
  'x, y, z'

loop_
  _atom_site_type_symbol
  _atom_site_label
  _atom_site_symmetry_multiplicity
  _atom_site_fract_x
  _atom_site_fract_y
  _atom_site_fract_z
  _atom_site_occupancy
  C   C1        1.0  0.54056  0.10536  0.42131  1.0000
  N   N1        1.0  0.56511  0.08472  0.47021  1.0000
  C   C2        1.0  0.88228  0.41573  0.38616  1.0000
  N   N2        1.0  0.90550  0.44743  0.28830  1.0000
  C   C3        1.0  0.57493  0.45492  0.18948  1.0000
  N   N3        1.0  0.53379  0.44086  0.23500  1.0000
  C   C4        1.0  0.46691  0.88012  0.43314  1.0000
  N   N4        1.0  0.46628  0.90426  0.29914  1.0000
  C   C5        1.0  0.10722  0.56259  0.40967  1.0000
  N   N5        1.0  0.08255  0.51573  0.34718  1.0000
  C   C6        1.0  0.42119  0.53304  0.35007  1.0000
  N   N6        1.0  0.45841  0.54475  0.27735  1.0000
  H   H1        1.0  0.39974  0.49781  0.32103  1.0000
  C   C7        1.0  0.27121  0.63721  0.22332  1.0000
  C   C8        1.0  0.28717  0.60892  0.20790  1.0000
  H   H2        1.0  0.28851  0.70416  0.25548  1.0000
  H   H3        1.0  0.49877  0.88409  0.48090  1.0000
  C   C9        1.0  0.33032  0.62381  0.20741  1.0000
  C   C10       1.0  0.35722  0.66795  0.21892  1.0000
  H   H4        1.0  0.26566  0.57493  0.20232  1.0000
  H   H5        1.0  0.08538  0.57435  0.36990  1.0000
  C   C11       1.0  0.34269  0.69704  0.23572  1.0000
  C   C12       1.0  0.29958  0.68140  0.23756  1.0000
  H   H6        1.0  0.39078  0.68055  0.21982  1.0000
  H   H7        1.0  0.52804  0.42005  0.31768  1.0000
  H   H8        1.0  0.60035  0.48528  0.27967  1.0000
  C   C13       1.0  0.69761  0.32680  0.19670  1.0000
  C   C14       1.0  0.67856  0.35216  0.20459  1.0000
  H   H9        1.0  0.68605  0.26227  0.17826  1.0000
  H   H10       1.0  0.50897  0.08066  0.33846  1.0000
  C   C15       1.0  0.63487  0.33383  0.20086  1.0000
  C   C16       1.0  0.60982  0.28927  0.18971  1.0000
  H   H11       1.0  0.69805  0.38676  0.21622  1.0000
  H   H12       1.0  0.89330  0.39247  0.39080  1.0000
  C   C17       1.0  0.62840  0.26337  0.18671  1.0000
  C   C18       1.0  0.67192  0.28253  0.18631  1.0000
  H   H13       1.0  0.57638  0.27520  0.19522  1.0000
  H   H14       1.0  0.45614  0.55452  0.16184  1.0000
  H   H15       1.0  0.57731  0.09313  0.60344  1.0000
  H   H16       1.0  0.88726  0.44415  0.16976  1.0000
  H   H17       1.0  0.45798  0.88689  0.17395  1.0000
  H   H18       1.0  0.09263  0.50205  0.43555  1.0000
  C   C19       1.0  0.53111  0.12541  0.59515  1.0000
  N   N7        1.0  0.53260  0.10303  0.73551  1.0000
  C   C20       1.0  0.89174  0.43786  0.59923  1.0000
  N   N8        1.0  0.92039  0.48446  0.64330  1.0000
  C   C21       1.0  0.57376  0.46566  0.99406  1.0000
  N   N9        1.0  0.52972  0.44778  0.89438  1.0000
  C   C22       1.0  0.45657  0.89737  0.61260  1.0000
  N   N10       1.0  0.43397  0.92057  0.57601  1.0000
  C   C23       1.0  0.12215  0.57742  0.62516  1.0000
  N   N11       1.0  0.09637  0.54334  0.71126  1.0000
  C   C24       1.0  0.43610  0.54724  0.56609  1.0000
  N   N12       1.0  0.48101  0.56089  0.63339  1.0000
  H   H19       1.0  0.41680  0.51772  0.61058  1.0000
  C   C25       1.0  0.30627  0.66125  0.76948  1.0000
  C   C26       1.0  0.32923  0.63993  0.75853  1.0000
  H   H20       1.0  0.31022  0.72273  0.77968  1.0000
  H   H21       1.0  0.48796  0.92015  0.70171  1.0000
  C   C27       1.0  0.37286  0.66160  0.75798  1.0000
  C   C28       1.0  0.39395  0.70660  0.77216  1.0000
  H   H22       1.0  0.31245  0.60529  0.74811  1.0000
  H   H23       1.0  0.11773  0.60517  0.65586  1.0000
  C   C29       1.0  0.37164  0.72906  0.77965  1.0000
  C   C30       1.0  0.32791  0.70585  0.77806  1.0000
  H   H24       1.0  0.42778  0.72440  0.77178  1.0000
  H   H25       1.0  0.50905  0.42983  0.96492  1.0000
  H   H26       1.0  0.59026  0.50106  0.01571  1.0000
  C   C31       1.0  0.72088  0.37201  0.72346  1.0000
  C   C32       1.0  0.70353  0.39888  0.74481  1.0000
  H   H27       1.0  0.70709  0.30621  0.69044  1.0000
  H   H28       1.0  0.49890  0.12052  0.54611  1.0000
  C   C33       1.0  0.66048  0.38203  0.75000  1.0000
  C   C34       1.0  0.63478  0.33751  0.73472  1.0000
  H   H29       1.0  0.72399  0.43349  0.75850  1.0000
  H   H30       1.0  0.90809  0.42393  0.67251  1.0000
  C   C35       1.0  0.65106  0.30975  0.71593  1.0000
  C   C36       1.0  0.69434  0.32746  0.71120  1.0000
  H   H31       1.0  0.60202  0.32464  0.74811  1.0000
  H   H32       1.0  0.49917  0.57668  0.55123  1.0000
  H   H33       1.0  0.54130  0.12106  0.85991  1.0000
  H   H34       1.0  0.91142  0.49837  0.55272  1.0000
  H   H35       1.0  0.41855  0.91149  0.44586  1.0000
  H   H36       1.0  0.11421  0.54417  0.82660  1.0000
  C   C37       1.0  0.03095  0.00521  0.52819  1.0000
  C   C38       1.0  0.55081  0.03464  0.43281  1.0000
  C  Sn1       1.0  0.51986  0.02010  0.27458  1.0000
  C  Sn2       1.0  0.96854  0.97523  0.21103  1.0000
  C   C39       1.0  0.97099  0.94605  0.30749  1.0000
  C   C40       1.0  0.00209  0.96095  0.46563  1.0000
  H   H37       1.0  0.05500  0.01673  0.65060  1.0000
  O  Te1       1.0  0.51811  0.04994  0.18091  1.0000
  O  Te2       1.0  0.93727  0.95982  0.05331  1.0000
  H   H38       1.0  0.00378  0.93815  0.53951  1.0000
  Mg  Mg1       1.0  0.52852  0.06600  0.97293  1.0000
  C   C41       1.0  0.36815  0.78422  0.19519  1.0000
  C   C42       1.0  0.37253  0.74979  0.23558  1.0000
  C  Sn3       1.0  0.41007  0.75756  0.34830  1.0000
  C  Sn4       1.0  0.44380  0.80063  0.42178  1.0000
  C   C43       1.0  0.43910  0.83485  0.38066  1.0000
  C   C44       1.0  0.40140  0.82671  0.26767  1.0000
  H   H39       1.0  0.33898  0.77793  0.10785  1.0000
  O  Te3       1.0  0.41392  0.72278  0.38722  1.0000
  O  Te4       1.0  0.48166  0.80931  0.53487  1.0000
  H   H40       1.0  0.39801  0.85337  0.23651  1.0000
  Mg  Mg2       1.0  0.47171  0.75109  0.54818  1.0000
  C   C45       1.0  0.18383  0.56773  0.16324  1.0000
  C   C46       1.0  0.21645  0.61096  0.19883  1.0000
  C  Sn5       1.0  0.21400  0.64231  0.30866  1.0000
  C  Sn6       1.0  0.17820  0.63004  0.38409  1.0000
  C   C47       1.0  0.14575  0.58671  0.34776  1.0000
  C   C48       1.0  0.14852  0.55561  0.23764  1.0000
  H   H41       1.0  0.18598  0.54367  0.07811  1.0000
  O  Te5       1.0  0.24687  0.68535  0.34279  1.0000
  O  Te6       1.0  0.17496  0.66071  0.49437  1.0000
  H   H42       1.0  0.12327  0.52214  0.21020  1.0000
  Mg  Mg3       1.0  0.22789  0.71530  0.50135  1.0000
  C   C49       1.0  0.00376  0.50833  0.18497  1.0000
  C   C50       1.0  0.03282  0.50045  0.28797  1.0000
  C  Sn7       1.0  0.01838  0.46847  0.38590  1.0000
  C  Sn8       1.0  0.97400  0.44398  0.38029  1.0000
  C   C51       1.0  0.94518  0.45209  0.27674  1.0000
  C   C52       1.0  0.95998  0.48418  0.17931  1.0000
  H   H43       1.0  0.01520  0.53314  0.10950  1.0000
  O  Te7       1.0  0.04785  0.46103  0.48817  1.0000
  O  Te8       1.0  0.95870  0.41182  0.47682  1.0000
  H   H44       1.0  0.93747  0.49025  0.09948  1.0000
  Mg  Mg4       1.0  0.01140  0.41372  0.59652  1.0000
  C   C53       1.0  0.34471  0.53785  0.31265  1.0000
  C   C54       1.0  0.38253  0.54451  0.26814  1.0000
  C  Sn9       1.0  0.40595  0.57962  0.19494  1.0000
  C  Sn10      1.0  0.39117  0.60855  0.16596  1.0000
  C   C55       1.0  0.35331  0.60163  0.21105  1.0000
  C   C56       1.0  0.33012  0.56638  0.28417  1.0000
  H   H45       1.0  0.32678  0.51059  0.36931  1.0000
  O  Te9       1.0  0.44365  0.58579  0.15117  1.0000
  O  Te10      1.0  0.41396  0.64392  0.09305  1.0000
  H   H46       1.0  0.30086  0.56125  0.31872  1.0000
  Mg  Mg5       1.0  0.46349  0.63866  0.05516  1.0000
  C   C57       1.0  0.47002  0.45494  0.32665  1.0000
  C   C58       1.0  0.50690  0.46326  0.26918  1.0000
  C  Sn11      1.0  0.53168  0.50254  0.22326  1.0000
  C  Sn12      1.0  0.51925  0.53401  0.23527  1.0000
  C   C59       1.0  0.48232  0.52538  0.29304  1.0000
  C   C60       1.0  0.45774  0.48596  0.33861  1.0000
  H   H47       1.0  0.45102  0.42445  0.36201  1.0000
  O  Te11      1.0  0.56842  0.51033  0.16603  1.0000
  O  Te12      1.0  0.54344  0.57354  0.19026  1.0000
  H   H48       1.0  0.42921  0.47953  0.38321  1.0000
  Mg  Mg6       1.0  0.59086  0.56907  0.11948  1.0000
  C   C61       1.0  0.55086  0.17945  0.13590  1.0000
  C   C62       1.0  0.59404  0.21196  0.18906  1.0000
  C  Sn13      1.0  0.62317  0.20688  0.30666  1.0000
  C  Sn14      1.0  0.60870  0.16851  0.37197  1.0000
  C   C63       1.0  0.56545  0.13617  0.31788  1.0000
  C   C64       1.0  0.53657  0.14158  0.20020  1.0000
  H   H49       1.0  0.52852  0.18363  0.04477  1.0000
  O  Te13      1.0  0.66619  0.23969  0.35846  1.0000
  O  Te14      1.0  0.63713  0.16260  0.48958  1.0000
  H   H50       1.0  0.50315  0.11640  0.15897  1.0000
  Mg  Mg7       1.0  0.69263  0.21656  0.52121  1.0000
  C   C65       1.0  0.77868  0.39511  0.16294  1.0000
  C   C66       1.0  0.74936  0.35424  0.18426  1.0000
  C  Sn15      1.0  0.76372  0.33101  0.27571  1.0000
  C  Sn16      1.0  0.80827  0.34911  0.34702  1.0000
  C   C67       1.0  0.83735  0.39003  0.32508  1.0000
  C   C68       1.0  0.82263  0.41300  0.23329  1.0000
  H   H51       1.0  0.76729  0.41289  0.09200  1.0000
  O  Te15      1.0  0.73399  0.29021  0.29574  1.0000
  O  Te16      1.0  0.82350  0.32660  0.43906  1.0000
  H   H52       1.0  0.84534  0.44465  0.21690  1.0000
  Mg  Mg8       1.0  0.77043  0.27209  0.43163  1.0000
  C   C69       1.0  0.56794  0.35236  0.08951  1.0000
  C   C70       1.0  0.60664  0.35843  0.18432  1.0000
  C  Sn17      1.0  0.63563  0.39701  0.30609  1.0000
  C  Sn18      1.0  0.62559  0.43005  0.33318  1.0000
  C   C71       1.0  0.58677  0.42366  0.23776  1.0000
  C   C72       1.0  0.55800  0.38494  0.11620  1.0000
  H   H53       1.0  0.60439  0.37525  0.99552  1.0000
  O  Te17      1.0  0.67416  0.40254  0.39965  1.0000
  O  Te18      1.0  0.65398  0.46891  0.45412  1.0000
  H   H54       1.0  0.52803  0.38024  0.04290  1.0000
  Mg  Mg9       1.0  0.70245  0.46119  0.54985  1.0000
  C   C73       1.0  0.49852  0.99958  0.81081  1.0000
  C   C74       1.0  0.46082  0.97106  0.68238  1.0000
  C  Sn19      1.0  0.44371  0.98653  0.55706  1.0000
  C  Sn20      1.0  0.98688  0.03139  0.56068  1.0000
  C   C75       1.0  0.02460  0.05965  0.68963  1.0000
  C   C76       1.0  0.04143  0.04383  0.81444  1.0000
  H   H55       1.0  0.51156  0.98734  0.90733  1.0000
  O  Te19      1.0  0.40600  0.95759  0.42970  1.0000
  O  Te20      1.0  0.97049  0.04771  0.43696  1.0000
  H   H56       1.0  0.07064  0.06592  0.91379  1.0000
  Mg  Mg10      1.0  0.39619  0.99542  0.28938  1.0000
  C   C77       1.0  0.45592  0.83957  0.84507  1.0000
  C   C78       1.0  0.44003  0.85656  0.72258  1.0000
  C  Sn21      1.0  0.39701  0.83308  0.62991  1.0000
  C  Sn22      1.0  0.36946  0.79185  0.66077  1.0000
  C   C79       1.0  0.38566  0.77516  0.78368  1.0000
  C   C80       1.0  0.42877  0.79892  0.87563  1.0000
  H   H57       1.0  0.48927  0.85796  0.91629  1.0000
  O  Te21      1.0  0.38167  0.85053  0.50795  1.0000
  O  Te22      1.0  0.32633  0.76771  0.57003  1.0000
  H   H58       1.0  0.44105  0.78577  0.97055  1.0000
  Mg  Mg11      1.0  0.32046  0.80527  0.41700  1.0000
  C   C81       1.0  0.22350  0.58308  0.65547  1.0000
  C   C82       1.0  0.25402  0.62600  0.73611  1.0000
  C  Sn23      1.0  0.24148  0.65318  0.81403  1.0000
  C  Sn24      1.0  0.19756  0.63700  0.81102  1.0000
  C   C83       1.0  0.16728  0.59401  0.73013  1.0000
  C   C84       1.0  0.18018  0.56709  0.65250  1.0000
  H   H59       1.0  0.23348  0.56225  0.59549  1.0000
  O  Te23      1.0  0.27238  0.69598  0.89397  1.0000
  O  Te24      1.0  0.18415  0.66346  0.88796  1.0000
  H   H60       1.0  0.15655  0.53386  0.59018  1.0000
  Mg  Mg12      1.0  0.23829  0.71943  0.98088  1.0000
  C   C85       1.0  0.00146  0.54675  0.61047  1.0000
  C   C86       1.0  0.97094  0.51111  0.66242  1.0000
  C  Sn25      1.0  0.98354  0.48776  0.76149  1.0000
  C  Sn26      1.0  0.02752  0.50041  0.80928  1.0000
  C   C87       1.0  0.05780  0.53613  0.75677  1.0000
  C   C88       1.0  0.04485  0.55926  0.65761  1.0000
  H   H61       1.0  0.99144  0.56466  0.53384  1.0000
  O  Te25      1.0  0.95264  0.45222  0.81224  1.0000
  O  Te26      1.0  0.04100  0.47765  0.90830  1.0000
  H   H62       1.0  0.06848  0.58687  0.61751  1.0000
  Mg  Mg13      1.0  0.98682  0.43151  0.94611  1.0000
  C   C89       1.0  0.43761  0.64797  0.64027  1.0000
  C   C90       1.0  0.40170  0.63927  0.70618  1.0000
  C  Sn27      1.0  0.37808  0.59986  0.75321  1.0000
  C  Sn28      1.0  0.39072  0.56864  0.73379  1.0000
  C   C91       1.0  0.42671  0.57766  0.66784  1.0000
  C   C92       1.0  0.45011  0.61720  0.62113  1.0000
  H   H63       1.0  0.45573  0.67857  0.60422  1.0000
  O  Te27      1.0  0.34227  0.59169  0.81879  1.0000
  O  Te28      1.0  0.36770  0.52899  0.77983  1.0000
  H   H64       1.0  0.47793  0.62394  0.57021  1.0000
  Mg  Mg14      1.0  0.32125  0.53292  0.86328  1.0000
  C   C93       1.0  0.54065  0.53349  0.69588  1.0000
  C   C94       1.0  0.50247  0.53359  0.69109  1.0000
  C  Sn29      1.0  0.47135  0.50466  0.76671  1.0000
  C  Sn30      1.0  0.47867  0.47513  0.84859  1.0000
  C   C95       1.0  0.51699  0.47530  0.85279  1.0000
  C   C96       1.0  0.54791  0.50438  0.77667  1.0000
  H   H65       1.0  0.56459  0.55600  0.63707  1.0000
  O  Te29      1.0  0.43338  0.50519  0.76070  1.0000
  O  Te30      1.0  0.44811  0.44588  0.92524  1.0000
  H   H66       1.0  0.57748  0.50431  0.78050  1.0000
  Mg  Mg15      1.0  0.40144  0.45905  0.88344  1.0000
  C   C97       1.0  0.63019  0.22596  0.79320  1.0000
  C   C98       1.0  0.62549  0.25665  0.71504  1.0000
  C  Sn31      1.0  0.58608  0.24555  0.60717  1.0000
  C  Sn32      1.0  0.55077  0.20290  0.57729  1.0000
  C   C99       1.0  0.55580  0.17243  0.65619  1.0000
  C   C100      1.0  0.59538  0.18389  0.76385  1.0000
  H   H67       1.0  0.66081  0.23482  0.87657  1.0000
  O  Te31      1.0  0.58194  0.27661  0.53006  1.0000
  O  Te32      1.0  0.51102  0.19093  0.47012  1.0000
  H   H68       1.0  0.59900  0.16012  0.82444  1.0000
  Mg  Mg16      1.0  0.52131  0.24471  0.39438  1.0000
  C   C101      1.0  0.79253  0.43393  0.60892  1.0000
  C   C102      1.0  0.76924  0.39865  0.68158  1.0000
  C  Sn33      1.0  0.78867  0.37739  0.75633  1.0000
  C  Sn34      1.0  0.83225  0.39179  0.75824  1.0000
  C   C103      1.0  0.85529  0.42713  0.68532  1.0000
  C   C104      1.0  0.83552  0.44817  0.61081  1.0000
  H   H69       1.0  0.77725  0.45023  0.55135  1.0000
  O  Te33      1.0  0.76493  0.34218  0.82829  1.0000
  O  Te34      1.0  0.85247  0.37113  0.83216  1.0000
  H   H70       1.0  0.85357  0.47550  0.55467  1.0000
  Mg  Mg17      1.0  0.80667  0.32462  0.91384  1.0000
  C   C105      1.0  0.57884  0.40917  0.71653  1.0000
  C   C106      1.0  0.59295  0.44182  0.86540  1.0000
  C  Sn35      1.0  0.63481  0.46137  0.96869  1.0000
  C  Sn36      1.0  0.66300  0.44791  0.92170  1.0000
  C   C107      1.0  0.64859  0.41523  0.77244  1.0000
  C   C108      1.0  0.60663  0.39588  0.67004  1.0000
  H   H71       1.0  0.54639  0.39421  0.63724  1.0000
  O  Te35      1.0  0.58965  0.44109  0.11704  1.0000
  O  Te36      1.0  0.64628  0.41405  0.02256  1.0000
  H   H72       1.0  0.59573  0.37062  0.55472  1.0000
  Mg  Mg18      1.0  0.64983  0.45713  0.21273  1.0000
