data_image0
_chemical_formula_structural       CNCNCNCNCNCNHC2H2C2H2C2H3C2H2C2H2C2H6CNCNCNCNCNCNHC2H2C2H2C2H3C2H2C2H2C2H6SnCSn2CSnTe4Mg2SnCSn2CSnTe4Mg2SnCSn2CSnTe4Mg2SnCSn2CSnTe4Mg2SnCSn2CSnTe4Mg2SnCSn2CSnTe4Mg2SnCSn2CSnTe4Mg2SnCSn2CSnTe4Mg2SnCSn2CSnTe4Mg2SnCSn2CSnTe4Mg2SnCSn2CSnTe4Mg2SnCSn2CSnTe4Mg2SnCSn2CSnTe4Mg2SnCSn2CSnTe4Mg2SnCSn2CSnTe4Mg2SnCSn2CSnTe4Mg2SnCSn2CSnTe4Mg2SnCSn2CSnTe4Mg2
_chemical_formula_sum              "C72 N12 H36 Sn72 Te72 Mg36"
_cell_length_a       36.6976
_cell_length_b       36.2752
_cell_length_c       7.86936
_cell_angle_alpha    96.3855
_cell_angle_beta     98.977
_cell_angle_gamma    118.914

_symmetry_space_group_name_H-M    'P1'
_space_group_IT_number       1

loop_
  _space_group_symop_operation_xyz
  'x, y, z'

loop_
  _atom_site_type_symbol
  _atom_site_label
  _atom_site_symmetry_multiplicity
  _atom_site_fract_x
  _atom_site_fract_y
  _atom_site_fract_z
  _atom_site_occupancy
  C   C1        1.0  0.54056  0.10536  0.42131  1.0000
  N   N1        1.0  0.56511  0.08472  0.47021  1.0000
  C   C2        1.0  0.88228  0.41573  0.38616  1.0000
  N   N2        1.0  0.90550  0.44743  0.28830  1.0000
  C   C3        1.0  0.57493  0.45492  0.18948  1.0000
  N   N3        1.0  0.53379  0.44086  0.23500  1.0000
  C   C4        1.0  0.46691  0.88012  0.43314  1.0000
  N   N4        1.0  0.46628  0.90426  0.29914  1.0000
  C   C5        1.0  0.10722  0.56259  0.40967  1.0000
  N   N5        1.0  0.08255  0.51573  0.34718  1.0000
  C   C6        1.0  0.42119  0.53304  0.35007  1.0000
  N   N6        1.0  0.45841  0.54475  0.27735  1.0000
  H   H1        1.0  0.39974  0.49781  0.32103  1.0000
  C   C7        1.0  0.27121  0.63721  0.22332  1.0000
  C   C8        1.0  0.28717  0.60892  0.20790  1.0000
  H   H2        1.0  0.28851  0.70416  0.25548  1.0000
  H   H3        1.0  0.49877  0.88409  0.48090  1.0000
  C   C9        1.0  0.33032  0.62381  0.20741  1.0000
  C   C10       1.0  0.35722  0.66795  0.21892  1.0000
  H   H4        1.0  0.26566  0.57493  0.20232  1.0000
  H   H5        1.0  0.08538  0.57435  0.36990  1.0000
  C   C11       1.0  0.34269  0.69704  0.23572  1.0000
  C   C12       1.0  0.29958  0.68140  0.23756  1.0000
  H   H6        1.0  0.39078  0.68055  0.21982  1.0000
  H   H7        1.0  0.52804  0.42005  0.31768  1.0000
  H   H8        1.0  0.60035  0.48528  0.27967  1.0000
  C   C13       1.0  0.69761  0.32680  0.19670  1.0000
  C   C14       1.0  0.67856  0.35216  0.20459  1.0000
  H   H9        1.0  0.68605  0.26227  0.17826  1.0000
  H   H10       1.0  0.50897  0.08066  0.33846  1.0000
  C   C15       1.0  0.63487  0.33383  0.20086  1.0000
  C   C16       1.0  0.60982  0.28927  0.18971  1.0000
  H   H11       1.0  0.69805  0.38676  0.21622  1.0000
  H   H12       1.0  0.89330  0.39247  0.39080  1.0000
  C   C17       1.0  0.62840  0.26337  0.18671  1.0000
  C   C18       1.0  0.67192  0.28253  0.18631  1.0000
  H   H13       1.0  0.57638  0.27520  0.19522  1.0000
  H   H14       1.0  0.45614  0.55452  0.16184  1.0000
  H   H15       1.0  0.57731  0.09313  0.60344  1.0000
  H   H16       1.0  0.88726  0.44415  0.16976  1.0000
  H   H17       1.0  0.45798  0.88689  0.17395  1.0000
  H   H18       1.0  0.09263  0.50205  0.43555  1.0000
  C   C19       1.0  0.53111  0.12541  0.59515  1.0000
  N   N7        1.0  0.53260  0.10303  0.73551  1.0000
  C   C20       1.0  0.89174  0.43786  0.59923  1.0000
  N   N8        1.0  0.92039  0.48446  0.64330  1.0000
  C   C21       1.0  0.57376  0.46566  0.99406  1.0000
  N   N9        1.0  0.52972  0.44778  0.89438  1.0000
  C   C22       1.0  0.45657  0.89737  0.61260  1.0000
  N   N10       1.0  0.43397  0.92057  0.57601  1.0000
  C   C23       1.0  0.12215  0.57742  0.62516  1.0000
  N   N11       1.0  0.09637  0.54334  0.71126  1.0000
  C   C24       1.0  0.43610  0.54724  0.56609  1.0000
  N   N12       1.0  0.48101  0.56089  0.63339  1.0000
  H   H19       1.0  0.41680  0.51772  0.61058  1.0000
  C   C25       1.0  0.30627  0.66125  0.76948  1.0000
  C   C26       1.0  0.32923  0.63993  0.75853  1.0000
  H   H20       1.0  0.31022  0.72273  0.77968  1.0000
  H   H21       1.0  0.48796  0.92015  0.70171  1.0000
  C   C27       1.0  0.37286  0.66160  0.75798  1.0000
  C   C28       1.0  0.39395  0.70660  0.77216  1.0000
  H   H22       1.0  0.31245  0.60529  0.74811  1.0000
  H   H23       1.0  0.11773  0.60517  0.65586  1.0000
  C   C29       1.0  0.37164  0.72906  0.77965  1.0000
  C   C30       1.0  0.32791  0.70585  0.77806  1.0000
  H   H24       1.0  0.42778  0.72440  0.77178  1.0000
  H   H25       1.0  0.50905  0.42983  0.96492  1.0000
  H   H26       1.0  0.59026  0.50106  0.01571  1.0000
  C   C31       1.0  0.72088  0.37201  0.72346  1.0000
  C   C32       1.0  0.70353  0.39888  0.74481  1.0000
  H   H27       1.0  0.70709  0.30621  0.69044  1.0000
  H   H28       1.0  0.49890  0.12052  0.54611  1.0000
  C   C33       1.0  0.66048  0.38203  0.75000  1.0000
  C   C34       1.0  0.63478  0.33751  0.73472  1.0000
  H   H29       1.0  0.72399  0.43349  0.75850  1.0000
  H   H30       1.0  0.90809  0.42393  0.67251  1.0000
  C   C35       1.0  0.65106  0.30975  0.71593  1.0000
  C   C36       1.0  0.69434  0.32746  0.71120  1.0000
  H   H31       1.0  0.60202  0.32464  0.74811  1.0000
  H   H32       1.0  0.49917  0.57668  0.55123  1.0000
  H   H33       1.0  0.54130  0.12106  0.85991  1.0000
  H   H34       1.0  0.91142  0.49837  0.55272  1.0000
  H   H35       1.0  0.41855  0.91149  0.44586  1.0000
  H   H36       1.0  0.11421  0.54417  0.82660  1.0000
  C  Sn1       1.0  0.52969  0.98002  0.51763  1.0000
  C   C37       1.0  0.49762  0.95282  0.36646  1.0000
  C  Sn2       1.0  0.49162  0.96910  0.21854  1.0000
  C  Sn3       1.0  0.04033  0.01351  0.22172  1.0000
  C   C38       1.0  0.07238  0.04069  0.37280  1.0000
  C  Sn4       1.0  0.55632  0.02443  0.52081  1.0000
  O  Te1       1.0  0.53510  0.96304  0.66399  1.0000
  O  Te2       1.0  0.45934  0.94128  0.06896  1.0000
  O  Te3       1.0  0.03488  0.03048  0.07519  1.0000
  O  Te4       1.0  0.11065  0.05223  0.67031  1.0000
  Mg  Mg1       1.0  0.52322  0.03252  0.90251  1.0000
  Mg  Mg2       1.0  0.58347  0.01386  0.83678  1.0000
  C  Sn5       1.0  0.44580  0.79152  0.37516  1.0000
  C   C39       1.0  0.44200  0.82515  0.32073  1.0000
  C  Sn6       1.0  0.40172  0.81870  0.24563  1.0000
  C  Sn7       1.0  0.36445  0.77780  0.22458  1.0000
  C   C40       1.0  0.36826  0.74420  0.27902  1.0000
  C  Sn8       1.0  0.40853  0.75062  0.35411  1.0000
  O  Te5       1.0  0.48639  0.79869  0.44992  1.0000
  O  Te6       1.0  0.39873  0.85281  0.19216  1.0000
  O  Te7       1.0  0.32385  0.77065  0.14974  1.0000
  O  Te8       1.0  0.41153  0.71654  0.40758  1.0000
  Mg  Mg3       1.0  0.33631  0.82715  0.09756  1.0000
  Mg  Mg4       1.0  0.47393  0.74217  0.50228  1.0000
  C  Sn9       1.0  0.21196  0.64202  0.40011  1.0000
  C   C41       1.0  0.22713  0.62160  0.29466  1.0000
  C  Sn10      1.0  0.19860  0.58191  0.17895  1.0000
  C  Sn11      1.0  0.15398  0.56223  0.16831  1.0000
  C   C42       1.0  0.13883  0.58265  0.27369  1.0000
  C  Sn12      1.0  0.16734  0.62233  0.38948  1.0000
  O  Te9       1.0  0.24106  0.68168  0.51485  1.0000
  O  Te10      1.0  0.21453  0.56211  0.07490  1.0000
  O  Te11      1.0  0.12488  0.52253  0.05345  1.0000
  O  Te12      1.0  0.15143  0.64213  0.49346  1.0000
  Mg  Mg5       1.0  0.22086  0.56111  0.93878  1.0000
  Mg  Mg6       1.0  0.20378  0.69599  0.62954  1.0000
  C  Sn13      1.0  0.98266  0.45374  0.42870  1.0000
  C   C43       1.0  0.95464  0.46387  0.33217  1.0000
  C  Sn14      1.0  0.96669  0.48744  0.20176  1.0000
  C  Sn15      1.0  0.00759  0.50116  0.16701  1.0000
  C   C44       1.0  0.03559  0.49103  0.26348  1.0000
  C  Sn16      1.0  0.02356  0.46746  0.39395  1.0000
  O  Te13      1.0  0.96994  0.43014  0.55845  1.0000
  O  Te14      1.0  0.93813  0.49719  0.10703  1.0000
  O  Te15      1.0  0.02030  0.52478  0.03713  1.0000
  O  Te16      1.0  0.05209  0.45771  0.48862  1.0000
  Mg  Mg7       1.0  0.02887  0.58293  0.94342  1.0000
  Mg  Mg8       1.0  0.02010  0.42480  0.65219  1.0000
  C  Sn17      1.0  0.39047  0.59920  0.12108  1.0000
  C   C45       1.0  0.35075  0.58970  0.15289  1.0000
  C  Sn18      1.0  0.33287  0.56180  0.26391  1.0000
  C  Sn19      1.0  0.35517  0.54303  0.34493  1.0000
  C   C46       1.0  0.39486  0.55255  0.31313  1.0000
  C  Sn20      1.0  0.41277  0.58043  0.20210  1.0000
  O  Te17      1.0  0.40774  0.62718  0.00963  1.0000
  O  Te18      1.0  0.29312  0.55277  0.29366  1.0000
  O  Te19      1.0  0.33786  0.51504  0.45645  1.0000
  O  Te20      1.0  0.45250  0.58947  0.17236  1.0000
  Mg  Mg9       1.0  0.28284  0.51272  0.45603  1.0000
  Mg  Mg10      1.0  0.46282  0.62954  0.01010  1.0000
  C  Sn21      1.0  0.46683  0.47550  0.37235  1.0000
  C   C47       1.0  0.48068  0.51641  0.33602  1.0000
  C  Sn22      1.0  0.51293  0.53385  0.24527  1.0000
  C  Sn23      1.0  0.53172  0.50990  0.18957  1.0000
  C   C48       1.0  0.51786  0.46901  0.22588  1.0000
  C  Sn24      1.0  0.48562  0.45154  0.31665  1.0000
  O  Te21      1.0  0.43454  0.45869  0.46325  1.0000
  O  Te22      1.0  0.52625  0.57483  0.21053  1.0000
  O  Te23      1.0  0.56403  0.52674  0.09861  1.0000
  O  Te24      1.0  0.47229  0.41059  0.35137  1.0000
  Mg  Mg11      1.0  0.57126  0.58386  0.08251  1.0000
  Mg  Mg12      1.0  0.42727  0.40151  0.47929  1.0000
  C  Sn25      1.0  0.61222  0.18124  0.41248  1.0000
  C   C49       1.0  0.56892  0.14915  0.35649  1.0000
  C  Sn26      1.0  0.54287  0.14930  0.20711  1.0000
  C  Sn27      1.0  0.56047  0.18220  0.11163  1.0000
  C   C50       1.0  0.60375  0.21426  0.16761  1.0000
  C  Sn28      1.0  0.62982  0.21414  0.31700  1.0000
  O  Te25      1.0  0.63766  0.18046  0.56218  1.0000
  O  Te26      1.0  0.49967  0.11688  0.15373  1.0000
  O  Te27      1.0  0.59370  0.23581  0.96183  1.0000
  O  Te28      1.0  0.67300  0.24654  0.37037  1.0000
  Mg  Mg13      1.0  0.53673  0.18464  0.94136  1.0000
  Mg  Mg14      1.0  0.69468  0.23164  0.58265  1.0000
  C  Sn29      1.0  0.80057  0.33657  0.29481  1.0000
  C   C51       1.0  0.82932  0.37543  0.25588  1.0000
  C  Sn30      1.0  0.81569  0.40327  0.20420  1.0000
  C  Sn31      1.0  0.77242  0.39203  0.19126  1.0000
  C   C52       1.0  0.74371  0.35319  0.23020  1.0000
  C  Sn32      1.0  0.75731  0.32534  0.28187  1.0000
  O  Te29      1.0  0.81491  0.30924  0.34623  1.0000
  O  Te30      1.0  0.84501  0.44194  0.16590  1.0000
  O  Te31      1.0  0.75811  0.41940  0.13978  1.0000
  O  Te32      1.0  0.72802  0.28669  0.32018  1.0000
  Mg  Mg15      1.0  0.81014  0.46848  0.10152  1.0000
  Mg  Mg16      1.0  0.76286  0.26013  0.38467  1.0000
  C  Sn33      1.0  0.63700  0.43234  0.30122  1.0000
  C   C53       1.0  0.59903  0.42622  0.19865  1.0000
  C  Sn34      1.0  0.56575  0.38480  0.11217  1.0000
  C  Sn35      1.0  0.57052  0.34873  0.12862  1.0000
  C   C54       1.0  0.60848  0.35485  0.23115  1.0000
  C  Sn36      1.0  0.64178  0.39627  0.31767  1.0000
  O  Te33      1.0  0.66985  0.47405  0.38652  1.0000
  O  Te34      1.0  0.52809  0.37949  0.01033  1.0000
  O  Te35      1.0  0.53764  0.30700  0.04321  1.0000
  O  Te36      1.0  0.67941  0.40159  0.41948  1.0000
  Mg  Mg17      1.0  0.55119  0.36915  0.91963  1.0000
  Mg  Mg18      1.0  0.71504  0.46476  0.51031  1.0000
  C  Sn37      1.0  0.45534  0.99953  0.49692  1.0000
  C   C55       1.0  0.46144  0.97136  0.58889  1.0000
  C  Sn38      1.0  0.48614  0.98630  0.76226  1.0000
  C  Sn39      1.0  0.50512  0.03030  0.84549  1.0000
  C   C56       1.0  0.02108  0.05843  0.75355  1.0000
  C  Sn40      1.0  0.99639  0.04353  0.58016  1.0000
  O  Te37      1.0  0.43052  0.98390  0.32371  1.0000
  O  Te38      1.0  0.49180  0.95753  0.85149  1.0000
  O  Te39      1.0  0.47124  0.99307  0.01884  1.0000
  O  Te40      1.0  0.99072  0.07227  0.49095  1.0000
  Mg  Mg19      1.0  0.46961  0.94136  0.08557  1.0000
  Mg  Mg20      1.0  0.95418  0.03562  0.25692  1.0000
  C  Sn41      1.0  0.43955  0.82002  0.89600  1.0000
  C   C57       1.0  0.39671  0.78713  0.83280  1.0000
  C  Sn42      1.0  0.37096  0.78844  0.68561  1.0000
  C  Sn43      1.0  0.38839  0.82334  0.59972  1.0000
  C   C58       1.0  0.43121  0.85621  0.66289  1.0000
  C  Sn44      1.0  0.45699  0.85493  0.81011  1.0000
  O  Te41      1.0  0.40599  0.76520  0.04335  1.0000
  O  Te42      1.0  0.32821  0.75518  0.62490  1.0000
  O  Te43      1.0  0.36319  0.82530  0.45226  1.0000
  O  Te44      1.0  0.49971  0.88816  0.87080  1.0000
  Mg  Mg21      1.0  0.30682  0.77232  0.41932  1.0000
  Mg  Mg22      1.0  0.46242  0.81819  0.07630  1.0000
  C  Sn45      1.0  0.23077  0.65033  0.87894  1.0000
  C   C59       1.0  0.25602  0.63498  0.82074  1.0000
  C  Sn46      1.0  0.23765  0.59850  0.68452  1.0000
  C  Sn47      1.0  0.19311  0.57692  0.60472  1.0000
  C   C60       1.0  0.16789  0.59228  0.66289  1.0000
  C  Sn48      1.0  0.18624  0.62876  0.79914  1.0000
  O  Te45      1.0  0.19111  0.63402  0.01531  1.0000
  O  Te46      1.0  0.26354  0.58374  0.62864  1.0000
  O  Te47      1.0  0.17407  0.54036  0.46825  1.0000
  O  Te48      1.0  0.16037  0.64351  0.85500  1.0000
  Mg  Mg23      1.0  0.22271  0.53268  0.43823  1.0000
  Mg  Mg24      1.0  0.14245  0.64174  0.04532  1.0000
  C  Sn49      1.0  0.01784  0.48731  0.76220  1.0000
  C   C61       1.0  0.04725  0.52130  0.69876  1.0000
  C  Sn50      1.0  0.03707  0.55088  0.63965  1.0000
  C  Sn51      1.0  0.99666  0.54640  0.64414  1.0000
  C   C62       1.0  0.96728  0.51242  0.70758  1.0000
  C  Sn52      1.0  0.97743  0.48282  0.76668  1.0000
  O  Te49      1.0  0.02870  0.45812  0.82063  1.0000
  O  Te50      1.0  0.06700  0.58459  0.57675  1.0000
  O  Te51      1.0  0.98582  0.57562  0.58564  1.0000
  O  Te52      1.0  0.94753  0.44913  0.82958  1.0000
  Mg  Mg25      1.0  0.03732  0.61615  0.51176  1.0000
  Mg  Mg26      1.0  0.97718  0.41757  0.89468  1.0000
  C  Sn53      1.0  0.37783  0.56603  0.69174  1.0000
  C   C63       1.0  0.41179  0.57424  0.61265  1.0000
  C  Sn54      1.0  0.44147  0.61642  0.60646  1.0000
  C  Sn55      1.0  0.43714  0.65112  0.68096  1.0000
  C   C64       1.0  0.40321  0.64290  0.76001  1.0000
  C  Sn56      1.0  0.37351  0.60073  0.76624  1.0000
  O  Te53      1.0  0.34853  0.52361  0.69644  1.0000
  O  Te54      1.0  0.47514  0.62382  0.52664  1.0000
  O  Te55      1.0  0.46648  0.69356  0.67620  1.0000
  O  Te56      1.0  0.33986  0.59332  0.84603  1.0000
  Mg  Mg27      1.0  0.50689  0.68724  0.55309  1.0000
  Mg  Mg28      1.0  0.30810  0.52992  0.81973  1.0000
  C  Sn57      1.0  0.53108  0.52342  0.64759  1.0000
  C   C65       1.0  0.49467  0.52573  0.66070  1.0000
  C  Sn58      1.0  0.47021  0.50509  0.77637  1.0000
  C  Sn59      1.0  0.48242  0.48167  0.88120  1.0000
  C   C66       1.0  0.51881  0.47937  0.86809  1.0000
  C  Sn60      1.0  0.54329  0.50000  0.75243  1.0000
  O  Te57      1.0  0.55506  0.54430  0.53108  1.0000
  O  Te58      1.0  0.43393  0.50785  0.78713  1.0000
  O  Te59      1.0  0.45840  0.46078  0.99777  1.0000
  O  Te60      1.0  0.57955  0.49725  0.74166  1.0000
  Mg  Mg29      1.0  0.41166  0.47394  0.96545  1.0000
  Mg  Mg30      1.0  0.60185  0.53116  0.56346  1.0000
  C  Sn61      1.0  0.60785  0.20389  0.81440  1.0000
  C   C67       1.0  0.56559  0.17991  0.71307  1.0000
  C  Sn62      1.0  0.55065  0.19681  0.58696  1.0000
  C  Sn63      1.0  0.57855  0.23853  0.56151  1.0000
  C   C68       1.0  0.62078  0.26247  0.66278  1.0000
  C  Sn64      1.0  0.63574  0.24561  0.78895  1.0000
  O  Te61      1.0  0.62210  0.18635  0.93971  1.0000
  O  Te62      1.0  0.50827  0.17224  0.48729  1.0000
  O  Te63      1.0  0.56426  0.25605  0.43608  1.0000
  O  Te64      1.0  0.67810  0.27015  0.88855  1.0000
  Mg  Mg31      1.0  0.50384  0.21012  0.33274  1.0000
  Mg  Mg32      1.0  0.62385  0.17945  0.04307  1.0000
  C  Sn65      1.0  0.82003  0.44924  0.64188  1.0000
  C   C69       1.0  0.84993  0.43688  0.69492  1.0000
  C  Sn66      1.0  0.83702  0.39766  0.74658  1.0000
  C  Sn67      1.0  0.79332  0.37019  0.74509  1.0000
  C   C70       1.0  0.76345  0.38255  0.69205  1.0000
  C  Sn68      1.0  0.77633  0.42177  0.64039  1.0000
  O  Te65      1.0  0.83365  0.48859  0.59077  1.0000
  O  Te66      1.0  0.86750  0.38601  0.79914  1.0000
  O  Te67      1.0  0.77971  0.33081  0.79627  1.0000
  O  Te68      1.0  0.74587  0.43342  0.58784  1.0000
  Mg  Mg33      1.0  0.83325  0.32917  0.85702  1.0000
  Mg  Mg34      1.0  0.78009  0.49023  0.52984  1.0000
  C  Sn69      1.0  0.65386  0.47291  0.93925  1.0000
  C   C71       1.0  0.61164  0.46253  0.87327  1.0000
  C  Sn70      1.0  0.58180  0.42244  0.76283  1.0000
  C  Sn71      1.0  0.59442  0.39208  0.71747  1.0000
  C   C72       1.0  0.63661  0.40247  0.78345  1.0000
  C  Sn72      1.0  0.66647  0.44256  0.89388  1.0000
  O  Te69      1.0  0.62443  0.46034  0.04945  1.0000
  O  Te70      1.0  0.53978  0.41279  0.69846  1.0000
  O  Te71      1.0  0.56509  0.35178  0.60717  1.0000
  O  Te72      1.0  0.70847  0.45220  0.95826  1.0000
  Mg  Mg35      1.0  0.51158  0.35368  0.55286  1.0000
  Mg  Mg36      1.0  0.67797  0.45845  0.10394  1.0000
