data_image0
_chemical_formula_structural       CNC2NC2NC2NC2NC2NC3H3C2H2C2HC2H3C2H2C4HC2H3C2H2C2H2C4H2C2H3C2HC2H3C2H2C4HC2H3C2H2C2H6CNC2NCNCNC2NCNC2H3C2H2C2H2C2H2C2H2C4H2C2H3C2H2C2H2C4H2C2H2C2H6C2Sn2C2HTe2HMgC2Sn2C2HTe2HMgC2Sn2C2HTe2HMgC2Sn2C2HTe2HMgC2Sn2C2HTe2HMgC2Sn2C2HTe2HMgC2Sn2C2HTe2HMgC2Sn2C2HTe2HMgC2Sn2C2HTe2HMg
_chemical_formula_sum              "C126 N12 H90 Sn18 Te18 Mg9"
_cell_length_a       36.6976
_cell_length_b       36.2752
_cell_length_c       7.86936
_cell_angle_alpha    96.3855
_cell_angle_beta     98.977
_cell_angle_gamma    118.914

_symmetry_space_group_name_H-M    'P1'
_space_group_IT_number       1

loop_
  _space_group_symop_operation_xyz
  'x, y, z'

loop_
  _atom_site_type_symbol
  _atom_site_label
  _atom_site_symmetry_multiplicity
  _atom_site_fract_x
  _atom_site_fract_y
  _atom_site_fract_z
  _atom_site_occupancy
  C   C1        1.0  0.54056  0.10536  0.42131  1.0000
  N   N1        1.0  0.56511  0.08472  0.47021  1.0000
  C   C2        1.0  0.54553  0.03987  0.41029  1.0000
  C   C3        1.0  0.88228  0.41573  0.38616  1.0000
  N   N2        1.0  0.90550  0.44743  0.28830  1.0000
  C   C4        1.0  0.94815  0.45962  0.28334  1.0000
  C   C5        1.0  0.57493  0.45492  0.18948  1.0000
  N   N3        1.0  0.53379  0.44086  0.23500  1.0000
  C   C6        1.0  0.51785  0.46886  0.26426  1.0000
  C   C7        1.0  0.46691  0.88012  0.43314  1.0000
  N   N4        1.0  0.46628  0.90426  0.29914  1.0000
  C   C8        1.0  0.49693  0.94860  0.32521  1.0000
  C   C9        1.0  0.10722  0.56259  0.40967  1.0000
  N   N5        1.0  0.08255  0.51573  0.34718  1.0000
  C   C10       1.0  0.03727  0.49517  0.31246  1.0000
  C   C11       1.0  0.42119  0.53304  0.35007  1.0000
  N   N6        1.0  0.45841  0.54475  0.27735  1.0000
  C   C12       1.0  0.47724  0.51845  0.27605  1.0000
  C   C13       1.0  0.55560  0.01563  0.51488  1.0000
  C   C14       1.0  0.53198  0.97070  0.47196  1.0000
  H   H1        1.0  0.58021  0.03210  0.63772  1.0000
  H   H2        1.0  0.53952  0.95290  0.55956  1.0000
  H   H3        1.0  0.39974  0.49781  0.32103  1.0000
  C   C15       1.0  0.39611  0.81706  0.24017  1.0000
  C   C16       1.0  0.36574  0.77295  0.19547  1.0000
  H   H4        1.0  0.38815  0.83946  0.18750  1.0000
  H   H5        1.0  0.33490  0.76127  0.10520  1.0000
  C   C17       1.0  0.27121  0.63721  0.22332  1.0000
  C   C18       1.0  0.28717  0.60892  0.20790  1.0000
  H   H6        1.0  0.28851  0.70416  0.25548  1.0000
  C   C19       1.0  0.97023  0.49168  0.19284  1.0000
  C   C20       1.0  0.01409  0.50930  0.20692  1.0000
  H   H7        1.0  0.95304  0.50368  0.11304  1.0000
  H   H8        1.0  0.03028  0.53475  0.13810  1.0000
  H   H9        1.0  0.49877  0.88409  0.48090  1.0000
  C   C21       1.0  0.35375  0.53621  0.30588  1.0000
  C   C22       1.0  0.33170  0.55809  0.27630  1.0000
  H   H10       1.0  0.33974  0.50778  0.36213  1.0000
  H   H11       1.0  0.30108  0.54650  0.31154  1.0000
  C   C23       1.0  0.33032  0.62381  0.20741  1.0000
  C   C24       1.0  0.39493  0.55178  0.27623  1.0000
  C   C25       1.0  0.34964  0.59619  0.21229  1.0000
  C   C26       1.0  0.35722  0.66795  0.21892  1.0000
  H   H12       1.0  0.26566  0.57493  0.20232  1.0000
  C   C27       1.0  0.47863  0.45341  0.31315  1.0000
  C   C28       1.0  0.45878  0.47780  0.31948  1.0000
  H   H13       1.0  0.46316  0.42170  0.34482  1.0000
  H   H14       1.0  0.42876  0.46471  0.36024  1.0000
  H   H15       1.0  0.08538  0.57435  0.36990  1.0000
  C   C29       1.0  0.41141  0.58773  0.19954  1.0000
  C   C30       1.0  0.38909  0.60922  0.16721  1.0000
  H   H16       1.0  0.44262  0.60057  0.16854  1.0000
  H   H17       1.0  0.40332  0.63724  0.10918  1.0000
  C   C31       1.0  0.44560  0.80298  0.41835  1.0000
  C   C32       1.0  0.41527  0.75928  0.37603  1.0000
  H   H18       1.0  0.47645  0.81456  0.50816  1.0000
  H   H19       1.0  0.42241  0.73698  0.43421  1.0000
  C   C33       1.0  0.34269  0.69704  0.23572  1.0000
  C   C34       1.0  0.43597  0.83276  0.35695  1.0000
  C   C35       1.0  0.37439  0.74349  0.26649  1.0000
  C   C36       1.0  0.29958  0.68140  0.23756  1.0000
  H   H20       1.0  0.39078  0.68055  0.21982  1.0000
  H   H21       1.0  0.52804  0.42005  0.31768  1.0000
  C   C37       1.0  0.48983  0.97267  0.21056  1.0000
  C   C38       1.0  0.51435  0.01751  0.25006  1.0000
  H   H22       1.0  0.46336  0.95616  0.09354  1.0000
  H   H23       1.0  0.50734  0.03502  0.15964  1.0000
  H   H24       1.0  0.60035  0.48528  0.27967  1.0000
  C   C39       1.0  0.69761  0.32680  0.19670  1.0000
  C   C40       1.0  0.67856  0.35216  0.20459  1.0000
  H   H25       1.0  0.68605  0.26227  0.17826  1.0000
  C   C41       1.0  0.01440  0.46033  0.38813  1.0000
  C   C42       1.0  0.97073  0.44302  0.37540  1.0000
  H   H26       1.0  0.03169  0.44867  0.46934  1.0000
  H   H27       1.0  0.95518  0.41792  0.44632  1.0000
  H   H28       1.0  0.50897  0.08066  0.33846  1.0000
  C   C43       1.0  0.62501  0.43164  0.32856  1.0000
  C   C44       1.0  0.63982  0.40277  0.33019  1.0000
  H   H29       1.0  0.64377  0.46327  0.41720  1.0000
  H   H30       1.0  0.66949  0.41143  0.42235  1.0000
  C   C45       1.0  0.63487  0.33383  0.20086  1.0000
  C   C46       1.0  0.58704  0.42105  0.20995  1.0000
  C   C47       1.0  0.61666  0.36221  0.21428  1.0000
  C   C48       1.0  0.60982  0.28927  0.18971  1.0000
  H   H31       1.0  0.69805  0.38676  0.21622  1.0000
  C   C49       1.0  0.51735  0.53465  0.23575  1.0000
  C   C50       1.0  0.53760  0.51059  0.23203  1.0000
  H   H32       1.0  0.53275  0.56645  0.20467  1.0000
  H   H33       1.0  0.56841  0.52426  0.19787  1.0000
  H   H34       1.0  0.89330  0.39247  0.39080  1.0000
  C   C51       1.0  0.56227  0.37940  0.10303  1.0000
  C   C52       1.0  0.57685  0.35036  0.10547  1.0000
  H   H35       1.0  0.53262  0.37053  0.01015  1.0000
  H   H36       1.0  0.55839  0.31884  0.01612  1.0000
  C   C53       1.0  0.62840  0.26337  0.18671  1.0000
  C   C54       1.0  0.67192  0.28253  0.18631  1.0000
  H   H37       1.0  0.57638  0.27520  0.19522  1.0000
  H   H38       1.0  0.45614  0.55452  0.16184  1.0000
  H   H39       1.0  0.57731  0.09313  0.60344  1.0000
  H   H40       1.0  0.88726  0.44415  0.16976  1.0000
  H   H41       1.0  0.45798  0.88689  0.17395  1.0000
  H   H42       1.0  0.09263  0.50205  0.43555  1.0000
  C   C55       1.0  0.53111  0.12541  0.59515  1.0000
  N   N7        1.0  0.53260  0.10303  0.73551  1.0000
  C   C56       1.0  0.50315  0.05809  0.71129  1.0000
  C   C57       1.0  0.89174  0.43786  0.59923  1.0000
  N   N8        1.0  0.92039  0.48446  0.64330  1.0000
  C   C58       1.0  0.57376  0.46566  0.99406  1.0000
  N   N9        1.0  0.52972  0.44778  0.89438  1.0000
  C   C59       1.0  0.45657  0.89737  0.61260  1.0000
  N   N10       1.0  0.43397  0.92057  0.57601  1.0000
  C   C60       1.0  0.45557  0.96595  0.63060  1.0000
  C   C61       1.0  0.12215  0.57742  0.62516  1.0000
  N   N11       1.0  0.09637  0.54334  0.71126  1.0000
  C   C62       1.0  0.43610  0.54724  0.56609  1.0000
  N   N12       1.0  0.48101  0.56089  0.63339  1.0000
  C   C63       1.0  0.51230  0.03435  0.82223  1.0000
  C   C64       1.0  0.48869  0.98935  0.78490  1.0000
  H   H43       1.0  0.53983  0.05134  0.93510  1.0000
  H   H44       1.0  0.49814  0.97273  0.87267  1.0000
  H   H45       1.0  0.41680  0.51772  0.61058  1.0000
  C   C65       1.0  0.38885  0.83085  0.63172  1.0000
  C   C66       1.0  0.36907  0.78966  0.66620  1.0000
  H   H46       1.0  0.37034  0.84041  0.54523  1.0000
  H   H47       1.0  0.33553  0.76708  0.60090  1.0000
  C   C67       1.0  0.30627  0.66125  0.76948  1.0000
  C   C68       1.0  0.32923  0.63993  0.75853  1.0000
  H   H48       1.0  0.31022  0.72273  0.77968  1.0000
  H   H49       1.0  0.48796  0.92015  0.70171  1.0000
  C   C69       1.0  0.37286  0.66160  0.75798  1.0000
  C   C70       1.0  0.39395  0.70660  0.77216  1.0000
  H   H50       1.0  0.31245  0.60529  0.74811  1.0000
  H   H51       1.0  0.11773  0.60517  0.65586  1.0000
  C   C71       1.0  0.45550  0.84705  0.81669  1.0000
  C   C72       1.0  0.43530  0.80587  0.85536  1.0000
  H   H52       1.0  0.48962  0.86905  0.87543  1.0000
  H   H53       1.0  0.45347  0.79686  0.94705  1.0000
  C   C73       1.0  0.37164  0.72906  0.77965  1.0000
  C   C74       1.0  0.43322  0.85932  0.69621  1.0000
  C   C75       1.0  0.39228  0.77535  0.77145  1.0000
  C   C76       1.0  0.32791  0.70585  0.77806  1.0000
  H   H54       1.0  0.42778  0.72440  0.77178  1.0000
  H   H55       1.0  0.50905  0.42983  0.96492  1.0000
  C   C77       1.0  0.44422  0.98979  0.52773  1.0000
  C   C78       1.0  0.46713  0.03480  0.56821  1.0000
  H   H56       1.0  0.41844  0.97287  0.40839  1.0000
  H   H57       1.0  0.45772  0.05158  0.48106  1.0000
  H   H58       1.0  0.59026  0.50106  0.01571  1.0000
  C   C79       1.0  0.72088  0.37201  0.72346  1.0000
  C   C80       1.0  0.70353  0.39888  0.74481  1.0000
  H   H59       1.0  0.70709  0.30621  0.69044  1.0000
  H   H60       1.0  0.49890  0.12052  0.54611  1.0000
  C   C81       1.0  0.64262  0.46727  0.97536  1.0000
  C   C82       1.0  0.66365  0.44672  0.91832  1.0000
  H   H61       1.0  0.65949  0.49464  0.08713  1.0000
  H   H62       1.0  0.69646  0.45781  0.98695  1.0000
  C   C83       1.0  0.66048  0.38203  0.75000  1.0000
  C   C84       1.0  0.59904  0.45082  0.90022  1.0000
  C   C85       1.0  0.64178  0.40944  0.78318  1.0000
  C   C86       1.0  0.63478  0.33751  0.73472  1.0000
  H   H63       1.0  0.72399  0.43349  0.75850  1.0000
  H   H64       1.0  0.90809  0.42393  0.67251  1.0000
  C   C87       1.0  0.57883  0.41700  0.75174  1.0000
  C   C88       1.0  0.59990  0.39661  0.69291  1.0000
  H   H65       1.0  0.54549  0.40552  0.68976  1.0000
  H   H66       1.0  0.58340  0.36953  0.58005  1.0000
  C   C89       1.0  0.65106  0.30975  0.71593  1.0000
  C   C90       1.0  0.69434  0.32746  0.71120  1.0000
  H   H67       1.0  0.60202  0.32464  0.74811  1.0000
  H   H68       1.0  0.49917  0.57668  0.55123  1.0000
  H   H69       1.0  0.54130  0.12106  0.85991  1.0000
  H   H70       1.0  0.91142  0.49837  0.55272  1.0000
  H   H71       1.0  0.41855  0.91149  0.44586  1.0000
  H   H72       1.0  0.11421  0.54417  0.82660  1.0000
  C   C91       1.0  0.61773  0.17625  0.37463  1.0000
  C   C92       1.0  0.57392  0.14573  0.33487  1.0000
  C  Sn1       1.0  0.54474  0.15097  0.21837  1.0000
  C  Sn2       1.0  0.55980  0.18746  0.14040  1.0000
  C   C93       1.0  0.60369  0.21779  0.18094  1.0000
  C   C94       1.0  0.63261  0.21224  0.29774  1.0000
  H   H73       1.0  0.64010  0.17195  0.46492  1.0000
  O  Te1       1.0  0.50108  0.12018  0.18014  1.0000
  O  Te2       1.0  0.53134  0.19348  0.02348  1.0000
  H   H74       1.0  0.66653  0.23586  0.32841  1.0000
  Mg  Mg1       1.0  0.47485  0.14263  0.01287  1.0000
  C   C95       1.0  0.22350  0.58308  0.65547  1.0000
  C   C96       1.0  0.25402  0.62600  0.73611  1.0000
  C  Sn3       1.0  0.24148  0.65318  0.81403  1.0000
  C  Sn4       1.0  0.19756  0.63700  0.81102  1.0000
  C   C97       1.0  0.16728  0.59401  0.73013  1.0000
  C   C98       1.0  0.18018  0.56709  0.65250  1.0000
  H   H75       1.0  0.23348  0.56225  0.59549  1.0000
  O  Te3       1.0  0.27238  0.69598  0.89397  1.0000
  O  Te4       1.0  0.18415  0.66346  0.88796  1.0000
  H   H76       1.0  0.15655  0.53386  0.59018  1.0000
  Mg  Mg2       1.0  0.23829  0.71943  0.98088  1.0000
  C   C99       1.0  0.37467  0.58326  0.76463  1.0000
  C   C100      1.0  0.39076  0.62643  0.75489  1.0000
  C  Sn5       1.0  0.42512  0.64718  0.67745  1.0000
  C  Sn6       1.0  0.44365  0.62421  0.60856  1.0000
  C   C101      1.0  0.42730  0.58103  0.61883  1.0000
  C   C102      1.0  0.39292  0.56058  0.69665  1.0000
  H   H77       1.0  0.34806  0.56743  0.82474  1.0000
  O  Te5       1.0  0.44080  0.69032  0.66887  1.0000
  O  Te6       1.0  0.47800  0.64416  0.53041  1.0000
  H   H78       1.0  0.38046  0.52715  0.70406  1.0000
  Mg  Mg3       1.0  0.48811  0.70342  0.54995  1.0000
  C   C103      1.0  0.61476  0.20156  0.77543  1.0000
  C   C104      1.0  0.57120  0.17779  0.69007  1.0000
  C  Sn7       1.0  0.55195  0.19732  0.59914  1.0000
  C  Sn8       1.0  0.57684  0.24146  0.59376  1.0000
  C   C105      1.0  0.62040  0.26495  0.67948  1.0000
  C   C106      1.0  0.63934  0.24510  0.77013  1.0000
  H   H79       1.0  0.62942  0.18620  0.84549  1.0000
  O  Te7       1.0  0.50839  0.17310  0.51463  1.0000
  O  Te8       1.0  0.55842  0.26178  0.50378  1.0000
  H   H80       1.0  0.67307  0.26350  0.83611  1.0000
  Mg  Mg4       1.0  0.49786  0.21521  0.40919  1.0000
  C   C107      1.0  0.77868  0.39511  0.16294  1.0000
  C   C108      1.0  0.74936  0.35424  0.18426  1.0000
  C  Sn9       1.0  0.76372  0.33101  0.27571  1.0000
  C  Sn10      1.0  0.80827  0.34911  0.34702  1.0000
  C   C109      1.0  0.83735  0.39003  0.32508  1.0000
  C   C110      1.0  0.82263  0.41300  0.23329  1.0000
  H   H81       1.0  0.76729  0.41289  0.09200  1.0000
  O  Te9       1.0  0.73399  0.29021  0.29574  1.0000
  O  Te10      1.0  0.82350  0.32660  0.43906  1.0000
  H   H82       1.0  0.84534  0.44465  0.21690  1.0000
  Mg  Mg5       1.0  0.77043  0.27209  0.43163  1.0000
  C   C111      1.0  0.80229  0.37456  0.77951  1.0000
  C   C112      1.0  0.77306  0.38840  0.73907  1.0000
  C  Sn11      1.0  0.78231  0.42137  0.64671  1.0000
  C  Sn12      1.0  0.82156  0.44078  0.59400  1.0000
  C   C113      1.0  0.85057  0.42669  0.63499  1.0000
  C   C114      1.0  0.84100  0.39367  0.72751  1.0000
  H   H83       1.0  0.79488  0.34900  0.85101  1.0000
  O  Te11      1.0  0.75276  0.43482  0.60745  1.0000
  O  Te12      1.0  0.83160  0.47379  0.50150  1.0000
  H   H84       1.0  0.86362  0.38295  0.75870  1.0000
  Mg  Mg6       1.0  0.78101  0.48095  0.47895  1.0000
  C   C115      1.0  0.99567  0.48426  0.79877  1.0000
  C   C116      1.0  0.97043  0.49990  0.72223  1.0000
  C  Sn13      1.0  0.98784  0.53402  0.63640  1.0000
  C  Sn14      1.0  0.03134  0.55275  0.62719  1.0000
  C   C117      1.0  0.05632  0.53685  0.70407  1.0000
  C   C118      1.0  0.03857  0.50271  0.78969  1.0000
  H   H85       1.0  0.98194  0.45783  0.86494  1.0000
  O  Te13      1.0  0.96217  0.54926  0.56070  1.0000
  O  Te14      1.0  0.04955  0.58687  0.54215  1.0000
  H   H86       1.0  0.05812  0.49059  0.84884  1.0000
  Mg  Mg7       1.0  0.00159  0.59638  0.45929  1.0000
  C   C119      1.0  0.54622  0.51671  0.72019  1.0000
  C   C120      1.0  0.52669  0.48538  0.81651  1.0000
  C  Sn15      1.0  0.48744  0.47623  0.85255  1.0000
  C  Sn16      1.0  0.46743  0.49890  0.79079  1.0000
  C   C121      1.0  0.48721  0.53016  0.69443  1.0000
  C   C122      1.0  0.52650  0.53907  0.65917  1.0000
  H   H87       1.0  0.57661  0.52359  0.69282  1.0000
  O  Te15      1.0  0.46838  0.44485  0.94902  1.0000
  O  Te16      1.0  0.42818  0.49038  0.82487  1.0000
  H   H88       1.0  0.54159  0.56331  0.58449  1.0000
  Mg  Mg8       1.0  0.41485  0.44474  0.96185  1.0000
  C   C123      1.0  0.20736  0.64790  0.36046  1.0000
  C   C124      1.0  0.22475  0.62723  0.27084  1.0000
  C  Sn17      1.0  0.19955  0.58340  0.19098  1.0000
  C  Sn18      1.0  0.15614  0.55993  0.20121  1.0000
  C   C125      1.0  0.13903  0.58092  0.29107  1.0000
  C   C126      1.0  0.16454  0.62478  0.37056  1.0000
  H   H89       1.0  0.22708  0.68184  0.42188  1.0000
  O  Te17      1.0  0.21744  0.56325  0.10202  1.0000
  O  Te18      1.0  0.13022  0.51611  0.12253  1.0000
  H   H90       1.0  0.15105  0.64078  0.43984  1.0000
  Mg  Mg9       1.0  0.16923  0.50299  0.01618  1.0000
