data_image0
_chemical_formula_structural       C32N12H4C16H8N4C16H8C23H10C10H10C5HOHC2H2OHC2H2OHC2H2OHC2H2OHC2H2OHC2H2OHC2H2OHC2H5C32N12H4C16H8N4C16H8C17H6C6H6C3HOHC2H2OHC2H2OHC2H2OHC2H2OHC2H2OHC2H2OHC2H2OHC2H5SnCSn2CSnTe4Mg2SnCSn2CSnTe4Mg2SnCSn2CSnTe4Mg2SnCSn2CSnTe4Mg2SnCSn2CSnTe4Mg2SnCSn2CSnTe4Mg2SnCSn2CSnTe4Mg2SnCSn2CSnTe4Mg2
_chemical_formula_sum              "C240 N32 H128 O16 Sn32 Te32 Mg16"
_cell_length_a       39.613
_cell_length_b       32.6025
_cell_length_c       10.1373
_cell_angle_alpha    104.558
_cell_angle_beta     95.9091
_cell_angle_gamma    90.1114

_symmetry_space_group_name_H-M    'P1'
_space_group_IT_number       1

loop_
  _space_group_symop_operation_xyz
  'x, y, z'

loop_
  _atom_site_type_symbol
  _atom_site_label
  _atom_site_symmetry_multiplicity
  _atom_site_fract_x
  _atom_site_fract_y
  _atom_site_fract_z
  _atom_site_occupancy
  C   C1        1.0  0.24618  0.78407  0.20249  1.0000
  C   C2        1.0  0.74947  0.29103  0.26526  1.0000
  C   C3        1.0  0.75584  0.20991  0.29737  1.0000
  C   C4        1.0  0.25475  0.71575  0.31809  1.0000
  C   C5        1.0  0.75666  0.79038  0.29861  1.0000
  C   C6        1.0  0.25326  0.28094  0.20707  1.0000
  C   C7        1.0  0.24704  0.21180  0.31653  1.0000
  C   C8        1.0  0.74322  0.70432  0.25656  1.0000
  C   C9        1.0  0.28284  0.73740  0.29625  1.0000
  C   C10       1.0  0.78452  0.23284  0.28707  1.0000
  C   C11       1.0  0.72042  0.26642  0.26278  1.0000
  C   C12       1.0  0.21807  0.76165  0.22020  1.0000
  C   C13       1.0  0.71660  0.73182  0.25789  1.0000
  C   C14       1.0  0.21850  0.23423  0.28943  1.0000
  C   C15       1.0  0.28157  0.25773  0.22975  1.0000
  C   C16       1.0  0.78323  0.76268  0.29430  1.0000
  C   C17       1.0  0.19388  0.70007  0.29912  1.0000
  C   C18       1.0  0.69447  0.19693  0.28894  1.0000
  C   C19       1.0  0.81093  0.30272  0.26784  1.0000
  C   C20       1.0  0.30672  0.80241  0.23586  1.0000
  C   C21       1.0  0.80352  0.68705  0.26211  1.0000
  C   C22       1.0  0.30685  0.19363  0.29991  1.0000
  C   C23       1.0  0.19395  0.29977  0.22622  1.0000
  C   C24       1.0  0.69619  0.80707  0.27515  1.0000
  C   C25       1.0  0.27959  0.77348  0.24278  1.0000
  C   C26       1.0  0.78219  0.27468  0.27352  1.0000
  C   C27       1.0  0.72288  0.22532  0.28257  1.0000
  C   C28       1.0  0.22128  0.72710  0.28148  1.0000
  C   C29       1.0  0.72239  0.77587  0.27765  1.0000
  C   C30       1.0  0.22115  0.27030  0.23781  1.0000
  C   C31       1.0  0.27914  0.22244  0.28549  1.0000
  C   C32       1.0  0.77741  0.71860  0.27155  1.0000
  N   N1        1.0  0.33830  0.79868  0.27933  1.0000
  N   N2        1.0  0.83681  0.28991  0.20422  1.0000
  N   N3        1.0  0.66749  0.19130  0.20431  1.0000
  N   N4        1.0  0.16250  0.70282  0.25191  1.0000
  N   N5        1.0  0.66544  0.79728  0.22012  1.0000
  N   N6        1.0  0.17134  0.30721  0.31090  1.0000
  N   N7        1.0  0.32728  0.18351  0.20722  1.0000
  N   N8        1.0  0.83446  0.69401  0.24097  1.0000
  N   N9        1.0  0.05425  0.49922  0.25604  1.0000
  N   N10       1.0  0.55525  0.00074  0.26423  1.0000
  N   N11       1.0  0.94828  0.49374  0.24614  1.0000
  N   N12       1.0  0.44750  0.99810  0.26019  1.0000
  H   H1        1.0  0.03335  0.49271  0.18599  1.0000
  H   H2        1.0  0.53254  0.99519  0.20541  1.0000
  H   H3        1.0  0.96445  0.49049  0.17239  1.0000
  H   H4        1.0  0.46710  0.99327  0.20129  1.0000
  C   C33       1.0  0.07594  0.46451  0.26027  1.0000
  C   C34       1.0  0.57633  0.96742  0.28014  1.0000
  C   C35       1.0  0.92578  0.52826  0.25253  1.0000
  C   C36       1.0  0.42811  0.03438  0.27795  1.0000
  C   C37       1.0  0.92862  0.45653  0.24293  1.0000
  C   C38       1.0  0.42945  0.96540  0.29101  1.0000
  C   C39       1.0  0.07468  0.53538  0.25541  1.0000
  C   C40       1.0  0.57481  0.03775  0.27851  1.0000
  C   C41       1.0  0.11016  0.48071  0.27001  1.0000
  C   C42       1.0  0.60942  0.98489  0.31472  1.0000
  C   C43       1.0  0.89242  0.51161  0.25999  1.0000
  C   C44       1.0  0.39799  0.02471  0.32619  1.0000
  C   C45       1.0  0.89435  0.46962  0.25760  1.0000
  C   C46       1.0  0.39891  0.98244  0.33630  1.0000
  C   C47       1.0  0.10942  0.52206  0.26358  1.0000
  C   C48       1.0  0.60843  0.02807  0.31459  1.0000
  H   H5        1.0  0.13250  0.46206  0.27914  1.0000
  H   H6        1.0  0.63163  0.96765  0.33780  1.0000
  H   H7        1.0  0.86965  0.52988  0.26770  1.0000
  H   H8        1.0  0.37824  0.04731  0.35184  1.0000
  H   H9        1.0  0.87391  0.44847  0.26496  1.0000
  H   H10       1.0  0.37981  0.96557  0.37331  1.0000
  H   H11       1.0  0.13127  0.54238  0.26639  1.0000
  H   H12       1.0  0.62972  0.05054  0.33867  1.0000
  N   N13       1.0  0.50240  0.93551  0.26321  1.0000
  N   N14       1.0  0.00293  0.42983  0.24209  1.0000
  N   N15       1.0  0.50033  0.06426  0.26075  1.0000
  N   N16       1.0  0.99936  0.56119  0.24604  1.0000
  C   C49       1.0  0.53137  0.90973  0.24463  1.0000
  C   C50       1.0  0.03224  0.40576  0.23283  1.0000
  C   C51       1.0  0.47033  0.08739  0.24527  1.0000
  C   C52       1.0  0.96972  0.58519  0.25536  1.0000
  C   C53       1.0  0.47329  0.90904  0.25433  1.0000
  C   C54       1.0  0.97434  0.40269  0.22112  1.0000
  C   C55       1.0  0.52884  0.08890  0.24668  1.0000
  C   C56       1.0  0.02788  0.58824  0.25596  1.0000
  C   C57       1.0  0.51877  0.86650  0.21248  1.0000
  C   C58       1.0  0.02153  0.36294  0.19848  1.0000
  C   C59       1.0  0.48076  0.12557  0.21159  1.0000
  C   C60       1.0  0.98006  0.62709  0.26643  1.0000
  C   C61       1.0  0.48438  0.86612  0.21604  1.0000
  C   C62       1.0  0.98586  0.36113  0.18989  1.0000
  C   C63       1.0  0.51532  0.12651  0.21230  1.0000
  C   C64       1.0  0.01552  0.62902  0.26720  1.0000
  H   H13       1.0  0.53458  0.83917  0.18791  1.0000
  H   H14       1.0  0.03836  0.33648  0.17964  1.0000
  H   H15       1.0  0.46296  0.14853  0.18739  1.0000
  H   H16       1.0  0.96337  0.65351  0.27199  1.0000
  H   H17       1.0  0.46750  0.83852  0.19276  1.0000
  H   H18       1.0  0.96923  0.33323  0.16223  1.0000
  H   H19       1.0  0.53080  0.15063  0.18873  1.0000
  H   H20       1.0  0.03076  0.65731  0.27553  1.0000
  C   C65       1.0  0.06627  0.42322  0.25293  1.0000
  C   C66       1.0  0.56478  0.92384  0.25621  1.0000
  C   C67       1.0  0.93532  0.56927  0.25276  1.0000
  C   C68       1.0  0.43775  0.07433  0.25425  1.0000
  C   C69       1.0  0.93998  0.41586  0.22964  1.0000
  C   C70       1.0  0.44052  0.92229  0.27374  1.0000
  C   C71       1.0  0.06299  0.57552  0.25413  1.0000
  C   C72       1.0  0.56238  0.07736  0.25619  1.0000
  C   C73       1.0  0.59138  0.89124  0.24578  1.0000
  C   C74       1.0  0.40921  0.10352  0.24323  1.0000
  C   C75       1.0  0.91405  0.38161  0.22130  1.0000
  C   C76       1.0  0.41419  0.88994  0.27321  1.0000
  C   C77       1.0  0.08840  0.60933  0.25616  1.0000
  C   C78       1.0  0.61472  0.89127  0.35976  1.0000
  C   C79       1.0  0.40425  0.13847  0.35184  1.0000
  C   C80       1.0  0.38280  0.88832  0.18997  1.0000
  C   C81       1.0  0.89160  0.36682  0.10197  1.0000
  C   C82       1.0  0.08367  0.63734  0.17012  1.0000
  C   C83       1.0  0.38606  0.09564  0.12424  1.0000
  C   C84       1.0  0.59325  0.85897  0.12512  1.0000
  C   C85       1.0  0.11803  0.61563  0.34985  1.0000
  C   C86       1.0  0.41972  0.85944  0.35092  1.0000
  C   C87       1.0  0.91106  0.36419  0.33306  1.0000
  H   H21       1.0  0.61254  0.91489  0.45528  1.0000
  H   H22       1.0  0.42182  0.14450  0.44470  1.0000
  H   H23       1.0  0.89366  0.38009  0.01464  1.0000
  H   H24       1.0  0.37902  0.91065  0.12530  1.0000
  H   H25       1.0  0.06126  0.63356  0.09545  1.0000
  H   H26       1.0  0.38987  0.06895  0.03872  1.0000
  H   H27       1.0  0.57583  0.85894  0.03502  1.0000
  H   H28       1.0  0.12104  0.59674  0.42426  1.0000
  H   H29       1.0  0.92822  0.37538  0.42639  1.0000
  H   H30       1.0  0.44374  0.86030  0.41613  1.0000
  C   C88       1.0  0.63945  0.86082  0.35323  1.0000
  C   C89       1.0  0.37679  0.16477  0.34319  1.0000
  C   C90       1.0  0.86675  0.33569  0.09467  1.0000
  C   C91       1.0  0.35789  0.85775  0.18579  1.0000
  C   C92       1.0  0.10788  0.66889  0.17530  1.0000
  C   C93       1.0  0.35926  0.12240  0.11310  1.0000
  C   C94       1.0  0.61745  0.82786  0.11861  1.0000
  C   C95       1.0  0.14243  0.64646  0.35343  1.0000
  C   C96       1.0  0.88546  0.33424  0.32839  1.0000
  C   C97       1.0  0.39441  0.82928  0.34848  1.0000
  H   H31       1.0  0.65610  0.86015  0.44461  1.0000
  H   H32       1.0  0.37276  0.19189  0.42701  1.0000
  H   H33       1.0  0.84963  0.32385  0.00188  1.0000
  H   H34       1.0  0.33484  0.85545  0.11484  1.0000
  H   H35       1.0  0.10451  0.68993  0.10706  1.0000
  H   H36       1.0  0.34154  0.11717  0.02105  1.0000
  H   H37       1.0  0.61932  0.80319  0.02522  1.0000
  H   H38       1.0  0.16393  0.65139  0.43188  1.0000
  H   H39       1.0  0.88200  0.32200  0.41642  1.0000
  H   H40       1.0  0.39775  0.80651  0.41154  1.0000
  C   C98       1.0  0.64150  0.82898  0.23158  1.0000
  C   C99       1.0  0.35410  0.15685  0.22338  1.0000
  C   C100      1.0  0.86283  0.32009  0.20937  1.0000
  C   C101      1.0  0.36269  0.82860  0.26918  1.0000
  C   C102      1.0  0.13837  0.67306  0.26315  1.0000
  H   H41       1.0  0.24258  0.81142  0.15999  1.0000
  O   O1        1.0  0.31426  0.72312  0.34070  1.0000
  H   H42       1.0  0.20225  0.67496  0.34933  1.0000
  C   C103      1.0  0.66198  0.72491  0.31975  1.0000
  C   C104      1.0  0.63885  0.73294  0.39055  1.0000
  H   H43       1.0  0.61985  0.74010  0.45896  1.0000
  H   H44       1.0  0.74620  0.32346  0.25658  1.0000
  O   O2        1.0  0.81479  0.21052  0.28812  1.0000
  H   H45       1.0  0.69856  0.17912  0.36793  1.0000
  C   C105      1.0  0.15898  0.21932  0.24543  1.0000
  C   C106      1.0  0.13125  0.21542  0.18065  1.0000
  H   H46       1.0  0.10623  0.21350  0.12842  1.0000
  H   H47       1.0  0.75959  0.17835  0.31316  1.0000
  O   O3        1.0  0.69038  0.28676  0.23855  1.0000
  H   H48       1.0  0.80830  0.33640  0.31928  1.0000
  C   C107      1.0  0.34133  0.27324  0.26301  1.0000
  C   C108      1.0  0.36995  0.27819  0.32023  1.0000
  H   H49       1.0  0.39526  0.28021  0.37046  1.0000
  H   H50       1.0  0.25914  0.68881  0.36245  1.0000
  O   O4        1.0  0.18618  0.77440  0.17136  1.0000
  H   H51       1.0  0.29784  0.82934  0.19573  1.0000
  C   C109      1.0  0.82620  0.80261  0.24463  1.0000
  C   C110      1.0  0.83630  0.82605  0.18026  1.0000
  H   H52       1.0  0.84594  0.84358  0.11551  1.0000
  H   H53       1.0  0.76289  0.82410  0.31617  1.0000
  O   O5        1.0  0.68403  0.71253  0.23095  1.0000
  H   H54       1.0  0.79479  0.65581  0.27050  1.0000
  C   C111      1.0  0.33669  0.70904  0.25526  1.0000
  C   C112      1.0  0.36033  0.69668  0.19079  1.0000
  H   H55       1.0  0.38014  0.68533  0.12935  1.0000
  H   H56       1.0  0.25693  0.30938  0.17228  1.0000
  O   O6        1.0  0.18810  0.21777  0.31883  1.0000
  H   H57       1.0  0.30770  0.17978  0.38869  1.0000
  C   C113      1.0  0.84079  0.22716  0.37649  1.0000
  C   C114      1.0  0.86667  0.23958  0.44962  1.0000
  H   H58       1.0  0.88778  0.25144  0.52292  1.0000
  H   H59       1.0  0.24403  0.18408  0.35581  1.0000
  O   O7        1.0  0.31158  0.27272  0.19080  1.0000
  H   H60       1.0  0.19507  0.31687  0.14624  1.0000
  C   C115      1.0  0.66138  0.27953  0.28176  1.0000
  C   C116      1.0  0.63284  0.27889  0.31277  1.0000
  H   H61       1.0  0.60837  0.27482  0.34335  1.0000
  H   H62       1.0  0.73743  0.67062  0.23964  1.0000
  O   O8        1.0  0.81675  0.77922  0.32349  1.0000
  H   H63       1.0  0.70482  0.84023  0.32014  1.0000
  C   C117      1.0  0.16636  0.79251  0.26377  1.0000
  C   C118      1.0  0.14783  0.81057  0.34578  1.0000
  H   H64       1.0  0.13180  0.82508  0.42041  1.0000
  H   H65       1.0  0.50498  0.96239  0.34087  1.0000
  H   H66       1.0  0.00307  0.45976  0.30355  1.0000
  H   H67       1.0  0.50245  0.04947  0.33853  1.0000
  H   H68       1.0  0.00166  0.53649  0.29046  1.0000
  C   C119      1.0  0.24519  0.78666  0.74565  1.0000
  C   C120      1.0  0.74439  0.29668  0.78365  1.0000
  C   C121      1.0  0.74850  0.21067  0.66491  1.0000
  C   C122      1.0  0.25706  0.70184  0.71560  1.0000
  C   C123      1.0  0.74998  0.78491  0.66480  1.0000
  C   C124      1.0  0.25161  0.28920  0.79826  1.0000
  C   C125      1.0  0.24348  0.20392  0.66848  1.0000
  C   C126      1.0  0.75036  0.72040  0.79731  1.0000
  C   C127      1.0  0.28440  0.72984  0.72773  1.0000
  C   C128      1.0  0.77685  0.23712  0.68244  1.0000
  C   C129      1.0  0.71590  0.27035  0.76698  1.0000
  C   C130      1.0  0.21805  0.75903  0.73897  1.0000
  C   C131      1.0  0.72055  0.74154  0.77901  1.0000
  C   C132      1.0  0.21539  0.22916  0.68328  1.0000
  C   C133      1.0  0.27966  0.26387  0.78516  1.0000
  C   C134      1.0  0.78004  0.76491  0.68784  1.0000
  C   C135      1.0  0.19684  0.68431  0.72564  1.0000
  C   C136      1.0  0.68994  0.19557  0.70163  1.0000
  C   C137      1.0  0.80388  0.31116  0.75367  1.0000
  C   C138      1.0  0.30536  0.80603  0.75514  1.0000
  C   C139      1.0  0.80929  0.70309  0.76255  1.0000
  C   C140      1.0  0.30412  0.19022  0.70944  1.0000
  C   C141      1.0  0.19121  0.30304  0.76156  1.0000
  C   C142      1.0  0.69088  0.80207  0.69831  1.0000
  C   C143      1.0  0.27911  0.77365  0.74361  1.0000
  C   C144      1.0  0.77537  0.28088  0.73994  1.0000
  C   C145      1.0  0.71712  0.22631  0.70810  1.0000
  C   C146      1.0  0.22346  0.71549  0.72526  1.0000
  C   C147      1.0  0.71952  0.77463  0.71171  1.0000
  C   C148      1.0  0.21847  0.27301  0.74686  1.0000
  C   C149      1.0  0.27674  0.22012  0.71895  1.0000
  C   C150      1.0  0.78095  0.73061  0.75012  1.0000
  N   N17       1.0  0.33734  0.79989  0.78011  1.0000
  N   N18       1.0  0.82028  0.31211  0.65177  1.0000
  N   N19       1.0  0.66294  0.20539  0.76281  1.0000
  N   N20       1.0  0.17136  0.69458  0.79431  1.0000
  N   N21       1.0  0.66754  0.80893  0.78013  1.0000
  N   N22       1.0  0.16008  0.29329  0.71141  1.0000
  N   N23       1.0  0.33528  0.20068  0.75849  1.0000
  N   N24       1.0  0.83715  0.70427  0.70640  1.0000
  N   N25       1.0  0.05315  0.49764  0.77047  1.0000
  N   N26       1.0  0.55412  0.00208  0.73608  1.0000
  N   N27       1.0  0.94548  0.50360  0.73755  1.0000
  N   N28       1.0  0.44460  0.99846  0.73613  1.0000
  H   H69       1.0  0.02991  0.49384  0.71552  1.0000
  H   H70       1.0  0.52879  0.00150  0.74212  1.0000
  H   H71       1.0  0.96241  0.49855  0.66656  1.0000
  H   H72       1.0  0.46978  0.99824  0.72608  1.0000
  C   C151      1.0  0.07253  0.46255  0.78204  1.0000
  C   C152      1.0  0.57417  0.96685  0.72815  1.0000
  C   C153      1.0  0.92725  0.54128  0.76628  1.0000
  C   C154      1.0  0.42533  0.03469  0.75471  1.0000
  C   C155      1.0  0.92636  0.47017  0.76020  1.0000
  C   C156      1.0  0.42542  0.96395  0.74802  1.0000
  C   C157      1.0  0.07489  0.53229  0.77660  1.0000
  C   C158      1.0  0.57405  0.03818  0.74727  1.0000
  C   C159      1.0  0.10670  0.47626  0.80374  1.0000
  C   C160      1.0  0.60789  0.98105  0.73163  1.0000
  C   C161      1.0  0.89742  0.53120  0.81606  1.0000
  C   C162      1.0  0.39287  0.02251  0.77796  1.0000
  C   C163      1.0  0.89717  0.48786  0.81451  1.0000
  C   C164      1.0  0.39289  0.97914  0.77402  1.0000
  C   C165      1.0  0.10815  0.51887  0.79958  1.0000
  C   C166      1.0  0.60782  0.02501  0.74512  1.0000
  H   H73       1.0  0.12796  0.45668  0.82000  1.0000
  H   H74       1.0  0.62972  0.96098  0.72744  1.0000
  H   H75       1.0  0.87768  0.55287  0.84991  1.0000
  H   H76       1.0  0.37183  0.04366  0.79580  1.0000
  H   H77       1.0  0.87789  0.47084  0.85008  1.0000
  H   H78       1.0  0.37185  0.96028  0.78994  1.0000
  H   H79       1.0  0.13086  0.53856  0.81237  1.0000
  H   H80       1.0  0.62957  0.04581  0.75132  1.0000
  N   N29       1.0  0.49880  0.93536  0.71555  1.0000
  N   N30       1.0  0.99748  0.43481  0.74248  1.0000
  N   N31       1.0  0.49973  0.06641  0.76657  1.0000
  N   N32       1.0  0.00066  0.56322  0.73983  1.0000
  C   C167      1.0  0.52914  0.91123  0.72267  1.0000
  C   C168      1.0  0.02556  0.40754  0.73886  1.0000
  C   C169      1.0  0.46975  0.09007  0.75019  1.0000
  C   C170      1.0  0.97273  0.59037  0.73157  1.0000
  C   C171      1.0  0.47061  0.90893  0.72927  1.0000
  C   C172      1.0  0.96688  0.40995  0.71484  1.0000
  C   C173      1.0  0.52827  0.09206  0.75521  1.0000
  C   C174      1.0  0.03146  0.58651  0.74330  1.0000
  C   C175      1.0  0.51884  0.87057  0.73817  1.0000
  C   C176      1.0  0.01146  0.36503  0.69800  1.0000
  C   C177      1.0  0.48048  0.12934  0.72449  1.0000
  C   C178      1.0  0.98699  0.62976  0.71884  1.0000
  C   C179      1.0  0.48439  0.86871  0.73833  1.0000
  C   C180      1.0  0.97687  0.36646  0.67868  1.0000
  C   C181      1.0  0.51510  0.13065  0.72878  1.0000
  C   C182      1.0  0.02150  0.62740  0.72632  1.0000
  H   H81       1.0  0.53661  0.84631  0.75135  1.0000
  H   H82       1.0  0.02673  0.33710  0.68293  1.0000
  H   H83       1.0  0.46310  0.15269  0.70006  1.0000
  H   H84       1.0  0.97238  0.65717  0.71017  1.0000
  H   H85       1.0  0.46943  0.84208  0.74855  1.0000
  H   H86       1.0  0.95940  0.33951  0.64357  1.0000
  H   H87       1.0  0.53086  0.15516  0.70868  1.0000
  H   H88       1.0  0.03931  0.65215  0.72223  1.0000
  C   C183      1.0  0.05954  0.42003  0.76265  1.0000
  C   C184      1.0  0.56221  0.92496  0.72521  1.0000
  C   C185      1.0  0.93896  0.58124  0.74302  1.0000
  C   C186      1.0  0.43675  0.07629  0.75027  1.0000
  C   C187      1.0  0.93459  0.42571  0.72641  1.0000
  C   C188      1.0  0.43752  0.92168  0.74195  1.0000
  C   C189      1.0  0.06446  0.57316  0.76093  1.0000
  C   C190      1.0  0.56167  0.08001  0.75333  1.0000
  C   C191      1.0  0.58956  0.89431  0.73599  1.0000
  C   C192      1.0  0.90535  0.39579  0.70796  1.0000
  C   C193      1.0  0.09261  0.60413  0.76753  1.0000
  C   C194      1.0  0.61167  0.90046  0.85732  1.0000
  C   C195      1.0  0.87456  0.40243  0.63322  1.0000
  C   C196      1.0  0.09520  0.62468  0.66260  1.0000
  C   C197      1.0  0.59402  0.85910  0.62793  1.0000
  C   C198      1.0  0.11719  0.61436  0.88200  1.0000
  C   C199      1.0  0.90692  0.36010  0.76323  1.0000
  H   H89       1.0  0.60846  0.92762  0.94226  1.0000
  H   H90       1.0  0.87292  0.42934  0.58765  1.0000
  H   H91       1.0  0.07669  0.61722  0.57223  1.0000
  H   H92       1.0  0.57701  0.85413  0.53384  1.0000
  H   H93       1.0  0.11538  0.59924  0.96514  1.0000
  H   H94       1.0  0.93003  0.35431  0.82375  1.0000
  C   C200      1.0  0.63672  0.87164  0.87098  1.0000
  C   C201      1.0  0.84664  0.37490  0.61401  1.0000
  C   C202      1.0  0.12132  0.65421  0.67132  1.0000
  C   C203      1.0  0.62032  0.83126  0.63825  1.0000
  C   C204      1.0  0.14299  0.64450  0.89340  1.0000
  C   C205      1.0  0.87887  0.33259  0.74551  1.0000
  H   H95       1.0  0.65285  0.87549  0.96654  1.0000
  H   H96       1.0  0.82302  0.38000  0.55582  1.0000
  H   H97       1.0  0.12316  0.67048  0.59097  1.0000
  H   H98       1.0  0.62450  0.80519  0.55149  1.0000
  H   H99       1.0  0.16076  0.65388  0.98560  1.0000
  H   H100      1.0  0.87986  0.30533  0.78948  1.0000
  C   C206      1.0  0.64186  0.83707  0.76076  1.0000
  C   C207      1.0  0.84837  0.34008  0.67227  1.0000
  C   C208      1.0  0.14571  0.66395  0.78596  1.0000
  H   H101      1.0  0.23973  0.81985  0.75446  1.0000
  O   O9        1.0  0.31641  0.71160  0.73383  1.0000
  H   H102      1.0  0.20034  0.65154  0.66661  1.0000
  C   C209      1.0  0.66322  0.71872  0.75886  1.0000
  C   C210      1.0  0.63541  0.70736  0.69863  1.0000
  H   H103      1.0  0.61147  0.69637  0.64297  1.0000
  H   H104      1.0  0.74198  0.33050  0.82726  1.0000
  O   O10       1.0  0.80740  0.21779  0.64326  1.0000
  H   H105      1.0  0.69521  0.16289  0.64686  1.0000
  C   C211      1.0  0.16436  0.20512  0.72774  1.0000
  C   C212      1.0  0.14738  0.19887  0.81345  1.0000
  H   H106      1.0  0.13265  0.19346  0.88955  1.0000
  H   H107      1.0  0.75112  0.17676  0.62399  1.0000
  O   O11       1.0  0.68742  0.29038  0.82307  1.0000
  H   H108      1.0  0.80911  0.33395  0.85427  1.0000
  C   C213      1.0  0.33186  0.29214  0.76868  1.0000
  C   C214      1.0  0.35230  0.30269  0.70096  1.0000
  H   H109      1.0  0.36887  0.31359  0.63821  1.0000
  H   H110      1.0  0.26224  0.66843  0.70387  1.0000
  O   O12       1.0  0.18641  0.77874  0.75096  1.0000
  H   H111      1.0  0.29572  0.83653  0.74192  1.0000
  C   C215      1.0  0.83622  0.79091  0.73090  1.0000
  C   C216      1.0  0.86134  0.80337  0.80957  1.0000
  H   H112      1.0  0.88490  0.80939  0.87159  1.0000
  H   H113      1.0  0.75079  0.81103  0.61630  1.0000
  O   O13       1.0  0.69236  0.72866  0.83510  1.0000
  H   H114      1.0  0.80446  0.67939  0.81950  1.0000
  C   C217      1.0  0.33949  0.71816  0.65543  1.0000
  C   C218      1.0  0.36182  0.71721  0.58157  1.0000
  H   H115      1.0  0.38098  0.71990  0.51699  1.0000
  H   H116      1.0  0.25568  0.32273  0.84952  1.0000
  O   O14       1.0  0.18365  0.20868  0.63305  1.0000
  H   H117      1.0  0.29573  0.15707  0.66261  1.0000
  C   C219      1.0  0.83249  0.22400  0.74187  1.0000
  C   C220      1.0  0.85541  0.23007  0.83401  1.0000
  H   H118      1.0  0.87439  0.23310  0.91795  1.0000
  H   H119      1.0  0.23950  0.17021  0.62136  1.0000
  O   O15       1.0  0.31090  0.28356  0.85213  1.0000
  H   H120      1.0  0.19936  0.33581  0.81577  1.0000
  C   C221      1.0  0.65862  0.28861  0.74423  1.0000
  C   C222      1.0  0.63117  0.29171  0.68331  1.0000
  H   H121      1.0  0.60685  0.29359  0.62912  1.0000
  H   H122      1.0  0.75016  0.69461  0.84779  1.0000
  O   O16       1.0  0.80872  0.78115  0.64402  1.0000
  H   H123      1.0  0.69207  0.81918  0.61801  1.0000
  C   C223      1.0  0.15948  0.76258  0.66694  1.0000
  C   C224      1.0  0.13349  0.75337  0.59111  1.0000
  H   H124      1.0  0.11023  0.74511  0.52686  1.0000
  H   H125      1.0  0.49524  0.94544  0.62762  1.0000
  H   H126      1.0  0.99823  0.46188  0.81931  1.0000
  H   H127      1.0  0.50168  0.05621  0.85446  1.0000
  H   H128      1.0  0.99967  0.54545  0.80892  1.0000
  C  Sn1       1.0  0.39870  0.17730  0.84167  1.0000
  C   C225      1.0  0.37061  0.17561  0.74477  1.0000
  C  Sn2       1.0  0.36013  0.13733  0.65122  1.0000
  C  Sn3       1.0  0.37808  0.09995  0.65465  1.0000
  C   C226      1.0  0.40614  0.10165  0.75151  1.0000
  C  Sn4       1.0  0.41665  0.13992  0.84509  1.0000
  O  Te1       1.0  0.40872  0.21592  0.93421  1.0000
  O  Te2       1.0  0.33199  0.13643  0.55527  1.0000
  O  Te3       1.0  0.36803  0.06132  0.56200  1.0000
  O  Te4       1.0  0.44477  0.14082  0.94101  1.0000
  Mg  Mg1       1.0  0.32814  0.07622  0.45069  1.0000
  Mg  Mg2       1.0  0.42216  0.12279  0.04568  1.0000
  C  Sn5       1.0  0.91093  0.64372  0.18445  1.0000
  C   C227      1.0  0.91288  0.61285  0.25864  1.0000
  C  Sn6       1.0  0.88529  0.60448  0.32423  1.0000
  C  Sn7       1.0  0.85511  0.62741  0.31543  1.0000
  C   C228      1.0  0.85316  0.65825  0.24127  1.0000
  C  Sn8       1.0  0.88075  0.66666  0.17565  1.0000
  O  Te5       1.0  0.93883  0.65157  0.11968  1.0000
  O  Te6       1.0  0.88784  0.57348  0.39784  1.0000
  O  Te7       1.0  0.82720  0.61954  0.38029  1.0000
  O  Te8       1.0  0.87820  0.69763  0.10207  1.0000
  Mg  Mg3       1.0  0.84299  0.57425  0.46827  1.0000
  Mg  Mg4       1.0  0.92303  0.69687  0.03153  1.0000
  C  Sn9       1.0  0.39387  0.84952  0.88847  1.0000
  C   C229      1.0  0.36346  0.83804  0.80374  1.0000
  C  Sn10      1.0  0.35771  0.85037  0.68116  1.0000
  C  Sn11      1.0  0.38289  0.87468  0.64239  1.0000
  C   C230      1.0  0.41329  0.88615  0.72708  1.0000
  C  Sn12      1.0  0.41906  0.87383  0.84971  1.0000
  O  Te9       1.0  0.37261  0.75862  0.01056  1.0000
  O  Te10      1.0  0.32710  0.83852  0.59816  1.0000
  O  Te11      1.0  0.37766  0.88736  0.52020  1.0000
  O  Te12      1.0  0.44965  0.88567  0.93267  1.0000
  Mg  Mg5       1.0  0.33188  0.86341  0.44165  1.0000
  Mg  Mg6       1.0  0.41843  0.78256  0.08915  1.0000
  C  Sn13      1.0  0.61805  0.16924  0.88758  1.0000
  C   C231      1.0  0.63911  0.16983  0.78557  1.0000
  C  Sn14      1.0  0.63168  0.14347  0.65376  1.0000
  C  Sn15      1.0  0.60258  0.11596  0.62325  1.0000
  C   C232      1.0  0.58154  0.11539  0.72521  1.0000
  C  Sn16      1.0  0.58895  0.14173  0.85706  1.0000
  O  Te13      1.0  0.59950  0.11765  0.01863  1.0000
  O  Te14      1.0  0.65311  0.14461  0.55349  1.0000
  O  Te15      1.0  0.59467  0.08932  0.49206  1.0000
  O  Te16      1.0  0.56753  0.14061  0.95728  1.0000
  Mg  Mg7       1.0  0.63162  0.10237  0.39024  1.0000
  Mg  Mg8       1.0  0.56252  0.10463  0.12055  1.0000
  C  Sn17      1.0  0.12528  0.39869  0.39665  1.0000
  C   C233      1.0  0.10376  0.39976  0.27938  1.0000
  C  Sn18      1.0  0.10027  0.36460  0.16642  1.0000
  C  Sn19      1.0  0.11865  0.32759  0.17078  1.0000
  C   C234      1.0  0.14014  0.32653  0.28799  1.0000
  C  Sn20      1.0  0.14366  0.36168  0.40100  1.0000
  O  Te17      1.0  0.12838  0.43421  0.50838  1.0000
  O  Te18      1.0  0.07862  0.36643  0.05031  1.0000
  O  Te19      1.0  0.11553  0.29206  0.05891  1.0000
  O  Te20      1.0  0.16529  0.35986  0.51706  1.0000
  Mg  Mg9       1.0  0.10936  0.38815  0.92411  1.0000
  Mg  Mg10      1.0  0.16102  0.41634  0.64334  1.0000
  C  Sn21      1.0  0.12561  0.35807  0.87914  1.0000
  C   C235      1.0  0.13011  0.32457  0.76602  1.0000
  C  Sn22      1.0  0.11371  0.32400  0.63679  1.0000
  C  Sn23      1.0  0.09237  0.35763  0.62025  1.0000
  C   C236      1.0  0.08787  0.39111  0.73331  1.0000
  C  Sn24      1.0  0.10427  0.39170  0.86260  1.0000
  O  Te21      1.0  0.11579  0.27977  0.00738  1.0000
  O  Te22      1.0  0.11860  0.29016  0.52524  1.0000
  O  Te23      1.0  0.07571  0.35769  0.49188  1.0000
  O  Te24      1.0  0.09939  0.42552  0.97409  1.0000
  Mg  Mg11      1.0  0.09042  0.30461  0.37118  1.0000
  Mg  Mg12      1.0  0.10109  0.33290  0.12818  1.0000
  C  Sn25      1.0  0.87741  0.62090  0.81532  1.0000
  C   C237      1.0  0.90393  0.61010  0.73331  1.0000
  C  Sn26      1.0  0.91248  0.63572  0.64942  1.0000
  C  Sn27      1.0  0.89415  0.67294  0.64751  1.0000
  C   C238      1.0  0.86765  0.68372  0.72949  1.0000
  C  Sn28      1.0  0.85908  0.65811  0.81340  1.0000
  O  Te25      1.0  0.86930  0.59482  0.89840  1.0000
  O  Te26      1.0  0.93909  0.62427  0.56831  1.0000
  O  Te27      1.0  0.90229  0.69902  0.56433  1.0000
  O  Te28      1.0  0.83249  0.66956  0.89450  1.0000
  Mg  Mg13      1.0  0.94058  0.67004  0.47230  1.0000
  Mg  Mg14      1.0  0.83099  0.62382  0.99059  1.0000
  C  Sn29      1.0  0.59505  0.16002  0.33058  1.0000
  C   C239      1.0  0.58415  0.12166  0.23824  1.0000
  C  Sn30      1.0  0.60444  0.10153  0.13761  1.0000
  C  Sn31      1.0  0.63629  0.12011  0.12914  1.0000
  C   C240      1.0  0.64717  0.15845  0.22145  1.0000
  C  Sn32      1.0  0.62689  0.17861  0.32211  1.0000
  O  Te29      1.0  0.57435  0.17959  0.43035  1.0000
  O  Te30      1.0  0.59300  0.06320  0.04641  1.0000
  O  Te31      1.0  0.65698  0.10051  0.02925  1.0000
  O  Te32      1.0  0.63832  0.21691  0.41328  1.0000
  Mg  Mg15      1.0  0.65678  0.12691  0.92846  1.0000
  Mg  Mg16      1.0  0.60104  0.23144  0.53130  1.0000
