data_image0
_chemical_formula_structural       C12O3H3C3N3H6C12O3H3C3N3H6SnCSn2CSnTe4Mg2SnCSn2CSnTe4Mg2SnCSn2CSnTe4Mg2SnCSn2CSnTe4Mg2SnCSn2CSnTe4Mg2SnCSn2CSnTe4Mg2
_chemical_formula_sum              "C42 O6 H18 N6 Sn24 Te24 Mg12"
_cell_length_a       18.8055
_cell_length_b       17.5111
_cell_length_c       8.2638
_cell_angle_alpha    89.9434
_cell_angle_beta     123.42
_cell_angle_gamma    114.421

_symmetry_space_group_name_H-M    'P1'
_space_group_IT_number       1

loop_
  _space_group_symop_operation_xyz
  'x, y, z'

loop_
  _atom_site_type_symbol
  _atom_site_label
  _atom_site_symmetry_multiplicity
  _atom_site_fract_x
  _atom_site_fract_y
  _atom_site_fract_z
  _atom_site_occupancy
  C   C1        1.0  0.60811  0.53327  0.23043  1.0000
  C   C2        1.0  0.48408  0.55165  0.23410  1.0000
  C   C3        1.0  0.48233  0.40882  0.23923  1.0000
  C   C4        1.0  0.56828  0.44292  0.23977  1.0000
  C   C5        1.0  0.56967  0.58955  0.23383  1.0000
  C   C6        1.0  0.43850  0.46107  0.23127  1.0000
  C   C7        1.0  0.07684  0.79899  0.25149  1.0000
  C   C8        1.0  0.21006  0.78874  0.28237  1.0000
  C   C9        1.0  0.20947  0.92864  0.28458  1.0000
  C   C10       1.0  0.12013  0.88720  0.25654  1.0000
  C   C11       1.0  0.12194  0.75059  0.25945  1.0000
  C   C12       1.0  0.25512  0.87912  0.30486  1.0000
  O   O1        1.0  0.60589  0.39687  0.24854  1.0000
  O   O2        1.0  0.60879  0.66924  0.23776  1.0000
  O   O3        1.0  0.36190  0.42848  0.22643  1.0000
  H   H1        1.0  0.08305  0.92431  0.23490  1.0000
  H   H2        1.0  0.08752  0.68141  0.24683  1.0000
  H   H3        1.0  0.32622  0.91151  0.33523  1.0000
  C   C13       1.0  0.44787  0.32427  0.25422  1.0000
  C   C14       1.0  0.45050  0.60739  0.24401  1.0000
  C   C15       1.0  0.68729  0.56326  0.22465  1.0000
  N   N1        1.0  0.37088  0.28210  0.25713  1.0000
  N   N2        1.0  0.37347  0.58209  0.24660  1.0000
  N   N3        1.0  0.73372  0.64445  0.22081  1.0000
  H   H4        1.0  0.48993  0.67524  0.25190  1.0000
  H   H5        1.0  0.71212  0.51712  0.22394  1.0000
  H   H6        1.0  0.48758  0.29098  0.26657  1.0000
  H   H7        1.0  0.34070  0.32068  0.25328  1.0000
  H   H8        1.0  0.34330  0.51625  0.24239  1.0000
  H   H9        1.0  0.70434  0.68263  0.22638  1.0000
  C   C16       1.0  0.60028  0.52512  0.72808  1.0000
  C   C17       1.0  0.47740  0.54440  0.73465  1.0000
  C   C18       1.0  0.47599  0.40156  0.74190  1.0000
  C   C19       1.0  0.56049  0.43483  0.73735  1.0000
  C   C20       1.0  0.56248  0.58178  0.73253  1.0000
  C   C21       1.0  0.43181  0.45382  0.73223  1.0000
  C   C22       1.0  0.07074  0.79228  0.75755  1.0000
  C   C23       1.0  0.19699  0.77943  0.76125  1.0000
  C   C24       1.0  0.19552  0.91898  0.76236  1.0000
  C   C25       1.0  0.11368  0.88057  0.76246  1.0000
  C   C26       1.0  0.11556  0.74389  0.76316  1.0000
  C   C27       1.0  0.23462  0.86673  0.75738  1.0000
  O   O4        1.0  0.59658  0.38803  0.74139  1.0000
  O   O5        1.0  0.60138  0.66127  0.73493  1.0000
  O   O6        1.0  0.35440  0.42090  0.72447  1.0000
  H   H10       1.0  0.08305  0.92043  0.76700  1.0000
  H   H11       1.0  0.08642  0.67706  0.76967  1.0000
  H   H12       1.0  0.29307  0.89383  0.74179  1.0000
  C   C28       1.0  0.44280  0.31770  0.76059  1.0000
  C   C29       1.0  0.44438  0.60070  0.74441  1.0000
  C   C30       1.0  0.67837  0.55448  0.71879  1.0000
  N   N4        1.0  0.36703  0.27655  0.76802  1.0000
  N   N5        1.0  0.36740  0.57599  0.74712  1.0000
  N   N6        1.0  0.72368  0.63521  0.71210  1.0000
  H   H13       1.0  0.48390  0.66826  0.75078  1.0000
  H   H14       1.0  0.70302  0.50834  0.71694  1.0000
  H   H15       1.0  0.48131  0.28380  0.76840  1.0000
  H   H16       1.0  0.33467  0.31425  0.75543  1.0000
  H   H17       1.0  0.33598  0.50995  0.74011  1.0000
  H   H18       1.0  0.69429  0.67328  0.71863  1.0000
  C  Sn1       1.0  0.88803  0.63606  0.26463  1.0000
  C   C31       1.0  0.83838  0.67524  0.27353  1.0000
  C  Sn2       1.0  0.85622  0.75787  0.24437  1.0000
  C  Sn3       1.0  0.92508  0.80226  0.20538  1.0000
  C   C32       1.0  0.97467  0.76308  0.19646  1.0000
  C  Sn4       1.0  0.95689  0.68045  0.22563  1.0000
  O  Te1       1.0  0.86903  0.55341  0.29423  1.0000
  O  Te2       1.0  0.80572  0.79572  0.25405  1.0000
  O  Te3       1.0  0.94405  0.88497  0.17577  1.0000
  O  Te4       1.0  0.00734  0.64259  0.21594  1.0000
  Mg  Mg1       1.0  0.85682  0.90938  0.20339  1.0000
  Mg  Mg2       1.0  0.95625  0.52893  0.26646  1.0000
  C  Sn5       1.0  0.32504  0.75602  0.19908  1.0000
  C   C33       1.0  0.24897  0.73121  0.21547  1.0000
  C  Sn6       1.0  0.21959  0.65695  0.27570  1.0000
  C  Sn7       1.0  0.26727  0.60647  0.32062  1.0000
  C   C34       1.0  0.34330  0.63129  0.30426  1.0000
  C  Sn8       1.0  0.37273  0.70553  0.24400  1.0000
  O  Te5       1.0  0.35321  0.83049  0.13861  1.0000
  O  Te6       1.0  0.14333  0.63344  0.29093  1.0000
  O  Te7       1.0  0.23903  0.53194  0.38112  1.0000
  O  Te8       1.0  0.44894  0.72906  0.22880  1.0000
  Mg  Mg3       1.0  0.13141  0.52656  0.37949  1.0000
  Mg  Mg4       1.0  0.46096  0.83595  0.14036  1.0000
  C  Sn9       1.0  0.20645  0.08977  0.25201  1.0000
  C   C35       1.0  0.61427  0.02521  0.23465  1.0000
  C  Sn10      1.0  0.31323  0.04747  0.24831  1.0000
  C  Sn11      1.0  0.37568  0.13613  0.28012  1.0000
  C   C36       1.0  0.35284  0.20063  0.29750  1.0000
  C  Sn12      1.0  0.26890  0.17842  0.28382  1.0000
  O  Te9       1.0  0.12216  0.06602  0.23789  1.0000
  O  Te10      1.0  0.71950  0.98177  0.23041  1.0000
  O  Te11      1.0  0.46002  0.15984  0.29423  1.0000
  O  Te12      1.0  0.24761  0.24407  0.30173  1.0000
  Mg  Mg5       1.0  0.45779  0.04681  0.26026  1.0000
  Mg  Mg6       1.0  0.12439  0.17912  0.27202  1.0000
  C  Sn13      1.0  0.85372  0.76925  0.67641  1.0000
  C   C37       1.0  0.79855  0.68157  0.65604  1.0000
  C  Sn14      1.0  0.83789  0.62552  0.69542  1.0000
  C  Sn15      1.0  0.93442  0.65778  0.75656  1.0000
  C   C38       1.0  0.98954  0.74542  0.77695  1.0000
  C  Sn16      1.0  0.95025  0.80152  0.73756  1.0000
  O  Te13      1.0  0.81292  0.82411  0.63626  1.0000
  O  Te14      1.0  0.78131  0.53811  0.67393  1.0000
  O  Te15      1.0  0.97520  0.60283  0.79671  1.0000
  O  Te16      1.0  0.00678  0.88888  0.75905  1.0000
  Mg  Mg7       1.0  0.86927  0.48899  0.74612  1.0000
  Mg  Mg8       1.0  0.91892  0.93806  0.68701  1.0000
  C  Sn17      1.0  0.21982  0.62684  0.80012  1.0000
  C   C39       1.0  0.24992  0.71551  0.81204  1.0000
  C  Sn18      1.0  0.31899  0.76309  0.77901  1.0000
  C  Sn19      1.0  0.35878  0.72116  0.73298  1.0000
  C   C40       1.0  0.32867  0.63254  0.72105  1.0000
  C  Sn20      1.0  0.25960  0.58491  0.75409  1.0000
  O  Te17      1.0  0.15067  0.58055  0.83369  1.0000
  O  Te18      1.0  0.34797  0.85167  0.79182  1.0000
  O  Te19      1.0  0.42798  0.76753  0.69941  1.0000
  O  Te20      1.0  0.23061  0.49638  0.74127  1.0000
  Mg  Mg9       1.0  0.44417  0.88684  0.73362  1.0000
  Mg  Mg10      1.0  0.13439  0.46114  0.79934  1.0000
  C  Sn21      1.0  0.36298  0.11656  0.76437  1.0000
  C   C41       1.0  0.32667  0.17480  0.73283  1.0000
  C  Sn22      1.0  0.24730  0.15512  0.73501  1.0000
  C  Sn23      1.0  0.58831  0.07559  0.76956  1.0000
  C   C42       1.0  0.62462  0.01742  0.80111  1.0000
  C  Sn24      1.0  0.70398  0.03704  0.79893  1.0000
  O  Te21      1.0  0.44240  0.13759  0.76157  1.0000
  O  Te22      1.0  0.21227  0.21435  0.70302  1.0000
  O  Te23      1.0  0.50883  0.05461  0.77234  1.0000
  O  Te24      1.0  0.73902  0.97787  0.83092  1.0000
  Mg  Mg11      1.0  0.10251  0.15636  0.72107  1.0000
  Mg  Mg12      1.0  0.84880  0.03581  0.81301  1.0000
