data_image0
_chemical_formula_structural       C12O3H3C7N3CH4CH6C12O3H3C11N3C2H6C2H8SnCSn2CSnTe4Mg2SnCSn2CSnTe4Mg2SnCSn2CSnTe4Mg2
_chemical_formula_sum              "C54 O6 H30 N6 Sn12 Te12 Mg6"
_cell_length_a       18.8055
_cell_length_b       17.5111
_cell_length_c       8.2638
_cell_angle_alpha    89.9434
_cell_angle_beta     123.42
_cell_angle_gamma    114.421

_symmetry_space_group_name_H-M    'P1'
_space_group_IT_number       1

loop_
  _space_group_symop_operation_xyz
  'x, y, z'

loop_
  _atom_site_type_symbol
  _atom_site_label
  _atom_site_symmetry_multiplicity
  _atom_site_fract_x
  _atom_site_fract_y
  _atom_site_fract_z
  _atom_site_occupancy
  C   C1        1.0  0.60811  0.53327  0.23043  1.0000
  C   C2        1.0  0.48408  0.55165  0.23410  1.0000
  C   C3        1.0  0.48233  0.40882  0.23923  1.0000
  C   C4        1.0  0.56828  0.44292  0.23977  1.0000
  C   C5        1.0  0.56967  0.58955  0.23383  1.0000
  C   C6        1.0  0.43850  0.46107  0.23127  1.0000
  C   C7        1.0  0.07684  0.79899  0.25149  1.0000
  C   C8        1.0  0.21006  0.78874  0.28237  1.0000
  C   C9        1.0  0.20947  0.92864  0.28458  1.0000
  C   C10       1.0  0.12013  0.88720  0.25654  1.0000
  C   C11       1.0  0.12194  0.75059  0.25945  1.0000
  C   C12       1.0  0.25512  0.87912  0.30486  1.0000
  O   O1        1.0  0.60589  0.39687  0.24854  1.0000
  O   O2        1.0  0.60879  0.66924  0.23776  1.0000
  O   O3        1.0  0.36190  0.42848  0.22643  1.0000
  H   H1        1.0  0.08305  0.92431  0.23490  1.0000
  H   H2        1.0  0.08752  0.68141  0.24683  1.0000
  H   H3        1.0  0.32622  0.91151  0.33523  1.0000
  C   C13       1.0  0.98600  0.75784  0.23599  1.0000
  C   C14       1.0  0.93677  0.66746  0.21119  1.0000
  C   C15       1.0  0.44787  0.32427  0.25422  1.0000
  C   C16       1.0  0.45050  0.60739  0.24401  1.0000
  C   C17       1.0  0.68729  0.56326  0.22465  1.0000
  C   C18       1.0  0.94498  0.80702  0.24818  1.0000
  C   C19       1.0  0.86108  0.76889  0.23851  1.0000
  N   N1        1.0  0.37088  0.28210  0.25713  1.0000
  N   N2        1.0  0.37347  0.58209  0.24660  1.0000
  N   N3        1.0  0.73372  0.64445  0.22081  1.0000
  C   C20       1.0  0.85355  0.62841  0.20367  1.0000
  H   H4        1.0  0.96310  0.62547  0.19478  1.0000
  H   H5        1.0  0.48993  0.67524  0.25190  1.0000
  H   H6        1.0  0.71212  0.51712  0.22394  1.0000
  H   H7        1.0  0.97970  0.87711  0.26774  1.0000
  C   C21       1.0  0.81515  0.67922  0.22001  1.0000
  H   H8        1.0  0.83122  0.80850  0.24941  1.0000
  H   H9        1.0  0.81825  0.55827  0.18318  1.0000
  H   H10       1.0  0.48758  0.29098  0.26657  1.0000
  H   H11       1.0  0.34070  0.32068  0.25328  1.0000
  H   H12       1.0  0.34330  0.51625  0.24239  1.0000
  H   H13       1.0  0.70434  0.68263  0.22638  1.0000
  C   C22       1.0  0.60028  0.52512  0.72808  1.0000
  C   C23       1.0  0.47740  0.54440  0.73465  1.0000
  C   C24       1.0  0.47599  0.40156  0.74190  1.0000
  C   C25       1.0  0.56049  0.43483  0.73735  1.0000
  C   C26       1.0  0.56248  0.58178  0.73253  1.0000
  C   C27       1.0  0.43181  0.45382  0.73223  1.0000
  C   C28       1.0  0.07074  0.79228  0.75755  1.0000
  C   C29       1.0  0.19699  0.77943  0.76125  1.0000
  C   C30       1.0  0.19552  0.91898  0.76236  1.0000
  C   C31       1.0  0.11368  0.88057  0.76246  1.0000
  C   C32       1.0  0.11556  0.74389  0.76316  1.0000
  C   C33       1.0  0.23462  0.86673  0.75738  1.0000
  O   O4        1.0  0.59658  0.38803  0.74139  1.0000
  O   O5        1.0  0.60138  0.66127  0.73493  1.0000
  O   O6        1.0  0.35440  0.42090  0.72447  1.0000
  H   H14       1.0  0.08305  0.92043  0.76700  1.0000
  H   H15       1.0  0.08642  0.67706  0.76967  1.0000
  H   H16       1.0  0.29307  0.89383  0.74179  1.0000
  C   C34       1.0  0.97994  0.75088  0.74268  1.0000
  C   C35       1.0  0.24152  0.72693  0.75940  1.0000
  C   C36       1.0  0.93060  0.66023  0.71589  1.0000
  C   C37       1.0  0.32946  0.76585  0.77991  1.0000
  C   C38       1.0  0.44280  0.31770  0.76059  1.0000
  C   C39       1.0  0.44438  0.60070  0.74441  1.0000
  C   C40       1.0  0.67837  0.55448  0.71879  1.0000
  C   C41       1.0  0.19988  0.63646  0.74043  1.0000
  C   C42       1.0  0.93679  0.79919  0.74811  1.0000
  C   C43       1.0  0.85142  0.76023  0.73283  1.0000
  C   C44       1.0  0.24282  0.58809  0.74021  1.0000
  N   N4        1.0  0.36703  0.27655  0.76802  1.0000
  N   N5        1.0  0.36740  0.57599  0.74712  1.0000
  N   N6        1.0  0.72368  0.63521  0.71210  1.0000
  C   C45       1.0  0.37317  0.71847  0.77952  1.0000
  C   C46       1.0  0.84561  0.62026  0.70195  1.0000
  H   H17       1.0  0.95807  0.61870  0.70273  1.0000
  H   H18       1.0  0.36561  0.83543  0.79627  1.0000
  H   H19       1.0  0.48390  0.66826  0.75078  1.0000
  H   H20       1.0  0.70302  0.50834  0.71694  1.0000
  H   H21       1.0  0.13257  0.60247  0.72597  1.0000
  H   H22       1.0  0.97057  0.86922  0.76636  1.0000
  C   C47       1.0  0.80594  0.67054  0.71437  1.0000
  C   C48       1.0  0.32962  0.62819  0.75765  1.0000
  H   H23       1.0  0.82008  0.79928  0.73894  1.0000
  H   H24       1.0  0.20902  0.51834  0.72560  1.0000
  H   H25       1.0  0.44037  0.75197  0.79352  1.0000
  H   H26       1.0  0.81004  0.54989  0.67928  1.0000
  H   H27       1.0  0.48131  0.28380  0.76840  1.0000
  H   H28       1.0  0.33467  0.31425  0.75543  1.0000
  H   H29       1.0  0.33598  0.50995  0.74011  1.0000
  H   H30       1.0  0.69429  0.67328  0.71863  1.0000
  C  Sn1       1.0  0.22451  0.59485  0.21117  1.0000
  C   C49       1.0  0.30169  0.62014  0.19826  1.0000
  C  Sn2       1.0  0.36446  0.70895  0.24294  1.0000
  C  Sn3       1.0  0.34983  0.77384  0.30188  1.0000
  C   C50       1.0  0.27270  0.74854  0.31480  1.0000
  C  Sn4       1.0  0.20987  0.65974  0.27010  1.0000
  O  Te1       1.0  0.16266  0.50569  0.16581  1.0000
  O  Te2       1.0  0.44109  0.73263  0.22889  1.0000
  O  Te3       1.0  0.41175  0.86306  0.34724  1.0000
  O  Te4       1.0  0.13330  0.63606  0.28416  1.0000
  Mg  Mg1       1.0  0.50577  0.86251  0.30611  1.0000
  Mg  Mg2       1.0  0.06860  0.50620  0.20709  1.0000
  C  Sn5       1.0  0.35744  0.07864  0.30520  1.0000
  C   C51       1.0  0.66998  0.03601  0.33200  1.0000
  C  Sn6       1.0  0.22820  0.07242  0.31314  1.0000
  C  Sn7       1.0  0.24408  0.15310  0.26639  1.0000
  C   C52       1.0  0.31647  0.19568  0.23958  1.0000
  C  Sn8       1.0  0.37332  0.15933  0.25845  1.0000
  O  Te5       1.0  0.79833  0.04104  0.32477  1.0000
  O  Te6       1.0  0.54122  0.02860  0.34068  1.0000
  O  Te7       1.0  0.18810  0.19069  0.24684  1.0000
  O  Te8       1.0  0.44523  0.20310  0.23090  1.0000
  Mg  Mg3       1.0  0.09889  0.10609  0.29823  1.0000
  Mg  Mg4       1.0  0.50258  0.12565  0.27321  1.0000
  C  Sn9       1.0  0.56928  0.07288  0.66609  1.0000
  C   C53       1.0  0.60743  0.01581  0.70674  1.0000
  C  Sn10      1.0  0.70762  0.04859  0.80747  1.0000
  C  Sn11      1.0  0.38604  0.14035  0.86897  1.0000
  C   C54       1.0  0.34790  0.19737  0.82835  1.0000
  C  Sn12      1.0  0.24771  0.16464  0.72759  1.0000
  O  Te9       1.0  0.46888  0.03865  0.56520  1.0000
  O  Te10      1.0  0.74404  0.99024  0.84635  1.0000
  O  Te11      1.0  0.48651  0.17455  0.96992  1.0000
  O  Te12      1.0  0.21129  0.22294  0.68874  1.0000
  Mg  Mg5       1.0  0.88617  0.06861  0.98831  1.0000
  Mg  Mg6       1.0  0.06918  0.14465  0.54690  1.0000
