data_image0
_chemical_formula_structural       C12O3H3C3N3H6C12O3H3C3N3H6C2Sn2C2HTe2HMgC2Sn2C2HTe2HMgC2Sn2C2HTe2HMgC2Sn2C2HTe2HMgC2Sn2C2HTe2HMgC2Sn2C2HTe2HMg
_chemical_formula_sum              "C54 O6 H30 N6 Sn12 Te12 Mg6"
_cell_length_a       18.8055
_cell_length_b       17.5111
_cell_length_c       8.2638
_cell_angle_alpha    89.9434
_cell_angle_beta     123.42
_cell_angle_gamma    114.421

_symmetry_space_group_name_H-M    'P1'
_space_group_IT_number       1

loop_
  _space_group_symop_operation_xyz
  'x, y, z'

loop_
  _atom_site_type_symbol
  _atom_site_label
  _atom_site_symmetry_multiplicity
  _atom_site_fract_x
  _atom_site_fract_y
  _atom_site_fract_z
  _atom_site_occupancy
  C   C1        1.0  0.60811  0.53327  0.23043  1.0000
  C   C2        1.0  0.48408  0.55165  0.23410  1.0000
  C   C3        1.0  0.48233  0.40882  0.23923  1.0000
  C   C4        1.0  0.56828  0.44292  0.23977  1.0000
  C   C5        1.0  0.56967  0.58955  0.23383  1.0000
  C   C6        1.0  0.43850  0.46107  0.23127  1.0000
  C   C7        1.0  0.07684  0.79899  0.25149  1.0000
  C   C8        1.0  0.21006  0.78874  0.28237  1.0000
  C   C9        1.0  0.20947  0.92864  0.28458  1.0000
  C   C10       1.0  0.12013  0.88720  0.25654  1.0000
  C   C11       1.0  0.12194  0.75059  0.25945  1.0000
  C   C12       1.0  0.25512  0.87912  0.30486  1.0000
  O   O1        1.0  0.60589  0.39687  0.24854  1.0000
  O   O2        1.0  0.60879  0.66924  0.23776  1.0000
  O   O3        1.0  0.36190  0.42848  0.22643  1.0000
  H   H1        1.0  0.08305  0.92431  0.23490  1.0000
  H   H2        1.0  0.08752  0.68141  0.24683  1.0000
  H   H3        1.0  0.32622  0.91151  0.33523  1.0000
  C   C13       1.0  0.44787  0.32427  0.25422  1.0000
  C   C14       1.0  0.45050  0.60739  0.24401  1.0000
  C   C15       1.0  0.68729  0.56326  0.22465  1.0000
  N   N1        1.0  0.37088  0.28210  0.25713  1.0000
  N   N2        1.0  0.37347  0.58209  0.24660  1.0000
  N   N3        1.0  0.73372  0.64445  0.22081  1.0000
  H   H4        1.0  0.48993  0.67524  0.25190  1.0000
  H   H5        1.0  0.71212  0.51712  0.22394  1.0000
  H   H6        1.0  0.48758  0.29098  0.26657  1.0000
  H   H7        1.0  0.34070  0.32068  0.25328  1.0000
  H   H8        1.0  0.34330  0.51625  0.24239  1.0000
  H   H9        1.0  0.70434  0.68263  0.22638  1.0000
  C   C16       1.0  0.60028  0.52512  0.72808  1.0000
  C   C17       1.0  0.47740  0.54440  0.73465  1.0000
  C   C18       1.0  0.47599  0.40156  0.74190  1.0000
  C   C19       1.0  0.56049  0.43483  0.73735  1.0000
  C   C20       1.0  0.56248  0.58178  0.73253  1.0000
  C   C21       1.0  0.43181  0.45382  0.73223  1.0000
  C   C22       1.0  0.07074  0.79228  0.75755  1.0000
  C   C23       1.0  0.19699  0.77943  0.76125  1.0000
  C   C24       1.0  0.19552  0.91898  0.76236  1.0000
  C   C25       1.0  0.11368  0.88057  0.76246  1.0000
  C   C26       1.0  0.11556  0.74389  0.76316  1.0000
  C   C27       1.0  0.23462  0.86673  0.75738  1.0000
  O   O4        1.0  0.59658  0.38803  0.74139  1.0000
  O   O5        1.0  0.60138  0.66127  0.73493  1.0000
  O   O6        1.0  0.35440  0.42090  0.72447  1.0000
  H   H10       1.0  0.08305  0.92043  0.76700  1.0000
  H   H11       1.0  0.08642  0.67706  0.76967  1.0000
  H   H12       1.0  0.29307  0.89383  0.74179  1.0000
  C   C28       1.0  0.44280  0.31770  0.76059  1.0000
  C   C29       1.0  0.44438  0.60070  0.74441  1.0000
  C   C30       1.0  0.67837  0.55448  0.71879  1.0000
  N   N4        1.0  0.36703  0.27655  0.76802  1.0000
  N   N5        1.0  0.36740  0.57599  0.74712  1.0000
  N   N6        1.0  0.72368  0.63521  0.71210  1.0000
  H   H13       1.0  0.48390  0.66826  0.75078  1.0000
  H   H14       1.0  0.70302  0.50834  0.71694  1.0000
  H   H15       1.0  0.48131  0.28380  0.76840  1.0000
  H   H16       1.0  0.33467  0.31425  0.75543  1.0000
  H   H17       1.0  0.33598  0.50995  0.74011  1.0000
  H   H18       1.0  0.69429  0.67328  0.71863  1.0000
  C   C31       1.0  0.91860  0.64789  0.21208  1.0000
  C   C32       1.0  0.97084  0.73357  0.21726  1.0000
  C  Sn1       1.0  0.94599  0.79664  0.23340  1.0000
  C  Sn2       1.0  0.86735  0.77331  0.24459  1.0000
  C   C33       1.0  0.81559  0.68744  0.23943  1.0000
  C   C34       1.0  0.84106  0.62484  0.22319  1.0000
  H   H19       1.0  0.93834  0.59946  0.19963  1.0000
  O  Te1       1.0  0.99892  0.88193  0.23829  1.0000
  O  Te2       1.0  0.84098  0.83506  0.26086  1.0000
  H   H20       1.0  0.80064  0.55852  0.21931  1.0000
  Mg  Mg1       1.0  0.93517  0.94280  0.26167  1.0000
  C   C35       1.0  0.37021  0.74205  0.24955  1.0000
  C   C36       1.0  0.35225  0.65845  0.27233  1.0000
  C  Sn3       1.0  0.27761  0.60829  0.28884  1.0000
  C  Sn4       1.0  0.21998  0.64261  0.28233  1.0000
  C   C37       1.0  0.23848  0.72629  0.25936  1.0000
  C   C38       1.0  0.31338  0.77594  0.24304  1.0000
  H   H21       1.0  0.42812  0.78045  0.23681  1.0000
  O  Te3       1.0  0.26067  0.52491  0.31159  1.0000
  O  Te4       1.0  0.14488  0.59386  0.29842  1.0000
  H   H22       1.0  0.32722  0.84064  0.22528  1.0000
  Mg  Mg2       1.0  0.15002  0.48363  0.32732  1.0000
  C   C39       1.0  0.24450  0.14685  0.30627  1.0000
  C   C40       1.0  0.31741  0.19122  0.28152  1.0000
  C  Sn5       1.0  0.35735  0.14724  0.24713  1.0000
  C  Sn6       1.0  0.32351  0.05716  0.23735  1.0000
  C   C41       1.0  0.63548  0.01334  0.26216  1.0000
  C   C42       1.0  0.21105  0.05799  0.29657  1.0000
  H   H23       1.0  0.21394  0.18137  0.33278  1.0000
  O  Te5       1.0  0.43016  0.19257  0.22281  1.0000
  O  Te6       1.0  0.74712  0.01161  0.20308  1.0000
  H   H24       1.0  0.53954  0.02360  0.31559  1.0000
  Mg  Mg3       1.0  0.46007  0.10197  0.17940  1.0000
  C   C43       1.0  0.86315  0.61771  0.69683  1.0000
  C   C44       1.0  0.81575  0.65586  0.71955  1.0000
  C  Sn7       1.0  0.84886  0.74568  0.74529  1.0000
  C  Sn8       1.0  0.93094  0.79812  0.74823  1.0000
  C   C45       1.0  0.97781  0.75932  0.72523  1.0000
  C   C46       1.0  0.94410  0.66938  0.69963  1.0000
  H   H25       1.0  0.83704  0.54811  0.67691  1.0000
  O  Te7       1.0  0.80067  0.78274  0.76784  1.0000
  O  Te8       1.0  0.96553  0.88805  0.77364  1.0000
  H   H26       1.0  0.98077  0.63985  0.68192  1.0000
  Mg  Mg4       1.0  0.87532  0.90821  0.79830  1.0000
  C   C47       1.0  0.35102  0.76568  0.78794  1.0000
  C   C48       1.0  0.26194  0.73720  0.75654  1.0000
  C  Sn9       1.0  0.20550  0.64949  0.73348  1.0000
  C  Sn10      1.0  0.23906  0.58932  0.74215  1.0000
  C   C49       1.0  0.32831  0.61848  0.77377  1.0000
  C   C50       1.0  0.38420  0.70640  0.79659  1.0000
  H   H27       1.0  0.39430  0.83371  0.80571  1.0000
  O  Te9       1.0  0.11666  0.62212  0.70214  1.0000
  O  Te10      1.0  0.18412  0.50130  0.71965  1.0000
  H   H28       1.0  0.45320  0.72844  0.82103  1.0000
  Mg  Mg5       1.0  0.06793  0.49553  0.67998  1.0000
  C   C51       1.0  0.38119  0.12321  0.83283  1.0000
  C   C52       1.0  0.34250  0.17994  0.78162  1.0000
  C  Sn11      1.0  0.24944  0.15302  0.72877  1.0000
  C  Sn12      1.0  0.57926  0.06771  0.72734  1.0000
  C   C53       1.0  0.61865  0.01147  0.77895  1.0000
  C   C54       1.0  0.71184  0.03907  0.83153  1.0000
  H   H29       1.0  0.45331  0.14457  0.87362  1.0000
  O  Te11      1.0  0.21186  0.21051  0.67795  1.0000
  O  Te12      1.0  0.48608  0.03914  0.67519  1.0000
  H   H30       1.0  0.74180  0.99515  0.87130  1.0000
  Mg  Mg6       1.0  0.08149  0.14140  0.61747  1.0000
