data_image0
_chemical_formula_structural       C6N6C6H6C6N6C6H6C2Sn2C2HTe2HMgC2Sn2C2HTe2HMgC2Sn2C2HTe2HMgC2Sn2C2HTe2HMgC2Sn2C2HTe2HMgC2Sn2C2HTe2HMgC2Sn2C2HTe2HMgC2Sn2C2HTe2HMgC2Sn2C2HTe2HMgC2Sn2C2HTe2HMgC2Sn2C2HTe2HMgC2Sn2C2HTe2HMgC2Sn2C2HTe2HMgC2Sn2C2HTe2HMgC2Sn2C2HTe2HMgC2Sn2C2HTe2HMgC2Sn2C2HTe2HMgC2Sn2C2HTe2HMg
_chemical_formula_sum              "C96 N12 H48 Sn36 Te36 Mg18"
_cell_length_a       21.4902
_cell_length_b       21.489
_cell_length_c       10.6577
_cell_angle_alpha    90.1854
_cell_angle_beta     90.6987
_cell_angle_gamma    119.961

_symmetry_space_group_name_H-M    'P1'
_space_group_IT_number       1

loop_
  _space_group_symop_operation_xyz
  'x, y, z'

loop_
  _atom_site_type_symbol
  _atom_site_label
  _atom_site_symmetry_multiplicity
  _atom_site_fract_x
  _atom_site_fract_y
  _atom_site_fract_z
  _atom_site_occupancy
  C   C1        1.0  0.06309  0.06960  0.33729  1.0000
  C   C2        1.0  0.93164  0.99474  0.33295  1.0000
  C   C3        1.0  0.00657  0.93832  0.33787  1.0000
  C   C4        1.0  0.93787  0.93220  0.33548  1.0000
  C   C5        1.0  0.06924  0.00694  0.33869  1.0000
  C   C6        1.0  0.99433  0.06349  0.33397  1.0000
  N   N1        1.0  0.68870  0.65205  0.34512  1.0000
  N   N2        1.0  0.34916  0.03640  0.36290  1.0000
  N   N3        1.0  0.95772  0.31024  0.34115  1.0000
  N   N4        1.0  0.31350  0.34926  0.34850  1.0000
  N   N5        1.0  0.65073  0.96313  0.33307  1.0000
  N   N6        1.0  0.03723  0.68870  0.35182  1.0000
  C   C7        1.0  0.62621  0.64161  0.37526  1.0000
  C   C8        1.0  0.36010  0.98399  0.38869  1.0000
  C   C9        1.0  0.00875  0.37307  0.37568  1.0000
  C   C10       1.0  0.37748  0.35922  0.36407  1.0000
  C   C11       1.0  0.64106  0.01646  0.35904  1.0000
  C   C12       1.0  0.98279  0.62661  0.37679  1.0000
  H   H1        1.0  0.61691  0.68664  0.39507  1.0000
  H   H2        1.0  0.31558  0.92919  0.40471  1.0000
  H   H3        1.0  0.06335  0.38307  0.39657  1.0000
  H   H4        1.0  0.38758  0.31382  0.36882  1.0000
  H   H5        1.0  0.68652  0.07169  0.36911  1.0000
  H   H6        1.0  0.92873  0.61937  0.38842  1.0000
  C   C13       1.0  0.06290  0.06559  0.83727  1.0000
  C   C14       1.0  0.93147  0.99487  0.83359  1.0000
  C   C15       1.0  0.00186  0.93396  0.83944  1.0000
  C   C16       1.0  0.93441  0.93066  0.83574  1.0000
  C   C17       1.0  0.06625  0.00143  0.84020  1.0000
  C   C18       1.0  0.99544  0.06230  0.83425  1.0000
  N   N7        1.0  0.68096  0.65400  0.84609  1.0000
  N   N8        1.0  0.34722  0.03346  0.86393  1.0000
  N   N9        1.0  0.96974  0.31460  0.83265  1.0000
  N   N10       1.0  0.31114  0.34647  0.84882  1.0000
  N   N11       1.0  0.65475  0.97119  0.83992  1.0000
  N   N12       1.0  0.03537  0.68683  0.85166  1.0000
  C   C19       1.0  0.61744  0.64419  0.86422  1.0000
  C   C20       1.0  0.35862  0.98016  0.87492  1.0000
  C   C21       1.0  0.02250  0.37816  0.85786  1.0000
  C   C22       1.0  0.37408  0.35958  0.88526  1.0000
  C   C23       1.0  0.64317  0.02016  0.88557  1.0000
  C   C24       1.0  0.98236  0.62254  0.86595  1.0000
  H   H7        1.0  0.60709  0.68945  0.86700  1.0000
  H   H8        1.0  0.31430  0.92414  0.87102  1.0000
  H   H9        1.0  0.07766  0.38864  0.87349  1.0000
  H   H10       1.0  0.38508  0.31621  0.90981  1.0000
  H   H11       1.0  0.68733  0.07270  0.91769  1.0000
  H   H12       1.0  0.92653  0.61129  0.87057  1.0000
  C   C25       1.0  0.06093  0.84983  0.23704  1.0000
  C   C26       1.0  0.02004  0.86846  0.31291  1.0000
  C  Sn1       1.0  0.98469  0.82682  0.41681  1.0000
  C  Sn2       1.0  0.99051  0.76542  0.44506  1.0000
  C   C27       1.0  0.03159  0.74727  0.36863  1.0000
  C   C28       1.0  0.06672  0.78931  0.26486  1.0000
  H   H13       1.0  0.08814  0.88238  0.15680  1.0000
  O  Te1       1.0  0.94404  0.84618  0.49160  1.0000
  O  Te2       1.0  0.95577  0.72287  0.54836  1.0000
  H   H14       1.0  0.09841  0.77490  0.20619  1.0000
  Mg  Mg1       1.0  0.90665  0.77121  0.62208  1.0000
  C   C29       1.0  0.15036  0.21211  0.23648  1.0000
  C   C30       1.0  0.13253  0.15252  0.31168  1.0000
  C  Sn3       1.0  0.17651  0.15808  0.41375  1.0000
  C  Sn4       1.0  0.23945  0.22461  0.44083  1.0000
  C   C31       1.0  0.25679  0.28392  0.36508  1.0000
  C   C32       1.0  0.21242  0.27775  0.26315  1.0000
  H   H15       1.0  0.11601  0.20735  0.15765  1.0000
  O  Te3       1.0  0.15792  0.09800  0.48788  1.0000
  O  Te4       1.0  0.28434  0.23167  0.54229  1.0000
  H   H16       1.0  0.22621  0.32391  0.20500  1.0000
  Mg  Mg2       1.0  0.23622  0.13444  0.61576  1.0000
  C   C33       1.0  0.79109  0.02407  0.43830  1.0000
  C   C34       1.0  0.23372  0.98910  0.35189  1.0000
  C  Sn5       1.0  0.23876  0.94925  0.25273  1.0000
  C  Sn6       1.0  0.30186  0.94439  0.24010  1.0000
  C   C35       1.0  0.35832  0.97953  0.32709  1.0000
  C   C36       1.0  0.85333  0.01929  0.42594  1.0000
  H   H17       1.0  0.78674  0.05480  0.51483  1.0000
  O  Te5       1.0  0.18157  0.91467  0.16721  1.0000
  O  Te6       1.0  0.30831  0.90490  0.14190  1.0000
  H   H18       1.0  0.89726  0.04632  0.49287  1.0000
  Mg  Mg3       1.0  0.21586  0.86732  0.04919  1.0000
  C   C37       1.0  0.01842  0.19549  0.45135  1.0000
  C   C38       1.0  0.99192  0.13922  0.36359  1.0000
  C  Sn7       1.0  0.95598  0.14166  0.25523  1.0000
  C  Sn8       1.0  0.94649  0.20162  0.23460  1.0000
  C   C39       1.0  0.97325  0.25766  0.32292  1.0000
  C   C40       1.0  0.00911  0.25466  0.43105  1.0000
  H   H19       1.0  0.04620  0.19319  0.53498  1.0000
  O  Te7       1.0  0.92982  0.08498  0.16854  1.0000
  O  Te8       1.0  0.91080  0.20545  0.12708  1.0000
  H   H20       1.0  0.02966  0.29825  0.49894  1.0000
  Mg  Mg4       1.0  0.88483  0.11490  0.03646  1.0000
  C   C41       1.0  0.77452  0.78999  0.45793  1.0000
  C   C42       1.0  0.74788  0.73500  0.36767  1.0000
  C  Sn9       1.0  0.78688  0.74218  0.25946  1.0000
  C  Sn10      1.0  0.85378  0.80564  0.24155  1.0000
  C   C43       1.0  0.87999  0.86032  0.33244  1.0000
  C   C44       1.0  0.84051  0.85259  0.44036  1.0000
  H   H21       1.0  0.74400  0.78400  0.54147  1.0000
  O  Te9       1.0  0.75946  0.68673  0.17020  1.0000
  O  Te10      1.0  0.89387  0.81420  0.13428  1.0000
  H   H22       1.0  0.86117  0.89515  0.51027  1.0000
  Mg  Mg5       1.0  0.83393  0.72359  0.03953  1.0000
  C   C45       1.0  0.24695  0.05759  0.23940  1.0000
  C   C46       1.0  0.27771  0.03853  0.33743  1.0000
  C  Sn11      1.0  0.73637  0.00228  0.44153  1.0000
  C  Sn12      1.0  0.66350  0.98485  0.44731  1.0000
  C   C47       1.0  0.13382  0.00411  0.34872  1.0000
  C   C48       1.0  0.17507  0.04039  0.24501  1.0000
  H   H23       1.0  0.27884  0.08563  0.15912  1.0000
  O  Te11      1.0  0.76796  0.98366  0.53867  1.0000
  O  Te12      1.0  0.62156  0.94862  0.55023  1.0000
  H   H24       1.0  0.15122  0.05510  0.16908  1.0000
  Mg  Mg6       1.0  0.68883  0.93471  0.65919  1.0000
  C   C49       1.0  0.45152  0.92326  0.38454  1.0000
  C   C50       1.0  0.43304  0.97658  0.40014  1.0000
  C  Sn13      1.0  0.98656  0.04907  0.39764  1.0000
  C  Sn14      1.0  0.05927  0.06838  0.37912  1.0000
  C   C51       1.0  0.07720  0.01464  0.36352  1.0000
  C   C52       1.0  0.52322  0.94226  0.36623  1.0000
  H   H25       1.0  0.41023  0.86726  0.38657  1.0000
  O  Te13      1.0  0.96716  0.10165  0.41342  1.0000
  O  Te14      1.0  0.11322  0.14042  0.37617  1.0000
  H   H26       1.0  0.53754  0.90100  0.35407  1.0000
  Mg  Mg7       1.0  0.06000  0.19250  0.40219  1.0000
  C   C53       1.0  0.07086  0.52468  0.38936  1.0000
  C   C54       1.0  0.01631  0.45296  0.39625  1.0000
  C  Sn15      1.0  0.94430  0.43530  0.39278  1.0000
  C  Sn16      1.0  0.92675  0.49057  0.38216  1.0000
  C   C55       1.0  0.98172  0.56215  0.37524  1.0000
  C   C56       1.0  0.05360  0.57922  0.37884  1.0000
  H   H27       1.0  0.12648  0.53789  0.39208  1.0000
  O  Te15      1.0  0.89047  0.36338  0.39981  1.0000
  O  Te16      1.0  0.85522  0.47442  0.37843  1.0000
  H   H28       1.0  0.09582  0.63475  0.37342  1.0000
  Mg  Mg8       1.0  0.80096  0.36841  0.39105  1.0000
  C   C57       1.0  0.52919  0.45160  0.35174  1.0000
  C   C58       1.0  0.45791  0.43115  0.37736  1.0000
  C  Sn17      1.0  0.43848  0.48320  0.40021  1.0000
  C  Sn18      1.0  0.49152  0.55706  0.39726  1.0000
  C   C59       1.0  0.56268  0.57696  0.37145  1.0000
  C   C60       1.0  0.58153  0.52443  0.34876  1.0000
  H   H29       1.0  0.54378  0.41096  0.33412  1.0000
  O  Te17      1.0  0.36703  0.46184  0.42570  1.0000
  O  Te18      1.0  0.47357  0.61019  0.41970  1.0000
  H   H30       1.0  0.63672  0.54028  0.32885  1.0000
  Mg  Mg9       1.0  0.36904  0.55424  0.45022  1.0000
  C   C61       1.0  0.05696  0.81148  0.73628  1.0000
  C   C62       1.0  0.03555  0.75913  0.82890  1.0000
  C  Sn19      1.0  0.99413  0.75908  0.92898  1.0000
  C  Sn20      1.0  0.97384  0.81249  0.93619  1.0000
  C   C63       1.0  0.99549  0.86460  0.84300  1.0000
  C   C64       1.0  0.03695  0.86416  0.74329  1.0000
  H   H31       1.0  0.08901  0.81113  0.65909  1.0000
  O  Te19      1.0  0.96410  0.70024  0.02074  1.0000
  O  Te20      1.0  0.92332  0.80751  0.03516  1.0000
  H   H32       1.0  0.05348  0.90467  0.67155  1.0000
  Mg  Mg10      1.0  0.90799  0.72436  0.13734  1.0000
  C   C65       1.0  0.22833  0.20922  0.96050  1.0000
  C   C66       1.0  0.25404  0.26310  0.87021  1.0000
  C  Sn21      1.0  0.21429  0.25424  0.76021  1.0000
  C  Sn22      1.0  0.14759  0.19020  0.74050  1.0000
  C   C67       1.0  0.12231  0.13664  0.83144  1.0000
  C   C68       1.0  0.16253  0.14605  0.94116  1.0000
  H   H33       1.0  0.25030  0.21035  0.04543  1.0000
  O  Te21      1.0  0.24078  0.30859  0.67095  1.0000
  O  Te22      1.0  0.10676  0.17996  0.63143  1.0000
  H   H34       1.0  0.13347  0.09818  0.01109  1.0000
  Mg  Mg11      1.0  0.16555  0.26956  0.53745  1.0000
  C   C69       1.0  0.78987  0.01561  0.95876  1.0000
  C   C70       1.0  0.23639  0.99326  0.86458  1.0000
  C  Sn23      1.0  0.24507  0.96641  0.75058  1.0000
  C  Sn24      1.0  0.30788  0.96191  0.73080  1.0000
  C   C71       1.0  0.36043  0.98436  0.82565  1.0000
  C   C72       1.0  0.85183  0.01116  0.93935  1.0000
  H   H35       1.0  0.77361  0.03015  0.04676  1.0000
  O  Te23      1.0  0.19174  0.94434  0.65746  1.0000
  O  Te24      1.0  0.31791  0.93527  0.61778  1.0000
  H   H36       1.0  0.88362  0.02226  0.01228  1.0000
  Mg  Mg12      1.0  0.23000  0.91189  0.51940  1.0000
  C   C73       1.0  0.02792  0.23393  0.94280  1.0000
  C   C74       1.0  0.99461  0.25651  0.85522  1.0000
  C  Sn25      1.0  0.95550  0.21195  0.75410  1.0000
  C  Sn26      1.0  0.94973  0.14353  0.74069  1.0000
  C   C75       1.0  0.98322  0.12142  0.82886  1.0000
  C   C76       1.0  0.02223  0.16645  0.92967  1.0000
  H   H37       1.0  0.04895  0.26259  0.02083  1.0000
  O  Te25      1.0  0.92257  0.23535  0.66743  1.0000
  O  Te26      1.0  0.91096  0.09791  0.64054  1.0000
  H   H38       1.0  0.04798  0.14894  0.99751  1.0000
  Mg  Mg13      1.0  0.87566  0.15389  0.54684  1.0000
  C   C77       1.0  0.84281  0.78787  0.73305  1.0000
  C   C78       1.0  0.86212  0.84895  0.80674  1.0000
  C  Sn27      1.0  0.81969  0.84565  0.90761  1.0000
  C  Sn28      1.0  0.75680  0.77990  0.93501  1.0000
  C   C79       1.0  0.73797  0.71908  0.86078  1.0000
  C   C80       1.0  0.78080  0.72300  0.76004  1.0000
  H   H39       1.0  0.87597  0.79088  0.65515  1.0000
  O  Te27      1.0  0.83975  0.90718  0.98025  1.0000
  O  Te28      1.0  0.70431  0.76892  0.03530  1.0000
  H   H40       1.0  0.76586  0.67569  0.70305  1.0000
  Mg  Mg14      1.0  0.75409  0.86750  0.10691  1.0000
  C   C81       1.0  0.16807  0.96553  0.95204  1.0000
  C   C82       1.0  0.14209  0.99923  0.87240  1.0000
  C  Sn29      1.0  0.68554  0.04362  0.77659  1.0000
  C  Sn30      1.0  0.75566  0.05435  0.76043  1.0000
  C   C83       1.0  0.78114  0.02035  0.84054  1.0000
  C   C84       1.0  0.23722  0.97607  0.93613  1.0000
  H   H41       1.0  0.12543  0.92508  0.02596  1.0000
  O  Te29      1.0  0.65875  0.07689  0.69789  1.0000
  O  Te30      1.0  0.79960  0.09841  0.66540  1.0000
  H   H42       1.0  0.25733  0.94995  0.99773  1.0000
  Mg  Mg15      1.0  0.73902  0.13201  0.58205  1.0000
  C   C85       1.0  0.49054  0.92805  0.86696  1.0000
  C   C86       1.0  0.55637  0.99179  0.87895  1.0000
  C  Sn31      1.0  0.05901  0.05673  0.90304  1.0000
  C  Sn32      1.0  0.99383  0.05770  0.91534  1.0000
  C   C87       1.0  0.42763  0.99363  0.90327  1.0000
  C   C88       1.0  0.42622  0.92895  0.87913  1.0000
  H   H43       1.0  0.48944  0.87799  0.84835  1.0000
  O  Te31      1.0  0.12524  0.11993  0.91470  1.0000
  O  Te32      1.0  0.99430  0.12185  0.93946  1.0000
  H   H44       1.0  0.37525  0.87960  0.86993  1.0000
  Mg  Mg16      1.0  0.09802  0.19391  0.94756  1.0000
  C   C89       1.0  0.92530  0.47104  0.85348  1.0000
  C   C90       1.0  0.97622  0.54316  0.87571  1.0000
  C  Sn33      1.0  0.04904  0.56453  0.88723  1.0000
  C  Sn34      1.0  0.07113  0.51262  0.87621  1.0000
  C   C91       1.0  0.01977  0.44060  0.85388  1.0000
  C   C92       1.0  0.94705  0.41980  0.84255  1.0000
  H   H45       1.0  0.86903  0.45494  0.84464  1.0000
  O  Te33      1.0  0.09921  0.63681  0.90949  1.0000
  O  Te34      1.0  0.14356  0.53251  0.88728  1.0000
  H   H46       1.0  0.90764  0.36397  0.82525  1.0000
  Mg  Mg17      1.0  0.19168  0.63750  0.91752  1.0000
  C   C93       1.0  0.55780  0.49256  0.89715  1.0000
  C   C94       1.0  0.55936  0.55729  0.87390  1.0000
  C  Sn35      1.0  0.49540  0.55914  0.86466  1.0000
  C  Sn36      1.0  0.42872  0.49491  0.87903  1.0000
  C   C95       1.0  0.42773  0.43043  0.90235  1.0000
  C   C96       1.0  0.49205  0.42919  0.91138  1.0000
  H   H47       1.0  0.60756  0.49160  0.90421  1.0000
  O  Te35      1.0  0.49793  0.62426  0.84136  1.0000
  O  Te36      1.0  0.36398  0.49523  0.87029  1.0000
  H   H48       1.0  0.49083  0.37908  0.92946  1.0000
  Mg  Mg18      1.0  0.39529  0.59727  0.83741  1.0000
