data_image0
_chemical_formula_structural       C6N6C6H6C6N6C6H6SnCSn2CSnTe4Mg2SnCSn2CSnTe4Mg2SnCSn2CSnTe4Mg2SnCSn2CSnTe4Mg2SnCSn2CSnTe4Mg2SnCSn2CSnTe4Mg2SnCSn2CSnTe4Mg2SnCSn2CSnTe4Mg2SnCSn2CSnTe4Mg2SnCSn2CSnTe4Mg2SnCSn2CSnTe4Mg2SnCSn2CSnTe4Mg2SnCSn2CSnTe4Mg2SnCSn2CSnTe4Mg2SnCSn2CSnTe4Mg2SnCSn2CSnTe4Mg2SnCSn2CSnTe4Mg2SnCSn2CSnTe4Mg2
_chemical_formula_sum              "C60 N12 H12 Sn72 Te72 Mg36"
_cell_length_a       21.4902
_cell_length_b       21.489
_cell_length_c       10.6577
_cell_angle_alpha    90.1854
_cell_angle_beta     90.6987
_cell_angle_gamma    119.961

_symmetry_space_group_name_H-M    'P1'
_space_group_IT_number       1

loop_
  _space_group_symop_operation_xyz
  'x, y, z'

loop_
  _atom_site_type_symbol
  _atom_site_label
  _atom_site_symmetry_multiplicity
  _atom_site_fract_x
  _atom_site_fract_y
  _atom_site_fract_z
  _atom_site_occupancy
  C   C1        1.0  0.06309  0.06960  0.33729  1.0000
  C   C2        1.0  0.93164  0.99474  0.33295  1.0000
  C   C3        1.0  0.00657  0.93832  0.33787  1.0000
  C   C4        1.0  0.93787  0.93220  0.33548  1.0000
  C   C5        1.0  0.06924  0.00694  0.33869  1.0000
  C   C6        1.0  0.99433  0.06349  0.33397  1.0000
  N   N1        1.0  0.68870  0.65205  0.34512  1.0000
  N   N2        1.0  0.34916  0.03640  0.36290  1.0000
  N   N3        1.0  0.95772  0.31024  0.34115  1.0000
  N   N4        1.0  0.31350  0.34926  0.34850  1.0000
  N   N5        1.0  0.65073  0.96313  0.33307  1.0000
  N   N6        1.0  0.03723  0.68870  0.35182  1.0000
  C   C7        1.0  0.62621  0.64161  0.37526  1.0000
  C   C8        1.0  0.36010  0.98399  0.38869  1.0000
  C   C9        1.0  0.00875  0.37307  0.37568  1.0000
  C   C10       1.0  0.37748  0.35922  0.36407  1.0000
  C   C11       1.0  0.64106  0.01646  0.35904  1.0000
  C   C12       1.0  0.98279  0.62661  0.37679  1.0000
  H   H1        1.0  0.61691  0.68664  0.39507  1.0000
  H   H2        1.0  0.31558  0.92919  0.40471  1.0000
  H   H3        1.0  0.06335  0.38307  0.39657  1.0000
  H   H4        1.0  0.38758  0.31382  0.36882  1.0000
  H   H5        1.0  0.68652  0.07169  0.36911  1.0000
  H   H6        1.0  0.92873  0.61937  0.38842  1.0000
  C   C13       1.0  0.06290  0.06559  0.83727  1.0000
  C   C14       1.0  0.93147  0.99487  0.83359  1.0000
  C   C15       1.0  0.00186  0.93396  0.83944  1.0000
  C   C16       1.0  0.93441  0.93066  0.83574  1.0000
  C   C17       1.0  0.06625  0.00143  0.84020  1.0000
  C   C18       1.0  0.99544  0.06230  0.83425  1.0000
  N   N7        1.0  0.68096  0.65400  0.84609  1.0000
  N   N8        1.0  0.34722  0.03346  0.86393  1.0000
  N   N9        1.0  0.96974  0.31460  0.83265  1.0000
  N   N10       1.0  0.31114  0.34647  0.84882  1.0000
  N   N11       1.0  0.65475  0.97119  0.83992  1.0000
  N   N12       1.0  0.03537  0.68683  0.85166  1.0000
  C   C19       1.0  0.61744  0.64419  0.86422  1.0000
  C   C20       1.0  0.35862  0.98016  0.87492  1.0000
  C   C21       1.0  0.02250  0.37816  0.85786  1.0000
  C   C22       1.0  0.37408  0.35958  0.88526  1.0000
  C   C23       1.0  0.64317  0.02016  0.88557  1.0000
  C   C24       1.0  0.98236  0.62254  0.86595  1.0000
  H   H7        1.0  0.60709  0.68945  0.86700  1.0000
  H   H8        1.0  0.31430  0.92414  0.87102  1.0000
  H   H9        1.0  0.07766  0.38864  0.87349  1.0000
  H   H10       1.0  0.38508  0.31621  0.90981  1.0000
  H   H11       1.0  0.68733  0.07270  0.91769  1.0000
  H   H12       1.0  0.92653  0.61129  0.87057  1.0000
  C  Sn1       1.0  0.03814  0.83702  0.22199  1.0000
  C   C25       1.0  0.00305  0.85840  0.30662  1.0000
  C  Sn2       1.0  0.98525  0.82787  0.42560  1.0000
  C  Sn3       1.0  0.00292  0.77490  0.46077  1.0000
  C   C26       1.0  0.03799  0.75355  0.37618  1.0000
  C  Sn4       1.0  0.05580  0.78404  0.25716  1.0000
  O  Te1       1.0  0.05542  0.86826  0.10354  1.0000
  O  Te2       1.0  0.95015  0.85010  0.50858  1.0000
  O  Te3       1.0  0.98559  0.74366  0.57933  1.0000
  O  Te4       1.0  0.09088  0.76185  0.17422  1.0000
  Mg  Mg1       1.0  0.93790  0.79172  0.65938  1.0000
  Mg  Mg2       1.0  0.10319  0.82022  0.02343  1.0000
  C  Sn5       1.0  0.17637  0.25551  0.26537  1.0000
  C   C27       1.0  0.23370  0.28201  0.35151  1.0000
  C  Sn6       1.0  0.24290  0.23517  0.42994  1.0000
  C  Sn7       1.0  0.19380  0.16027  0.42207  1.0000
  C   C28       1.0  0.13653  0.13380  0.33597  1.0000
  C  Sn8       1.0  0.12728  0.18061  0.25751  1.0000
  O  Te5       1.0  0.16822  0.30333  0.18788  1.0000
  O  Te6       1.0  0.30061  0.26293  0.51534  1.0000
  O  Te7       1.0  0.20200  0.11245  0.49966  1.0000
  O  Te8       1.0  0.06962  0.15289  0.17214  1.0000
  Mg  Mg3       1.0  0.28904  0.17618  0.60077  1.0000
  Mg  Mg4       1.0  0.08116  0.23958  0.08662  1.0000
  C  Sn9       1.0  0.82083  0.00823  0.45175  1.0000
  C   C29       1.0  0.34727  0.97809  0.36731  1.0000
  C  Sn10      1.0  0.31194  0.94929  0.25283  1.0000
  C  Sn11      1.0  0.24826  0.95068  0.22206  1.0000
  C   C30       1.0  0.22123  0.98082  0.30647  1.0000
  C  Sn12      1.0  0.75714  0.00962  0.42099  1.0000
  O  Te9       1.0  0.85703  0.03672  0.56566  1.0000
  O  Te10      1.0  0.34001  0.91942  0.16995  1.0000
  O  Te11      1.0  0.21205  0.92216  0.10805  1.0000
  O  Te12      1.0  0.72911  0.03949  0.50383  1.0000
  Mg  Mg5       1.0  0.27137  0.88739  0.02623  1.0000
  Mg  Mg6       1.0  0.79772  0.07156  0.64754  1.0000
  C  Sn13      1.0  0.02929  0.23874  0.42961  1.0000
  C   C31       1.0  0.99558  0.26005  0.34053  1.0000
  C  Sn14      1.0  0.95068  0.21188  0.24783  1.0000
  C  Sn15      1.0  0.93920  0.14091  0.24411  1.0000
  C   C32       1.0  0.97288  0.11963  0.33315  1.0000
  C  Sn16      1.0  0.01781  0.16778  0.42589  1.0000
  O  Te13      1.0  0.07396  0.28780  0.52145  1.0000
  O  Te14      1.0  0.91759  0.23443  0.15977  1.0000
  O  Te15      1.0  0.89449  0.09186  0.15216  1.0000
  O  Te16      1.0  0.05088  0.14525  0.51392  1.0000
  Mg  Mg7       1.0  0.86147  0.14793  0.05294  1.0000
  Mg  Mg8       1.0  0.10698  0.23170  0.62082  1.0000
  C  Sn17      1.0  0.76255  0.79576  0.42934  1.0000
  C   C33       1.0  0.74090  0.73888  0.34396  1.0000
  C  Sn18      1.0  0.78906  0.73956  0.25639  1.0000
  C  Sn19      1.0  0.86038  0.79830  0.25414  1.0000
  C   C34       1.0  0.88201  0.85514  0.33949  1.0000
  C  Sn20      1.0  0.83387  0.85451  0.42709  1.0000
  O  Te17      1.0  0.71350  0.79395  0.51607  1.0000
  O  Te18      1.0  0.76617  0.68209  0.17195  1.0000
  O  Te19      1.0  0.90944  0.80008  0.16731  1.0000
  O  Te20      1.0  0.85674  0.91193  0.51150  1.0000
  Mg  Mg9       1.0  0.85282  0.70920  0.07161  1.0000
  Mg  Mg10      1.0  0.77014  0.88486  0.61192  1.0000
  C  Sn21      1.0  0.18165  0.00204  0.47427  1.0000
  C   C35       1.0  0.65425  0.02575  0.37876  1.0000
  C  Sn22      1.0  0.68769  0.04520  0.26251  1.0000
  C  Sn23      1.0  0.75043  0.04084  0.24124  1.0000
  C   C36       1.0  0.77841  0.01713  0.33670  1.0000
  C  Sn24      1.0  0.24439  0.99767  0.45299  1.0000
  O  Te21      1.0  0.14733  0.98286  0.58974  1.0000
  O  Te22      1.0  0.65869  0.06877  0.16848  1.0000
  O  Te23      1.0  0.78474  0.06004  0.12564  1.0000
  O  Te24      1.0  0.27335  0.97410  0.54697  1.0000
  Mg  Mg11      1.0  0.72477  0.08886  0.02702  1.0000
  Mg  Mg12      1.0  0.20730  0.95396  0.68844  1.0000
  C  Sn25      1.0  0.50924  0.06836  0.34736  1.0000
  C   C37       1.0  0.44317  0.00484  0.35485  1.0000
  C  Sn26      1.0  0.93972  0.94035  0.38561  1.0000
  C  Sn27      1.0  0.00427  0.93931  0.40947  1.0000
  C   C38       1.0  0.57091  0.00280  0.40199  1.0000
  C  Sn28      1.0  0.57379  0.06732  0.37121  1.0000
  O  Te25      1.0  0.51079  0.13222  0.31646  1.0000
  O  Te26      1.0  0.87304  0.87753  0.39249  1.0000
  O  Te27      1.0  0.00267  0.87538  0.44038  1.0000
  O  Te28      1.0  0.64043  0.13011  0.36435  1.0000
  Mg  Mg13      1.0  0.89878  0.80389  0.43814  1.0000
  Mg  Mg14      1.0  0.61475  0.20378  0.31877  1.0000
  C  Sn29      1.0  0.06523  0.52068  0.43041  1.0000
  C   C39       1.0  0.00970  0.44923  0.42418  1.0000
  C  Sn30      1.0  0.94050  0.43260  0.38688  1.0000
  C  Sn31      1.0  0.92650  0.48854  0.35506  1.0000
  C   C40       1.0  0.98201  0.55993  0.36128  1.0000
  C  Sn32      1.0  0.05123  0.57662  0.39859  1.0000
  O  Te29      1.0  0.13400  0.53606  0.46794  1.0000
  O  Te30      1.0  0.88585  0.36077  0.38141  1.0000
  O  Te31      1.0  0.85766  0.47309  0.31752  1.0000
  O  Te32      1.0  0.10586  0.64839  0.40404  1.0000
  Mg  Mg15      1.0  0.80105  0.36699  0.32477  1.0000
  Mg  Mg16      1.0  0.19068  0.64223  0.46061  1.0000
  C  Sn33      1.0  0.52762  0.45088  0.39405  1.0000
  C   C41       1.0  0.45578  0.43233  0.40715  1.0000
  C  Sn34      1.0  0.43538  0.48444  0.39578  1.0000
  C  Sn35      1.0  0.48787  0.55661  0.37070  1.0000
  C   C42       1.0  0.55966  0.57513  0.35760  1.0000
  C  Sn36      1.0  0.58012  0.52305  0.36898  1.0000
  O  Te33      1.0  0.54680  0.39790  0.40579  1.0000
  O  Te34      1.0  0.36322  0.46460  0.40929  1.0000
  O  Te35      1.0  0.46863  0.60960  0.35898  1.0000
  O  Te36      1.0  0.65222  0.54286  0.35546  1.0000
  Mg  Mg17      1.0  0.36362  0.55611  0.38509  1.0000
  Mg  Mg18      1.0  0.65188  0.45140  0.37958  1.0000
  C  Sn37      1.0  0.03234  0.83256  0.72174  1.0000
  C   C43       1.0  0.99526  0.85236  0.80479  1.0000
  C  Sn38      1.0  0.97607  0.82077  0.92280  1.0000
  C  Sn39      1.0  0.99437  0.76834  0.95861  1.0000
  C   C44       1.0  0.03144  0.74857  0.87560  1.0000
  C  Sn40      1.0  0.05064  0.78012  0.75754  1.0000
  O  Te37      1.0  0.05098  0.86483  0.60423  1.0000
  O  Te38      1.0  0.92986  0.83526  0.00420  1.0000
  O  Te39      1.0  0.96657  0.72990  0.07622  1.0000
  O  Te40      1.0  0.08772  0.75950  0.67618  1.0000
  Mg  Mg19      1.0  0.91632  0.77593  0.15419  1.0000
  Mg  Mg20      1.0  0.10131  0.81883  0.52621  1.0000
  C  Sn41      1.0  0.24025  0.20325  0.93265  1.0000
  C   C45       1.0  0.26095  0.25902  0.84695  1.0000
  C  Sn42      1.0  0.21205  0.25678  0.75696  1.0000
  C  Sn43      1.0  0.14095  0.19758  0.75258  1.0000
  C   C46       1.0  0.12027  0.14186  0.83826  1.0000
  C  Sn44      1.0  0.16915  0.14405  0.92827  1.0000
  O  Te41      1.0  0.28091  0.20045  0.02181  1.0000
  O  Te42      1.0  0.23400  0.31316  0.67225  1.0000
  O  Te43      1.0  0.09116  0.19425  0.66332  1.0000
  O  Te44      1.0  0.13810  0.08155  0.01296  1.0000
  Mg  Mg21      1.0  0.14660  0.28408  0.56821  1.0000
  Mg  Mg22      1.0  0.22544  0.11060  0.11707  1.0000
  C  Sn45      1.0  0.74952  0.93474  0.74173  1.0000
  C   C47       1.0  0.72109  0.95746  0.83702  1.0000
  C  Sn46      1.0  0.76594  0.00473  0.93078  1.0000
  C  Sn47      1.0  0.34139  0.02984  0.92923  1.0000
  C   C48       1.0  0.36978  0.00713  0.83398  1.0000
  C  Sn48      1.0  0.82435  0.95985  0.74018  1.0000
  O  Te45      1.0  0.70368  0.88747  0.64894  1.0000
  O  Te46      1.0  0.22776  0.02051  0.02510  1.0000
  O  Te47      1.0  0.37810  0.07099  0.02213  1.0000
  O  Te48      1.0  0.85399  0.93792  0.64590  1.0000
  Mg  Mg23      1.0  0.31222  0.08543  0.13077  1.0000
  Mg  Mg24      1.0  0.76959  0.87304  0.54015  1.0000
  C  Sn49      1.0  0.04373  0.24398  0.91132  1.0000
  C   C49       1.0  0.00387  0.26197  0.82980  1.0000
  C  Sn50      1.0  0.95053  0.20969  0.75182  1.0000
  C  Sn51      1.0  0.93671  0.13791  0.75544  1.0000
  C   C50       1.0  0.97655  0.11995  0.83694  1.0000
  C  Sn52      1.0  0.02992  0.17221  0.91495  1.0000
  O  Te49      1.0  0.09680  0.29712  0.98845  1.0000
  O  Te50      1.0  0.91140  0.22897  0.67107  1.0000
  O  Te51      1.0  0.88360  0.08477  0.67822  1.0000
  O  Te52      1.0  0.06903  0.15295  0.99567  1.0000
  Mg  Mg25      1.0  0.84466  0.13744  0.58424  1.0000
  Mg  Mg26      1.0  0.12662  0.23826  0.08258  1.0000
  C  Sn53      1.0  0.81073  0.82325  0.95915  1.0000
  C   C51       1.0  0.86562  0.84860  0.87131  1.0000
  C  Sn54      1.0  0.85520  0.81254  0.75689  1.0000
  C  Sn55      1.0  0.78851  0.74987  0.72966  1.0000
  C   C52       1.0  0.73366  0.72456  0.81745  1.0000
  C  Sn56      1.0  0.74404  0.76058  0.93191  1.0000
  O  Te53      1.0  0.81321  0.85399  0.07293  1.0000
  O  Te54      1.0  0.91089  0.83890  0.67058  1.0000
  O  Te55      1.0  0.77694  0.71297  0.61577  1.0000
  O  Te56      1.0  0.67927  0.72810  0.01818  1.0000
  Mg  Mg27      1.0  0.86913  0.76989  0.52852  1.0000
  Mg  Mg28      1.0  0.72095  0.79708  0.16024  1.0000
  C  Sn57      1.0  0.17579  0.98755  0.96907  1.0000
  C   C53       1.0  0.64929  0.01596  0.88030  1.0000
  C  Sn58      1.0  0.68500  0.04324  0.76767  1.0000
  C  Sn59      1.0  0.74914  0.04207  0.74321  1.0000
  C   C54       1.0  0.77622  0.01367  0.83194  1.0000
  C  Sn60      1.0  0.23993  0.98638  0.94461  1.0000
  O  Te57      1.0  0.13008  0.95440  0.08103  1.0000
  O  Te58      1.0  0.65686  0.07139  0.68038  1.0000
  O  Te59      1.0  0.78573  0.06910  0.63114  1.0000
  O  Te60      1.0  0.25890  0.95207  0.03186  1.0000
  Mg  Mg29      1.0  0.72614  0.10180  0.54159  1.0000
  Mg  Mg30      1.0  0.18965  0.92162  0.17065  1.0000
  C  Sn61      1.0  0.50971  0.07034  0.87998  1.0000
  C   C55       1.0  0.44481  0.00685  0.85756  1.0000
  C  Sn62      1.0  0.94086  0.94036  0.86462  1.0000
  C  Sn63      1.0  0.00370  0.93725  0.89480  1.0000
  C   C56       1.0  0.06856  0.00071  0.91722  1.0000
  C  Sn64      1.0  0.57256  0.06723  0.91016  1.0000
  O  Te61      1.0  0.51179  0.13622  0.87241  1.0000
  O  Te62      1.0  0.87536  0.87762  0.84178  1.0000
  O  Te63      1.0  0.00158  0.87129  0.90235  1.0000
  O  Te64      1.0  0.63800  0.12994  0.93300  1.0000
  Mg  Mg31      1.0  0.89977  0.80077  0.86338  1.0000
  Mg  Mg32      1.0  0.61365  0.20681  0.91149  1.0000
  C  Sn65      1.0  0.92857  0.47341  0.89560  1.0000
  C   C57       1.0  0.98123  0.54591  0.90497  1.0000
  C  Sn66      1.0  0.05309  0.56762  0.88229  1.0000
  C  Sn67      1.0  0.07273  0.51579  0.84948  1.0000
  C   C58       1.0  0.02010  0.44335  0.84011  1.0000
  C  Sn68      1.0  0.94822  0.42158  0.86280  1.0000
  O  Te65      1.0  0.85706  0.45293  0.91868  1.0000
  O  Te66      1.0  0.10477  0.64041  0.89227  1.0000
  O  Te67      1.0  0.14432  0.53634  0.82641  1.0000
  O  Te68      1.0  0.89655  0.34885  0.85281  1.0000
  Mg  Mg33      1.0  0.19512  0.64179  0.85177  1.0000
  Mg  Mg34      1.0  0.80618  0.34741  0.89322  1.0000
  C  Sn69      1.0  0.52163  0.45802  0.93453  1.0000
  C   C59       1.0  0.44890  0.43768  0.92834  1.0000
  C  Sn70      1.0  0.42768  0.48556  0.88452  1.0000
  C  Sn71      1.0  0.48025  0.55522  0.84600  1.0000
  C   C60       1.0  0.55292  0.57553  0.85217  1.0000
  C  Sn72      1.0  0.57419  0.52768  0.89600  1.0000
  O  Te69      1.0  0.54161  0.40928  0.97864  1.0000
  O  Te70      1.0  0.35466  0.46401  0.87924  1.0000
  O  Te71      1.0  0.46020  0.60397  0.80187  1.0000
  O  Te72      1.0  0.64717  0.54920  0.90127  1.0000
  Mg  Mg35      1.0  0.35416  0.54958  0.81220  1.0000
  Mg  Mg36      1.0  0.64772  0.46366  0.96824  1.0000
