data_image0
_chemical_formula_structural       C4OHC4OHNC4OHC4OHNC4OHC4OHNC4OHC4OHNBNBNBNBNC7O2NH2C13O2NH6C13O2NH6C7O2NH2CuC4OHC4OHNC4OHC4OHNC4OHC4OHNC4OHC4OHNBNBNBNBNC7O2NH2C7O2NH2C13O2NH6C13O2NH6CuSnCSn2CSnTe4Mg2SnCSn2CSnTe4Mg2SnCSn2CSnTe4Mg2SnCSn2CSnTe4Mg2
_chemical_formula_sum              "C152 O32 H48 N24 B8 Cu2 Sn16 Te16 Mg8"
_cell_length_a       35.8438
_cell_length_b       35.8219
_cell_length_c       7.91948
_cell_angle_alpha    68.6438
_cell_angle_beta     114.311
_cell_angle_gamma    91.5107

_symmetry_space_group_name_H-M    'P1'
_space_group_IT_number       1

loop_
  _space_group_symop_operation_xyz
  'x, y, z'

loop_
  _atom_site_type_symbol
  _atom_site_label
  _atom_site_symmetry_multiplicity
  _atom_site_fract_x
  _atom_site_fract_y
  _atom_site_fract_z
  _atom_site_occupancy
  C   C1        1.0  0.49996  0.67988  0.69121  1.0000
  C   C2        1.0  0.55859  0.64801  0.68171  1.0000
  C   C3        1.0  0.53642  0.61524  0.68154  1.0000
  C   C4        1.0  0.54656  0.57683  0.67656  1.0000
  O   O1        1.0  0.55275  0.71642  0.68670  1.0000
  H   H1        1.0  0.58842  0.64817  0.67667  1.0000
  C   C5        1.0  0.33532  0.47683  0.71569  1.0000
  C   C6        1.0  0.36870  0.53773  0.70782  1.0000
  C   C7        1.0  0.40016  0.51697  0.69984  1.0000
  C   C8        1.0  0.43845  0.52926  0.69071  1.0000
  O   O2        1.0  0.30110  0.52826  0.72499  1.0000
  H   H2        1.0  0.37012  0.56789  0.71007  1.0000
  N   N1        1.0  0.58144  0.56715  0.67146  1.0000
  C   C9        1.0  0.53388  0.31586  0.70563  1.0000
  C   C10       1.0  0.47334  0.34711  0.70541  1.0000
  C   C11       1.0  0.49369  0.38129  0.69731  1.0000
  C   C12       1.0  0.48187  0.42083  0.68900  1.0000
  O   O3        1.0  0.48251  0.27780  0.71419  1.0000
  H   H3        1.0  0.44305  0.34624  0.70599  1.0000
  C   C13       1.0  0.69408  0.52139  0.66053  1.0000
  C   C14       1.0  0.66128  0.45988  0.67095  1.0000
  C   C15       1.0  0.62899  0.48079  0.67247  1.0000
  C   C16       1.0  0.59024  0.46874  0.67681  1.0000
  O   O4        1.0  0.72928  0.46951  0.65994  1.0000
  H   H4        1.0  0.66060  0.42941  0.67283  1.0000
  N   N2        1.0  0.44677  0.43090  0.69154  1.0000
  C   C17       1.0  0.53895  0.68006  0.68679  1.0000
  C   C18       1.0  0.47786  0.64752  0.69187  1.0000
  C   C19       1.0  0.49741  0.61487  0.68665  1.0000
  C   C20       1.0  0.48477  0.57600  0.68494  1.0000
  O   O5        1.0  0.48873  0.71629  0.69265  1.0000
  H   H5        1.0  0.44802  0.64732  0.69700  1.0000
  C   C21       1.0  0.69345  0.48164  0.66381  1.0000
  C   C22       1.0  0.66251  0.54220  0.66393  1.0000
  C   C23       1.0  0.62955  0.52057  0.66925  1.0000
  C   C24       1.0  0.59105  0.53174  0.67103  1.0000
  O   O6        1.0  0.73002  0.53463  0.65334  1.0000
  H   H6        1.0  0.66301  0.57269  0.66182  1.0000
  N   N3        1.0  0.44956  0.56497  0.69048  1.0000
  C   C25       1.0  0.49482  0.31486  0.70964  1.0000
  C   C26       1.0  0.55446  0.34923  0.69960  1.0000
  C   C27       1.0  0.53307  0.38202  0.69561  1.0000
  C   C28       1.0  0.54432  0.42171  0.68682  1.0000
  O   O7        1.0  0.54642  0.27946  0.70741  1.0000
  H   H7        1.0  0.58442  0.35048  0.69590  1.0000
  C   C29       1.0  0.33640  0.51623  0.71646  1.0000
  C   C30       1.0  0.36609  0.45607  0.70671  1.0000
  C   C31       1.0  0.39905  0.47744  0.69891  1.0000
  C   C32       1.0  0.43694  0.46653  0.69047  1.0000
  O   O8        1.0  0.29945  0.46366  0.72475  1.0000
  H   H8        1.0  0.36497  0.42575  0.70672  1.0000
  N   N4        1.0  0.57978  0.43257  0.68350  1.0000
  B   B1        1.0  0.52142  0.73878  0.68879  1.0000
  N   N5        1.0  0.51501  0.55400  0.67927  1.0000
  B   B2        1.0  0.51437  0.25615  0.71122  1.0000
  N   N6        1.0  0.51289  0.44432  0.68114  1.0000
  B   B3        1.0  0.27865  0.49536  0.73286  1.0000
  N   N7        1.0  0.45964  0.49847  0.68467  1.0000
  B   B4        1.0  0.75200  0.50220  0.65688  1.0000
  N   N8        1.0  0.56813  0.50007  0.67403  1.0000
  C   C33       1.0  0.03604  0.49415  0.70596  1.0000
  C   C34       1.0  0.01863  0.56394  0.46533  1.0000
  C   C35       1.0  0.05252  0.42420  0.94393  1.0000
  C   C36       1.0  0.04651  0.52825  0.58234  1.0000
  C   C37       1.0  0.08694  0.52631  0.57544  1.0000
  C   C38       1.0  0.06338  0.45721  0.82130  1.0000
  C   C39       1.0  0.10406  0.45354  0.81695  1.0000
  O   O9        1.0  0.09594  0.55473  0.46095  1.0000
  O   O10       1.0  0.12754  0.42132  0.90689  1.0000
  N   N9        1.0  0.11505  0.48980  0.70657  1.0000
  H   H9        1.0  0.02751  0.58953  0.37098  1.0000
  H   H10       1.0  0.07421  0.39615  0.03243  1.0000
  C   C40       1.0  0.99706  0.49690  0.71182  1.0000
  C   C41       1.0  0.01458  0.42727  0.95390  1.0000
  C   C42       1.0  0.97994  0.56646  0.46852  1.0000
  C   C43       1.0  0.98674  0.46317  0.83807  1.0000
  C   C44       1.0  0.94667  0.46584  0.84867  1.0000
  C   C45       1.0  0.96916  0.53349  0.59103  1.0000
  C   C46       1.0  0.92781  0.53675  0.58688  1.0000
  C   C47       1.0  0.87603  0.50214  0.69218  1.0000
  C   C48       1.0  0.85510  0.46933  0.67116  1.0000
  C   C49       1.0  0.81508  0.46953  0.65696  1.0000
  C   C50       1.0  0.85658  0.53521  0.69355  1.0000
  C   C51       1.0  0.81662  0.53499  0.68044  1.0000
  C   C52       1.0  0.79521  0.50217  0.66250  1.0000
  O   O11       1.0  0.93844  0.43897  0.97203  1.0000
  O   O12       1.0  0.90315  0.56832  0.48090  1.0000
  N   N10       1.0  0.91769  0.50166  0.70783  1.0000
  H   H11       1.0  0.00622  0.40181  0.05178  1.0000
  H   H12       1.0  0.86989  0.44447  0.66268  1.0000
  H   H13       1.0  0.79881  0.44414  0.63934  1.0000
  H   H14       1.0  0.95753  0.59396  0.37485  1.0000
  H   H15       1.0  0.87225  0.56107  0.70315  1.0000
  H   H16       1.0  0.80224  0.56041  0.68761  1.0000
  C   C53       1.0  0.51683  0.01267  0.75103  1.0000
  C   C54       1.0  0.44210  0.02286  0.56169  1.0000
  C   C55       1.0  0.59142  0.00156  0.94378  1.0000
  C   C56       1.0  0.47782  0.03621  0.66694  1.0000
  C   C57       1.0  0.47436  0.07564  0.68328  1.0000
  C   C58       1.0  0.55322  0.02514  0.86272  1.0000
  C   C59       1.0  0.55091  0.06333  0.89230  1.0000
  C   C60       1.0  0.51178  0.13144  0.75507  1.0000
  C   C61       1.0  0.47974  0.15191  0.76080  1.0000
  C   C62       1.0  0.48068  0.19232  0.73962  1.0000
  C   C63       1.0  0.54411  0.15165  0.72495  1.0000
  C   C64       1.0  0.54523  0.19165  0.70968  1.0000
  C   C65       1.0  0.51358  0.21272  0.71729  1.0000
  O   O13       1.0  0.44033  0.09529  0.61684  1.0000
  O   O14       1.0  0.58046  0.07223  0.01182  1.0000
  N   N11       1.0  0.51202  0.08967  0.77414  1.0000
  H   H17       1.0  0.41241  0.04124  0.50138  1.0000
  H   H18       1.0  0.45435  0.13694  0.78202  1.0000
  H   H19       1.0  0.45578  0.20789  0.74542  1.0000
  H   H20       1.0  0.61911  0.01203  0.02711  1.0000
  H   H21       1.0  0.56846  0.13608  0.71592  1.0000
  H   H22       1.0  0.57100  0.20662  0.69091  1.0000
  C   C66       1.0  0.51934  0.97569  0.72484  1.0000
  C   C67       1.0  0.59388  0.96498  0.91888  1.0000
  C   C68       1.0  0.44460  0.98689  0.53197  1.0000
  C   C69       1.0  0.55830  0.95178  0.81133  1.0000
  C   C70       1.0  0.56132  0.91183  0.79782  1.0000
  C   C71       1.0  0.48282  0.96358  0.61108  1.0000
  C   C72       1.0  0.48488  0.92663  0.57145  1.0000
  O   O15       1.0  0.59415  0.88889  0.88398  1.0000
  O   O16       1.0  0.45488  0.91855  0.44951  1.0000
  N   N12       1.0  0.52356  0.90067  0.68288  1.0000
  H   H23       1.0  0.62347  0.94604  0.98416  1.0000
  H   H24       1.0  0.41698  0.97648  0.44756  1.0000
  Cu  Cu1       1.0  0.48248  0.49849  0.18992  1.0000
  C   C73       1.0  0.46721  0.68121  0.18012  1.0000
  C   C74       1.0  0.52700  0.64839  0.18258  1.0000
  C   C75       1.0  0.50488  0.61552  0.18164  1.0000
  C   C76       1.0  0.51551  0.57624  0.18498  1.0000
  O   O17       1.0  0.52076  0.71703  0.18554  1.0000
  H   H25       1.0  0.55761  0.64778  0.18594  1.0000
  C   C77       1.0  0.30389  0.47695  0.22781  1.0000
  C   C78       1.0  0.33646  0.53873  0.20923  1.0000
  C   C79       1.0  0.36831  0.51773  0.20481  1.0000
  C   C80       1.0  0.40667  0.52984  0.19531  1.0000
  O   O18       1.0  0.26896  0.52930  0.22663  1.0000
  H   H26       1.0  0.33725  0.56930  0.20610  1.0000
  N   N13       1.0  0.55053  0.56578  0.18333  1.0000
  C   C81       1.0  0.49732  0.31624  0.19934  1.0000
  C   C82       1.0  0.43868  0.34844  0.20739  1.0000
  C   C83       1.0  0.46007  0.38192  0.19880  1.0000
  C   C84       1.0  0.44978  0.42088  0.19891  1.0000
  O   O19       1.0  0.44585  0.27865  0.21707  1.0000
  H   H27       1.0  0.40901  0.34834  0.21397  1.0000
  C   C85       1.0  0.66203  0.52048  0.16601  1.0000
  C   C86       1.0  0.62875  0.45958  0.16673  1.0000
  C   C87       1.0  0.59663  0.47995  0.17246  1.0000
  C   C88       1.0  0.55787  0.46789  0.17794  1.0000
  O   O20       1.0  0.69718  0.46960  0.15841  1.0000
  H   H28       1.0  0.62774  0.42960  0.16234  1.0000
  N   N14       1.0  0.41529  0.43083  0.20672  1.0000
  C   C89       1.0  0.50679  0.68092  0.18188  1.0000
  C   C90       1.0  0.44506  0.64897  0.17860  1.0000
  C   C91       1.0  0.46522  0.61580  0.17967  1.0000
  C   C92       1.0  0.45283  0.57657  0.18359  1.0000
  O   O21       1.0  0.45591  0.71757  0.18259  1.0000
  H   H29       1.0  0.41484  0.64896  0.17932  1.0000
  C   C93       1.0  0.66128  0.48124  0.16323  1.0000
  C   C94       1.0  0.63067  0.54090  0.17204  1.0000
  C   C95       1.0  0.59772  0.51929  0.17552  1.0000
  C   C96       1.0  0.55972  0.53029  0.18160  1.0000
  O   O22       1.0  0.69805  0.53401  0.16129  1.0000
  H   H30       1.0  0.63127  0.57110  0.17343  1.0000
  N   N15       1.0  0.41729  0.56607  0.18705  1.0000
  C   C97       1.0  0.45874  0.31580  0.20802  1.0000
  C   C98       1.0  0.51861  0.34922  0.18985  1.0000
  C   C99       1.0  0.49876  0.38229  0.19042  1.0000
  C   C100      1.0  0.51119  0.42153  0.18578  1.0000
  O   O23       1.0  0.50907  0.27958  0.20235  1.0000
  H   H31       1.0  0.54819  0.34947  0.18233  1.0000
  C   C101      1.0  0.30449  0.51698  0.22076  1.0000
  C   C102      1.0  0.33513  0.45594  0.22278  1.0000
  C   C103      1.0  0.36770  0.47771  0.21106  1.0000
  C   C104      1.0  0.40574  0.46650  0.20508  1.0000
  O   O24       1.0  0.26832  0.46371  0.23990  1.0000
  H   H32       1.0  0.33472  0.42515  0.22881  1.0000
  N   N16       1.0  0.54642  0.43225  0.17868  1.0000
  B   B5        1.0  0.48934  0.73930  0.18790  1.0000
  N   N17       1.0  0.48379  0.55356  0.18783  1.0000
  B   B6        1.0  0.47709  0.25647  0.21338  1.0000
  N   N18       1.0  0.48102  0.44385  0.19045  1.0000
  B   B7        1.0  0.24647  0.49637  0.23527  1.0000
  N   N19       1.0  0.42843  0.49837  0.19717  1.0000
  B   B8        1.0  0.71959  0.50248  0.15568  1.0000
  N   N20       1.0  0.53659  0.49880  0.18324  1.0000
  C   C105      1.0  0.00257  0.50309  0.19413  1.0000
  C   C106      1.0  0.98447  0.57251  0.95053  1.0000
  C   C107      1.0  0.01979  0.43331  0.43596  1.0000
  C   C108      1.0  0.01270  0.53689  0.06737  1.0000
  C   C109      1.0  0.05282  0.53452  0.05690  1.0000
  C   C110      1.0  0.03049  0.46651  0.31426  1.0000
  C   C111      1.0  0.07171  0.46330  0.31731  1.0000
  O   O25       1.0  0.06108  0.56170  0.93485  1.0000
  O   O26       1.0  0.09633  0.43172  0.42268  1.0000
  N   N21       1.0  0.08174  0.49853  0.19622  1.0000
  H   H33       1.0  0.99262  0.59796  0.85168  1.0000
  H   H34       1.0  0.04216  0.40579  0.52779  1.0000
  C   C112      1.0  0.96357  0.50558  0.20016  1.0000
  C   C113      1.0  0.98126  0.43563  0.44062  1.0000
  C   C114      1.0  0.94641  0.57530  0.95979  1.0000
  C   C115      1.0  0.95341  0.47136  0.32459  1.0000
  C   C116      1.0  0.91316  0.47306  0.33320  1.0000
  C   C117      1.0  0.93579  0.54226  0.08350  1.0000
  C   C118      1.0  0.89492  0.54556  0.08674  1.0000
  O   O27       1.0  0.90480  0.44474  0.45098  1.0000
  O   O28       1.0  0.87090  0.57743  0.99413  1.0000
  N   N22       1.0  0.88453  0.50919  0.19986  1.0000
  H   H35       1.0  0.97244  0.40993  0.53478  1.0000
  H   H36       1.0  0.92443  0.60313  0.86946  1.0000
  C   C119      1.0  0.48271  0.02086  0.16214  1.0000
  C   C120      1.0  0.40814  0.03112  0.96992  1.0000
  C   C121      1.0  0.55748  0.00994  0.35358  1.0000
  C   C122      1.0  0.44372  0.04476  0.07450  1.0000
  C   C123      1.0  0.44075  0.08489  0.08572  1.0000
  C   C124      1.0  0.51927  0.03328  0.27367  1.0000
  C   C125      1.0  0.51724  0.07061  0.31020  1.0000
  C   C126      1.0  0.47765  0.13562  0.21030  1.0000
  C   C127      1.0  0.44693  0.15085  0.24316  1.0000
  C   C128      1.0  0.44682  0.18946  0.24757  1.0000
  C   C129      1.0  0.50823  0.15890  0.18133  1.0000
  C   C130      1.0  0.50762  0.19735  0.18490  1.0000
  C   C131      1.0  0.47683  0.21353  0.21619  1.0000
  O   O29       1.0  0.40788  0.10789  0.99750  1.0000
  O   O30       1.0  0.54735  0.07933  0.42891  1.0000
  N   N23       1.0  0.47832  0.09605  0.20166  1.0000
  H   H37       1.0  0.37845  0.04997  0.90344  1.0000
  H   H38       1.0  0.42354  0.13272  0.26704  1.0000
  H   H39       1.0  0.42306  0.20085  0.27574  1.0000
  H   H40       1.0  0.58509  0.02079  0.43471  1.0000
  H   H41       1.0  0.53199  0.14706  0.15531  1.0000
  H   H42       1.0  0.53088  0.21564  0.15834  1.0000
  C   C132      1.0  0.48524  0.98342  0.14001  1.0000
  C   C133      1.0  0.55999  0.97346  0.32844  1.0000
  C   C134      1.0  0.41067  0.99394  0.95034  1.0000
  C   C135      1.0  0.52428  0.95985  0.22569  1.0000
  C   C136      1.0  0.52786  0.91997  0.21386  1.0000
  C   C137      1.0  0.44883  0.97019  0.03341  1.0000
  C   C138      1.0  0.45097  0.93095  0.01289  1.0000
  C   C139      1.0  0.49141  0.86353  0.14962  1.0000
  C   C140      1.0  0.52267  0.84402  0.13540  1.0000
  C   C141      1.0  0.52255  0.80364  0.15661  1.0000
  C   C142      1.0  0.46071  0.84207  0.18999  1.0000
  C   C143      1.0  0.46028  0.80212  0.20510  1.0000
  C   C144      1.0  0.49096  0.78215  0.18733  1.0000
  O   O31       1.0  0.56189  0.90014  0.28035  1.0000
  O   O32       1.0  0.42075  0.92050  0.90338  1.0000
  N   N24       1.0  0.49028  0.90537  0.12810  1.0000
  H   H43       1.0  0.58962  0.95489  0.39018  1.0000
  H   H44       1.0  0.54692  0.85997  0.10796  1.0000
  H   H45       1.0  0.54692  0.78903  0.14379  1.0000
  H   H46       1.0  0.38299  0.98292  0.87069  1.0000
  H   H47       1.0  0.43733  0.85671  0.20814  1.0000
  H   H48       1.0  0.43596  0.78595  0.23328  1.0000
  Cu  Cu2       1.0  0.51368  0.49946  0.67769  1.0000
  C  Sn1       1.0  0.16821  0.46676  0.15503  1.0000
  C   C145      1.0  0.19447  0.49600  0.17439  1.0000
  C  Sn2       1.0  0.18676  0.52580  0.23544  1.0000
  C  Sn3       1.0  0.15209  0.52638  0.27816  1.0000
  C   C146      1.0  0.12586  0.49714  0.25882  1.0000
  C  Sn4       1.0  0.13354  0.46733  0.19774  1.0000
  O  Te1       1.0  0.17652  0.43725  0.09379  1.0000
  O  Te2       1.0  0.21345  0.55473  0.25365  1.0000
  O  Te3       1.0  0.14380  0.55592  0.33943  1.0000
  O  Te4       1.0  0.10689  0.43842  0.17957  1.0000
  Mg  Mg1       1.0  0.18915  0.58879  0.34216  1.0000
  Mg  Mg2       1.0  0.13116  0.40433  0.09117  1.0000
  C  Sn5       1.0  0.49595  0.82593  0.76693  1.0000
  C   C147      1.0  0.52426  0.85235  0.73969  1.0000
  C  Sn6       1.0  0.55093  0.84510  0.66326  1.0000
  C  Sn7       1.0  0.54924  0.81074  0.61289  1.0000
  C   C148      1.0  0.52094  0.78435  0.64010  1.0000
  C  Sn8       1.0  0.49427  0.79157  0.71656  1.0000
  O  Te5       1.0  0.46958  0.83377  0.84355  1.0000
  O  Te6       1.0  0.57898  0.87194  0.63742  1.0000
  O  Te7       1.0  0.57564  0.80292  0.53623  1.0000
  O  Te8       1.0  0.46622  0.76476  0.74238  1.0000
  Mg  Mg3       1.0  0.60847  0.84831  0.52802  1.0000
  Mg  Mg4       1.0  0.43670  0.78837  0.85165  1.0000
  C  Sn9       1.0  0.18864  0.45056  0.76351  1.0000
  C   C149      1.0  0.16417  0.47897  0.77187  1.0000
  C  Sn10      1.0  0.17456  0.51781  0.74858  1.0000
  C  Sn11      1.0  0.21014  0.52850  0.71612  1.0000
  C   C150      1.0  0.23458  0.50011  0.70773  1.0000
  C  Sn12      1.0  0.22422  0.46125  0.73104  1.0000
  O  Te9       1.0  0.17766  0.41191  0.78718  1.0000
  O  Te10      1.0  0.14962  0.54568  0.75759  1.0000
  O  Te11      1.0  0.22110  0.56719  0.69245  1.0000
  O  Te12      1.0  0.24912  0.43339  0.72201  1.0000
  Mg  Mg5       1.0  0.17737  0.59456  0.71652  1.0000
  Mg  Mg6       1.0  0.22140  0.38452  0.76295  1.0000
  C  Sn13      1.0  0.79605  0.46579  0.19839  1.0000
  C   C151      1.0  0.77159  0.49304  0.21352  1.0000
  C  Sn14      1.0  0.78146  0.53192  0.19411  1.0000
  C  Sn15      1.0  0.81649  0.54382  0.15871  1.0000
  C   C152      1.0  0.84092  0.51657  0.14356  1.0000
  C  Sn16      1.0  0.83108  0.47768  0.16299  1.0000
  O  Te13      1.0  0.78560  0.42707  0.21828  1.0000
  O  Te14      1.0  0.75655  0.55863  0.20987  1.0000
  O  Te15      1.0  0.82692  0.58257  0.13882  1.0000
  O  Te16      1.0  0.85596  0.45098  0.14721  1.0000
  Mg  Mg7       1.0  0.78345  0.60809  0.17189  1.0000
  Mg  Mg8       1.0  0.82908  0.40153  0.18507  1.0000
