data_image0
_chemical_formula_structural       C32O8H8N4B4C5H2OC5H2OC5H2OC5H2OC5H2OC5H2OC5H2OC5H2OC2NC2NC2NC2NCuN4C32O8H8N4B4C5H2OC5H2OC5H2OC5H2OC5H2OC5H2OC5H2OC5H2OC2NC2NC2NC2NCuN4SnCSn2CSnTe4Mg2SnCSn2CSnTe4Mg2SnCSn2CSnTe4Mg2SnCSn2CSnTe4Mg2SnCSn2CSnTe4Mg2SnCSn2CSnTe4Mg2SnCSn2CSnTe4Mg2SnCSn2CSnTe4Mg2
_chemical_formula_sum              "C176 O32 H48 N24 B8 Cu2 Sn32 Te32 Mg16"
_cell_length_a       40.3064
_cell_length_b       40.2973
_cell_length_c       7.96841
_cell_angle_alpha    109.212
_cell_angle_beta     110.929
_cell_angle_gamma    90.0635

_symmetry_space_group_name_H-M    'P1'
_space_group_IT_number       1

loop_
  _space_group_symop_operation_xyz
  'x, y, z'

loop_
  _atom_site_type_symbol
  _atom_site_label
  _atom_site_symmetry_multiplicity
  _atom_site_fract_x
  _atom_site_fract_y
  _atom_site_fract_z
  _atom_site_occupancy
  C   C1        1.0  0.48141  0.66158  0.21470  1.0000
  C   C2        1.0  0.53688  0.63452  0.24395  1.0000
  C   C3        1.0  0.51795  0.60524  0.24332  1.0000
  C   C4        1.0  0.52879  0.57132  0.25335  1.0000
  C   C5        1.0  0.51879  0.34195  0.26783  1.0000
  C   C6        1.0  0.46466  0.37061  0.25900  1.0000
  C   C7        1.0  0.48380  0.39987  0.26080  1.0000
  C   C8        1.0  0.47352  0.43430  0.25826  1.0000
  C   C9        1.0  0.34057  0.48459  0.26304  1.0000
  C   C10       1.0  0.36791  0.53819  0.25251  1.0000
  C   C11       1.0  0.39760  0.51999  0.25318  1.0000
  C   C12       1.0  0.43195  0.53028  0.24950  1.0000
  C   C13       1.0  0.66161  0.51938  0.24462  1.0000
  C   C14       1.0  0.63241  0.46543  0.24177  1.0000
  C   C15       1.0  0.60385  0.48484  0.25035  1.0000
  C   C16       1.0  0.56968  0.47488  0.25560  1.0000
  C   C17       1.0  0.51753  0.66261  0.23175  1.0000
  C   C18       1.0  0.46259  0.63301  0.21692  1.0000
  C   C19       1.0  0.48217  0.60470  0.23366  1.0000
  C   C20       1.0  0.47233  0.57069  0.24238  1.0000
  C   C21       1.0  0.48328  0.34180  0.26116  1.0000
  C   C22       1.0  0.53779  0.37058  0.26706  1.0000
  C   C23       1.0  0.51902  0.39979  0.26241  1.0000
  C   C24       1.0  0.52922  0.43418  0.25916  1.0000
  C   C25       1.0  0.66092  0.48386  0.23744  1.0000
  C   C26       1.0  0.63335  0.53864  0.25058  1.0000
  C   C27       1.0  0.60411  0.52011  0.25263  1.0000
  C   C28       1.0  0.56991  0.53074  0.25775  1.0000
  C   C29       1.0  0.33971  0.51929  0.25761  1.0000
  C   C30       1.0  0.36961  0.46631  0.26328  1.0000
  C   C31       1.0  0.39828  0.48524  0.25877  1.0000
  C   C32       1.0  0.43272  0.47508  0.25716  1.0000
  O   O1        1.0  0.52882  0.69491  0.23136  1.0000
  O   O2        1.0  0.47168  0.30950  0.26028  1.0000
  O   O3        1.0  0.30734  0.53014  0.26054  1.0000
  O   O4        1.0  0.69226  0.47173  0.22489  1.0000
  O   O5        1.0  0.46941  0.69291  0.19773  1.0000
  O   O6        1.0  0.53018  0.30997  0.27587  1.0000
  O   O7        1.0  0.69386  0.53024  0.24178  1.0000
  O   O8        1.0  0.30878  0.47323  0.26859  1.0000
  H   H1        1.0  0.56441  0.63487  0.25295  1.0000
  H   H2        1.0  0.43760  0.37083  0.25735  1.0000
  H   H3        1.0  0.36720  0.56484  0.24813  1.0000
  H   H4        1.0  0.63185  0.43825  0.23806  1.0000
  H   H5        1.0  0.43491  0.63231  0.20576  1.0000
  H   H6        1.0  0.56492  0.37060  0.26983  1.0000
  H   H7        1.0  0.63344  0.56564  0.25135  1.0000
  H   H8        1.0  0.37055  0.43973  0.26885  1.0000
  N   N1        1.0  0.56067  0.56231  0.25729  1.0000
  N   N2        1.0  0.44197  0.44355  0.25871  1.0000
  N   N3        1.0  0.44071  0.56140  0.24223  1.0000
  N   N4        1.0  0.56064  0.44334  0.25705  1.0000
  B   B1        1.0  0.49895  0.71354  0.20938  1.0000
  B   B2        1.0  0.50091  0.28998  0.27093  1.0000
  B   B3        1.0  0.28843  0.50158  0.26827  1.0000
  B   B4        1.0  0.71268  0.50069  0.23007  1.0000
  C   C33       1.0  0.98419  0.46805  0.27138  1.0000
  C   C34       1.0  0.03936  0.55892  0.26873  1.0000
  C   C35       1.0  0.07485  0.55932  0.28223  1.0000
  C   C36       1.0  0.09142  0.52892  0.27654  1.0000
  C   C37       1.0  0.12209  0.46449  0.19888  1.0000
  H   H9        1.0  0.02681  0.58272  0.26739  1.0000
  H   H10       1.0  0.09004  0.58307  0.29617  1.0000
  O   O9        1.0  0.13134  0.43597  0.12663  1.0000
  C   C38       1.0  0.02014  0.52911  0.26109  1.0000
  C   C39       1.0  0.96648  0.44030  0.29020  1.0000
  C   C40       1.0  0.93237  0.44160  0.29795  1.0000
  C   C41       1.0  0.91426  0.47056  0.28213  1.0000
  C   C42       1.0  0.87499  0.52829  0.23065  1.0000
  H   H11       1.0  0.97970  0.41727  0.30304  1.0000
  H   H12       1.0  0.91952  0.42032  0.31858  1.0000
  O   O10       1.0  0.85843  0.55218  0.19364  1.0000
  C   C43       1.0  0.53099  0.98295  0.22642  1.0000
  C   C44       1.0  0.44242  0.03898  0.27524  1.0000
  C   C45       1.0  0.44246  0.07401  0.28135  1.0000
  C   C46       1.0  0.47085  0.09097  0.26636  1.0000
  C   C47       1.0  0.52568  0.12463  0.20295  1.0000
  H   H13       1.0  0.41992  0.02683  0.28906  1.0000
  H   H14       1.0  0.42077  0.08886  0.30085  1.0000
  O   O11       1.0  0.54685  0.13648  0.15047  1.0000
  C   C48       1.0  0.47085  0.01986  0.25841  1.0000
  C   C49       1.0  0.55987  0.96424  0.21414  1.0000
  C   C50       1.0  0.56051  0.92975  0.21626  1.0000
  C   C51       1.0  0.53217  0.91275  0.23101  1.0000
  C   C52       1.0  0.47481  0.87708  0.26829  1.0000
  H   H15       1.0  0.58230  0.97641  0.19991  1.0000
  H   H16       1.0  0.58294  0.91541  0.20541  1.0000
  O   O12       1.0  0.45181  0.86306  0.30096  1.0000
  C   C53       1.0  0.01954  0.46693  0.25896  1.0000
  C   C54       1.0  0.96400  0.55709  0.23575  1.0000
  C   C55       1.0  0.92887  0.55655  0.22783  1.0000
  C   C56       1.0  0.91231  0.52780  0.24182  1.0000
  C   C57       1.0  0.87908  0.47205  0.30070  1.0000
  H   H17       1.0  0.97596  0.57990  0.22344  1.0000
  H   H18       1.0  0.91362  0.57817  0.20843  1.0000
  O   O13       1.0  0.86742  0.44970  0.34750  1.0000
  C   C58       1.0  0.98341  0.52872  0.25252  1.0000
  C   C59       1.0  0.03705  0.43660  0.24322  1.0000
  C   C60       1.0  0.07048  0.43590  0.22650  1.0000
  C   C61       1.0  0.08837  0.46623  0.23396  1.0000
  C   C62       1.0  0.12950  0.53050  0.30169  1.0000
  H   H19       1.0  0.02435  0.41263  0.24159  1.0000
  H   H20       1.0  0.08318  0.41186  0.20914  1.0000
  O   O14       1.0  0.14832  0.55923  0.36462  1.0000
  C   C63       1.0  0.47163  0.98367  0.25892  1.0000
  C   C64       1.0  0.55727  0.03693  0.20260  1.0000
  C   C65       1.0  0.55597  0.07135  0.19958  1.0000
  C   C66       1.0  0.52729  0.08923  0.21930  1.0000
  C   C67       1.0  0.47041  0.12839  0.27881  1.0000
  H   H21       1.0  0.58000  0.02382  0.18554  1.0000
  H   H22       1.0  0.57683  0.08461  0.17829  1.0000
  O   O15       1.0  0.44665  0.14489  0.31424  1.0000
  C   C68       1.0  0.52994  0.01894  0.22288  1.0000
  C   C69       1.0  0.44391  0.96544  0.27498  1.0000
  C   C70       1.0  0.44497  0.93087  0.27607  1.0000
  C   C71       1.0  0.47405  0.91324  0.26134  1.0000
  C   C72       1.0  0.53420  0.87650  0.23599  1.0000
  H   H23       1.0  0.42087  0.97837  0.28813  1.0000
  H   H24       1.0  0.42341  0.91722  0.29053  1.0000
  O   O16       1.0  0.56111  0.86197  0.23676  1.0000
  C   C73       1.0  0.96655  0.49850  0.26154  1.0000
  C   C74       1.0  0.07230  0.49770  0.25771  1.0000
  N   N5        1.0  0.14312  0.49754  0.25008  1.0000
  C   C75       1.0  0.03705  0.49795  0.26045  1.0000
  C   C76       1.0  0.93105  0.49889  0.26138  1.0000
  N   N6        1.0  0.85950  0.50032  0.26539  1.0000
  C   C77       1.0  0.50168  0.96603  0.24272  1.0000
  C   C78       1.0  0.49946  0.07233  0.24306  1.0000
  N   N7        1.0  0.49847  0.14424  0.24758  1.0000
  C   C79       1.0  0.50014  0.03674  0.24192  1.0000
  C   C80       1.0  0.50255  0.93061  0.24434  1.0000
  N   N8        1.0  0.50391  0.85920  0.23913  1.0000
  Cu  Cu1       1.0  0.50130  0.50295  0.25741  1.0000
  N   N9        1.0  0.50087  0.55130  0.25277  1.0000
  N   N10       1.0  0.50131  0.45423  0.25738  1.0000
  N   N11       1.0  0.45240  0.50273  0.25346  1.0000
  N   N12       1.0  0.54992  0.50296  0.25896  1.0000
  C   C81       1.0  0.48157  0.65895  0.71418  1.0000
  C   C82       1.0  0.53697  0.63168  0.74147  1.0000
  C   C83       1.0  0.51802  0.60252  0.74187  1.0000
  C   C84       1.0  0.52847  0.56844  0.75109  1.0000
  C   C85       1.0  0.51461  0.33931  0.76047  1.0000
  C   C86       1.0  0.46174  0.36942  0.76553  1.0000
  C   C87       1.0  0.48099  0.39822  0.76368  1.0000
  C   C88       1.0  0.47125  0.43284  0.76229  1.0000
  C   C89       1.0  0.33896  0.48656  0.76677  1.0000
  C   C90       1.0  0.36806  0.53913  0.75621  1.0000
  C   C91       1.0  0.39692  0.51975  0.75561  1.0000
  C   C92       1.0  0.43131  0.52906  0.75069  1.0000
  C   C93       1.0  0.66040  0.51497  0.74222  1.0000
  C   C94       1.0  0.63200  0.46250  0.75773  1.0000
  C   C95       1.0  0.60282  0.48147  0.75659  1.0000
  C   C96       1.0  0.56832  0.47192  0.76003  1.0000
  C   C97       1.0  0.51760  0.65976  0.72927  1.0000
  C   C98       1.0  0.46274  0.63056  0.71719  1.0000
  C   C99       1.0  0.48235  0.60230  0.73340  1.0000
  C   C100      1.0  0.47224  0.56856  0.74252  1.0000
  C   C101      1.0  0.47982  0.34020  0.76445  1.0000
  C   C102      1.0  0.53391  0.36765  0.75938  1.0000
  C   C103      1.0  0.51592  0.39744  0.76123  1.0000
  C   C104      1.0  0.52684  0.43182  0.76097  1.0000
  C   C105      1.0  0.66057  0.48054  0.75150  1.0000
  C   C106      1.0  0.63186  0.53406  0.74257  1.0000
  C   C107      1.0  0.60294  0.51620  0.75078  1.0000
  C   C108      1.0  0.56884  0.52725  0.75453  1.0000
  C   C109      1.0  0.33932  0.52131  0.76197  1.0000
  C   C110      1.0  0.36730  0.46719  0.76628  1.0000
  C   C111      1.0  0.39664  0.48503  0.76136  1.0000
  C   C112      1.0  0.43091  0.47403  0.75970  1.0000
  O   O17       1.0  0.52873  0.69182  0.72583  1.0000
  O   O18       1.0  0.46816  0.30821  0.76678  1.0000
  O   O19       1.0  0.30750  0.53347  0.76629  1.0000
  O   O20       1.0  0.69271  0.46889  0.75049  1.0000
  O   O21       1.0  0.46952  0.69018  0.69691  1.0000
  O   O22       1.0  0.52513  0.30675  0.75964  1.0000
  O   O23       1.0  0.69226  0.52518  0.73375  1.0000
  O   O24       1.0  0.30680  0.47646  0.77295  1.0000
  H   H25       1.0  0.56441  0.63201  0.74889  1.0000
  H   H26       1.0  0.43504  0.37028  0.76878  1.0000
  H   H27       1.0  0.36844  0.56584  0.75279  1.0000
  H   H28       1.0  0.63206  0.43594  0.76338  1.0000
  H   H29       1.0  0.43511  0.62988  0.70653  1.0000
  H   H30       1.0  0.56067  0.36700  0.75674  1.0000
  H   H31       1.0  0.63152  0.56047  0.73486  1.0000
  H   H32       1.0  0.36719  0.44059  0.77160  1.0000
  N   N13       1.0  0.56001  0.55886  0.75220  1.0000
  N   N14       1.0  0.43978  0.44248  0.76255  1.0000
  N   N15       1.0  0.44053  0.55994  0.74295  1.0000
  N   N16       1.0  0.55859  0.44054  0.76109  1.0000
  B   B5        1.0  0.49891  0.71051  0.70561  1.0000
  B   B6        1.0  0.49628  0.28761  0.76376  1.0000
  B   B7        1.0  0.28740  0.50548  0.77132  1.0000
  B   B8        1.0  0.71231  0.49667  0.74041  1.0000
  C   C113      1.0  0.98432  0.46893  0.77372  1.0000
  C   C114      1.0  0.03705  0.56117  0.76965  1.0000
  C   C115      1.0  0.07259  0.56235  0.78337  1.0000
  C   C116      1.0  0.08991  0.53240  0.77775  1.0000
  C   C117      1.0  0.12159  0.46866  0.69885  1.0000
  H   H33       1.0  0.02397  0.58467  0.76784  1.0000
  H   H34       1.0  0.08730  0.58647  0.79821  1.0000
  O   O25       1.0  0.13120  0.44036  0.62664  1.0000
  C   C118      1.0  0.01851  0.53100  0.76293  1.0000
  C   C119      1.0  0.96702  0.44006  0.78536  1.0000
  C   C120      1.0  0.93190  0.43915  0.77870  1.0000
  C   C121      1.0  0.91323  0.46779  0.76559  1.0000
  C   C122      1.0  0.87674  0.52874  0.78106  1.0000
  H   H35       1.0  0.98091  0.41738  0.79770  1.0000
  H   H36       1.0  0.91843  0.41605  0.78152  1.0000
  O   O26       1.0  0.86520  0.55731  0.82238  1.0000
  C   C123      1.0  0.52964  0.97963  0.72830  1.0000
  C   C124      1.0  0.44120  0.03598  0.77691  1.0000
  C   C125      1.0  0.44073  0.07039  0.77311  1.0000
  C   C126      1.0  0.46906  0.08698  0.75582  1.0000
  C   C127      1.0  0.52736  0.12300  0.73023  1.0000
  H   H37       1.0  0.41887  0.02423  0.79388  1.0000
  H   H38       1.0  0.41825  0.08475  0.78245  1.0000
  O   O27       1.0  0.55322  0.13618  0.71496  1.0000
  C   C128      1.0  0.46961  0.01670  0.76114  1.0000
  C   C129      1.0  0.55831  0.96082  0.71305  1.0000
  C   C130      1.0  0.55917  0.92651  0.71707  1.0000
  C   C131      1.0  0.53110  0.90982  0.73535  1.0000
  C   C132      1.0  0.47387  0.87409  0.77289  1.0000
  H   H39       1.0  0.58035  0.97275  0.69475  1.0000
  H   H40       1.0  0.58150  0.91209  0.70496  1.0000
  O   O28       1.0  0.45106  0.86010  0.80699  1.0000
  C   C133      1.0  0.01973  0.46898  0.76311  1.0000
  C   C134      1.0  0.96159  0.55769  0.74225  1.0000
  C   C135      1.0  0.92718  0.55683  0.74534  1.0000
  C   C136      1.0  0.91158  0.52743  0.75838  1.0000
  C   C137      1.0  0.87520  0.46485  0.74344  1.0000
  H   H41       1.0  0.97261  0.58077  0.72785  1.0000
  H   H42       1.0  0.91219  0.57913  0.73983  1.0000
  O   O29       1.0  0.85971  0.43633  0.71830  1.0000
  C   C138      1.0  0.98188  0.52977  0.75669  1.0000
  C   C139      1.0  0.03805  0.43922  0.74979  1.0000
  C   C140      1.0  0.07129  0.43915  0.73142  1.0000
  C   C141      1.0  0.08816  0.46972  0.73567  1.0000
  C   C142      1.0  0.12813  0.53477  0.80499  1.0000
  H   H43       1.0  0.02617  0.41523  0.75188  1.0000
  H   H44       1.0  0.08456  0.41546  0.71536  1.0000
  O   O30       1.0  0.14675  0.56374  0.87286  1.0000
  C   C143      1.0  0.47043  0.98060  0.76306  1.0000
  C   C144      1.0  0.55627  0.03361  0.70753  1.0000
  C   C145      1.0  0.55556  0.06836  0.71000  1.0000
  C   C146      1.0  0.52677  0.08622  0.72805  1.0000
  C   C147      1.0  0.46620  0.12212  0.73516  1.0000
  H   H45       1.0  0.57906  0.02051  0.69126  1.0000
  H   H46       1.0  0.57715  0.08204  0.69616  1.0000
  O   O31       1.0  0.43703  0.13326  0.70701  1.0000
  C   C148      1.0  0.52869  0.01556  0.72542  1.0000
  C   C149      1.0  0.44273  0.96233  0.77906  1.0000
  C   C150      1.0  0.44384  0.92773  0.77974  1.0000
  C   C151      1.0  0.47295  0.91018  0.76530  1.0000
  C   C152      1.0  0.53355  0.87396  0.74468  1.0000
  H   H47       1.0  0.41965  0.97521  0.79222  1.0000
  H   H48       1.0  0.42240  0.91395  0.79435  1.0000
  O   O32       1.0  0.56097  0.86005  0.75218  1.0000
  C   C153      1.0  0.96594  0.49899  0.76528  1.0000
  C   C154      1.0  0.07144  0.50081  0.75898  1.0000
  N   N17       1.0  0.14201  0.50202  0.74931  1.0000
  C   C155      1.0  0.03628  0.50031  0.76266  1.0000
  C   C156      1.0  0.93038  0.49809  0.76371  1.0000
  N   N18       1.0  0.85795  0.49622  0.75608  1.0000
  C   C157      1.0  0.50044  0.96290  0.74621  1.0000
  C   C158      1.0  0.49833  0.06878  0.74341  1.0000
  N   N19       1.0  0.49731  0.14138  0.74460  1.0000
  C   C159      1.0  0.49889  0.03334  0.74369  1.0000
  C   C160      1.0  0.50141  0.92755  0.74814  1.0000
  N   N20       1.0  0.50300  0.85634  0.74397  1.0000
  Cu  Cu2       1.0  0.49997  0.50063  0.75770  1.0000
  N   N21       1.0  0.50045  0.54880  0.75229  1.0000
  N   N22       1.0  0.49935  0.45237  0.76122  1.0000
  N   N23       1.0  0.45113  0.50115  0.75465  1.0000
  N   N24       1.0  0.54866  0.50004  0.75920  1.0000
  C  Sn1       1.0  0.77718  0.46765  0.25833  1.0000
  C   C161      1.0  0.75793  0.49642  0.28740  1.0000
  C  Sn2       1.0  0.77032  0.52885  0.28776  1.0000
  C  Sn3       1.0  0.80260  0.53259  0.25834  1.0000
  C   C162      1.0  0.82182  0.50383  0.22926  1.0000
  C  Sn4       1.0  0.80946  0.47140  0.22891  1.0000
  O  Te1       1.0  0.76429  0.43549  0.25853  1.0000
  O  Te2       1.0  0.75062  0.55723  0.31719  1.0000
  O  Te3       1.0  0.81548  0.56479  0.25816  1.0000
  O  Te4       1.0  0.82913  0.44302  0.19947  1.0000
  Mg  Mg1       1.0  0.77915  0.59570  0.30433  1.0000
  Mg  Mg2       1.0  0.80062  0.40454  0.21221  1.0000
  C  Sn5       1.0  0.22442  0.46498  0.25104  1.0000
  C   C163      1.0  0.24334  0.48945  0.21678  1.0000
  C  Sn6       1.0  0.23113  0.52184  0.21575  1.0000
  C  Sn7       1.0  0.19936  0.52995  0.24979  1.0000
  C   C164      1.0  0.18045  0.50549  0.28406  1.0000
  C  Sn8       1.0  0.19264  0.47309  0.28508  1.0000
  O  Te5       1.0  0.23712  0.43276  0.25142  1.0000
  O  Te6       1.0  0.25050  0.54587  0.18110  1.0000
  O  Te7       1.0  0.18666  0.56219  0.24938  1.0000
  O  Te8       1.0  0.17330  0.44907  0.31975  1.0000
  Mg  Mg3       1.0  0.22240  0.58627  0.19527  1.0000
  Mg  Mg4       1.0  0.20138  0.40867  0.30571  1.0000
  C  Sn9       1.0  0.53878  0.80143  0.30012  1.0000
  C   C165      1.0  0.51169  0.81818  0.20672  1.0000
  C  Sn10      1.0  0.47612  0.80199  0.11890  1.0000
  C  Sn11      1.0  0.46744  0.76836  0.12464  1.0000
  C   C166      1.0  0.49452  0.75164  0.21802  1.0000
  C  Sn12      1.0  0.53010  0.76781  0.30586  1.0000
  O  Te9       1.0  0.57415  0.81811  0.38695  1.0000
  O  Te10      1.0  0.44951  0.81924  0.02634  1.0000
  O  Te11      1.0  0.43203  0.75169  0.03770  1.0000
  O  Te12      1.0  0.55670  0.75057  0.39840  1.0000
  Mg  Mg5       1.0  0.47595  0.85094  0.92933  1.0000
  Mg  Mg6       1.0  0.60095  0.78401  0.49554  1.0000
  C  Sn13      1.0  0.46375  0.19977  0.14554  1.0000
  C   C167      1.0  0.49255  0.18068  0.19036  1.0000
  C  Sn14      1.0  0.52737  0.19837  0.29897  1.0000
  C  Sn15      1.0  0.53354  0.23593  0.36424  1.0000
  C   C168      1.0  0.50476  0.25500  0.31945  1.0000
  C  Sn16      1.0  0.46992  0.23733  0.21081  1.0000
  O  Te13      1.0  0.42916  0.18153  0.03678  1.0000
  O  Te14      1.0  0.55573  0.17871  0.34191  1.0000
  O  Te15      1.0  0.56817  0.25416  0.47307  1.0000
  O  Te16      1.0  0.44158  0.25697  0.16790  1.0000
  Mg  Mg7       1.0  0.59801  0.21563  0.49448  1.0000
  Mg  Mg8       1.0  0.39928  0.22008  0.01543  1.0000
  C  Sn17      1.0  0.78235  0.47509  0.84948  1.0000
  C   C169      1.0  0.75721  0.49689  0.79047  1.0000
  C  Sn18      1.0  0.76285  0.51759  0.69033  1.0000
  C  Sn19      1.0  0.79427  0.51646  0.64819  1.0000
  C   C170      1.0  0.81938  0.49466  0.70715  1.0000
  C  Sn20      1.0  0.81376  0.47395  0.80733  1.0000
  O  Te17      1.0  0.77615  0.45462  0.94940  1.0000
  O  Te18      1.0  0.73735  0.53919  0.63288  1.0000
  O  Te19      1.0  0.80044  0.53695  0.54818  1.0000
  O  Te20      1.0  0.83924  0.45236  0.86474  1.0000
  Mg  Mg9       1.0  0.75783  0.56216  0.50029  1.0000
  Mg  Mg10      1.0  0.81877  0.42937  0.99724  1.0000
  C  Sn21      1.0  0.22376  0.53923  0.77848  1.0000
  C   C171      1.0  0.24844  0.51583  0.81829  1.0000
  C  Sn22      1.0  0.23697  0.48233  0.80914  1.0000
  C  Sn23      1.0  0.20005  0.47200  0.75905  1.0000
  C   C172      1.0  0.17540  0.49539  0.71924  1.0000
  C  Sn24      1.0  0.18685  0.52890  0.72838  1.0000
  O  Te21      1.0  0.23584  0.57259  0.78849  1.0000
  O  Te22      1.0  0.26215  0.45940  0.84961  1.0000
  O  Te23      1.0  0.18800  0.43861  0.74907  1.0000
  O  Te24      1.0  0.16169  0.55182  0.68791  1.0000
  Mg  Mg11      1.0  0.23256  0.41675  0.81669  1.0000
  Mg  Mg12      1.0  0.19124  0.59447  0.72069  1.0000
  C  Sn25      1.0  0.47166  0.76496  0.54462  1.0000
  C   C173      1.0  0.49761  0.74895  0.65068  1.0000
  C  Sn26      1.0  0.52650  0.76968  0.81445  1.0000
  C  Sn27      1.0  0.52950  0.80719  0.87351  1.0000
  C   C174      1.0  0.50356  0.82317  0.76749  1.0000
  C  Sn28      1.0  0.47466  0.80247  0.60368  1.0000
  O  Te25      1.0  0.44300  0.74371  0.38138  1.0000
  O  Te26      1.0  0.55211  0.75307  0.91812  1.0000
  O  Te27      1.0  0.48750  0.76328  0.03689  1.0000
  O  Te28      1.0  0.44906  0.81905  0.50006  1.0000
  Mg  Mg13      1.0  0.51554  0.72827  0.13047  1.0000
  Mg  Mg14      1.0  0.41492  0.77874  0.28775  1.0000
  C  Sn29      1.0  0.52165  0.22014  0.68379  1.0000
  C   C175      1.0  0.49640  0.24285  0.71162  1.0000
  C  Sn30      1.0  0.47146  0.23475  0.78183  1.0000
  C  Sn31      1.0  0.47178  0.20330  0.82525  1.0000
  C   C176      1.0  0.49702  0.18061  0.79745  1.0000
  C  Sn32      1.0  0.52197  0.18868  0.72720  1.0000
  O  Te29      1.0  0.54633  0.22876  0.61346  1.0000
  O  Te30      1.0  0.44646  0.25787  0.80841  1.0000
  O  Te31      1.0  0.44707  0.19469  0.89562  1.0000
  O  Te32      1.0  0.54696  0.16559  0.70066  1.0000
  Mg  Mg15      1.0  0.41832  0.23457  0.90762  1.0000
  Mg  Mg16      1.0  0.57513  0.18887  0.60155  1.0000
