data_image0
_chemical_formula_structural       C36O12B6H12C25HCHCHCHCHCHO12N6C36O12B6H12C25HCHCHCHCHCHO12N6C2Sn2C2HTe2HMgC2Sn2C2HTe2HMgC2Sn2C2HTe2HMgC2Sn2C2HTe2HMgC2Sn2C2HTe2HMgC2Sn2C2HTe2HMgC2Sn2C2HTe2HMgC2Sn2C2HTe2HMgC2Sn2C2HTe2HMgC2Sn2C2HTe2HMgC2Sn2C2HTe2HMgC2Sn2C2HTe2HMg
_chemical_formula_sum              "C180 O48 B12 H60 N12 Sn24 Te24 Mg12"
_cell_length_a       51.9512
_cell_length_b       51.7752
_cell_length_c       7.98519
_cell_angle_alpha    108.053
_cell_angle_beta     58.171
_cell_angle_gamma    120.248

_symmetry_space_group_name_H-M    'P1'
_space_group_IT_number       1

loop_
  _space_group_symop_operation_xyz
  'x, y, z'

loop_
  _atom_site_type_symbol
  _atom_site_label
  _atom_site_symmetry_multiplicity
  _atom_site_fract_x
  _atom_site_fract_y
  _atom_site_fract_z
  _atom_site_occupancy
  C   C1        1.0  0.69706  0.33553  0.24359  1.0000
  C   C2        1.0  0.69662  0.36310  0.24698  1.0000
  C   C3        1.0  0.72353  0.39075  0.25282  1.0000
  C   C4        1.0  0.72481  0.33595  0.24089  1.0000
  C   C5        1.0  0.74973  0.39014  0.25201  1.0000
  C   C6        1.0  0.75043  0.36312  0.24498  1.0000
  C   C7        1.0  0.66846  0.36279  0.24624  1.0000
  C   C8        1.0  0.64080  0.33499  0.24874  1.0000
  C   C9        1.0  0.61277  0.33476  0.25619  1.0000
  C   C10       1.0  0.66848  0.39000  0.24162  1.0000
  C   C11       1.0  0.61358  0.36157  0.25446  1.0000
  C   C12       1.0  0.64132  0.38873  0.24297  1.0000
  C   C13       1.0  0.64129  0.30691  0.24475  1.0000
  C   C14       1.0  0.66914  0.30710  0.24163  1.0000
  C   C15       1.0  0.66924  0.27955  0.23898  1.0000
  C   C16       1.0  0.61409  0.27927  0.24254  1.0000
  C   C17       1.0  0.64227  0.25336  0.23899  1.0000
  C   C18       1.0  0.61517  0.25325  0.24029  1.0000
  C   C19       1.0  0.30652  0.66597  0.25544  1.0000
  C   C20       1.0  0.30702  0.63834  0.24945  1.0000
  C   C21       1.0  0.28015  0.61074  0.24167  1.0000
  C   C22       1.0  0.27919  0.66574  0.25430  1.0000
  C   C23       1.0  0.25420  0.61152  0.24038  1.0000
  C   C24       1.0  0.25376  0.63864  0.24696  1.0000
  C   C25       1.0  0.33504  0.63859  0.25172  1.0000
  C   C26       1.0  0.36165  0.66643  0.26426  1.0000
  C   C27       1.0  0.38869  0.66647  0.26833  1.0000
  C   C28       1.0  0.33591  0.61119  0.24230  1.0000
  C   C29       1.0  0.38848  0.63947  0.26001  1.0000
  C   C30       1.0  0.36242  0.61225  0.24766  1.0000
  C   C31       1.0  0.36119  0.69463  0.26900  1.0000
  C   C32       1.0  0.33395  0.69435  0.26401  1.0000
  C   C33       1.0  0.33380  0.72180  0.26531  1.0000
  C   C34       1.0  0.38794  0.72246  0.27600  1.0000
  C   C35       1.0  0.36007  0.74812  0.27271  1.0000
  C   C36       1.0  0.38677  0.74846  0.27747  1.0000
  O   O1        1.0  0.77958  0.36910  0.24485  1.0000
  O   O2        1.0  0.63606  0.41184  0.23397  1.0000
  O   O3        1.0  0.59171  0.22406  0.23964  1.0000
  O   O4        1.0  0.22484  0.63294  0.24581  1.0000
  O   O5        1.0  0.36812  0.58873  0.24486  1.0000
  O   O6        1.0  0.40983  0.77783  0.28084  1.0000
  O   O7        1.0  0.36561  0.77720  0.27162  1.0000
  O   O8        1.0  0.41155  0.63375  0.26353  1.0000
  O   O9        1.0  0.22558  0.58796  0.23348  1.0000
  O   O10       1.0  0.63645  0.22415  0.23948  1.0000
  O   O11       1.0  0.58974  0.36694  0.25846  1.0000
  O   O12       1.0  0.77827  0.41388  0.25862  1.0000
  B   B1        1.0  0.79656  0.40051  0.25270  1.0000
  B   B2        1.0  0.60404  0.39801  0.24393  1.0000
  B   B3        1.0  0.60514  0.20632  0.23959  1.0000
  B   B4        1.0  0.20757  0.60157  0.23827  1.0000
  B   B5        1.0  0.39853  0.60233  0.25496  1.0000
  B   B6        1.0  0.39653  0.79536  0.27589  1.0000
  H   H1        1.0  0.72374  0.41208  0.25939  1.0000
  H   H2        1.0  0.59110  0.31419  0.26119  1.0000
  H   H3        1.0  0.68965  0.27873  0.23955  1.0000
  H   H4        1.0  0.59283  0.27811  0.24065  1.0000
  H   H5        1.0  0.68931  0.41149  0.23502  1.0000
  H   H6        1.0  0.72617  0.31559  0.23763  1.0000
  H   H7        1.0  0.27956  0.58933  0.23743  1.0000
  H   H8        1.0  0.40904  0.68711  0.28049  1.0000
  H   H9        1.0  0.31404  0.72246  0.25617  1.0000
  H   H10       1.0  0.40900  0.72366  0.28070  1.0000
  H   H11       1.0  0.31640  0.58964  0.23109  1.0000
  H   H12       1.0  0.27794  0.68615  0.25731  1.0000
  C   C37       1.0  0.02762  0.52751  0.25698  1.0000
  C   C38       1.0  0.47278  0.49770  0.24971  1.0000
  C   C39       1.0  0.50068  0.97472  0.25564  1.0000
  C   C40       1.0  0.97624  0.47462  0.23807  1.0000
  C   C41       1.0  0.52571  0.49838  0.25001  1.0000
  C   C42       1.0  0.50075  0.02707  0.24715  1.0000
  C   C43       1.0  0.52730  0.02712  0.25132  1.0000
  C   C44       1.0  0.49862  0.47130  0.25019  1.0000
  C   C45       1.0  0.97566  0.50196  0.25297  1.0000
  C   C46       1.0  0.47415  0.97463  0.25077  1.0000
  C   C47       1.0  0.50023  0.52467  0.24521  1.0000
  C   C48       1.0  0.02827  0.50019  0.24174  1.0000
  C   C49       1.0  0.05820  0.55221  0.26885  1.0000
  C   C50       1.0  0.44822  0.50443  0.24862  1.0000
  C   C51       1.0  0.49312  0.94346  0.26730  1.0000
  C   C52       1.0  0.94572  0.44999  0.22495  1.0000
  C   C53       1.0  0.54980  0.49193  0.25809  1.0000
  C   C54       1.0  0.50817  0.05843  0.23849  1.0000
  C   C55       1.0  0.55198  0.05858  0.25395  1.0000
  C   C56       1.0  0.50490  0.44638  0.25243  1.0000
  C   C57       1.0  0.94451  0.49587  0.25297  1.0000
  C   C58       1.0  0.44945  0.94312  0.24900  1.0000
  C   C59       1.0  0.49487  0.54952  0.23358  1.0000
  C   C60       1.0  0.05964  0.50637  0.23970  1.0000
  C   C61       1.0  0.52767  0.52609  0.24625  1.0000
  H   H13       1.0  0.54895  0.54709  0.24408  1.0000
  C   C62       1.0  0.47313  0.00081  0.24646  1.0000
  H   H14       1.0  0.45249  0.00077  0.24242  1.0000
  C   C63       1.0  0.00257  0.47265  0.23138  1.0000
  H   H15       1.0  0.00304  0.45133  0.21865  1.0000
  C   C64       1.0  0.47096  0.46996  0.25198  1.0000
  H   H16       1.0  0.44974  0.44895  0.25339  1.0000
  C   C65       1.0  0.52834  0.00097  0.25580  1.0000
  H   H17       1.0  0.54897  0.00104  0.26005  1.0000
  C   C66       1.0  0.00131  0.52948  0.26353  1.0000
  H   H18       1.0  0.00090  0.55079  0.27515  1.0000
  O   O13       1.0  0.06516  0.57890  0.28933  1.0000
  O   O14       1.0  0.06843  0.48781  0.22872  1.0000
  O   O15       1.0  0.42114  0.48630  0.25463  1.0000
  O   O16       1.0  0.51455  0.57586  0.21784  1.0000
  O   O17       1.0  0.50997  0.93566  0.28691  1.0000
  O   O18       1.0  0.42384  0.93479  0.23741  1.0000
  O   O19       1.0  0.93885  0.42329  0.20250  1.0000
  O   O20       1.0  0.93614  0.51455  0.26044  1.0000
  O   O21       1.0  0.57504  0.51030  0.27470  1.0000
  O   O22       1.0  0.48638  0.41973  0.25609  1.0000
  O   O23       1.0  0.49117  0.06638  0.22172  1.0000
  O   O24       1.0  0.57763  0.06665  0.26443  1.0000
  N   N1        1.0  0.07718  0.53835  0.25592  1.0000
  N   N2        1.0  0.46272  0.53625  0.23820  1.0000
  N   N3        1.0  0.46198  0.92480  0.25907  1.0000
  N   N4        1.0  0.92675  0.46391  0.23838  1.0000
  N   N5        1.0  0.53675  0.45998  0.25172  1.0000
  N   N6        1.0  0.53934  0.07700  0.24638  1.0000
  C   C67       1.0  0.69368  0.33396  0.74226  1.0000
  C   C68       1.0  0.69379  0.36182  0.74677  1.0000
  C   C69       1.0  0.72106  0.38912  0.75259  1.0000
  C   C70       1.0  0.72109  0.33364  0.73914  1.0000
  C   C71       1.0  0.74692  0.38781  0.75126  1.0000
  C   C72       1.0  0.74705  0.36047  0.74328  1.0000
  C   C73       1.0  0.66584  0.36214  0.74736  1.0000
  C   C74       1.0  0.63774  0.33464  0.75082  1.0000
  C   C75       1.0  0.61015  0.33522  0.75778  1.0000
  C   C76       1.0  0.66659  0.38972  0.74276  1.0000
  C   C77       1.0  0.61166  0.36238  0.75601  1.0000
  C   C78       1.0  0.63973  0.38919  0.74491  1.0000
  C   C79       1.0  0.63752  0.30618  0.74743  1.0000
  C   C80       1.0  0.66541  0.30588  0.74082  1.0000
  C   C81       1.0  0.66530  0.27815  0.73575  1.0000
  C   C82       1.0  0.60978  0.27869  0.74935  1.0000
  C   C83       1.0  0.63805  0.25221  0.73771  1.0000
  C   C84       1.0  0.61062  0.25240  0.74529  1.0000
  C   C85       1.0  0.30320  0.66521  0.75782  1.0000
  C   C86       1.0  0.30378  0.63744  0.74840  1.0000
  C   C87       1.0  0.27715  0.60997  0.73661  1.0000
  C   C88       1.0  0.27574  0.66516  0.75927  1.0000
  C   C89       1.0  0.25118  0.61095  0.73692  1.0000
  C   C90       1.0  0.25035  0.63814  0.74997  1.0000
  C   C91       1.0  0.33158  0.63741  0.75180  1.0000
  C   C92       1.0  0.35822  0.66518  0.76428  1.0000
  C   C93       1.0  0.38509  0.66520  0.76981  1.0000
  C   C94       1.0  0.33220  0.60995  0.74449  1.0000
  C   C95       1.0  0.38466  0.63821  0.76316  1.0000
  C   C96       1.0  0.35858  0.61096  0.75144  1.0000
  C   C97       1.0  0.35804  0.69344  0.76864  1.0000
  C   C98       1.0  0.33070  0.69351  0.76718  1.0000
  C   C99       1.0  0.33071  0.72123  0.77230  1.0000
  C   C100      1.0  0.38518  0.72098  0.77378  1.0000
  C   C101      1.0  0.35738  0.74730  0.77791  1.0000
  C   C102      1.0  0.38424  0.74720  0.77805  1.0000
  O   O25       1.0  0.77595  0.36580  0.74335  1.0000
  O   O26       1.0  0.63526  0.41279  0.73517  1.0000
  O   O27       1.0  0.58679  0.22319  0.74839  1.0000
  O   O28       1.0  0.22129  0.63249  0.75007  1.0000
  O   O29       1.0  0.36436  0.58753  0.75008  1.0000
  O   O30       1.0  0.40766  0.77636  0.78095  1.0000
  O   O31       1.0  0.36325  0.77657  0.77908  1.0000
  O   O32       1.0  0.40778  0.63272  0.76691  1.0000
  O   O33       1.0  0.22296  0.58745  0.72526  1.0000
  O   O34       1.0  0.63232  0.22301  0.73628  1.0000
  O   O35       1.0  0.58840  0.36850  0.75860  1.0000
  O   O36       1.0  0.77558  0.41111  0.75899  1.0000
  B   B7        1.0  0.79328  0.39715  0.75380  1.0000
  B   B8        1.0  0.60336  0.39966  0.74454  1.0000
  B   B9        1.0  0.60055  0.20530  0.74337  1.0000
  B   B10       1.0  0.20462  0.60110  0.73503  1.0000
  B   B11       1.0  0.39491  0.60133  0.75928  1.0000
  B   B12       1.0  0.39452  0.79430  0.77967  1.0000
  H   H19       1.0  0.72177  0.41072  0.76021  1.0000
  H   H20       1.0  0.58828  0.31493  0.76200  1.0000
  H   H21       1.0  0.68572  0.27692  0.73341  1.0000
  H   H22       1.0  0.58832  0.27798  0.75235  1.0000
  H   H23       1.0  0.68789  0.41088  0.73420  1.0000
  H   H24       1.0  0.72187  0.31299  0.73655  1.0000
  H   H25       1.0  0.27679  0.58847  0.72740  1.0000
  H   H26       1.0  0.40556  0.68573  0.78158  1.0000
  H   H27       1.0  0.31078  0.72228  0.76760  1.0000
  H   H28       1.0  0.40634  0.72182  0.77517  1.0000
  H   H29       1.0  0.31257  0.58843  0.73423  1.0000
  H   H30       1.0  0.27447  0.68572  0.76559  1.0000
  C   C103      1.0  0.02486  0.52419  0.74829  1.0000
  C   C104      1.0  0.47370  0.50071  0.74876  1.0000
  C   C105      1.0  0.49981  0.97370  0.75351  1.0000
  C   C106      1.0  0.97289  0.47092  0.74170  1.0000
  C   C107      1.0  0.52709  0.50210  0.74743  1.0000
  C   C108      1.0  0.49912  0.02579  0.74756  1.0000
  C   C109      1.0  0.52590  0.02620  0.75130  1.0000
  C   C110      1.0  0.50013  0.47490  0.74764  1.0000
  C   C111      1.0  0.97308  0.49805  0.74267  1.0000
  C   C112      1.0  0.47297  0.97339  0.75128  1.0000
  C   C113      1.0  0.50093  0.52786  0.74405  1.0000
  C   C114      1.0  0.02473  0.49713  0.74797  1.0000
  C   C115      1.0  0.05562  0.54919  0.75527  1.0000
  C   C116      1.0  0.44885  0.50683  0.74700  1.0000
  C   C117      1.0  0.49267  0.94241  0.76200  1.0000
  C   C118      1.0  0.94191  0.44611  0.73511  1.0000
  C   C119      1.0  0.55139  0.49568  0.75421  1.0000
  C   C120      1.0  0.50627  0.05693  0.73611  1.0000
  C   C121      1.0  0.55014  0.05787  0.75573  1.0000
  C   C122      1.0  0.50669  0.45008  0.74727  1.0000
  C   C123      1.0  0.94257  0.49171  0.73470  1.0000
  C   C124      1.0  0.44844  0.94186  0.74896  1.0000
  C   C125      1.0  0.49489  0.55236  0.73359  1.0000
  C   C126      1.0  0.05532  0.50390  0.75778  1.0000
  C   C127      1.0  0.52858  0.52965  0.74481  1.0000
  H   H31       1.0  0.54959  0.55083  0.74392  1.0000
  C   C128      1.0  0.47156  0.99940  0.74796  1.0000
  H   H32       1.0  0.45071  0.99917  0.74540  1.0000
  C   C129      1.0  0.99876  0.46940  0.74404  1.0000
  H   H33       1.0  0.99854  0.44831  0.74498  1.0000
  C   C130      1.0  0.47220  0.47317  0.75117  1.0000
  H   H34       1.0  0.45102  0.45202  0.75456  1.0000
  C   C131      1.0  0.52736  0.00013  0.75360  1.0000
  H   H35       1.0  0.54827  0.00038  0.75566  1.0000
  C   C132      1.0  0.99899  0.52574  0.74668  1.0000
  H   H36       1.0  0.99909  0.54686  0.74781  1.0000
  O   O37       1.0  0.06350  0.57576  0.75751  1.0000
  O   O38       1.0  0.06283  0.48563  0.76604  1.0000
  O   O39       1.0  0.42197  0.48822  0.75206  1.0000
  O   O40       1.0  0.51398  0.57885  0.72029  1.0000
  O   O41       1.0  0.51007  0.93465  0.77626  1.0000
  O   O42       1.0  0.42281  0.93355  0.73761  1.0000
  O   O43       1.0  0.93374  0.41944  0.73127  1.0000
  O   O44       1.0  0.93542  0.51038  0.72778  1.0000
  O   O45       1.0  0.57661  0.51390  0.77118  1.0000
  O   O46       1.0  0.48832  0.42340  0.74879  1.0000
  O   O47       1.0  0.48931  0.06446  0.71548  1.0000
  O   O48       1.0  0.57556  0.06656  0.77042  1.0000
  N   N7        1.0  0.07360  0.53589  0.76078  1.0000
  N   N8        1.0  0.46276  0.53852  0.73646  1.0000
  N   N9        1.0  0.46124  0.92364  0.75715  1.0000
  N   N10       1.0  0.92401  0.45983  0.73184  1.0000
  N   N11       1.0  0.53849  0.46370  0.74622  1.0000
  N   N12       1.0  0.53726  0.07587  0.74549  1.0000
  C   C133      1.0  0.13454  0.59234  0.22754  1.0000
  C   C134      1.0  0.11370  0.56169  0.23725  1.0000
  C  Sn1       1.0  0.12231  0.54187  0.26012  1.0000
  C  Sn2       1.0  0.15237  0.55301  0.27353  1.0000
  C   C135      1.0  0.17304  0.58371  0.26379  1.0000
  C   C136      1.0  0.16419  0.60334  0.24082  1.0000
  H   H37       1.0  0.12768  0.60753  0.20988  1.0000
  O  Te1       1.0  0.10121  0.51132  0.26949  1.0000
  O  Te2       1.0  0.16158  0.53370  0.29650  1.0000
  H   H38       1.0  0.18032  0.62707  0.23344  1.0000
  Mg  Mg1       1.0  0.12458  0.49392  0.30149  1.0000
  C   C137      1.0  0.40313  0.54627  0.21083  1.0000
  C   C138      1.0  0.41057  0.57678  0.25543  1.0000
  C  Sn3       1.0  0.43863  0.59631  0.28668  1.0000
  C  Sn4       1.0  0.45959  0.58503  0.27287  1.0000
  C   C139      1.0  0.45194  0.55447  0.22803  1.0000
  C   C140      1.0  0.42380  0.53512  0.19710  1.0000
  H   H39       1.0  0.38137  0.53130  0.18678  1.0000
  O  Te3       1.0  0.44569  0.62673  0.33118  1.0000
  O  Te4       1.0  0.48780  0.60406  0.30333  1.0000
  H   H40       1.0  0.41805  0.51150  0.16244  1.0000
  Mg  Mg2       1.0  0.48697  0.64374  0.36030  1.0000
  C   C141      1.0  0.45412  0.85300  0.24555  1.0000
  C   C142      1.0  0.42124  0.83340  0.28040  1.0000
  C  Sn5       1.0  0.39994  0.84411  0.29853  1.0000
  C  Sn6       1.0  0.41186  0.87503  0.28134  1.0000
  C   C143      1.0  0.44481  0.89446  0.24633  1.0000
  C   C144      1.0  0.46590  0.88350  0.22849  1.0000
  H   H41       1.0  0.47045  0.84453  0.23164  1.0000
  O  Te5       1.0  0.36715  0.82421  0.33341  1.0000
  O  Te6       1.0  0.39111  0.88633  0.29877  1.0000
  H   H42       1.0  0.49137  0.89869  0.20139  1.0000
  Mg  Mg3       1.0  0.34843  0.85034  0.34614  1.0000
  C   C145      1.0  0.86936  0.41004  0.26668  1.0000
  C   C146      1.0  0.89183  0.44012  0.23488  1.0000
  C  Sn7       1.0  0.88284  0.46010  0.21758  1.0000
  C  Sn8       1.0  0.85072  0.44972  0.23252  1.0000
  C   C147      1.0  0.82841  0.41960  0.26449  1.0000
  C   C148      1.0  0.83767  0.39979  0.28150  1.0000
  H   H43       1.0  0.87651  0.39472  0.27995  1.0000
  O  Te7       1.0  0.90560  0.49007  0.18576  1.0000
  O  Te8       1.0  0.84108  0.46922  0.21587  1.0000
  H   H44       1.0  0.82025  0.37651  0.30625  1.0000
  Mg  Mg4       1.0  0.88087  0.50801  0.17297  1.0000
  C   C149      1.0  0.54419  0.39972  0.30520  1.0000
  C   C150      1.0  0.57825  0.40939  0.24072  1.0000
  C  Sn9       1.0  0.60070  0.43870  0.18440  1.0000
  C  Sn10      1.0  0.58876  0.45865  0.19300  1.0000
  C   C151      1.0  0.55464  0.44877  0.25786  1.0000
  C   C152      1.0  0.53239  0.41939  0.31381  1.0000
  H   H45       1.0  0.52697  0.37700  0.34859  1.0000
  O  Te9       1.0  0.63465  0.44799  0.12026  1.0000
  O  Te10      1.0  0.61066  0.48807  0.13765  1.0000
  H   H46       1.0  0.50602  0.41192  0.36385  1.0000
  Mg  Mg5       1.0  0.65468  0.49022  0.06039  1.0000
  C   C153      1.0  0.59510  0.13173  0.23205  1.0000
  C   C154      1.0  0.56305  0.11214  0.25090  1.0000
  C  Sn11      1.0  0.54286  0.12303  0.25640  1.0000
  C  Sn12      1.0  0.55506  0.15413  0.24269  1.0000
  C   C155      1.0  0.58717  0.17354  0.22374  1.0000
  C   C156      1.0  0.60716  0.16240  0.21845  1.0000
  H   H47       1.0  0.61058  0.12312  0.22785  1.0000
  O  Te11      1.0  0.51090  0.10315  0.27536  1.0000
  O  Te12      1.0  0.53541  0.16561  0.24773  1.0000
  H   H48       1.0  0.63198  0.17757  0.20373  1.0000
  Mg  Mg6       1.0  0.49356  0.12957  0.27536  1.0000
  C   C157      1.0  0.14615  0.59903  0.74637  1.0000
  C   C158      1.0  0.16587  0.58842  0.74929  1.0000
  C  Sn13      1.0  0.15529  0.55769  0.74908  1.0000
  C  Sn14      1.0  0.12439  0.53726  0.74583  1.0000
  C   C159      1.0  0.10485  0.54810  0.74279  1.0000
  C   C160      1.0  0.11567  0.57890  0.74309  1.0000
  H   H49       1.0  0.15452  0.62286  0.74650  1.0000
  O  Te13      1.0  0.17530  0.54746  0.75210  1.0000
  O  Te14      1.0  0.11322  0.50643  0.74548  1.0000
  H   H50       1.0  0.10040  0.58711  0.74070  1.0000
  Mg  Mg7       1.0  0.14933  0.50341  0.75036  1.0000
  C   C161      1.0  0.44878  0.60047  0.78468  1.0000
  C   C162      1.0  0.42122  0.58938  0.74970  1.0000
  C  Sn15      1.0  0.40446  0.55863  0.71559  1.0000
  C  Sn16      1.0  0.41557  0.53866  0.71667  1.0000
  C   C163      1.0  0.44316  0.54998  0.75195  1.0000
  C   C164      1.0  0.45974  0.58079  0.78585  1.0000
  H   H51       1.0  0.46161  0.62431  0.81101  1.0000
  O  Te15      1.0  0.37697  0.54793  0.68082  1.0000
  O  Te16      1.0  0.39927  0.50782  0.68309  1.0000
  H   H52       1.0  0.48108  0.58937  0.81305  1.0000
  Mg  Mg8       1.0  0.36302  0.50405  0.64270  1.0000
  C   C165      1.0  0.46056  0.86872  0.76114  1.0000
  C   C166      1.0  0.45063  0.88834  0.74873  1.0000
  C  Sn17      1.0  0.41922  0.87768  0.75910  1.0000
  C  Sn18      1.0  0.39740  0.84679  0.78239  1.0000
  C   C167      1.0  0.40756  0.82734  0.79480  1.0000
  C   C168      1.0  0.43905  0.83824  0.78419  1.0000
  H   H53       1.0  0.48491  0.87715  0.75305  1.0000
  O  Te17      1.0  0.40970  0.89759  0.74637  1.0000
  O  Te18      1.0  0.36587  0.83553  0.79325  1.0000
  H   H54       1.0  0.44672  0.82305  0.79394  1.0000
  Mg  Mg9       1.0  0.36425  0.87153  0.76869  1.0000
  C   C169      1.0  0.86969  0.46055  0.73335  1.0000
  C   C170      1.0  0.88810  0.44938  0.74578  1.0000
  C  Sn19      1.0  0.87633  0.41860  0.75224  1.0000
  C  Sn20      1.0  0.84555  0.39869  0.74607  1.0000
  C   C171      1.0  0.82732  0.41009  0.73349  1.0000
  C   C172      1.0  0.83933  0.44093  0.72718  1.0000
  H   H55       1.0  0.87898  0.48441  0.72835  1.0000
  O  Te19      1.0  0.89503  0.40782  0.76473  1.0000
  O  Te20      1.0  0.83320  0.36783  0.75223  1.0000
  H   H56       1.0  0.82508  0.44957  0.71743  1.0000
  Mg  Mg10      1.0  0.86776  0.36394  0.76923  1.0000
  C   C173      1.0  0.60548  0.45328  0.67183  1.0000
  C   C174      1.0  0.59151  0.42496  0.73730  1.0000
  C  Sn21      1.0  0.55740  0.40671  0.80087  1.0000
  C  Sn22      1.0  0.53697  0.41705  0.79863  1.0000
  C   C175      1.0  0.55119  0.44541  0.73273  1.0000
  C   C176      1.0  0.58535  0.46350  0.66950  1.0000
  H   H57       1.0  0.63191  0.46728  0.62281  1.0000
  O  Te21      1.0  0.54385  0.37848  0.86589  1.0000
  O  Te22      1.0  0.50281  0.39926  0.86129  1.0000
  H   H58       1.0  0.59616  0.48542  0.61870  1.0000
  Mg  Mg11      1.0  0.49597  0.36248  0.93685  1.0000
  C   C177      1.0  0.54366  0.14726  0.76445  1.0000
  C   C178      1.0  0.57473  0.16753  0.75852  1.0000
  C  Sn23      1.0  0.59654  0.15716  0.73695  1.0000
  C  Sn24      1.0  0.58700  0.12589  0.72102  1.0000
  C   C179      1.0  0.55587  0.10579  0.72698  1.0000
  C   C180      1.0  0.53423  0.11641  0.74867  1.0000
  H   H59       1.0  0.52692  0.15547  0.78113  1.0000
  O  Te23      1.0  0.62748  0.17772  0.73137  1.0000
  O  Te24      1.0  0.60832  0.11491  0.69927  1.0000
  H   H60       1.0  0.51018  0.10071  0.75313  1.0000
  Mg  Mg12      1.0  0.64786  0.15181  0.69971  1.0000
