data_image0
_chemical_formula_structural       C32O8H8N4B4N3C2NC4OC2OC2OC2H2C2OC2H2C2OC2OC2OC2H2C2OC2H2CHCHCHCHCuN4C32O8H8N4B4NC2N3C4OC2H2C2OC2OC2OC2H2C2OC2H2C2OC2OC2H2C2OCHCHCHCHCuN4C2Sn2C2HTe2HMgC2Sn2C2HTe2HMgC2Sn2C2HTe2HMgC2Sn2C2HTe2HMg
_chemical_formula_sum              "C144 O32 H48 N24 B8 Cu2 Sn8 Te8 Mg4"
_cell_length_a       35.6132
_cell_length_b       35.5983
_cell_length_c       7.80639
_cell_angle_alpha    104.098
_cell_angle_beta     91.3587
_cell_angle_gamma    90.9122

_symmetry_space_group_name_H-M    'P1'
_space_group_IT_number       1

loop_
  _space_group_symop_operation_xyz
  'x, y, z'

loop_
  _atom_site_type_symbol
  _atom_site_label
  _atom_site_symmetry_multiplicity
  _atom_site_fract_x
  _atom_site_fract_y
  _atom_site_fract_z
  _atom_site_occupancy
  C   C1        1.0  0.48328  0.68130  0.25800  1.0000
  C   C2        1.0  0.54293  0.64794  0.26031  1.0000
  C   C3        1.0  0.52067  0.61535  0.25734  1.0000
  C   C4        1.0  0.53176  0.57632  0.25860  1.0000
  C   C5        1.0  0.51660  0.31589  0.25220  1.0000
  C   C6        1.0  0.45720  0.34895  0.24515  1.0000
  C   C7        1.0  0.47993  0.38200  0.25978  1.0000
  C   C8        1.0  0.46856  0.42087  0.25854  1.0000
  C   C9        1.0  0.31726  0.47923  0.23501  1.0000
  C   C10       1.0  0.35202  0.53984  0.25185  1.0000
  C   C11       1.0  0.38417  0.51782  0.24970  1.0000
  C   C12       1.0  0.42333  0.52964  0.25925  1.0000
  C   C13       1.0  0.68339  0.52081  0.25833  1.0000
  C   C14       1.0  0.65090  0.45984  0.26611  1.0000
  C   C15       1.0  0.61767  0.48023  0.26658  1.0000
  C   C16       1.0  0.57859  0.46802  0.26728  1.0000
  C   C17       1.0  0.52291  0.68089  0.26034  1.0000
  C   C18       1.0  0.46092  0.64900  0.25870  1.0000
  C   C19       1.0  0.48115  0.61570  0.25997  1.0000
  C   C20       1.0  0.46949  0.57647  0.26209  1.0000
  C   C21       1.0  0.47704  0.31576  0.24122  1.0000
  C   C22       1.0  0.53940  0.34840  0.26707  1.0000
  C   C23       1.0  0.51977  0.38230  0.26973  1.0000
  C   C24       1.0  0.53188  0.42179  0.27346  1.0000
  C   C25       1.0  0.68349  0.48148  0.26395  1.0000
  C   C26       1.0  0.65052  0.54120  0.25895  1.0000
  C   C27       1.0  0.61756  0.51979  0.26476  1.0000
  C   C28       1.0  0.57835  0.53076  0.26238  1.0000
  C   C29       1.0  0.31873  0.51919  0.24787  1.0000
  C   C30       1.0  0.34902  0.45693  0.22640  1.0000
  C   C31       1.0  0.38322  0.47768  0.24059  1.0000
  C   C32       1.0  0.42246  0.46631  0.24683  1.0000
  O   O1        1.0  0.53661  0.71731  0.25750  1.0000
  O   O2        1.0  0.46331  0.27889  0.23458  1.0000
  O   O3        1.0  0.28273  0.53306  0.25424  1.0000
  O   O4        1.0  0.72028  0.46935  0.26082  1.0000
  O   O5        1.0  0.47208  0.71806  0.25370  1.0000
  O   O6        1.0  0.52810  0.27905  0.25105  1.0000
  O   O7        1.0  0.72007  0.53369  0.24946  1.0000
  O   O8        1.0  0.27983  0.46779  0.23077  1.0000
  H   H1        1.0  0.57319  0.64548  0.25700  1.0000
  H   H2        1.0  0.42681  0.34957  0.23544  1.0000
  H   H3        1.0  0.35345  0.57041  0.25620  1.0000
  H   H4        1.0  0.65006  0.42926  0.26374  1.0000
  H   H5        1.0  0.43042  0.64874  0.25636  1.0000
  H   H6        1.0  0.56985  0.34701  0.27510  1.0000
  H   H7        1.0  0.64955  0.57121  0.25236  1.0000
  H   H8        1.0  0.34713  0.42583  0.20631  1.0000
  N   N1        1.0  0.56738  0.56605  0.25794  1.0000
  N   N2        1.0  0.43270  0.43058  0.24775  1.0000
  N   N3        1.0  0.43391  0.56547  0.26115  1.0000
  N   N4        1.0  0.56793  0.43244  0.27340  1.0000
  B   B1        1.0  0.50504  0.74064  0.25623  1.0000
  B   B2        1.0  0.49515  0.25642  0.24126  1.0000
  B   B3        1.0  0.25862  0.50121  0.24506  1.0000
  B   B4        1.0  0.74255  0.50188  0.25412  1.0000
  N   N5        1.0  0.49524  0.09427  0.23889  1.0000
  N   N6        1.0  0.50243  0.90480  0.26006  1.0000
  N   N7        1.0  0.90488  0.50429  0.24789  1.0000
  C   C33       1.0  0.86463  0.50401  0.25221  1.0000
  C   C34       1.0  0.78556  0.50232  0.25406  1.0000
  N   N8        1.0  0.09600  0.50154  0.22793  1.0000
  C   C35       1.0  0.13635  0.50200  0.23299  1.0000
  C   C36       1.0  0.21564  0.50245  0.24457  1.0000
  C   C37       1.0  0.48089  0.96695  0.26799  1.0000
  C   C38       1.0  0.46301  0.07067  0.25564  1.0000
  O   O9        1.0  0.43068  0.08118  0.27158  1.0000
  C   C39       1.0  0.51672  0.03273  0.23438  1.0000
  C   C40       1.0  0.53446  0.92879  0.23739  1.0000
  O   O10       1.0  0.56715  0.91976  0.21603  1.0000
  C   C41       1.0  0.03288  0.48345  0.25374  1.0000
  C   C42       1.0  0.92780  0.47147  0.25619  1.0000
  O   O11       1.0  0.91700  0.43944  0.26408  1.0000
  C   C43       1.0  0.84509  0.46966  0.26032  1.0000
  C   C44       1.0  0.80601  0.46919  0.26042  1.0000
  H   H9        1.0  0.86014  0.44360  0.26398  1.0000
  H   H10       1.0  0.79135  0.44213  0.26030  1.0000
  C   C45       1.0  0.96811  0.52306  0.24564  1.0000
  C   C46       1.0  0.07364  0.53357  0.21575  1.0000
  O   O12       1.0  0.08370  0.56466  0.19018  1.0000
  C   C47       1.0  0.15667  0.53723  0.26025  1.0000
  C   C48       1.0  0.19574  0.53698  0.26567  1.0000
  H   H11       1.0  0.14170  0.56397  0.26987  1.0000
  H   H12       1.0  0.21097  0.56432  0.28330  1.0000
  C   C49       1.0  0.51969  0.96788  0.24682  1.0000
  C   C50       1.0  0.52837  0.07174  0.21948  1.0000
  O   O13       1.0  0.55993  0.08164  0.18845  1.0000
  C   C51       1.0  0.47765  0.03167  0.25321  1.0000
  C   C52       1.0  0.46943  0.92843  0.29291  1.0000
  O   O14       1.0  0.43846  0.91939  0.33643  1.0000
  C   C53       1.0  0.96738  0.48433  0.25485  1.0000
  C   C54       1.0  0.07193  0.47104  0.26043  1.0000
  O   O15       1.0  0.08233  0.44046  0.29318  1.0000
  C   C55       1.0  0.15566  0.46711  0.20847  1.0000
  C   C56       1.0  0.19465  0.46781  0.21657  1.0000
  H   H13       1.0  0.13993  0.44003  0.18199  1.0000
  H   H14       1.0  0.20928  0.44075  0.19789  1.0000
  C   C57       1.0  0.03394  0.52169  0.23743  1.0000
  C   C58       1.0  0.92856  0.53688  0.24378  1.0000
  O   O16       1.0  0.91944  0.56937  0.23954  1.0000
  C   C59       1.0  0.84476  0.53769  0.24820  1.0000
  C   C60       1.0  0.80573  0.53621  0.24792  1.0000
  H   H15       1.0  0.85941  0.56465  0.24903  1.0000
  H   H16       1.0  0.79076  0.56240  0.24432  1.0000
  C   C61       1.0  0.45816  0.99840  0.26814  1.0000
  H   H17       1.0  0.42787  0.99596  0.28062  1.0000
  C   C62       1.0  0.53931  0.00109  0.23300  1.0000
  H   H18       1.0  0.56968  0.00183  0.22190  1.0000
  C   C63       1.0  0.99966  0.46285  0.25952  1.0000
  H   H19       1.0  0.99953  0.43263  0.26532  1.0000
  C   C64       1.0  0.00154  0.54323  0.23452  1.0000
  H   H20       1.0  0.00188  0.57351  0.22769  1.0000
  Cu  Cu1       1.0  0.50075  0.49869  0.26203  1.0000
  N   N9        1.0  0.50040  0.55371  0.26235  1.0000
  N   N10       1.0  0.50042  0.44406  0.26833  1.0000
  N   N11       1.0  0.44560  0.49838  0.25940  1.0000
  N   N12       1.0  0.55592  0.49891  0.26202  1.0000
  C   C65       1.0  0.47668  0.68296  0.74629  1.0000
  C   C66       1.0  0.53843  0.65321  0.75752  1.0000
  C   C67       1.0  0.51795  0.61958  0.76269  1.0000
  C   C68       1.0  0.52985  0.58094  0.76794  1.0000
  C   C69       1.0  0.52042  0.32086  0.76133  1.0000
  C   C70       1.0  0.45914  0.34977  0.73696  1.0000
  C   C71       1.0  0.47963  0.38348  0.73403  1.0000
  C   C72       1.0  0.46708  0.42185  0.72650  1.0000
  C   C73       1.0  0.31646  0.47800  0.73574  1.0000
  C   C74       1.0  0.34894  0.54020  0.74407  1.0000
  C   C75       1.0  0.38183  0.51880  0.73852  1.0000
  C   C76       1.0  0.42094  0.53112  0.74208  1.0000
  C   C77       1.0  0.68185  0.52231  0.74222  1.0000
  C   C78       1.0  0.64791  0.46317  0.76177  1.0000
  C   C79       1.0  0.61545  0.48498  0.76568  1.0000
  C   C80       1.0  0.57623  0.47308  0.76781  1.0000
  C   C81       1.0  0.51645  0.68449  0.75016  1.0000
  C   C82       1.0  0.45624  0.64972  0.74994  1.0000
  C   C83       1.0  0.47829  0.61815  0.75910  1.0000
  C   C84       1.0  0.46711  0.57892  0.75916  1.0000
  C   C85       1.0  0.48081  0.31839  0.74764  1.0000
  C   C86       1.0  0.54145  0.35403  0.76096  1.0000
  C   C87       1.0  0.51935  0.38543  0.74597  1.0000
  C   C88       1.0  0.53006  0.42483  0.74508  1.0000
  C   C89       1.0  0.68107  0.48304  0.74753  1.0000
  C   C90       1.0  0.64993  0.54464  0.75224  1.0000
  C   C91       1.0  0.61598  0.52459  0.76344  1.0000
  C   C92       1.0  0.57650  0.53578  0.76965  1.0000
  C   C93       1.0  0.31650  0.51806  0.74266  1.0000
  C   C94       1.0  0.34862  0.45680  0.72813  1.0000
  C   C95       1.0  0.38179  0.47841  0.72820  1.0000
  C   C96       1.0  0.42080  0.46693  0.72363  1.0000
  O   O17       1.0  0.52915  0.72140  0.75092  1.0000
  O   O18       1.0  0.46919  0.28106  0.74746  1.0000
  O   O19       1.0  0.27982  0.52989  0.75020  1.0000
  O   O20       1.0  0.71732  0.46961  0.73843  1.0000
  O   O21       1.0  0.46398  0.71907  0.74010  1.0000
  O   O22       1.0  0.53381  0.28531  0.77382  1.0000
  O   O23       1.0  0.71903  0.53354  0.72855  1.0000
  O   O24       1.0  0.28000  0.46433  0.73909  1.0000
  H   H21       1.0  0.56891  0.65372  0.75229  1.0000
  H   H22       1.0  0.42874  0.34900  0.73458  1.0000
  H   H23       1.0  0.34944  0.57113  0.74761  1.0000
  H   H24       1.0  0.64646  0.43305  0.76610  1.0000
  H   H25       1.0  0.42575  0.64786  0.74792  1.0000
  H   H26       1.0  0.57207  0.35598  0.77078  1.0000
  H   H27       1.0  0.65122  0.57531  0.75439  1.0000
  H   H28       1.0  0.34767  0.42607  0.72325  1.0000
  N   N13       1.0  0.56563  0.57118  0.76577  1.0000
  N   N14       1.0  0.43094  0.43087  0.72300  1.0000
  N   N15       1.0  0.43132  0.56761  0.75209  1.0000
  N   N16       1.0  0.56563  0.43681  0.75827  1.0000
  B   B5        1.0  0.49648  0.74249  0.74560  1.0000
  B   B6        1.0  0.50227  0.26053  0.75837  1.0000
  B   B7        1.0  0.25756  0.49669  0.74373  1.0000
  B   B8        1.0  0.74102  0.50119  0.73290  1.0000
  N   N17       1.0  0.50096  0.09575  0.74331  1.0000
  C   C97       1.0  0.50198  0.13647  0.74533  1.0000
  C   C98       1.0  0.50240  0.21692  0.75111  1.0000
  N   N18       1.0  0.49956  0.90477  0.75194  1.0000
  N   N19       1.0  0.90454  0.49927  0.75623  1.0000
  N   N20       1.0  0.09563  0.49764  0.75504  1.0000
  C   C99       1.0  0.13565  0.49727  0.74870  1.0000
  C   C100      1.0  0.21461  0.49706  0.74518  1.0000
  C   C101      1.0  0.48049  0.96700  0.74161  1.0000
  C   C102      1.0  0.46797  0.07189  0.74676  1.0000
  O   O25       1.0  0.43531  0.08151  0.75769  1.0000
  C   C103      1.0  0.46808  0.15542  0.73074  1.0000
  C   C104      1.0  0.46868  0.19480  0.73321  1.0000
  H   H29       1.0  0.44179  0.13877  0.71910  1.0000
  H   H30       1.0  0.44215  0.20862  0.71952  1.0000
  C   C105      1.0  0.52120  0.03317  0.74450  1.0000
  C   C106      1.0  0.53306  0.92787  0.74417  1.0000
  O   O26       1.0  0.56515  0.91771  0.73830  1.0000
  C   C107      1.0  0.03254  0.47864  0.76893  1.0000
  C   C108      1.0  0.92665  0.46618  0.75642  1.0000
  O   O27       1.0  0.91446  0.43377  0.74644  1.0000
  C   C109      1.0  0.96783  0.51644  0.73954  1.0000
  C   C110      1.0  0.07278  0.52932  0.73936  1.0000
  O   O28       1.0  0.08228  0.56108  0.72569  1.0000
  C   C111      1.0  0.15580  0.53151  0.75006  1.0000
  C   C112      1.0  0.19489  0.53115  0.74949  1.0000
  H   H31       1.0  0.14058  0.55775  0.75346  1.0000
  H   H32       1.0  0.21049  0.55781  0.75312  1.0000
  C   C113      1.0  0.51975  0.96726  0.74359  1.0000
  C   C114      1.0  0.53422  0.07279  0.73995  1.0000
  O   O29       1.0  0.56632  0.08337  0.73279  1.0000
  C   C115      1.0  0.53631  0.15784  0.76241  1.0000
  C   C116      1.0  0.53581  0.19708  0.76218  1.0000
  H   H33       1.0  0.56279  0.14369  0.77158  1.0000
  H   H34       1.0  0.56253  0.21262  0.76822  1.0000
  C   C117      1.0  0.48189  0.03251  0.74254  1.0000
  C   C118      1.0  0.46676  0.92768  0.74635  1.0000
  O   O30       1.0  0.43415  0.91834  0.75575  1.0000
  C   C119      1.0  0.96689  0.47864  0.76380  1.0000
  C   C120      1.0  0.07202  0.46730  0.78696  1.0000
  O   O31       1.0  0.08224  0.43767  0.82920  1.0000
  C   C121      1.0  0.15467  0.46257  0.73628  1.0000
  C   C122      1.0  0.19374  0.46301  0.73678  1.0000
  H   H35       1.0  0.13927  0.43592  0.72842  1.0000
  H   H36       1.0  0.20848  0.43627  0.72875  1.0000
  C   C123      1.0  0.03329  0.51614  0.74469  1.0000
  C   C124      1.0  0.92862  0.52979  0.73078  1.0000
  O   O32       1.0  0.91942  0.56096  0.70228  1.0000
  C   C125      1.0  0.45960  0.99973  0.73787  1.0000
  H   H37       1.0  0.42868  0.00098  0.73158  1.0000
  C   C126      1.0  0.54138  0.00011  0.74531  1.0000
  H   H38       1.0  0.57149  0.99920  0.75672  1.0000
  C   C127      1.0  0.99942  0.45823  0.78485  1.0000
  H   H39       1.0  0.00020  0.42928  0.81186  1.0000
  C   C128      1.0  0.00109  0.53671  0.72801  1.0000
  H   H40       1.0  0.00187  0.56588  0.70728  1.0000
  Cu  Cu2       1.0  0.49828  0.50168  0.75088  1.0000
  N   N21       1.0  0.49859  0.55743  0.76902  1.0000
  N   N22       1.0  0.49827  0.44581  0.73057  1.0000
  N   N23       1.0  0.44353  0.49944  0.73228  1.0000
  N   N24       1.0  0.55362  0.50418  0.77342  1.0000
  C   C129      1.0  0.54353  0.81475  0.24333  1.0000
  C   C130      1.0  0.51416  0.78926  0.25727  1.0000
  C  Sn1       1.0  0.47695  0.80115  0.25786  1.0000
  C  Sn2       1.0  0.46909  0.83928  0.24418  1.0000
  C   C131      1.0  0.49868  0.86455  0.23017  1.0000
  C   C132      1.0  0.53580  0.85236  0.22976  1.0000
  H   H41       1.0  0.57226  0.80532  0.24292  1.0000
  O  Te1       1.0  0.44794  0.77532  0.27194  1.0000
  O  Te2       1.0  0.43216  0.85190  0.24438  1.0000
  H   H42       1.0  0.55854  0.87210  0.21886  1.0000
  Mg  Mg1       1.0  0.40224  0.80604  0.26639  1.0000
  C   C133      1.0  0.53780  0.83574  0.76061  1.0000
  C   C134      1.0  0.50808  0.86021  0.74841  1.0000
  C  Sn3       1.0  0.47096  0.84669  0.74481  1.0000
  C  Sn4       1.0  0.46353  0.80794  0.75366  1.0000
  C   C135      1.0  0.49346  0.78369  0.76597  1.0000
  C   C136      1.0  0.53050  0.79752  0.76941  1.0000
  H   H43       1.0  0.56646  0.84644  0.76337  1.0000
  O  Te3       1.0  0.44160  0.87152  0.73253  1.0000
  O  Te4       1.0  0.42669  0.79368  0.75039  1.0000
  H   H44       1.0  0.55350  0.77857  0.77897  1.0000
  Mg  Mg2       1.0  0.39619  0.83865  0.73249  1.0000
  C   C137      1.0  0.81546  0.53677  0.72022  1.0000
  C   C138      1.0  0.78931  0.50710  0.72051  1.0000
  C  Sn5       1.0  0.80120  0.47171  0.74737  1.0000
  C  Sn6       1.0  0.84002  0.46600  0.77446  1.0000
  C   C139      1.0  0.86596  0.49587  0.77406  1.0000
  C   C140      1.0  0.85376  0.53117  0.74700  1.0000
  H   H45       1.0  0.80602  0.56408  0.69938  1.0000
  O  Te5       1.0  0.77469  0.44238  0.74719  1.0000
  O  Te6       1.0  0.85267  0.43093  0.80169  1.0000
  H   H46       1.0  0.87401  0.55414  0.74690  1.0000
  Mg  Mg3       1.0  0.80574  0.39971  0.78990  1.0000
  C   C141      1.0  0.53415  0.16448  0.25150  1.0000
  C   C142      1.0  0.50415  0.13943  0.26210  1.0000
  C  Sn7       1.0  0.46721  0.15195  0.25955  1.0000
  C  Sn8       1.0  0.46025  0.19027  0.24607  1.0000
  C   C143      1.0  0.49045  0.21510  0.23541  1.0000
  C   C144      1.0  0.52731  0.20228  0.23814  1.0000
  H   H47       1.0  0.56267  0.15455  0.25350  1.0000
  O  Te7       1.0  0.43757  0.12655  0.27032  1.0000
  O  Te8       1.0  0.42360  0.20353  0.24317  1.0000
  H   H48       1.0  0.55053  0.22167  0.22981  1.0000
  Mg  Mg4       1.0  0.39258  0.15809  0.26131  1.0000
