data_image0
_chemical_formula_structural       C32O8H8N4B4NC2NC2NC2NC2OC2H2C2OC2H2C2OC2H2C2OC2OC2H2C2OC2H2C2OC2OC2H2CHCHCHCHCuN4C32O8H8N4B4NC2N3C2OC2H2C2OC2OC2OC2OC2H2C2OC2OC2OCHCHCHCHCuN4SnCSn2CSnTe4Mg2SnCSn2CSnTe4Mg2SnCSn2CSnTe4Mg2SnCSn2CSnTe4Mg2
_chemical_formula_sum              "C136 O32 H40 N24 B8 Cu2 Sn16 Te16 Mg8"
_cell_length_a       35.6132
_cell_length_b       35.5983
_cell_length_c       7.80639
_cell_angle_alpha    104.098
_cell_angle_beta     91.3587
_cell_angle_gamma    90.9122

_symmetry_space_group_name_H-M    'P1'
_space_group_IT_number       1

loop_
  _space_group_symop_operation_xyz
  'x, y, z'

loop_
  _atom_site_type_symbol
  _atom_site_label
  _atom_site_symmetry_multiplicity
  _atom_site_fract_x
  _atom_site_fract_y
  _atom_site_fract_z
  _atom_site_occupancy
  C   C1        1.0  0.48328  0.68130  0.25800  1.0000
  C   C2        1.0  0.54293  0.64794  0.26031  1.0000
  C   C3        1.0  0.52067  0.61535  0.25734  1.0000
  C   C4        1.0  0.53176  0.57632  0.25860  1.0000
  C   C5        1.0  0.51660  0.31589  0.25220  1.0000
  C   C6        1.0  0.45720  0.34895  0.24515  1.0000
  C   C7        1.0  0.47993  0.38200  0.25978  1.0000
  C   C8        1.0  0.46856  0.42087  0.25854  1.0000
  C   C9        1.0  0.31726  0.47923  0.23501  1.0000
  C   C10       1.0  0.35202  0.53984  0.25185  1.0000
  C   C11       1.0  0.38417  0.51782  0.24970  1.0000
  C   C12       1.0  0.42333  0.52964  0.25925  1.0000
  C   C13       1.0  0.68339  0.52081  0.25833  1.0000
  C   C14       1.0  0.65090  0.45984  0.26611  1.0000
  C   C15       1.0  0.61767  0.48023  0.26658  1.0000
  C   C16       1.0  0.57859  0.46802  0.26728  1.0000
  C   C17       1.0  0.52291  0.68089  0.26034  1.0000
  C   C18       1.0  0.46092  0.64900  0.25870  1.0000
  C   C19       1.0  0.48115  0.61570  0.25997  1.0000
  C   C20       1.0  0.46949  0.57647  0.26209  1.0000
  C   C21       1.0  0.47704  0.31576  0.24122  1.0000
  C   C22       1.0  0.53940  0.34840  0.26707  1.0000
  C   C23       1.0  0.51977  0.38230  0.26973  1.0000
  C   C24       1.0  0.53188  0.42179  0.27346  1.0000
  C   C25       1.0  0.68349  0.48148  0.26395  1.0000
  C   C26       1.0  0.65052  0.54120  0.25895  1.0000
  C   C27       1.0  0.61756  0.51979  0.26476  1.0000
  C   C28       1.0  0.57835  0.53076  0.26238  1.0000
  C   C29       1.0  0.31873  0.51919  0.24787  1.0000
  C   C30       1.0  0.34902  0.45693  0.22640  1.0000
  C   C31       1.0  0.38322  0.47768  0.24059  1.0000
  C   C32       1.0  0.42246  0.46631  0.24683  1.0000
  O   O1        1.0  0.53661  0.71731  0.25750  1.0000
  O   O2        1.0  0.46331  0.27889  0.23458  1.0000
  O   O3        1.0  0.28273  0.53306  0.25424  1.0000
  O   O4        1.0  0.72028  0.46935  0.26082  1.0000
  O   O5        1.0  0.47208  0.71806  0.25370  1.0000
  O   O6        1.0  0.52810  0.27905  0.25105  1.0000
  O   O7        1.0  0.72007  0.53369  0.24946  1.0000
  O   O8        1.0  0.27983  0.46779  0.23077  1.0000
  H   H1        1.0  0.57319  0.64548  0.25700  1.0000
  H   H2        1.0  0.42681  0.34957  0.23544  1.0000
  H   H3        1.0  0.35345  0.57041  0.25620  1.0000
  H   H4        1.0  0.65006  0.42926  0.26374  1.0000
  H   H5        1.0  0.43042  0.64874  0.25636  1.0000
  H   H6        1.0  0.56985  0.34701  0.27510  1.0000
  H   H7        1.0  0.64955  0.57121  0.25236  1.0000
  H   H8        1.0  0.34713  0.42583  0.20631  1.0000
  N   N1        1.0  0.56738  0.56605  0.25794  1.0000
  N   N2        1.0  0.43270  0.43058  0.24775  1.0000
  N   N3        1.0  0.43391  0.56547  0.26115  1.0000
  N   N4        1.0  0.56793  0.43244  0.27340  1.0000
  B   B1        1.0  0.50504  0.74064  0.25623  1.0000
  B   B2        1.0  0.49515  0.25642  0.24126  1.0000
  B   B3        1.0  0.25862  0.50121  0.24506  1.0000
  B   B4        1.0  0.74255  0.50188  0.25412  1.0000
  N   N5        1.0  0.49524  0.09427  0.23889  1.0000
  C   C33       1.0  0.49473  0.13466  0.24712  1.0000
  C   C34       1.0  0.49442  0.21372  0.24552  1.0000
  N   N6        1.0  0.50243  0.90480  0.26006  1.0000
  C   C35       1.0  0.50325  0.86398  0.25283  1.0000
  C   C36       1.0  0.50516  0.78398  0.25172  1.0000
  N   N7        1.0  0.90488  0.50429  0.24789  1.0000
  C   C37       1.0  0.86463  0.50401  0.25221  1.0000
  C   C38       1.0  0.78556  0.50232  0.25406  1.0000
  N   N8        1.0  0.09600  0.50154  0.22793  1.0000
  C   C39       1.0  0.48089  0.96695  0.26799  1.0000
  C   C40       1.0  0.46301  0.07067  0.25564  1.0000
  O   O9        1.0  0.43068  0.08118  0.27158  1.0000
  C   C41       1.0  0.46054  0.15368  0.24474  1.0000
  C   C42       1.0  0.46065  0.19262  0.24353  1.0000
  H   H9        1.0  0.43445  0.13761  0.24259  1.0000
  H   H10       1.0  0.43392  0.20686  0.24138  1.0000
  C   C43       1.0  0.51672  0.03273  0.23438  1.0000
  C   C44       1.0  0.53446  0.92879  0.23739  1.0000
  O   O10       1.0  0.56715  0.91976  0.21603  1.0000
  C   C45       1.0  0.53781  0.84512  0.25007  1.0000
  C   C46       1.0  0.53838  0.80584  0.24823  1.0000
  H   H11       1.0  0.56393  0.86099  0.24629  1.0000
  H   H12       1.0  0.56558  0.79237  0.24843  1.0000
  C   C47       1.0  0.03288  0.48345  0.25374  1.0000
  C   C48       1.0  0.92780  0.47147  0.25619  1.0000
  O   O11       1.0  0.91700  0.43944  0.26408  1.0000
  C   C49       1.0  0.84509  0.46966  0.26032  1.0000
  C   C50       1.0  0.80601  0.46919  0.26042  1.0000
  H   H13       1.0  0.86014  0.44360  0.26398  1.0000
  H   H14       1.0  0.79135  0.44213  0.26030  1.0000
  C   C51       1.0  0.96811  0.52306  0.24564  1.0000
  C   C52       1.0  0.07364  0.53357  0.21575  1.0000
  O   O12       1.0  0.08370  0.56466  0.19018  1.0000
  C   C53       1.0  0.51969  0.96788  0.24682  1.0000
  C   C54       1.0  0.52837  0.07174  0.21948  1.0000
  O   O13       1.0  0.55993  0.08164  0.18845  1.0000
  C   C55       1.0  0.52878  0.15563  0.25570  1.0000
  C   C56       1.0  0.52820  0.19440  0.25286  1.0000
  H   H15       1.0  0.55533  0.14149  0.25518  1.0000
  H   H16       1.0  0.55472  0.21000  0.25447  1.0000
  C   C57       1.0  0.47765  0.03167  0.25321  1.0000
  C   C58       1.0  0.46943  0.92843  0.29291  1.0000
  O   O14       1.0  0.43846  0.91939  0.33643  1.0000
  C   C59       1.0  0.46958  0.84235  0.24867  1.0000
  C   C60       1.0  0.47098  0.80322  0.24736  1.0000
  H   H17       1.0  0.44258  0.85569  0.24442  1.0000
  H   H18       1.0  0.44464  0.78739  0.24643  1.0000
  C   C61       1.0  0.96738  0.48433  0.25485  1.0000
  C   C62       1.0  0.07193  0.47104  0.26043  1.0000
  O   O15       1.0  0.08233  0.44046  0.29318  1.0000
  C   C63       1.0  0.03394  0.52169  0.23743  1.0000
  C   C64       1.0  0.92856  0.53688  0.24378  1.0000
  O   O16       1.0  0.91944  0.56937  0.23954  1.0000
  C   C65       1.0  0.84476  0.53769  0.24820  1.0000
  C   C66       1.0  0.80573  0.53621  0.24792  1.0000
  H   H19       1.0  0.85941  0.56465  0.24903  1.0000
  H   H20       1.0  0.79076  0.56240  0.24432  1.0000
  C   C67       1.0  0.45816  0.99840  0.26814  1.0000
  H   H21       1.0  0.42787  0.99596  0.28062  1.0000
  C   C68       1.0  0.53931  0.00109  0.23300  1.0000
  H   H22       1.0  0.56968  0.00183  0.22190  1.0000
  C   C69       1.0  0.99966  0.46285  0.25952  1.0000
  H   H23       1.0  0.99953  0.43263  0.26532  1.0000
  C   C70       1.0  0.00154  0.54323  0.23452  1.0000
  H   H24       1.0  0.00188  0.57351  0.22769  1.0000
  Cu  Cu1       1.0  0.50075  0.49869  0.26203  1.0000
  N   N9        1.0  0.50040  0.55371  0.26235  1.0000
  N   N10       1.0  0.50042  0.44406  0.26833  1.0000
  N   N11       1.0  0.44560  0.49838  0.25940  1.0000
  N   N12       1.0  0.55592  0.49891  0.26202  1.0000
  C   C71       1.0  0.47668  0.68296  0.74629  1.0000
  C   C72       1.0  0.53843  0.65321  0.75752  1.0000
  C   C73       1.0  0.51795  0.61958  0.76269  1.0000
  C   C74       1.0  0.52985  0.58094  0.76794  1.0000
  C   C75       1.0  0.52042  0.32086  0.76133  1.0000
  C   C76       1.0  0.45914  0.34977  0.73696  1.0000
  C   C77       1.0  0.47963  0.38348  0.73403  1.0000
  C   C78       1.0  0.46708  0.42185  0.72650  1.0000
  C   C79       1.0  0.31646  0.47800  0.73574  1.0000
  C   C80       1.0  0.34894  0.54020  0.74407  1.0000
  C   C81       1.0  0.38183  0.51880  0.73852  1.0000
  C   C82       1.0  0.42094  0.53112  0.74208  1.0000
  C   C83       1.0  0.68185  0.52231  0.74222  1.0000
  C   C84       1.0  0.64791  0.46317  0.76177  1.0000
  C   C85       1.0  0.61545  0.48498  0.76568  1.0000
  C   C86       1.0  0.57623  0.47308  0.76781  1.0000
  C   C87       1.0  0.51645  0.68449  0.75016  1.0000
  C   C88       1.0  0.45624  0.64972  0.74994  1.0000
  C   C89       1.0  0.47829  0.61815  0.75910  1.0000
  C   C90       1.0  0.46711  0.57892  0.75916  1.0000
  C   C91       1.0  0.48081  0.31839  0.74764  1.0000
  C   C92       1.0  0.54145  0.35403  0.76096  1.0000
  C   C93       1.0  0.51935  0.38543  0.74597  1.0000
  C   C94       1.0  0.53006  0.42483  0.74508  1.0000
  C   C95       1.0  0.68107  0.48304  0.74753  1.0000
  C   C96       1.0  0.64993  0.54464  0.75224  1.0000
  C   C97       1.0  0.61598  0.52459  0.76344  1.0000
  C   C98       1.0  0.57650  0.53578  0.76965  1.0000
  C   C99       1.0  0.31650  0.51806  0.74266  1.0000
  C   C100      1.0  0.34862  0.45680  0.72813  1.0000
  C   C101      1.0  0.38179  0.47841  0.72820  1.0000
  C   C102      1.0  0.42080  0.46693  0.72363  1.0000
  O   O17       1.0  0.52915  0.72140  0.75092  1.0000
  O   O18       1.0  0.46919  0.28106  0.74746  1.0000
  O   O19       1.0  0.27982  0.52989  0.75020  1.0000
  O   O20       1.0  0.71732  0.46961  0.73843  1.0000
  O   O21       1.0  0.46398  0.71907  0.74010  1.0000
  O   O22       1.0  0.53381  0.28531  0.77382  1.0000
  O   O23       1.0  0.71903  0.53354  0.72855  1.0000
  O   O24       1.0  0.28000  0.46433  0.73909  1.0000
  H   H25       1.0  0.56891  0.65372  0.75229  1.0000
  H   H26       1.0  0.42874  0.34900  0.73458  1.0000
  H   H27       1.0  0.34944  0.57113  0.74761  1.0000
  H   H28       1.0  0.64646  0.43305  0.76610  1.0000
  H   H29       1.0  0.42575  0.64786  0.74792  1.0000
  H   H30       1.0  0.57207  0.35598  0.77078  1.0000
  H   H31       1.0  0.65122  0.57531  0.75439  1.0000
  H   H32       1.0  0.34767  0.42607  0.72325  1.0000
  N   N13       1.0  0.56563  0.57118  0.76577  1.0000
  N   N14       1.0  0.43094  0.43087  0.72300  1.0000
  N   N15       1.0  0.43132  0.56761  0.75209  1.0000
  N   N16       1.0  0.56563  0.43681  0.75827  1.0000
  B   B5        1.0  0.49648  0.74249  0.74560  1.0000
  B   B6        1.0  0.50227  0.26053  0.75837  1.0000
  B   B7        1.0  0.25756  0.49669  0.74373  1.0000
  B   B8        1.0  0.74102  0.50119  0.73290  1.0000
  N   N17       1.0  0.50096  0.09575  0.74331  1.0000
  C   C103      1.0  0.50198  0.13647  0.74533  1.0000
  C   C104      1.0  0.50240  0.21692  0.75111  1.0000
  N   N18       1.0  0.49956  0.90477  0.75194  1.0000
  N   N19       1.0  0.90454  0.49927  0.75623  1.0000
  N   N20       1.0  0.09563  0.49764  0.75504  1.0000
  C   C105      1.0  0.48049  0.96700  0.74161  1.0000
  C   C106      1.0  0.46797  0.07189  0.74676  1.0000
  O   O25       1.0  0.43531  0.08151  0.75769  1.0000
  C   C107      1.0  0.46808  0.15542  0.73074  1.0000
  C   C108      1.0  0.46868  0.19480  0.73321  1.0000
  H   H33       1.0  0.44179  0.13877  0.71910  1.0000
  H   H34       1.0  0.44215  0.20862  0.71952  1.0000
  C   C109      1.0  0.52120  0.03317  0.74450  1.0000
  C   C110      1.0  0.53306  0.92787  0.74417  1.0000
  O   O26       1.0  0.56515  0.91771  0.73830  1.0000
  C   C111      1.0  0.03254  0.47864  0.76893  1.0000
  C   C112      1.0  0.92665  0.46618  0.75642  1.0000
  O   O27       1.0  0.91446  0.43377  0.74644  1.0000
  C   C113      1.0  0.96783  0.51644  0.73954  1.0000
  C   C114      1.0  0.07278  0.52932  0.73936  1.0000
  O   O28       1.0  0.08228  0.56108  0.72569  1.0000
  C   C115      1.0  0.51975  0.96726  0.74359  1.0000
  C   C116      1.0  0.53422  0.07279  0.73995  1.0000
  O   O29       1.0  0.56632  0.08337  0.73279  1.0000
  C   C117      1.0  0.53631  0.15784  0.76241  1.0000
  C   C118      1.0  0.53581  0.19708  0.76218  1.0000
  H   H35       1.0  0.56279  0.14369  0.77158  1.0000
  H   H36       1.0  0.56253  0.21262  0.76822  1.0000
  C   C119      1.0  0.48189  0.03251  0.74254  1.0000
  C   C120      1.0  0.46676  0.92768  0.74635  1.0000
  O   O30       1.0  0.43415  0.91834  0.75575  1.0000
  C   C121      1.0  0.96689  0.47864  0.76380  1.0000
  C   C122      1.0  0.07202  0.46730  0.78696  1.0000
  O   O31       1.0  0.08224  0.43767  0.82920  1.0000
  C   C123      1.0  0.03329  0.51614  0.74469  1.0000
  C   C124      1.0  0.92862  0.52979  0.73078  1.0000
  O   O32       1.0  0.91942  0.56096  0.70228  1.0000
  C   C125      1.0  0.45960  0.99973  0.73787  1.0000
  H   H37       1.0  0.42868  0.00098  0.73158  1.0000
  C   C126      1.0  0.54138  0.00011  0.74531  1.0000
  H   H38       1.0  0.57149  0.99920  0.75672  1.0000
  C   C127      1.0  0.99942  0.45823  0.78485  1.0000
  H   H39       1.0  0.00020  0.42928  0.81186  1.0000
  C   C128      1.0  0.00109  0.53671  0.72801  1.0000
  H   H40       1.0  0.00187  0.56588  0.70728  1.0000
  Cu  Cu2       1.0  0.49828  0.50168  0.75088  1.0000
  N   N21       1.0  0.49859  0.55743  0.76902  1.0000
  N   N22       1.0  0.49827  0.44581  0.73057  1.0000
  N   N23       1.0  0.44353  0.49944  0.73228  1.0000
  N   N24       1.0  0.55362  0.50418  0.77342  1.0000
  C  Sn1       1.0  0.16365  0.46552  0.26132  1.0000
  C   C129      1.0  0.13986  0.49684  0.27295  1.0000
  C  Sn2       1.0  0.15405  0.53249  0.25554  1.0000
  C  Sn3       1.0  0.19282  0.53693  0.22578  1.0000
  C   C130      1.0  0.21658  0.50562  0.21414  1.0000
  C  Sn4       1.0  0.20242  0.46996  0.23156  1.0000
  O  Te1       1.0  0.14885  0.43015  0.27911  1.0000
  O  Te2       1.0  0.12972  0.56338  0.26772  1.0000
  O  Te3       1.0  0.20761  0.57234  0.20799  1.0000
  O  Te4       1.0  0.22672  0.43908  0.21937  1.0000
  Mg  Mg1       1.0  0.16321  0.60582  0.23455  1.0000
  Mg  Mg2       1.0  0.19326  0.39663  0.25242  1.0000
  C  Sn5       1.0  0.81497  0.52927  0.66435  1.0000
  C   C131      1.0  0.78923  0.50061  0.68331  1.0000
  C  Sn6       1.0  0.80074  0.47043  0.75656  1.0000
  C  Sn7       1.0  0.83877  0.46887  0.81212  1.0000
  C   C132      1.0  0.86448  0.49752  0.79318  1.0000
  C  Sn8       1.0  0.85299  0.52771  0.71992  1.0000
  O  Te5       1.0  0.80283  0.55917  0.59078  1.0000
  O  Te6       1.0  0.77450  0.44211  0.77411  1.0000
  O  Te7       1.0  0.85089  0.43894  0.88573  1.0000
  O  Te8       1.0  0.87921  0.55602  0.70238  1.0000
  Mg  Mg3       1.0  0.80462  0.40718  0.88222  1.0000
  Mg  Mg4       1.0  0.84912  0.59098  0.59439  1.0000
  C  Sn9       1.0  0.46135  0.83934  0.80738  1.0000
  C   C133      1.0  0.49270  0.86333  0.80544  1.0000
  C  Sn10      1.0  0.52768  0.84734  0.75883  1.0000
  C  Sn11      1.0  0.53139  0.80653  0.71308  1.0000
  C   C134      1.0  0.50005  0.78257  0.71500  1.0000
  C  Sn12      1.0  0.46506  0.79853  0.76164  1.0000
  O  Te9       1.0  0.42665  0.85596  0.85440  1.0000
  O  Te10      1.0  0.55862  0.87191  0.75791  1.0000
  O  Te11      1.0  0.56613  0.78993  0.66605  1.0000
  O  Te12      1.0  0.43413  0.77398  0.76254  1.0000
  Mg  Mg5       1.0  0.59998  0.83546  0.68443  1.0000
  Mg  Mg6       1.0  0.39276  0.81040  0.83591  1.0000
  C  Sn13      1.0  0.18698  0.53624  0.80359  1.0000
  C   C135      1.0  0.21073  0.50491  0.79232  1.0000
  C  Sn14      1.0  0.19645  0.46695  0.73876  1.0000
  C  Sn15      1.0  0.15763  0.46017  0.69546  1.0000
  C   C136      1.0  0.13390  0.49149  0.70672  1.0000
  C  Sn16      1.0  0.14815  0.52945  0.76029  1.0000
  O  Te13      1.0  0.20186  0.57393  0.85743  1.0000
  O  Te14      1.0  0.22075  0.43610  0.72856  1.0000
  O  Te15      1.0  0.14276  0.42244  0.64160  1.0000
  O  Te16      1.0  0.12388  0.56029  0.77047  1.0000
  Mg  Mg7       1.0  0.18714  0.39000  0.64831  1.0000
  Mg  Mg8       1.0  0.15746  0.60641  0.85062  1.0000
