data_image0
_chemical_formula_structural       C4OHC4OHNC4OHC4OHNC4OHC4OHNC4OHC4OHNBNBNBNBNC7O2NH2C13O2NH6C13O2NH6C7O2NH2NiC4OHC4OHNC4OHC4OHNC4OHC4OHNC4OHC4OHNBNBNBNBNC7O2NH2C7O2NH2C13O2NH6C13O2NH6NiSnCSn2CSnTe4Mg2SnCSn2CSnTe4Mg2SnCSn2CSnTe4Mg2SnCSn2CSnTe4Mg2
_chemical_formula_sum              "C152 O32 H48 N24 B8 Ni2 Sn16 Te16 Mg8"
_cell_length_a       35.9109
_cell_length_b       35.888
_cell_length_c       8.13181
_cell_angle_alpha    75.0505
_cell_angle_beta     116.571
_cell_angle_gamma    90.787

_symmetry_space_group_name_H-M    'P1'
_space_group_IT_number       1

loop_
  _space_group_symop_operation_xyz
  'x, y, z'

loop_
  _atom_site_type_symbol
  _atom_site_label
  _atom_site_symmetry_multiplicity
  _atom_site_fract_x
  _atom_site_fract_y
  _atom_site_fract_z
  _atom_site_occupancy
  C   C1        1.0  0.48597  0.67840  0.70986  1.0000
  C   C2        1.0  0.54431  0.64701  0.69375  1.0000
  C   C3        1.0  0.52311  0.61396  0.69696  1.0000
  C   C4        1.0  0.53367  0.57551  0.69262  1.0000
  O   O1        1.0  0.53743  0.71525  0.70022  1.0000
  H   H1        1.0  0.57352  0.64749  0.68411  1.0000
  C   C5        1.0  0.32355  0.47773  0.71301  1.0000
  C   C6        1.0  0.35726  0.53785  0.71834  1.0000
  C   C7        1.0  0.38931  0.51699  0.71356  1.0000
  C   C8        1.0  0.42772  0.52877  0.70922  1.0000
  O   O2        1.0  0.28875  0.52937  0.72036  1.0000
  H   H2        1.0  0.35817  0.56783  0.72301  1.0000
  N   N1        1.0  0.56835  0.56627  0.68614  1.0000
  C   C9        1.0  0.51988  0.31950  0.68473  1.0000
  C   C10       1.0  0.45920  0.35126  0.68199  1.0000
  C   C11       1.0  0.48084  0.38412  0.68718  1.0000
  C   C12       1.0  0.47003  0.42261  0.69114  1.0000
  O   O3        1.0  0.46685  0.28308  0.67472  1.0000
  H   H3        1.0  0.42868  0.35107  0.67927  1.0000
  C   C13       1.0  0.67936  0.52162  0.66395  1.0000
  C   C14       1.0  0.64666  0.46092  0.66350  1.0000
  C   C15       1.0  0.61482  0.48122  0.67246  1.0000
  C   C16       1.0  0.57690  0.46905  0.68164  1.0000
  O   O4        1.0  0.71450  0.47060  0.65394  1.0000
  H   H4        1.0  0.64584  0.43098  0.65809  1.0000
  N   N2        1.0  0.43509  0.43201  0.69526  1.0000
  C   C17       1.0  0.52433  0.67885  0.70077  1.0000
  C   C18       1.0  0.46476  0.64586  0.71253  1.0000
  C   C19       1.0  0.48476  0.61340  0.70555  1.0000
  C   C20       1.0  0.47289  0.57457  0.70496  1.0000
  O   O5        1.0  0.47455  0.71459  0.71512  1.0000
  H   H5        1.0  0.43551  0.64515  0.72198  1.0000
  C   C21       1.0  0.67874  0.48248  0.65998  1.0000
  C   C22       1.0  0.64811  0.54188  0.67331  1.0000
  C   C23       1.0  0.61553  0.52026  0.67679  1.0000
  C   C24       1.0  0.57770  0.53093  0.68483  1.0000
  O   O6        1.0  0.71507  0.53495  0.65745  1.0000
  H   H6        1.0  0.64862  0.57183  0.67856  1.0000
  N   N3        1.0  0.43791  0.56426  0.71031  1.0000
  C   C25       1.0  0.48015  0.31931  0.68065  1.0000
  C   C26       1.0  0.54131  0.35189  0.68794  1.0000
  C   C27       1.0  0.52025  0.38440  0.68869  1.0000
  C   C28       1.0  0.53199  0.42319  0.68980  1.0000
  O   O7        1.0  0.53210  0.28327  0.68294  1.0000
  H   H7        1.0  0.57162  0.35257  0.68845  1.0000
  C   C29       1.0  0.32459  0.51684  0.71768  1.0000
  C   C30       1.0  0.35499  0.45697  0.70713  1.0000
  C   C31       1.0  0.38823  0.47804  0.70773  1.0000
  C   C32       1.0  0.42618  0.46713  0.70092  1.0000
  O   O8        1.0  0.28715  0.46510  0.71499  1.0000
  H   H8        1.0  0.35409  0.42703  0.70176  1.0000
  N   N4        1.0  0.56709  0.43334  0.68508  1.0000
  B   B1        1.0  0.50648  0.73713  0.70818  1.0000
  N   N5        1.0  0.50295  0.55199  0.69792  1.0000
  B   B2        1.0  0.49932  0.26100  0.67804  1.0000
  N   N6        1.0  0.50135  0.44591  0.69189  1.0000
  B   B3        1.0  0.26569  0.49734  0.71768  1.0000
  N   N7        1.0  0.44976  0.49822  0.70218  1.0000
  B   B4        1.0  0.73679  0.50315  0.65338  1.0000
  N   N8        1.0  0.55469  0.49958  0.68794  1.0000
  C   C33       1.0  0.02135  0.50094  0.69476  1.0000
  C   C34       1.0  0.01811  0.57060  0.64661  1.0000
  C   C35       1.0  0.02457  0.43129  0.74606  1.0000
  C   C36       1.0  0.03888  0.53596  0.66674  1.0000
  C   C37       1.0  0.07845  0.53682  0.65121  1.0000
  C   C38       1.0  0.04260  0.46554  0.72053  1.0000
  C   C39       1.0  0.08528  0.46407  0.73585  1.0000
  O   O9        1.0  0.09065  0.56804  0.60426  1.0000
  O   O10       1.0  0.10605  0.43277  0.78528  1.0000
  N   N9        1.0  0.10105  0.50037  0.69163  1.0000
  H   H9        1.0  0.03246  0.59717  0.62623  1.0000
  H   H10       1.0  0.04155  0.40427  0.76632  1.0000
  C   C40       1.0  0.98222  0.50134  0.69958  1.0000
  C   C41       1.0  0.98613  0.43151  0.75276  1.0000
  C   C42       1.0  0.97911  0.57116  0.64736  1.0000
  C   C43       1.0  0.96533  0.46608  0.73337  1.0000
  C   C44       1.0  0.92704  0.46563  0.75884  1.0000
  C   C45       1.0  0.96087  0.53695  0.67141  1.0000
  C   C46       1.0  0.91810  0.53857  0.65476  1.0000
  C   C47       1.0  0.86179  0.50238  0.69272  1.0000
  C   C48       1.0  0.83678  0.47361  0.62995  1.0000
  C   C49       1.0  0.79678  0.47381  0.61703  1.0000
  C   C50       1.0  0.84579  0.53176  0.73651  1.0000
  C   C51       1.0  0.80510  0.53246  0.71562  1.0000
  C   C52       1.0  0.77993  0.50338  0.65749  1.0000
  O   O11       1.0  0.91647  0.43517  0.82636  1.0000
  O   O12       1.0  0.89651  0.56983  0.59848  1.0000
  N   N10       1.0  0.90317  0.50234  0.70376  1.0000
  H   H11       1.0  0.97216  0.40475  0.77468  1.0000
  H   H12       1.0  0.84819  0.45154  0.58893  1.0000
  H   H13       1.0  0.77811  0.45093  0.57052  1.0000
  H   H14       1.0  0.96227  0.59828  0.62697  1.0000
  H   H15       1.0  0.86444  0.55429  0.78466  1.0000
  H   H16       1.0  0.79324  0.55535  0.75129  1.0000
  C   C53       1.0  0.50520  0.01753  0.70578  1.0000
  C   C54       1.0  0.43614  0.01606  0.68854  1.0000
  C   C55       1.0  0.57443  0.01819  0.72356  1.0000
  C   C56       1.0  0.47097  0.03574  0.70805  1.0000
  C   C57       1.0  0.47320  0.07455  0.74148  1.0000
  C   C58       1.0  0.53966  0.03754  0.71260  1.0000
  C   C59       1.0  0.53809  0.07955  0.69725  1.0000
  C   C60       1.0  0.50389  0.13721  0.71624  1.0000
  C   C61       1.0  0.46549  0.15942  0.65103  1.0000
  C   C62       1.0  0.46419  0.19869  0.64183  1.0000
  C   C63       1.0  0.54070  0.15546  0.77089  1.0000
  C   C64       1.0  0.53852  0.19523  0.75107  1.0000
  C   C65       1.0  0.50041  0.21774  0.68699  1.0000
  O   O13       1.0  0.44842  0.08702  0.78624  1.0000
  O   O14       1.0  0.56423  0.09843  0.66744  1.0000
  N   N11       1.0  0.50509  0.09657  0.71910  1.0000
  H   H17       1.0  0.41036  0.03004  0.69518  1.0000
  H   H18       1.0  0.43658  0.14628  0.60842  1.0000
  H   H19       1.0  0.43419  0.21496  0.59569  1.0000
  H   H20       1.0  0.60015  0.03452  0.72282  1.0000
  H   H21       1.0  0.57090  0.13917  0.82553  1.0000
  H   H22       1.0  0.56739  0.20881  0.79137  1.0000
  C   C66       1.0  0.50495  0.97857  0.69578  1.0000
  C   C67       1.0  0.57617  0.97831  0.73710  1.0000
  C   C68       1.0  0.43402  0.97912  0.65701  1.0000
  C   C69       1.0  0.54156  0.95866  0.72123  1.0000
  C   C70       1.0  0.54389  0.91621  0.74761  1.0000
  C   C71       1.0  0.46821  0.96025  0.66133  1.0000
  C   C72       1.0  0.46570  0.92268  0.61490  1.0000
  O   O15       1.0  0.57779  0.89608  0.82580  1.0000
  O   O16       1.0  0.43194  0.91149  0.52630  1.0000
  N   N12       1.0  0.50484  0.90032  0.67842  1.0000
  H   H23       1.0  0.60420  0.96231  0.75798  1.0000
  H   H24       1.0  0.40605  0.96452  0.63283  1.0000
  Ni  Ni1       1.0  0.49798  0.49993  0.19562  1.0000
  C   C73       1.0  0.48213  0.67925  0.20877  1.0000
  C   C74       1.0  0.54087  0.64815  0.19427  1.0000
  C   C75       1.0  0.51993  0.61488  0.19806  1.0000
  C   C76       1.0  0.53028  0.57635  0.19316  1.0000
  O   O17       1.0  0.53323  0.71661  0.19900  1.0000
  H   H25       1.0  0.57019  0.64880  0.18547  1.0000
  C   C77       1.0  0.31995  0.47947  0.21919  1.0000
  C   C78       1.0  0.35239  0.54033  0.21227  1.0000
  C   C79       1.0  0.38488  0.51920  0.21144  1.0000
  C   C80       1.0  0.42345  0.53063  0.20734  1.0000
  O   O18       1.0  0.28389  0.53146  0.21658  1.0000
  H   H26       1.0  0.35271  0.57070  0.21035  1.0000
  N   N13       1.0  0.56474  0.56679  0.18560  1.0000
  C   C81       1.0  0.51364  0.32077  0.17913  1.0000
  C   C82       1.0  0.45520  0.35165  0.19681  1.0000
  C   C83       1.0  0.47617  0.38492  0.19389  1.0000
  C   C84       1.0  0.46582  0.42346  0.19884  1.0000
  O   O19       1.0  0.46289  0.28325  0.19190  1.0000
  H   H27       1.0  0.42581  0.35090  0.20489  1.0000
  C   C85       1.0  0.67512  0.52039  0.16413  1.0000
  C   C86       1.0  0.64143  0.46024  0.16222  1.0000
  C   C87       1.0  0.60992  0.48117  0.17047  1.0000
  C   C88       1.0  0.57174  0.46961  0.17768  1.0000
  O   O20       1.0  0.70913  0.46895  0.15103  1.0000
  H   H28       1.0  0.63996  0.43038  0.15558  1.0000
  N   N14       1.0  0.43135  0.43308  0.20607  1.0000
  C   C89       1.0  0.52053  0.67999  0.19990  1.0000
  C   C90       1.0  0.46113  0.64665  0.21145  1.0000
  C   C91       1.0  0.48149  0.61432  0.20584  1.0000
  C   C92       1.0  0.46938  0.57568  0.20434  1.0000
  O   O21       1.0  0.47040  0.71521  0.21451  1.0000
  H   H29       1.0  0.43170  0.64578  0.21909  1.0000
  C   C93       1.0  0.67386  0.48127  0.15942  1.0000
  C   C94       1.0  0.64404  0.54129  0.17160  1.0000
  C   C95       1.0  0.61110  0.52020  0.17449  1.0000
  C   C96       1.0  0.57343  0.53142  0.18224  1.0000
  O   O22       1.0  0.71104  0.53313  0.15779  1.0000
  H   H30       1.0  0.64474  0.57139  0.17433  1.0000
  N   N15       1.0  0.43407  0.56598  0.20779  1.0000
  C   C97       1.0  0.47547  0.31990  0.19016  1.0000
  C   C98       1.0  0.53447  0.35346  0.17554  1.0000
  C   C99       1.0  0.51442  0.38556  0.18438  1.0000
  C   C100      1.0  0.52645  0.42422  0.18523  1.0000
  O   O23       1.0  0.52534  0.28489  0.17271  1.0000
  H   H31       1.0  0.56356  0.35462  0.16474  1.0000
  C   C101      1.0  0.32012  0.51903  0.21584  1.0000
  C   C102      1.0  0.35166  0.45857  0.21608  1.0000
  C   C103      1.0  0.38435  0.47989  0.21200  1.0000
  C   C104      1.0  0.42235  0.46858  0.20690  1.0000
  O   O24       1.0  0.28408  0.46648  0.22527  1.0000
  H   H32       1.0  0.35163  0.42824  0.21771  1.0000
  N   N16       1.0  0.56142  0.43413  0.17877  1.0000
  B   B5        1.0  0.50191  0.73817  0.20638  1.0000
  N   N17       1.0  0.49938  0.55294  0.19811  1.0000
  B   B6        1.0  0.49397  0.26180  0.18194  1.0000
  N   N18       1.0  0.49668  0.44689  0.19335  1.0000
  B   B7        1.0  0.26190  0.49879  0.22226  1.0000
  N   N19       1.0  0.44565  0.49970  0.20384  1.0000
  B   B8        1.0  0.73181  0.50121  0.14961  1.0000
  N   N20       1.0  0.54994  0.50036  0.18452  1.0000
  C   C105      1.0  0.01769  0.49850  0.20570  1.0000
  C   C106      1.0  0.01603  0.56750  0.17638  1.0000
  C   C107      1.0  0.01972  0.42940  0.23999  1.0000
  C   C108      1.0  0.03670  0.53305  0.19388  1.0000
  C   C109      1.0  0.07981  0.53227  0.21468  1.0000
  C   C110      1.0  0.03753  0.46386  0.21550  1.0000
  C   C111      1.0  0.07508  0.46467  0.18373  1.0000
  O   O25       1.0  0.09989  0.55951  0.24967  1.0000
  O   O26       1.0  0.08658  0.43681  0.14909  1.0000
  N   N21       1.0  0.09642  0.49868  0.19191  1.0000
  H   H33       1.0  0.03176  0.59360  0.17358  1.0000
  H   H34       1.0  0.03523  0.40302  0.24496  1.0000
  C   C112      1.0  0.97844  0.49852  0.20863  1.0000
  C   C113      1.0  0.98244  0.42889  0.25713  1.0000
  C   C114      1.0  0.97576  0.56812  0.16406  1.0000
  C   C115      1.0  0.96147  0.46322  0.23915  1.0000
  C   C116      1.0  0.92268  0.46245  0.26097  1.0000
  C   C117      1.0  0.95720  0.53396  0.18230  1.0000
  C   C118      1.0  0.91449  0.53543  0.16544  1.0000
  O   O27       1.0  0.91180  0.43185  0.32508  1.0000
  O   O28       1.0  0.89377  0.56683  0.11656  1.0000
  N   N22       1.0  0.89869  0.49920  0.20562  1.0000
  H   H35       1.0  0.96878  0.40202  0.28054  1.0000
  H   H36       1.0  0.95841  0.59502  0.14269  1.0000
  C   C119      1.0  0.49769  0.01860  0.20583  1.0000
  C   C120      1.0  0.42478  0.02001  0.13888  1.0000
  C   C121      1.0  0.57029  0.01684  0.26699  1.0000
  C   C122      1.0  0.46064  0.03880  0.17419  1.0000
  C   C123      1.0  0.45873  0.08042  0.16782  1.0000
  C   C124      1.0  0.53419  0.03717  0.23919  1.0000
  C   C125      1.0  0.53507  0.07778  0.25099  1.0000
  C   C126      1.0  0.49549  0.13921  0.20093  1.0000
  C   C127      1.0  0.46913  0.15601  0.25424  1.0000
  C   C128      1.0  0.46784  0.19548  0.24121  1.0000
  C   C129      1.0  0.52084  0.16259  0.13790  1.0000
  C   C130      1.0  0.52082  0.20149  0.13562  1.0000
  C   C131      1.0  0.49409  0.21898  0.18512  1.0000
  O   O29       1.0  0.42573  0.09828  0.12999  1.0000
  O   O30       1.0  0.56801  0.09247  0.29736  1.0000
  N   N23       1.0  0.49656  0.09833  0.20866  1.0000
  H   H37       1.0  0.39657  0.03610  0.11551  1.0000
  H   H38       1.0  0.44924  0.13882  0.30354  1.0000
  H   H39       1.0  0.44648  0.20796  0.27927  1.0000
  H   H40       1.0  0.59795  0.03190  0.29042  1.0000
  H   H41       1.0  0.54096  0.15063  0.09297  1.0000
  H   H42       1.0  0.54162  0.21866  0.09111  1.0000
  C   C132      1.0  0.49794  0.97939  0.19904  1.0000
  C   C133      1.0  0.57120  0.97750  0.27033  1.0000
  C   C134      1.0  0.42452  0.98178  0.12445  1.0000
  C   C135      1.0  0.53543  0.95871  0.23794  1.0000
  C   C136      1.0  0.53742  0.91651  0.25761  1.0000
  C   C137      1.0  0.46058  0.96170  0.15119  1.0000
  C   C138      1.0  0.45905  0.92375  0.11012  1.0000
  C   C139      1.0  0.49848  0.86066  0.18242  1.0000
  C   C140      1.0  0.52882  0.84333  0.15286  1.0000
  C   C141      1.0  0.53043  0.80387  0.16541  1.0000
  C   C142      1.0  0.46886  0.83859  0.21739  1.0000
  C   C143      1.0  0.47009  0.79949  0.22354  1.0000
  C   C144      1.0  0.50119  0.78117  0.20095  1.0000
  O   O31       1.0  0.57123  0.89619  0.33470  1.0000
  O   O32       1.0  0.42570  0.91281  0.01459  1.0000
  N   N24       1.0  0.49837  0.90094  0.18330  1.0000
  H   H43       1.0  0.59981  0.96097  0.30025  1.0000
  H   H44       1.0  0.55121  0.86021  0.12075  1.0000
  H   H45       1.0  0.55410  0.79095  0.14115  1.0000
  H   H46       1.0  0.39615  0.96749  0.08975  1.0000
  H   H47       1.0  0.44553  0.85149  0.24287  1.0000
  H   H48       1.0  0.44709  0.78256  0.25123  1.0000
  Ni  Ni2       1.0  0.50230  0.49892  0.69590  1.0000
  C  Sn1       1.0  0.18938  0.53599  0.21610  1.0000
  C   C145      1.0  0.21813  0.50430  0.26433  1.0000
  C  Sn2       1.0  0.20500  0.46762  0.25896  1.0000
  C  Sn3       1.0  0.16225  0.46251  0.20413  1.0000
  C   C146      1.0  0.13353  0.49419  0.15591  1.0000
  C  Sn4       1.0  0.14663  0.53088  0.16127  1.0000
  O  Te1       1.0  0.20320  0.57240  0.22246  1.0000
  O  Te2       1.0  0.23432  0.43637  0.30786  1.0000
  O  Te3       1.0  0.14845  0.42606  0.19781  1.0000
  O  Te4       1.0  0.11734  0.56212  0.11237  1.0000
  Mg  Mg1       1.0  0.20024  0.39246  0.27710  1.0000
  Mg  Mg2       1.0  0.15137  0.60605  0.14299  1.0000
  C  Sn5       1.0  0.80439  0.46254  0.16296  1.0000
  C   C147      1.0  0.78352  0.48879  0.20310  1.0000
  C  Sn6       1.0  0.79793  0.52464  0.21997  1.0000
  C  Sn7       1.0  0.83394  0.53447  0.19611  1.0000
  C   C148      1.0  0.85479  0.50824  0.15596  1.0000
  C  Sn8       1.0  0.84041  0.47237  0.13910  1.0000
  O  Te5       1.0  0.78943  0.42686  0.14672  1.0000
  O  Te6       1.0  0.77654  0.55040  0.26023  1.0000
  O  Te7       1.0  0.84890  0.57018  0.21240  1.0000
  O  Te8       1.0  0.86177  0.44663  0.09883  1.0000
  Mg  Mg3       1.0  0.80904  0.59550  0.26859  1.0000
  Mg  Mg4       1.0  0.82929  0.40154  0.09034  1.0000
  C  Sn9       1.0  0.46582  0.81006  0.67130  1.0000
  C   C149      1.0  0.49309  0.78711  0.64713  1.0000
  C  Sn10      1.0  0.53073  0.79986  0.65645  1.0000
  C  Sn11      1.0  0.54136  0.83629  0.69076  1.0000
  C   C150      1.0  0.51410  0.85920  0.71494  1.0000
  C  Sn12      1.0  0.47645  0.84648  0.70562  1.0000
  O  Te9       1.0  0.42836  0.79674  0.66143  1.0000
  O  Te10      1.0  0.55748  0.77642  0.63177  1.0000
  O  Te11      1.0  0.57885  0.84960  0.70061  1.0000
  O  Te12      1.0  0.44972  0.86990  0.73031  1.0000
  Mg  Mg5       1.0  0.60496  0.80721  0.65780  1.0000
  Mg  Mg6       1.0  0.40224  0.83913  0.70440  1.0000
  C  Sn13      1.0  0.20419  0.52423  0.81260  1.0000
  C   C151      1.0  0.22338  0.49790  0.76561  1.0000
  C  Sn14      1.0  0.19989  0.47277  0.66368  1.0000
  C  Sn15      1.0  0.15631  0.47399  0.60742  1.0000
  C   C152      1.0  0.13714  0.50030  0.65437  1.0000
  C  Sn16      1.0  0.16061  0.52544  0.75634  1.0000
  O  Te13      1.0  0.22828  0.54908  0.91458  1.0000
  O  Te14      1.0  0.21978  0.44670  0.61841  1.0000
  O  Te15      1.0  0.13223  0.44910  0.50537  1.0000
  O  Te16      1.0  0.14074  0.55151  0.80158  1.0000
  Mg  Mg7       1.0  0.17358  0.41874  0.47744  1.0000
  Mg  Mg8       1.0  0.18691  0.57949  0.94244  1.0000
