data_image0
_chemical_formula_structural       C32O8H8N4B4N2C2N2C4OC2OC2H2C2OC2OC2H2C2OC2OC2H2C2OC2H2C2OCHCHCHCHNiN4C32O8H8N4B4N2C2NC2NC2OC2OC2H2C2OC2H2C2OC2OC2OC2H2C2OC2OC2H2CHCHCHCHNiN4SnCSn2CSnTe4Mg2SnCSn2CSnTe4Mg2SnCSn2CSnTe4Mg2SnCSn2CSnTe4Mg2
_chemical_formula_sum              "C136 O32 H40 N24 B8 Ni2 Sn16 Te16 Mg8"
_cell_length_a       35.5418
_cell_length_b       35.5398
_cell_length_c       7.94111
_cell_angle_alpha    121.494
_cell_angle_beta     90.2305
_cell_angle_gamma    90.4895

_symmetry_space_group_name_H-M    'P1'
_space_group_IT_number       1

loop_
  _space_group_symop_operation_xyz
  'x, y, z'

loop_
  _atom_site_type_symbol
  _atom_site_label
  _atom_site_symmetry_multiplicity
  _atom_site_fract_x
  _atom_site_fract_y
  _atom_site_fract_z
  _atom_site_occupancy
  C   C1        1.0  0.48414  0.68013  0.25028  1.0000
  C   C2        1.0  0.54448  0.64706  0.25270  1.0000
  C   C3        1.0  0.52240  0.61372  0.24863  1.0000
  C   C4        1.0  0.53304  0.57460  0.24998  1.0000
  C   C5        1.0  0.51601  0.31646  0.25748  1.0000
  C   C6        1.0  0.45587  0.34876  0.24639  1.0000
  C   C7        1.0  0.47801  0.38266  0.25563  1.0000
  C   C8        1.0  0.46735  0.42170  0.25349  1.0000
  C   C9        1.0  0.31764  0.47940  0.23694  1.0000
  C   C10       1.0  0.35201  0.54006  0.23982  1.0000
  C   C11       1.0  0.38452  0.51817  0.24110  1.0000
  C   C12       1.0  0.42389  0.52944  0.24377  1.0000
  C   C13       1.0  0.68230  0.51829  0.25452  1.0000
  C   C14       1.0  0.64991  0.45743  0.25976  1.0000
  C   C15       1.0  0.61645  0.47831  0.26032  1.0000
  C   C16       1.0  0.57697  0.46706  0.26216  1.0000
  C   C17       1.0  0.52389  0.68014  0.25426  1.0000
  C   C18       1.0  0.46213  0.64743  0.24717  1.0000
  C   C19       1.0  0.48275  0.61391  0.24628  1.0000
  C   C20       1.0  0.47041  0.57485  0.24577  1.0000
  C   C21       1.0  0.47630  0.31587  0.24765  1.0000
  C   C22       1.0  0.53811  0.34974  0.26577  1.0000
  C   C23       1.0  0.51768  0.38313  0.26425  1.0000
  C   C24       1.0  0.53014  0.42221  0.26467  1.0000
  C   C25       1.0  0.68255  0.47886  0.25677  1.0000
  C   C26       1.0  0.64959  0.53911  0.25471  1.0000
  C   C27       1.0  0.61661  0.51770  0.25821  1.0000
  C   C28       1.0  0.57769  0.52910  0.25656  1.0000
  C   C29       1.0  0.31879  0.51938  0.23924  1.0000
  C   C30       1.0  0.34969  0.45761  0.23853  1.0000
  C   C31       1.0  0.38353  0.47847  0.24044  1.0000
  C   C32       1.0  0.42248  0.46691  0.24497  1.0000
  O   O1        1.0  0.53728  0.71710  0.25723  1.0000
  O   O2        1.0  0.46278  0.27860  0.24212  1.0000
  O   O3        1.0  0.28244  0.53304  0.24011  1.0000
  O   O4        1.0  0.71959  0.46679  0.25604  1.0000
  O   O5        1.0  0.47219  0.71678  0.24893  1.0000
  O   O6        1.0  0.52782  0.27968  0.25850  1.0000
  O   O7        1.0  0.71881  0.53129  0.25028  1.0000
  O   O8        1.0  0.28046  0.46732  0.23560  1.0000
  H   H1        1.0  0.57503  0.64662  0.25329  1.0000
  H   H2        1.0  0.42535  0.34869  0.23934  1.0000
  H   H3        1.0  0.35310  0.57045  0.23844  1.0000
  H   H4        1.0  0.65008  0.42718  0.26243  1.0000
  H   H5        1.0  0.43158  0.64748  0.24466  1.0000
  H   H6        1.0  0.56863  0.35031  0.27403  1.0000
  H   H7        1.0  0.64923  0.56914  0.25022  1.0000
  H   H8        1.0  0.34883  0.42729  0.24058  1.0000
  N   N1        1.0  0.56860  0.56474  0.25368  1.0000
  N   N2        1.0  0.43172  0.43123  0.24690  1.0000
  N   N3        1.0  0.43441  0.56522  0.24407  1.0000
  N   N4        1.0  0.56622  0.43181  0.26585  1.0000
  B   B1        1.0  0.50517  0.73935  0.25264  1.0000
  B   B2        1.0  0.49481  0.25655  0.24916  1.0000
  B   B3        1.0  0.25904  0.50077  0.23843  1.0000
  B   B4        1.0  0.74172  0.49939  0.25176  1.0000
  N   N5        1.0  0.49707  0.09307  0.24644  1.0000
  N   N6        1.0  0.50294  0.90204  0.25046  1.0000
  C   C33       1.0  0.50386  0.86190  0.25116  1.0000
  C   C34       1.0  0.50526  0.78219  0.25022  1.0000
  N   N7        1.0  0.90485  0.50293  0.24717  1.0000
  N   N8        1.0  0.09648  0.50434  0.24885  1.0000
  C   C35       1.0  0.13662  0.50377  0.24647  1.0000
  C   C36       1.0  0.21606  0.50201  0.24067  1.0000
  C   C37       1.0  0.48135  0.96477  0.25671  1.0000
  C   C38       1.0  0.46489  0.07020  0.25987  1.0000
  O   O9        1.0  0.43199  0.08040  0.26817  1.0000
  C   C39       1.0  0.51846  0.03038  0.24097  1.0000
  C   C40       1.0  0.53498  0.92453  0.23308  1.0000
  O   O10       1.0  0.56786  0.91385  0.21888  1.0000
  C   C41       1.0  0.53839  0.84400  0.26120  1.0000
  C   C42       1.0  0.53869  0.80461  0.25894  1.0000
  H   H9        1.0  0.56457  0.86061  0.26861  1.0000
  H   H10       1.0  0.56566  0.79119  0.26576  1.0000
  C   C43       1.0  0.03368  0.48545  0.25691  1.0000
  C   C44       1.0  0.92818  0.47221  0.26276  1.0000
  O   O11       1.0  0.91807  0.44189  0.28330  1.0000
  C   C45       1.0  0.96771  0.52299  0.24520  1.0000
  C   C46       1.0  0.07344  0.53556  0.23569  1.0000
  O   O12       1.0  0.08394  0.56580  0.21569  1.0000
  C   C47       1.0  0.15734  0.54029  0.27152  1.0000
  C   C48       1.0  0.19647  0.53880  0.26588  1.0000
  H   H11       1.0  0.14290  0.56913  0.29258  1.0000
  H   H12       1.0  0.21212  0.56699  0.28221  1.0000
  C   C49       1.0  0.52047  0.96418  0.23851  1.0000
  C   C50       1.0  0.53051  0.06926  0.23117  1.0000
  O   O13       1.0  0.56261  0.07823  0.20901  1.0000
  C   C51       1.0  0.47927  0.03082  0.25755  1.0000
  C   C52       1.0  0.46954  0.92619  0.26917  1.0000
  O   O14       1.0  0.43765  0.91784  0.29722  1.0000
  C   C53       1.0  0.47004  0.83998  0.24245  1.0000
  C   C54       1.0  0.47111  0.80095  0.24265  1.0000
  H   H13       1.0  0.44333  0.85349  0.23548  1.0000
  H   H14       1.0  0.44471  0.78454  0.23669  1.0000
  C   C55       1.0  0.96766  0.48499  0.25584  1.0000
  C   C56       1.0  0.07318  0.47362  0.26673  1.0000
  O   O15       1.0  0.08355  0.44417  0.29182  1.0000
  C   C57       1.0  0.15568  0.46642  0.21847  1.0000
  C   C58       1.0  0.19478  0.46615  0.21830  1.0000
  H   H15       1.0  0.14000  0.43829  0.20036  1.0000
  H   H16       1.0  0.20902  0.43725  0.19964  1.0000
  C   C59       1.0  0.03381  0.52333  0.24514  1.0000
  C   C60       1.0  0.92810  0.53479  0.23632  1.0000
  O   O16       1.0  0.91783  0.56524  0.21836  1.0000
  C   C61       1.0  0.45915  0.99801  0.26614  1.0000
  H   H17       1.0  0.42866  0.99837  0.27957  1.0000
  C   C62       1.0  0.54061  0.99709  0.23079  1.0000
  H   H18       1.0  0.57107  0.99680  0.21716  1.0000
  C   C63       1.0  0.00061  0.46484  0.26299  1.0000
  H   H19       1.0  0.00047  0.43549  0.27330  1.0000
  C   C64       1.0  0.00082  0.54373  0.23994  1.0000
  H   H20       1.0  0.00095  0.57329  0.23121  1.0000
  Ni  Ni1       1.0  0.50023  0.49822  0.25323  1.0000
  N   N9        1.0  0.50125  0.55128  0.24734  1.0000
  N   N10       1.0  0.49922  0.44527  0.25911  1.0000
  N   N11       1.0  0.44653  0.49817  0.24678  1.0000
  N   N12       1.0  0.55400  0.49817  0.25859  1.0000
  C   C65       1.0  0.47753  0.68391  0.74991  1.0000
  C   C66       1.0  0.53882  0.65244  0.75208  1.0000
  C   C67       1.0  0.51780  0.61829  0.74670  1.0000
  C   C68       1.0  0.52971  0.57948  0.74801  1.0000
  C   C69       1.0  0.52037  0.32164  0.75814  1.0000
  C   C70       1.0  0.45890  0.35157  0.74658  1.0000
  C   C71       1.0  0.47977  0.38617  0.75495  1.0000
  C   C72       1.0  0.46788  0.42490  0.75307  1.0000
  C   C73       1.0  0.31699  0.47816  0.74207  1.0000
  C   C74       1.0  0.34903  0.53962  0.74038  1.0000
  C   C75       1.0  0.38245  0.51917  0.74236  1.0000
  C   C76       1.0  0.42154  0.53142  0.74305  1.0000
  C   C77       1.0  0.68109  0.52360  0.75512  1.0000
  C   C78       1.0  0.64764  0.46392  0.76420  1.0000
  C   C79       1.0  0.61485  0.48523  0.76195  1.0000
  C   C80       1.0  0.57578  0.47357  0.76275  1.0000
  C   C81       1.0  0.51727  0.68490  0.75335  1.0000
  C   C82       1.0  0.45650  0.65028  0.74459  1.0000
  C   C83       1.0  0.47809  0.61722  0.74281  1.0000
  C   C84       1.0  0.46692  0.57783  0.74237  1.0000
  C   C85       1.0  0.48064  0.31961  0.74839  1.0000
  C   C86       1.0  0.54121  0.35561  0.76599  1.0000
  C   C87       1.0  0.51940  0.38796  0.76363  1.0000
  C   C88       1.0  0.53049  0.42731  0.76402  1.0000
  C   C89       1.0  0.68054  0.48446  0.75984  1.0000
  C   C90       1.0  0.64871  0.54505  0.75427  1.0000
  C   C91       1.0  0.61513  0.52435  0.75775  1.0000
  C   C92       1.0  0.57585  0.53532  0.75506  1.0000
  C   C93       1.0  0.31665  0.51769  0.74061  1.0000
  C   C94       1.0  0.34984  0.45779  0.74456  1.0000
  C   C95       1.0  0.38277  0.47973  0.74386  1.0000
  C   C96       1.0  0.42199  0.46917  0.74671  1.0000
  O   O17       1.0  0.52973  0.72207  0.75581  1.0000
  O   O18       1.0  0.46851  0.28204  0.74358  1.0000
  O   O19       1.0  0.27981  0.52961  0.73933  1.0000
  O   O20       1.0  0.71699  0.47133  0.75956  1.0000
  O   O21       1.0  0.46465  0.72061  0.75070  1.0000
  O   O22       1.0  0.53357  0.28539  0.75945  1.0000
  O   O23       1.0  0.71811  0.53537  0.75023  1.0000
  O   O24       1.0  0.28032  0.46481  0.74230  1.0000
  H   H21       1.0  0.56937  0.65299  0.75396  1.0000
  H   H22       1.0  0.42836  0.35028  0.74017  1.0000
  H   H23       1.0  0.34867  0.56986  0.73774  1.0000
  H   H24       1.0  0.64700  0.43406  0.77009  1.0000
  H   H25       1.0  0.42595  0.64914  0.74073  1.0000
  H   H26       1.0  0.57174  0.35743  0.77453  1.0000
  H   H27       1.0  0.64912  0.57500  0.74910  1.0000
  H   H28       1.0  0.35035  0.42776  0.74890  1.0000
  N   N13       1.0  0.56566  0.57060  0.75175  1.0000
  N   N14       1.0  0.43202  0.43363  0.74815  1.0000
  N   N15       1.0  0.43117  0.56718  0.74118  1.0000
  N   N16       1.0  0.56619  0.43801  0.76636  1.0000
  B   B5        1.0  0.49711  0.74383  0.75352  1.0000
  B   B6        1.0  0.50139  0.26134  0.75219  1.0000
  B   B7        1.0  0.25757  0.49677  0.74020  1.0000
  B   B8        1.0  0.74008  0.50296  0.75350  1.0000
  N   N17       1.0  0.50185  0.09791  0.74766  1.0000
  N   N18       1.0  0.49947  0.90660  0.75036  1.0000
  C   C97       1.0  0.49880  0.86644  0.75104  1.0000
  C   C98       1.0  0.49750  0.78667  0.75048  1.0000
  N   N19       1.0  0.90304  0.49801  0.74782  1.0000
  C   C99       1.0  0.86282  0.49900  0.74806  1.0000
  C   C100      1.0  0.78313  0.50174  0.75113  1.0000
  N   N20       1.0  0.09476  0.49632  0.74989  1.0000
  C   C101      1.0  0.48077  0.96989  0.75345  1.0000
  C   C102      1.0  0.46878  0.07555  0.75559  1.0000
  O   O25       1.0  0.43607  0.08594  0.75837  1.0000
  C   C103      1.0  0.52099  0.03449  0.74284  1.0000
  C   C104      1.0  0.53276  0.92873  0.74240  1.0000
  O   O26       1.0  0.56537  0.91809  0.74113  1.0000
  C   C105      1.0  0.53263  0.84687  0.75724  1.0000
  C   C106      1.0  0.53164  0.80766  0.75641  1.0000
  H   H29       1.0  0.55932  0.86221  0.76153  1.0000
  H   H30       1.0  0.55811  0.79312  0.76177  1.0000
  C   C107      1.0  0.03169  0.47723  0.75543  1.0000
  C   C108      1.0  0.92545  0.46588  0.75848  1.0000
  O   O27       1.0  0.91420  0.43514  0.77310  1.0000
  C   C109      1.0  0.84150  0.46509  0.74520  1.0000
  C   C110      1.0  0.80239  0.46694  0.74783  1.0000
  H   H31       1.0  0.85544  0.43792  0.74320  1.0000
  H   H32       1.0  0.78645  0.44070  0.74824  1.0000
  C   C111      1.0  0.96629  0.51632  0.74738  1.0000
  C   C112      1.0  0.07176  0.52776  0.73857  1.0000
  O   O28       1.0  0.08198  0.55793  0.71699  1.0000
  C   C113      1.0  0.52001  0.96829  0.74151  1.0000
  C   C114      1.0  0.53466  0.07345  0.73749  1.0000
  O   O29       1.0  0.56731  0.08216  0.72318  1.0000
  C   C115      1.0  0.48177  0.03598  0.75480  1.0000
  C   C116      1.0  0.46691  0.93137  0.76132  1.0000
  O   O30       1.0  0.43424  0.92337  0.77907  1.0000
  C   C117      1.0  0.46427  0.84608  0.74624  1.0000
  C   C118      1.0  0.46403  0.80688  0.74553  1.0000
  H   H33       1.0  0.43806  0.86089  0.74255  1.0000
  H   H34       1.0  0.43705  0.79176  0.74208  1.0000
  C   C119      1.0  0.96546  0.47783  0.75407  1.0000
  C   C120      1.0  0.07132  0.46467  0.76093  1.0000
  O   O31       1.0  0.08174  0.43394  0.77648  1.0000
  C   C121      1.0  0.03224  0.51574  0.74862  1.0000
  C   C122      1.0  0.92720  0.52910  0.73701  1.0000
  O   O32       1.0  0.91807  0.55960  0.71662  1.0000
  C   C123      1.0  0.84406  0.53421  0.75227  1.0000
  C   C124      1.0  0.80494  0.53513  0.75281  1.0000
  H   H35       1.0  0.86004  0.56030  0.75275  1.0000
  H   H36       1.0  0.79116  0.56251  0.75405  1.0000
  C   C125      1.0  0.46009  0.00380  0.76053  1.0000
  H   H37       1.0  0.42955  0.00506  0.76977  1.0000
  C   C126      1.0  0.54166  0.00050  0.73575  1.0000
  H   H38       1.0  0.57220  0.99933  0.72721  1.0000
  C   C127      1.0  0.99816  0.45675  0.75822  1.0000
  H   H39       1.0  0.99754  0.42673  0.76325  1.0000
  C   C128      1.0  0.99968  0.53675  0.74425  1.0000
  H   H40       1.0  0.00027  0.56653  0.73728  1.0000
  Ni  Ni2       1.0  0.49875  0.50239  0.75175  1.0000
  N   N21       1.0  0.49849  0.55534  0.74525  1.0000
  N   N22       1.0  0.49900  0.44947  0.75852  1.0000
  N   N23       1.0  0.44512  0.50084  0.74650  1.0000
  N   N24       1.0  0.55246  0.50399  0.75739  1.0000
  C  Sn1       1.0  0.45772  0.18804  0.28862  1.0000
  C   C129      1.0  0.48803  0.21484  0.30221  1.0000
  C  Sn2       1.0  0.52470  0.19883  0.27042  1.0000
  C  Sn3       1.0  0.53122  0.15511  0.22395  1.0000
  C   C130      1.0  0.50092  0.12834  0.21035  1.0000
  C  Sn4       1.0  0.46424  0.14432  0.24215  1.0000
  O  Te1       1.0  0.42130  0.20473  0.32097  1.0000
  O  Te2       1.0  0.55454  0.22625  0.28488  1.0000
  O  Te3       1.0  0.56768  0.13844  0.19160  1.0000
  O  Te4       1.0  0.43441  0.11693  0.22767  1.0000
  Mg  Mg1       1.0  0.59907  0.18847  0.22789  1.0000
  Mg  Mg2       1.0  0.38987  0.15467  0.28453  1.0000
  C  Sn5       1.0  0.53947  0.18539  0.71351  1.0000
  C   C131      1.0  0.50873  0.20835  0.70285  1.0000
  C  Sn6       1.0  0.47228  0.19807  0.73239  1.0000
  C  Sn7       1.0  0.46642  0.16415  0.77358  1.0000
  C   C132      1.0  0.49714  0.14122  0.78425  1.0000
  C  Sn8       1.0  0.53361  0.15147  0.75469  1.0000
  O  Te5       1.0  0.57567  0.19623  0.68348  1.0000
  O  Te6       1.0  0.44199  0.22148  0.72094  1.0000
  O  Te7       1.0  0.43018  0.15333  0.80360  1.0000
  O  Te8       1.0  0.56388  0.12810  0.76617  1.0000
  Mg  Mg3       1.0  0.39800  0.19461  0.77301  1.0000
  Mg  Mg4       1.0  0.60789  0.15495  0.71423  1.0000
  C  Sn9       1.0  0.81463  0.46867  0.29104  1.0000
  C   C133      1.0  0.78971  0.50008  0.30220  1.0000
  C  Sn10      1.0  0.80219  0.53249  0.26551  1.0000
  C  Sn11      1.0  0.84036  0.53351  0.21652  1.0000
  C   C134      1.0  0.86525  0.50211  0.20535  1.0000
  C  Sn12      1.0  0.85280  0.46969  0.24206  1.0000
  O  Te9       1.0  0.80154  0.43656  0.32830  1.0000
  O  Te10      1.0  0.77675  0.56356  0.27761  1.0000
  O  Te11      1.0  0.85343  0.56565  0.17926  1.0000
  O  Te12      1.0  0.87821  0.43863  0.22993  1.0000
  Mg  Mg5       1.0  0.80803  0.60078  0.21393  1.0000
  Mg  Mg6       1.0  0.84696  0.40138  0.29349  1.0000
  C  Sn13      1.0  0.16339  0.46493  0.79555  1.0000
  C   C135      1.0  0.13890  0.49545  0.79527  1.0000
  C  Sn14      1.0  0.15205  0.52607  0.74876  1.0000
  C  Sn15      1.0  0.19047  0.52616  0.70141  1.0000
  C   C136      1.0  0.21494  0.49565  0.70168  1.0000
  C  Sn16      1.0  0.20182  0.46502  0.74821  1.0000
  O  Te13      1.0  0.14963  0.43462  0.84249  1.0000
  O  Te14      1.0  0.12704  0.55627  0.74952  1.0000
  O  Te15      1.0  0.20422  0.55651  0.65446  1.0000
  O  Te16      1.0  0.22681  0.43483  0.74743  1.0000
  Mg  Mg7       1.0  0.15919  0.59104  0.67543  1.0000
  Mg  Mg8       1.0  0.19468  0.40003  0.82139  1.0000
