data_image0
_chemical_formula_structural       C36O12B6H12C39H12C4HCHCHCHCHCHO12N6C36O12B6H12C39H12C4HCHCHCHCHCHO12N6C2Sn2C2HTe2HMgC2Sn2C2HTe2HMgC2Sn2C2HTe2HMgC2Sn2C2HTe2HMgC2Sn2C2HTe2HMgC2Sn2C2HTe2HMg
_chemical_formula_sum              "C192 O48 B12 H72 N12 Sn12 Te12 Mg6"
_cell_length_a       51.9512
_cell_length_b       51.7752
_cell_length_c       7.98519
_cell_angle_alpha    108.053
_cell_angle_beta     58.171
_cell_angle_gamma    120.248

_symmetry_space_group_name_H-M    'P1'
_space_group_IT_number       1

loop_
  _space_group_symop_operation_xyz
  'x, y, z'

loop_
  _atom_site_type_symbol
  _atom_site_label
  _atom_site_symmetry_multiplicity
  _atom_site_fract_x
  _atom_site_fract_y
  _atom_site_fract_z
  _atom_site_occupancy
  C   C1        1.0  0.69706  0.33553  0.24359  1.0000
  C   C2        1.0  0.69662  0.36310  0.24698  1.0000
  C   C3        1.0  0.72353  0.39075  0.25282  1.0000
  C   C4        1.0  0.72481  0.33595  0.24089  1.0000
  C   C5        1.0  0.74973  0.39014  0.25201  1.0000
  C   C6        1.0  0.75043  0.36312  0.24498  1.0000
  C   C7        1.0  0.66846  0.36279  0.24624  1.0000
  C   C8        1.0  0.64080  0.33499  0.24874  1.0000
  C   C9        1.0  0.61277  0.33476  0.25619  1.0000
  C   C10       1.0  0.66848  0.39000  0.24162  1.0000
  C   C11       1.0  0.61358  0.36157  0.25446  1.0000
  C   C12       1.0  0.64132  0.38873  0.24297  1.0000
  C   C13       1.0  0.64129  0.30691  0.24475  1.0000
  C   C14       1.0  0.66914  0.30710  0.24163  1.0000
  C   C15       1.0  0.66924  0.27955  0.23898  1.0000
  C   C16       1.0  0.61409  0.27927  0.24254  1.0000
  C   C17       1.0  0.64227  0.25336  0.23899  1.0000
  C   C18       1.0  0.61517  0.25325  0.24029  1.0000
  C   C19       1.0  0.30652  0.66597  0.25544  1.0000
  C   C20       1.0  0.30702  0.63834  0.24945  1.0000
  C   C21       1.0  0.28015  0.61074  0.24167  1.0000
  C   C22       1.0  0.27919  0.66574  0.25430  1.0000
  C   C23       1.0  0.25420  0.61152  0.24038  1.0000
  C   C24       1.0  0.25376  0.63864  0.24696  1.0000
  C   C25       1.0  0.33504  0.63859  0.25172  1.0000
  C   C26       1.0  0.36165  0.66643  0.26426  1.0000
  C   C27       1.0  0.38869  0.66647  0.26833  1.0000
  C   C28       1.0  0.33591  0.61119  0.24230  1.0000
  C   C29       1.0  0.38848  0.63947  0.26001  1.0000
  C   C30       1.0  0.36242  0.61225  0.24766  1.0000
  C   C31       1.0  0.36119  0.69463  0.26900  1.0000
  C   C32       1.0  0.33395  0.69435  0.26401  1.0000
  C   C33       1.0  0.33380  0.72180  0.26531  1.0000
  C   C34       1.0  0.38794  0.72246  0.27600  1.0000
  C   C35       1.0  0.36007  0.74812  0.27271  1.0000
  C   C36       1.0  0.38677  0.74846  0.27747  1.0000
  O   O1        1.0  0.77958  0.36910  0.24485  1.0000
  O   O2        1.0  0.63606  0.41184  0.23397  1.0000
  O   O3        1.0  0.59171  0.22406  0.23964  1.0000
  O   O4        1.0  0.22484  0.63294  0.24581  1.0000
  O   O5        1.0  0.36812  0.58873  0.24486  1.0000
  O   O6        1.0  0.40983  0.77783  0.28084  1.0000
  O   O7        1.0  0.36561  0.77720  0.27162  1.0000
  O   O8        1.0  0.41155  0.63375  0.26353  1.0000
  O   O9        1.0  0.22558  0.58796  0.23348  1.0000
  O   O10       1.0  0.63645  0.22415  0.23948  1.0000
  O   O11       1.0  0.58974  0.36694  0.25846  1.0000
  O   O12       1.0  0.77827  0.41388  0.25862  1.0000
  B   B1        1.0  0.79656  0.40051  0.25270  1.0000
  B   B2        1.0  0.60404  0.39801  0.24393  1.0000
  B   B3        1.0  0.60514  0.20632  0.23959  1.0000
  B   B4        1.0  0.20757  0.60157  0.23827  1.0000
  B   B5        1.0  0.39853  0.60233  0.25496  1.0000
  B   B6        1.0  0.39653  0.79536  0.27589  1.0000
  H   H1        1.0  0.72374  0.41208  0.25939  1.0000
  H   H2        1.0  0.59110  0.31419  0.26119  1.0000
  H   H3        1.0  0.68965  0.27873  0.23955  1.0000
  H   H4        1.0  0.59283  0.27811  0.24065  1.0000
  H   H5        1.0  0.68931  0.41149  0.23502  1.0000
  H   H6        1.0  0.72617  0.31559  0.23763  1.0000
  H   H7        1.0  0.27956  0.58933  0.23743  1.0000
  H   H8        1.0  0.40904  0.68711  0.28049  1.0000
  H   H9        1.0  0.31404  0.72246  0.25617  1.0000
  H   H10       1.0  0.40900  0.72366  0.28070  1.0000
  H   H11       1.0  0.31640  0.58964  0.23109  1.0000
  H   H12       1.0  0.27794  0.68615  0.25731  1.0000
  C   C37       1.0  0.02762  0.52751  0.25698  1.0000
  C   C38       1.0  0.47278  0.49770  0.24971  1.0000
  C   C39       1.0  0.50068  0.97472  0.25564  1.0000
  C   C40       1.0  0.97624  0.47462  0.23807  1.0000
  C   C41       1.0  0.52571  0.49838  0.25001  1.0000
  C   C42       1.0  0.50075  0.02707  0.24715  1.0000
  C   C43       1.0  0.52730  0.02712  0.25132  1.0000
  C   C44       1.0  0.49862  0.47130  0.25019  1.0000
  C   C45       1.0  0.97566  0.50196  0.25297  1.0000
  C   C46       1.0  0.47415  0.97463  0.25077  1.0000
  C   C47       1.0  0.50023  0.52467  0.24521  1.0000
  C   C48       1.0  0.02827  0.50019  0.24174  1.0000
  C   C49       1.0  0.05820  0.55221  0.26885  1.0000
  C   C50       1.0  0.44822  0.50443  0.24862  1.0000
  C   C51       1.0  0.49312  0.94346  0.26730  1.0000
  C   C52       1.0  0.94572  0.44999  0.22495  1.0000
  C   C53       1.0  0.54980  0.49193  0.25809  1.0000
  C   C54       1.0  0.50817  0.05843  0.23849  1.0000
  C   C55       1.0  0.55198  0.05858  0.25395  1.0000
  C   C56       1.0  0.50490  0.44638  0.25243  1.0000
  C   C57       1.0  0.94451  0.49587  0.25297  1.0000
  C   C58       1.0  0.44945  0.94312  0.24900  1.0000
  C   C59       1.0  0.49487  0.54952  0.23358  1.0000
  C   C60       1.0  0.05964  0.50637  0.23970  1.0000
  C   C61       1.0  0.10919  0.55404  0.25403  1.0000
  C   C62       1.0  0.55326  0.44431  0.24705  1.0000
  C   C63       1.0  0.55554  0.10894  0.24410  1.0000
  C   C64       1.0  0.12739  0.58501  0.22737  1.0000
  C   C65       1.0  0.58770  0.45921  0.19243  1.0000
  C   C66       1.0  0.53985  0.12495  0.24874  1.0000
  C   C67       1.0  0.58735  0.12468  0.23803  1.0000
  C   C68       1.0  0.53548  0.41428  0.29675  1.0000
  C   C69       1.0  0.12290  0.53863  0.27694  1.0000
  C   C70       1.0  0.15875  0.59993  0.22244  1.0000
  C   C71       1.0  0.60376  0.44434  0.19183  1.0000
  C   C72       1.0  0.55600  0.15602  0.24598  1.0000
  C   C73       1.0  0.60286  0.15576  0.23727  1.0000
  C   C74       1.0  0.55229  0.39965  0.29054  1.0000
  C   C75       1.0  0.15451  0.55398  0.26893  1.0000
  H   H13       1.0  0.11705  0.59711  0.21014  1.0000
  H   H14       1.0  0.60154  0.48225  0.15251  1.0000
  H   H15       1.0  0.51546  0.11315  0.25257  1.0000
  H   H16       1.0  0.59960  0.11268  0.23572  1.0000
  H   H17       1.0  0.50899  0.40259  0.33866  1.0000
  H   H18       1.0  0.10909  0.51487  0.29893  1.0000
  H   H19       1.0  0.17247  0.62387  0.20140  1.0000
  H   H20       1.0  0.63033  0.45627  0.15109  1.0000
  H   H21       1.0  0.54362  0.16798  0.24761  1.0000
  H   H22       1.0  0.62730  0.16756  0.23465  1.0000
  H   H23       1.0  0.53838  0.37637  0.32838  1.0000
  H   H24       1.0  0.16469  0.54175  0.28785  1.0000
  C   C76       1.0  0.58653  0.41432  0.24088  1.0000
  C   C77       1.0  0.58773  0.17214  0.24072  1.0000
  C   C78       1.0  0.17319  0.58484  0.24109  1.0000
  C   C79       1.0  0.52767  0.52609  0.24625  1.0000
  H   H25       1.0  0.54895  0.54709  0.24408  1.0000
  C   C80       1.0  0.47313  0.00081  0.24646  1.0000
  H   H26       1.0  0.45249  0.00077  0.24242  1.0000
  C   C81       1.0  0.00257  0.47265  0.23138  1.0000
  H   H27       1.0  0.00304  0.45133  0.21865  1.0000
  C   C82       1.0  0.47096  0.46996  0.25198  1.0000
  H   H28       1.0  0.44974  0.44895  0.25339  1.0000
  C   C83       1.0  0.52834  0.00097  0.25580  1.0000
  H   H29       1.0  0.54897  0.00104  0.26005  1.0000
  C   C84       1.0  0.00131  0.52948  0.26353  1.0000
  H   H30       1.0  0.00090  0.55079  0.27515  1.0000
  O   O13       1.0  0.06516  0.57890  0.28933  1.0000
  O   O14       1.0  0.06843  0.48781  0.22872  1.0000
  O   O15       1.0  0.42114  0.48630  0.25463  1.0000
  O   O16       1.0  0.51455  0.57586  0.21784  1.0000
  O   O17       1.0  0.50997  0.93566  0.28691  1.0000
  O   O18       1.0  0.42384  0.93479  0.23741  1.0000
  O   O19       1.0  0.93885  0.42329  0.20250  1.0000
  O   O20       1.0  0.93614  0.51455  0.26044  1.0000
  O   O21       1.0  0.57504  0.51030  0.27470  1.0000
  O   O22       1.0  0.48638  0.41973  0.25609  1.0000
  O   O23       1.0  0.49117  0.06638  0.22172  1.0000
  O   O24       1.0  0.57763  0.06665  0.26443  1.0000
  N   N1        1.0  0.07718  0.53835  0.25592  1.0000
  N   N2        1.0  0.46272  0.53625  0.23820  1.0000
  N   N3        1.0  0.46198  0.92480  0.25907  1.0000
  N   N4        1.0  0.92675  0.46391  0.23838  1.0000
  N   N5        1.0  0.53675  0.45998  0.25172  1.0000
  N   N6        1.0  0.53934  0.07700  0.24638  1.0000
  C   C85       1.0  0.69368  0.33396  0.74226  1.0000
  C   C86       1.0  0.69379  0.36182  0.74677  1.0000
  C   C87       1.0  0.72106  0.38912  0.75259  1.0000
  C   C88       1.0  0.72109  0.33364  0.73914  1.0000
  C   C89       1.0  0.74692  0.38781  0.75126  1.0000
  C   C90       1.0  0.74705  0.36047  0.74328  1.0000
  C   C91       1.0  0.66584  0.36214  0.74736  1.0000
  C   C92       1.0  0.63774  0.33464  0.75082  1.0000
  C   C93       1.0  0.61015  0.33522  0.75778  1.0000
  C   C94       1.0  0.66659  0.38972  0.74276  1.0000
  C   C95       1.0  0.61166  0.36238  0.75601  1.0000
  C   C96       1.0  0.63973  0.38919  0.74491  1.0000
  C   C97       1.0  0.63752  0.30618  0.74743  1.0000
  C   C98       1.0  0.66541  0.30588  0.74082  1.0000
  C   C99       1.0  0.66530  0.27815  0.73575  1.0000
  C   C100      1.0  0.60978  0.27869  0.74935  1.0000
  C   C101      1.0  0.63805  0.25221  0.73771  1.0000
  C   C102      1.0  0.61062  0.25240  0.74529  1.0000
  C   C103      1.0  0.30320  0.66521  0.75782  1.0000
  C   C104      1.0  0.30378  0.63744  0.74840  1.0000
  C   C105      1.0  0.27715  0.60997  0.73661  1.0000
  C   C106      1.0  0.27574  0.66516  0.75927  1.0000
  C   C107      1.0  0.25118  0.61095  0.73692  1.0000
  C   C108      1.0  0.25035  0.63814  0.74997  1.0000
  C   C109      1.0  0.33158  0.63741  0.75180  1.0000
  C   C110      1.0  0.35822  0.66518  0.76428  1.0000
  C   C111      1.0  0.38509  0.66520  0.76981  1.0000
  C   C112      1.0  0.33220  0.60995  0.74449  1.0000
  C   C113      1.0  0.38466  0.63821  0.76316  1.0000
  C   C114      1.0  0.35858  0.61096  0.75144  1.0000
  C   C115      1.0  0.35804  0.69344  0.76864  1.0000
  C   C116      1.0  0.33070  0.69351  0.76718  1.0000
  C   C117      1.0  0.33071  0.72123  0.77230  1.0000
  C   C118      1.0  0.38518  0.72098  0.77378  1.0000
  C   C119      1.0  0.35738  0.74730  0.77791  1.0000
  C   C120      1.0  0.38424  0.74720  0.77805  1.0000
  O   O25       1.0  0.77595  0.36580  0.74335  1.0000
  O   O26       1.0  0.63526  0.41279  0.73517  1.0000
  O   O27       1.0  0.58679  0.22319  0.74839  1.0000
  O   O28       1.0  0.22129  0.63249  0.75007  1.0000
  O   O29       1.0  0.36436  0.58753  0.75008  1.0000
  O   O30       1.0  0.40766  0.77636  0.78095  1.0000
  O   O31       1.0  0.36325  0.77657  0.77908  1.0000
  O   O32       1.0  0.40778  0.63272  0.76691  1.0000
  O   O33       1.0  0.22296  0.58745  0.72526  1.0000
  O   O34       1.0  0.63232  0.22301  0.73628  1.0000
  O   O35       1.0  0.58840  0.36850  0.75860  1.0000
  O   O36       1.0  0.77558  0.41111  0.75899  1.0000
  B   B7        1.0  0.79328  0.39715  0.75380  1.0000
  B   B8        1.0  0.60336  0.39966  0.74454  1.0000
  B   B9        1.0  0.60055  0.20530  0.74337  1.0000
  B   B10       1.0  0.20462  0.60110  0.73503  1.0000
  B   B11       1.0  0.39491  0.60133  0.75928  1.0000
  B   B12       1.0  0.39452  0.79430  0.77967  1.0000
  H   H31       1.0  0.72177  0.41072  0.76021  1.0000
  H   H32       1.0  0.58828  0.31493  0.76200  1.0000
  H   H33       1.0  0.68572  0.27692  0.73341  1.0000
  H   H34       1.0  0.58832  0.27798  0.75235  1.0000
  H   H35       1.0  0.68789  0.41088  0.73420  1.0000
  H   H36       1.0  0.72187  0.31299  0.73655  1.0000
  H   H37       1.0  0.27679  0.58847  0.72740  1.0000
  H   H38       1.0  0.40556  0.68573  0.78158  1.0000
  H   H39       1.0  0.31078  0.72228  0.76760  1.0000
  H   H40       1.0  0.40634  0.72182  0.77517  1.0000
  H   H41       1.0  0.31257  0.58843  0.73423  1.0000
  H   H42       1.0  0.27447  0.68572  0.76559  1.0000
  C   C121      1.0  0.02486  0.52419  0.74829  1.0000
  C   C122      1.0  0.47370  0.50071  0.74876  1.0000
  C   C123      1.0  0.49981  0.97370  0.75351  1.0000
  C   C124      1.0  0.97289  0.47092  0.74170  1.0000
  C   C125      1.0  0.52709  0.50210  0.74743  1.0000
  C   C126      1.0  0.49912  0.02579  0.74756  1.0000
  C   C127      1.0  0.52590  0.02620  0.75130  1.0000
  C   C128      1.0  0.50013  0.47490  0.74764  1.0000
  C   C129      1.0  0.97308  0.49805  0.74267  1.0000
  C   C130      1.0  0.47297  0.97339  0.75128  1.0000
  C   C131      1.0  0.50093  0.52786  0.74405  1.0000
  C   C132      1.0  0.02473  0.49713  0.74797  1.0000
  C   C133      1.0  0.05562  0.54919  0.75527  1.0000
  C   C134      1.0  0.44885  0.50683  0.74700  1.0000
  C   C135      1.0  0.49267  0.94241  0.76200  1.0000
  C   C136      1.0  0.94191  0.44611  0.73511  1.0000
  C   C137      1.0  0.55139  0.49568  0.75421  1.0000
  C   C138      1.0  0.50627  0.05693  0.73611  1.0000
  C   C139      1.0  0.55014  0.05787  0.75573  1.0000
  C   C140      1.0  0.50669  0.45008  0.74727  1.0000
  C   C141      1.0  0.94257  0.49171  0.73470  1.0000
  C   C142      1.0  0.44844  0.94186  0.74896  1.0000
  C   C143      1.0  0.49489  0.55236  0.73359  1.0000
  C   C144      1.0  0.05532  0.50390  0.75778  1.0000
  C   C145      1.0  0.10566  0.55202  0.75855  1.0000
  C   C146      1.0  0.44481  0.89172  0.76322  1.0000
  C   C147      1.0  0.55291  0.10783  0.74464  1.0000
  C   C148      1.0  0.12129  0.58353  0.76027  1.0000
  C   C149      1.0  0.46078  0.87575  0.75551  1.0000
  C   C150      1.0  0.53538  0.12339  0.76787  1.0000
  C   C151      1.0  0.58582  0.12399  0.72176  1.0000
  C   C152      1.0  0.41247  0.87595  0.77672  1.0000
  C   C153      1.0  0.12229  0.53656  0.74905  1.0000
  C   C154      1.0  0.15316  0.59893  0.74809  1.0000
  C   C155      1.0  0.44436  0.84472  0.76335  1.0000
  C   C156      1.0  0.55084  0.15448  0.76564  1.0000
  C   C157      1.0  0.60052  0.15510  0.72375  1.0000
  C   C158      1.0  0.39675  0.84490  0.78202  1.0000
  C   C159      1.0  0.15408  0.55252  0.73832  1.0000
  H   H43       1.0  0.10866  0.59568  0.76906  1.0000
  H   H44       1.0  0.48561  0.88758  0.74544  1.0000
  H   H45       1.0  0.51013  0.11119  0.78459  1.0000
  H   H46       1.0  0.59951  0.11236  0.70551  1.0000
  H   H47       1.0  0.40000  0.88786  0.78064  1.0000
  H   H48       1.0  0.11047  0.51237  0.74942  1.0000
  H   H49       1.0  0.16488  0.62327  0.74861  1.0000
  H   H50       1.0  0.45704  0.83286  0.75919  1.0000
  H   H51       1.0  0.53707  0.16610  0.78082  1.0000
  H   H52       1.0  0.62582  0.16729  0.70881  1.0000
  H   H53       1.0  0.37191  0.83313  0.79018  1.0000
  H   H54       1.0  0.16649  0.54024  0.73242  1.0000
  C   C160      1.0  0.58359  0.17106  0.74460  1.0000
  C   C161      1.0  0.17033  0.58393  0.73643  1.0000
  C   C162      1.0  0.41211  0.82853  0.77603  1.0000
  C   C163      1.0  0.52858  0.52965  0.74481  1.0000
  H   H55       1.0  0.54959  0.55083  0.74392  1.0000
  C   C164      1.0  0.47156  0.99940  0.74796  1.0000
  H   H56       1.0  0.45071  0.99917  0.74540  1.0000
  C   C165      1.0  0.99876  0.46940  0.74404  1.0000
  H   H57       1.0  0.99854  0.44831  0.74498  1.0000
  C   C166      1.0  0.47220  0.47317  0.75117  1.0000
  H   H58       1.0  0.45102  0.45202  0.75456  1.0000
  C   C167      1.0  0.52736  0.00013  0.75360  1.0000
  H   H59       1.0  0.54827  0.00038  0.75566  1.0000
  C   C168      1.0  0.99899  0.52574  0.74668  1.0000
  H   H60       1.0  0.99909  0.54686  0.74781  1.0000
  O   O37       1.0  0.06350  0.57576  0.75751  1.0000
  O   O38       1.0  0.06283  0.48563  0.76604  1.0000
  O   O39       1.0  0.42197  0.48822  0.75206  1.0000
  O   O40       1.0  0.51398  0.57885  0.72029  1.0000
  O   O41       1.0  0.51007  0.93465  0.77626  1.0000
  O   O42       1.0  0.42281  0.93355  0.73761  1.0000
  O   O43       1.0  0.93374  0.41944  0.73127  1.0000
  O   O44       1.0  0.93542  0.51038  0.72778  1.0000
  O   O45       1.0  0.57661  0.51390  0.77118  1.0000
  O   O46       1.0  0.48832  0.42340  0.74879  1.0000
  O   O47       1.0  0.48931  0.06446  0.71548  1.0000
  O   O48       1.0  0.57556  0.06656  0.77042  1.0000
  N   N7        1.0  0.07360  0.53589  0.76078  1.0000
  N   N8        1.0  0.46276  0.53852  0.73646  1.0000
  N   N9        1.0  0.46124  0.92364  0.75715  1.0000
  N   N10       1.0  0.92401  0.45983  0.73184  1.0000
  N   N11       1.0  0.53849  0.46370  0.74622  1.0000
  N   N12       1.0  0.53726  0.07587  0.74549  1.0000
  C   C169      1.0  0.85313  0.40187  0.25892  1.0000
  C   C170      1.0  0.83351  0.41326  0.26235  1.0000
  C  Sn1       1.0  0.84599  0.44383  0.24505  1.0000
  C  Sn2       1.0  0.87873  0.46331  0.22388  1.0000
  C   C171      1.0  0.89817  0.45170  0.22047  1.0000
  C   C172      1.0  0.88543  0.42107  0.23797  1.0000
  H   H61       1.0  0.84328  0.37818  0.27234  1.0000
  O  Te1       1.0  0.82604  0.45483  0.24884  1.0000
  O  Te2       1.0  0.89182  0.49395  0.20623  1.0000
  H   H62       1.0  0.90064  0.41226  0.23517  1.0000
  Mg  Mg1       1.0  0.85500  0.49827  0.21963  1.0000
  C   C173      1.0  0.41052  0.53724  0.21561  1.0000
  C   C174      1.0  0.44056  0.54783  0.22282  1.0000
  C  Sn3       1.0  0.45824  0.57845  0.25479  1.0000
  C  Sn4       1.0  0.44555  0.59879  0.28003  1.0000
  C   C175      1.0  0.41546  0.58797  0.27271  1.0000
  C   C176      1.0  0.39797  0.55729  0.24056  1.0000
  H   H63       1.0  0.39697  0.51349  0.19085  1.0000
  O  Te3       1.0  0.48823  0.58865  0.26150  1.0000
  O  Te4       1.0  0.46271  0.62951  0.31227  1.0000
  H   H64       1.0  0.37470  0.54909  0.23512  1.0000
  Mg  Mg2       1.0  0.50250  0.63254  0.30916  1.0000
  C   C177      1.0  0.85100  0.39771  0.74192  1.0000
  C   C178      1.0  0.83035  0.40930  0.76102  1.0000
  C  Sn5       1.0  0.84186  0.44013  0.75829  1.0000
  C  Sn6       1.0  0.87466  0.45966  0.73593  1.0000
  C   C179      1.0  0.89513  0.44784  0.71678  1.0000
  C   C180      1.0  0.88336  0.41696  0.71978  1.0000
  H   H65       1.0  0.84190  0.37382  0.74413  1.0000
  O  Te5       1.0  0.82090  0.45134  0.77763  1.0000
  O  Te6       1.0  0.88680  0.49056  0.73263  1.0000
  H   H66       1.0  0.89936  0.40799  0.70486  1.0000
  Mg  Mg3       1.0  0.84879  0.49510  0.76438  1.0000
  C   C181      1.0  0.40148  0.54619  0.71289  1.0000
  C   C182      1.0  0.40809  0.57655  0.75737  1.0000
  C  Sn7       1.0  0.43622  0.59684  0.78632  1.0000
  C  Sn8       1.0  0.45810  0.58649  0.77030  1.0000
  C   C183      1.0  0.45127  0.55608  0.72561  1.0000
  C   C184      1.0  0.42305  0.53596  0.69699  1.0000
  H   H67       1.0  0.37965  0.53063  0.69064  1.0000
  O  Te7       1.0  0.44245  0.62709  0.83073  1.0000
  O  Te8       1.0  0.48640  0.60628  0.79844  1.0000
  H   H68       1.0  0.41795  0.51247  0.66243  1.0000
  Mg  Mg4       1.0  0.48422  0.64538  0.85624  1.0000
  C   C185      1.0  0.46229  0.86998  0.25267  1.0000
  C   C186      1.0  0.45163  0.88951  0.24681  1.0000
  C  Sn9       1.0  0.41972  0.87871  0.26410  1.0000
  C  Sn10      1.0  0.39815  0.84777  0.28773  1.0000
  C   C187      1.0  0.40904  0.82842  0.29355  1.0000
  C   C188      1.0  0.44102  0.83946  0.27605  1.0000
  H   H69       1.0  0.48703  0.87852  0.23924  1.0000
  O  Te9       1.0  0.40947  0.89853  0.25787  1.0000
  O  Te10      1.0  0.36613  0.83638  0.30543  1.0000
  H   H70       1.0  0.44926  0.82434  0.28072  1.0000
  Mg  Mg5       1.0  0.36356  0.87229  0.28817  1.0000
  C   C189      1.0  0.53569  0.41084  0.80265  1.0000
  C   C190      1.0  0.54859  0.44088  0.77000  1.0000
  C  Sn11      1.0  0.58256  0.45935  0.71048  1.0000
  C  Sn12      1.0  0.60396  0.44746  0.68321  1.0000
  C   C191      1.0  0.59082  0.41737  0.71612  1.0000
  C   C192      1.0  0.55678  0.39910  0.77571  1.0000
  H   H71       1.0  0.50936  0.39669  0.84865  1.0000
  O  Te11      1.0  0.59504  0.48932  0.67857  1.0000
  O  Te12      1.0  0.63802  0.46542  0.62372  1.0000
  H   H72       1.0  0.54680  0.37583  0.80086  1.0000
  Mg  Mg6       1.0  0.64321  0.50485  0.59879  1.0000
