data_image0
_chemical_formula_structural       C32O8H8N4B4C5H2OC5H2OC5H2OC5H2OC5H2OC5H2OC5H2OC5H2OC2NC2NC2NC2NNiN4C32O8H8N4B4C5H2OC5H2OC5H2OC5H2OC5H2OC5H2OC5H2OC5H2OC2NC2NC2NC2NNiN4SnCSn2CSnTe4Mg2SnCSn2CSnTe4Mg2SnCSn2CSnTe4Mg2SnCSn2CSnTe4Mg2SnCSn2CSnTe4Mg2SnCSn2CSnTe4Mg2SnCSn2CSnTe4Mg2SnCSn2CSnTe4Mg2
_chemical_formula_sum              "C176 O32 H48 N24 B8 Ni2 Sn32 Te32 Mg16"
_cell_length_a       40.2432
_cell_length_b       40.2355
_cell_length_c       7.99109
_cell_angle_alpha    109.401
_cell_angle_beta     111.074
_cell_angle_gamma    90.1661

_symmetry_space_group_name_H-M    'P1'
_space_group_IT_number       1

loop_
  _space_group_symop_operation_xyz
  'x, y, z'

loop_
  _atom_site_type_symbol
  _atom_site_label
  _atom_site_symmetry_multiplicity
  _atom_site_fract_x
  _atom_site_fract_y
  _atom_site_fract_z
  _atom_site_occupancy
  C   C1        1.0  0.48128  0.66046  0.21385  1.0000
  C   C2        1.0  0.53688  0.63342  0.24263  1.0000
  C   C3        1.0  0.51779  0.60407  0.24113  1.0000
  C   C4        1.0  0.52852  0.57013  0.25077  1.0000
  C   C5        1.0  0.51867  0.34201  0.26663  1.0000
  C   C6        1.0  0.46437  0.37056  0.25748  1.0000
  C   C7        1.0  0.48349  0.39983  0.25836  1.0000
  C   C8        1.0  0.47328  0.43424  0.25512  1.0000
  C   C9        1.0  0.34135  0.48447  0.26782  1.0000
  C   C10       1.0  0.36875  0.53812  0.25696  1.0000
  C   C11       1.0  0.39825  0.51966  0.25511  1.0000
  C   C12       1.0  0.43246  0.52973  0.24963  1.0000
  C   C13       1.0  0.66102  0.51857  0.24279  1.0000
  C   C14       1.0  0.63151  0.46468  0.24049  1.0000
  C   C15       1.0  0.60295  0.48421  0.24753  1.0000
  C   C16       1.0  0.56867  0.47434  0.25141  1.0000
  C   C17       1.0  0.51748  0.66153  0.23104  1.0000
  C   C18       1.0  0.46236  0.63172  0.21486  1.0000
  C   C19       1.0  0.48206  0.60344  0.23109  1.0000
  C   C20       1.0  0.47232  0.56947  0.23985  1.0000
  C   C21       1.0  0.48312  0.34178  0.26000  1.0000
  C   C22       1.0  0.53758  0.37070  0.26500  1.0000
  C   C23       1.0  0.51861  0.39980  0.25978  1.0000
  C   C24       1.0  0.52866  0.43412  0.25573  1.0000
  C   C25       1.0  0.66028  0.48311  0.23765  1.0000
  C   C26       1.0  0.63275  0.53792  0.24803  1.0000
  C   C27       1.0  0.60339  0.51943  0.25021  1.0000
  C   C28       1.0  0.56913  0.52999  0.25472  1.0000
  C   C29       1.0  0.34054  0.51926  0.26306  1.0000
  C   C30       1.0  0.37022  0.46597  0.26498  1.0000
  C   C31       1.0  0.39878  0.48488  0.25885  1.0000
  C   C32       1.0  0.43308  0.47467  0.25501  1.0000
  O   O1        1.0  0.52885  0.69391  0.23118  1.0000
  O   O2        1.0  0.47154  0.30942  0.25935  1.0000
  O   O3        1.0  0.30820  0.53017  0.26756  1.0000
  O   O4        1.0  0.69189  0.47108  0.22831  1.0000
  O   O5        1.0  0.46937  0.69192  0.19814  1.0000
  O   O6        1.0  0.53014  0.31003  0.27524  1.0000
  O   O7        1.0  0.69342  0.52929  0.24003  1.0000
  O   O8        1.0  0.30967  0.47318  0.27539  1.0000
  H   H1        1.0  0.56448  0.63387  0.25192  1.0000
  H   H2        1.0  0.43729  0.37066  0.25615  1.0000
  H   H3        1.0  0.36825  0.56487  0.25345  1.0000
  H   H4        1.0  0.63077  0.43744  0.23676  1.0000
  H   H5        1.0  0.43460  0.63084  0.20299  1.0000
  H   H6        1.0  0.56475  0.37084  0.26760  1.0000
  H   H7        1.0  0.63300  0.56493  0.24828  1.0000
  H   H8        1.0  0.37103  0.43927  0.26916  1.0000
  N   N1        1.0  0.56049  0.56167  0.25518  1.0000
  N   N2        1.0  0.44170  0.44302  0.25535  1.0000
  N   N3        1.0  0.44077  0.56081  0.24163  1.0000
  N   N4        1.0  0.56007  0.44275  0.25284  1.0000
  B   B1        1.0  0.49901  0.71262  0.21037  1.0000
  B   B2        1.0  0.50081  0.28997  0.27022  1.0000
  B   B3        1.0  0.28922  0.50149  0.27460  1.0000
  B   B4        1.0  0.71227  0.49978  0.23090  1.0000
  C   C33       1.0  0.98365  0.46745  0.26979  1.0000
  C   C34       1.0  0.03908  0.55829  0.26597  1.0000
  C   C35       1.0  0.07468  0.55869  0.28012  1.0000
  C   C36       1.0  0.09124  0.52827  0.27522  1.0000
  C   C37       1.0  0.12201  0.46372  0.20105  1.0000
  H   H9        1.0  0.02655  0.58210  0.26425  1.0000
  H   H10       1.0  0.08996  0.58243  0.29362  1.0000
  O   O9        1.0  0.13126  0.43498  0.13114  1.0000
  C   C38       1.0  0.01975  0.52853  0.25901  1.0000
  C   C39       1.0  0.96585  0.43960  0.28774  1.0000
  C   C40       1.0  0.93170  0.44087  0.29547  1.0000
  C   C41       1.0  0.91373  0.46997  0.28105  1.0000
  C   C42       1.0  0.87413  0.52735  0.22721  1.0000
  H   H11       1.0  0.97896  0.41643  0.29931  1.0000
  H   H12       1.0  0.91874  0.41957  0.31565  1.0000
  O   O10       1.0  0.85702  0.55066  0.18608  1.0000
  C   C43       1.0  0.53041  0.98269  0.22712  1.0000
  C   C44       1.0  0.44153  0.03850  0.27494  1.0000
  C   C45       1.0  0.44166  0.07365  0.28155  1.0000
  C   C46       1.0  0.47008  0.09073  0.26697  1.0000
  C   C47       1.0  0.52467  0.12442  0.20202  1.0000
  H   H13       1.0  0.41898  0.02633  0.28868  1.0000
  H   H14       1.0  0.41996  0.08851  0.30111  1.0000
  O   O11       1.0  0.54575  0.13640  0.14954  1.0000
  C   C48       1.0  0.47001  0.01939  0.25815  1.0000
  C   C49       1.0  0.55946  0.96415  0.21575  1.0000
  C   C50       1.0  0.56028  0.92962  0.21798  1.0000
  C   C51       1.0  0.53186  0.91239  0.23140  1.0000
  C   C52       1.0  0.47443  0.87610  0.26630  1.0000
  H   H15       1.0  0.58198  0.97654  0.20278  1.0000
  H   H16       1.0  0.58288  0.91543  0.20808  1.0000
  O   O12       1.0  0.45141  0.86189  0.29830  1.0000
  C   C53       1.0  0.01914  0.46638  0.25858  1.0000
  C   C54       1.0  0.96343  0.55656  0.23347  1.0000
  C   C55       1.0  0.92822  0.55601  0.22588  1.0000
  C   C56       1.0  0.91165  0.52722  0.24002  1.0000
  C   C57       1.0  0.87870  0.47154  0.30148  1.0000
  H   H17       1.0  0.97541  0.57937  0.22077  1.0000
  H   H18       1.0  0.91285  0.57755  0.20581  1.0000
  O   O13       1.0  0.86721  0.44940  0.35025  1.0000
  C   C58       1.0  0.98294  0.52822  0.25070  1.0000
  C   C59       1.0  0.03673  0.43608  0.24517  1.0000
  C   C60       1.0  0.07023  0.43521  0.22859  1.0000
  C   C61       1.0  0.08813  0.46552  0.23476  1.0000
  C   C62       1.0  0.12951  0.52998  0.30217  1.0000
  H   H19       1.0  0.02394  0.41223  0.24483  1.0000
  H   H20       1.0  0.08292  0.41112  0.21338  1.0000
  O   O14       1.0  0.14833  0.55893  0.36622  1.0000
  C   C63       1.0  0.47089  0.98308  0.25851  1.0000
  C   C64       1.0  0.55644  0.03670  0.20177  1.0000
  C   C65       1.0  0.55511  0.07113  0.19825  1.0000
  C   C66       1.0  0.52642  0.08900  0.21832  1.0000
  C   C67       1.0  0.46972  0.12828  0.28037  1.0000
  H   H21       1.0  0.57918  0.02359  0.18480  1.0000
  H   H22       1.0  0.57596  0.08433  0.17636  1.0000
  O   O15       1.0  0.44619  0.14490  0.31807  1.0000
  C   C68       1.0  0.52918  0.01868  0.22279  1.0000
  C   C69       1.0  0.44321  0.96457  0.27400  1.0000
  C   C70       1.0  0.44438  0.92988  0.27433  1.0000
  C   C71       1.0  0.47356  0.91239  0.25989  1.0000
  C   C72       1.0  0.53407  0.87609  0.23644  1.0000
  H   H23       1.0  0.42004  0.97729  0.28702  1.0000
  H   H24       1.0  0.42285  0.91601  0.28830  1.0000
  O   O16       1.0  0.56124  0.86191  0.23916  1.0000
  C   C73       1.0  0.96605  0.49798  0.26005  1.0000
  C   C74       1.0  0.07202  0.49702  0.25678  1.0000
  N   N5        1.0  0.14313  0.49688  0.25090  1.0000
  C   C75       1.0  0.03669  0.49736  0.25924  1.0000
  C   C76       1.0  0.93049  0.49835  0.26000  1.0000
  N   N6        1.0  0.85903  0.49964  0.26530  1.0000
  C   C77       1.0  0.50107  0.96556  0.24271  1.0000
  C   C78       1.0  0.49862  0.07204  0.24260  1.0000
  N   N7        1.0  0.49752  0.14401  0.24674  1.0000
  C   C79       1.0  0.49929  0.03639  0.24144  1.0000
  C   C80       1.0  0.50208  0.93006  0.24407  1.0000
  N   N8        1.0  0.50370  0.85844  0.23785  1.0000
  Ni  Ni1       1.0  0.50086  0.50230  0.25308  1.0000
  N   N9        1.0  0.50068  0.54949  0.24944  1.0000
  N   N10       1.0  0.50090  0.45472  0.25381  1.0000
  N   N11       1.0  0.45330  0.50217  0.25134  1.0000
  N   N12       1.0  0.54840  0.50231  0.25458  1.0000
  C   C81       1.0  0.48141  0.65898  0.71337  1.0000
  C   C82       1.0  0.53675  0.63151  0.73928  1.0000
  C   C83       1.0  0.51763  0.60245  0.74033  1.0000
  C   C84       1.0  0.52785  0.56833  0.74945  1.0000
  C   C85       1.0  0.51354  0.34048  0.75844  1.0000
  C   C86       1.0  0.46049  0.37052  0.75988  1.0000
  C   C87       1.0  0.48014  0.39927  0.75933  1.0000
  C   C88       1.0  0.47060  0.43384  0.75727  1.0000
  C   C89       1.0  0.33914  0.48675  0.76552  1.0000
  C   C90       1.0  0.36821  0.53968  0.75649  1.0000
  C   C91       1.0  0.39709  0.52033  0.75551  1.0000
  C   C92       1.0  0.43141  0.52958  0.74999  1.0000
  C   C93       1.0  0.65967  0.51589  0.74447  1.0000
  C   C94       1.0  0.63064  0.46276  0.75242  1.0000
  C   C95       1.0  0.60151  0.48185  0.75197  1.0000
  C   C96       1.0  0.56696  0.47229  0.75452  1.0000
  C   C97       1.0  0.51742  0.65966  0.72704  1.0000
  C   C98       1.0  0.46250  0.63060  0.71683  1.0000
  C   C99       1.0  0.48205  0.60226  0.73205  1.0000
  C   C100      1.0  0.47189  0.56849  0.74038  1.0000
  C   C101      1.0  0.47853  0.34128  0.75991  1.0000
  C   C102      1.0  0.53312  0.36879  0.75806  1.0000
  C   C103      1.0  0.51509  0.39853  0.75849  1.0000
  C   C104      1.0  0.52593  0.43276  0.75664  1.0000
  C   C105      1.0  0.65952  0.48114  0.74975  1.0000
  C   C106      1.0  0.63109  0.53499  0.74513  1.0000
  C   C107      1.0  0.60187  0.51671  0.74945  1.0000
  C   C108      1.0  0.56768  0.52754  0.75262  1.0000
  C   C109      1.0  0.33950  0.52164  0.76215  1.0000
  C   C110      1.0  0.36753  0.46743  0.76427  1.0000
  C   C111      1.0  0.39679  0.48561  0.76003  1.0000
  C   C112      1.0  0.43097  0.47474  0.75707  1.0000
  O   O17       1.0  0.52869  0.69184  0.72445  1.0000
  O   O18       1.0  0.46659  0.30919  0.76077  1.0000
  O   O19       1.0  0.30760  0.53363  0.76670  1.0000
  O   O20       1.0  0.69180  0.46959  0.74984  1.0000
  O   O21       1.0  0.46952  0.69040  0.69801  1.0000
  O   O22       1.0  0.52393  0.30792  0.75847  1.0000
  O   O23       1.0  0.69191  0.52647  0.74005  1.0000
  O   O24       1.0  0.30687  0.47635  0.77024  1.0000
  H   H25       1.0  0.56426  0.63175  0.74704  1.0000
  H   H26       1.0  0.43357  0.37134  0.76047  1.0000
  H   H27       1.0  0.36848  0.56646  0.75334  1.0000
  H   H28       1.0  0.63049  0.43595  0.75498  1.0000
  H   H29       1.0  0.43491  0.63000  0.70762  1.0000
  H   H30       1.0  0.56001  0.36812  0.75693  1.0000
  H   H31       1.0  0.63106  0.56171  0.74131  1.0000
  H   H32       1.0  0.36750  0.44071  0.76829  1.0000
  N   N13       1.0  0.55952  0.55931  0.75232  1.0000
  N   N14       1.0  0.43916  0.44304  0.75814  1.0000
  N   N15       1.0  0.44019  0.56047  0.74196  1.0000
  N   N16       1.0  0.55771  0.44091  0.75614  1.0000
  B   B5        1.0  0.49899  0.71070  0.70643  1.0000
  B   B6        1.0  0.49485  0.28864  0.76007  1.0000
  B   B7        1.0  0.28756  0.50547  0.77124  1.0000
  B   B8        1.0  0.71165  0.49767  0.74315  1.0000
  C   C113      1.0  0.98368  0.46883  0.77211  1.0000
  C   C114      1.0  0.03669  0.56088  0.76517  1.0000
  C   C115      1.0  0.07240  0.56219  0.78042  1.0000
  C   C116      1.0  0.08977  0.53227  0.77717  1.0000
  C   C117      1.0  0.12152  0.46837  0.70133  1.0000
  H   H33       1.0  0.02343  0.58424  0.76115  1.0000
  H   H34       1.0  0.08713  0.58631  0.79417  1.0000
  O   O25       1.0  0.13099  0.43987  0.62946  1.0000
  C   C118      1.0  0.01814  0.53078  0.76000  1.0000
  C   C119      1.0  0.96614  0.44003  0.78362  1.0000
  C   C120      1.0  0.93097  0.43934  0.77741  1.0000
  C   C121      1.0  0.91247  0.46814  0.76529  1.0000
  C   C122      1.0  0.87641  0.52947  0.78142  1.0000
  H   H35       1.0  0.97990  0.41723  0.79562  1.0000
  H   H36       1.0  0.91733  0.41633  0.78061  1.0000
  O   O26       1.0  0.86526  0.55831  0.82319  1.0000
  C   C123      1.0  0.52971  0.98032  0.72684  1.0000
  C   C124      1.0  0.44089  0.03619  0.77465  1.0000
  C   C125      1.0  0.44034  0.07077  0.77239  1.0000
  C   C126      1.0  0.46864  0.08764  0.75576  1.0000
  C   C127      1.0  0.52717  0.12434  0.73433  1.0000
  H   H37       1.0  0.41852  0.02428  0.79094  1.0000
  H   H38       1.0  0.41783  0.08505  0.78280  1.0000
  O   O27       1.0  0.55347  0.13794  0.72408  1.0000
  C   C128      1.0  0.46938  0.01703  0.75881  1.0000
  C   C129      1.0  0.55869  0.96178  0.71424  1.0000
  C   C130      1.0  0.55966  0.92741  0.71817  1.0000
  C   C131      1.0  0.53143  0.91033  0.73388  1.0000
  C   C132      1.0  0.47428  0.87430  0.77182  1.0000
  H   H39       1.0  0.58100  0.97405  0.69903  1.0000
  H   H40       1.0  0.58227  0.91323  0.70862  1.0000
  O   O28       1.0  0.45125  0.86010  0.80389  1.0000
  C   C133      1.0  0.01929  0.46881  0.76296  1.0000
  C   C134      1.0  0.96128  0.55772  0.73938  1.0000
  C   C135      1.0  0.92688  0.55706  0.74331  1.0000
  C   C136      1.0  0.91117  0.52779  0.75736  1.0000
  C   C137      1.0  0.87440  0.46548  0.74463  1.0000
  H   H41       1.0  0.97239  0.58075  0.72464  1.0000
  H   H42       1.0  0.91190  0.57937  0.73716  1.0000
  O   O29       1.0  0.85864  0.43709  0.72062  1.0000
  C   C138      1.0  0.98146  0.52970  0.75403  1.0000
  C   C139      1.0  0.03776  0.43914  0.75232  1.0000
  C   C140      1.0  0.07112  0.43907  0.73472  1.0000
  C   C141      1.0  0.08803  0.46960  0.73797  1.0000
  C   C142      1.0  0.12814  0.53462  0.80598  1.0000
  H   H43       1.0  0.02598  0.41518  0.75590  1.0000
  H   H44       1.0  0.08446  0.41541  0.72016  1.0000
  O   O30       1.0  0.14687  0.56373  0.87436  1.0000
  C   C143      1.0  0.47034  0.98082  0.76021  1.0000
  C   C144      1.0  0.55608  0.03463  0.70624  1.0000
  C   C145      1.0  0.55533  0.06952  0.70995  1.0000
  C   C146      1.0  0.52647  0.08724  0.72855  1.0000
  C   C147      1.0  0.46580  0.12315  0.73869  1.0000
  H   H45       1.0  0.57885  0.02156  0.68933  1.0000
  H   H46       1.0  0.57698  0.08337  0.69691  1.0000
  O   O31       1.0  0.43675  0.13454  0.71550  1.0000
  C   C148      1.0  0.52856  0.01632  0.72376  1.0000
  C   C149      1.0  0.44273  0.96240  0.77649  1.0000
  C   C150      1.0  0.44404  0.92785  0.77865  1.0000
  C   C151      1.0  0.47327  0.91045  0.76436  1.0000
  C   C152      1.0  0.53381  0.87421  0.74034  1.0000
  H   H47       1.0  0.41951  0.97512  0.78864  1.0000
  H   H48       1.0  0.42261  0.91405  0.79365  1.0000
  O   O32       1.0  0.56096  0.86002  0.74229  1.0000
  C   C153      1.0  0.96539  0.49899  0.76329  1.0000
  C   C154      1.0  0.07122  0.50067  0.75925  1.0000
  N   N17       1.0  0.14204  0.50180  0.75125  1.0000
  C   C155      1.0  0.03590  0.50011  0.76156  1.0000
  C   C156      1.0  0.92982  0.49834  0.76273  1.0000
  N   N18       1.0  0.85739  0.49704  0.75732  1.0000
  C   C157      1.0  0.50051  0.96332  0.74404  1.0000
  C   C158      1.0  0.49796  0.06949  0.74245  1.0000
  N   N19       1.0  0.49682  0.14246  0.74660  1.0000
  C   C159      1.0  0.49864  0.03393  0.74186  1.0000
  C   C160      1.0  0.50166  0.92795  0.74670  1.0000
  N   N20       1.0  0.50356  0.85669  0.74360  1.0000
  Ni  Ni2       1.0  0.49928  0.50101  0.75394  1.0000
  N   N21       1.0  0.49985  0.54809  0.74944  1.0000
  N   N22       1.0  0.49856  0.45384  0.75574  1.0000
  N   N23       1.0  0.45176  0.50175  0.75281  1.0000
  N   N24       1.0  0.54677  0.50031  0.75461  1.0000
  C  Sn1       1.0  0.80361  0.53569  0.35615  1.0000
  C   C161      1.0  0.82298  0.50694  0.32881  1.0000
  C  Sn2       1.0  0.80506  0.47215  0.23247  1.0000
  C  Sn3       1.0  0.76698  0.46596  0.16186  1.0000
  C   C162      1.0  0.74763  0.49469  0.18918  1.0000
  C  Sn4       1.0  0.76553  0.52949  0.28554  1.0000
  O  Te1       1.0  0.82208  0.57024  0.45286  1.0000
  O  Te2       1.0  0.82501  0.44384  0.20695  1.0000
  O  Te3       1.0  0.74851  0.43136  0.06509  1.0000
  O  Te4       1.0  0.74560  0.55779  0.31104  1.0000
  Mg  Mg1       1.0  0.78759  0.40159  0.06589  1.0000
  Mg  Mg2       1.0  0.78299  0.60005  0.45198  1.0000
  C  Sn5       1.0  0.21190  0.47548  0.35935  1.0000
  C   C163      1.0  0.18687  0.49839  0.31567  1.0000
  C  Sn6       1.0  0.19207  0.52141  0.22664  1.0000
  C  Sn7       1.0  0.22292  0.52151  0.18017  1.0000
  C   C164      1.0  0.24792  0.49860  0.22381  1.0000
  C  Sn8       1.0  0.24275  0.47558  0.31289  1.0000
  O  Te5       1.0  0.20615  0.45269  0.44837  1.0000
  O  Te6       1.0  0.16668  0.54409  0.18445  1.0000
  O  Te7       1.0  0.22865  0.54432  0.09109  1.0000
  O  Te8       1.0  0.26811  0.45291  0.35504  1.0000
  Mg  Mg3       1.0  0.18641  0.57024  0.06251  1.0000
  Mg  Mg4       1.0  0.24840  0.42673  0.47688  1.0000
  C  Sn9       1.0  0.47207  0.76658  0.04524  1.0000
  C   C165      1.0  0.49803  0.75094  0.15368  1.0000
  C  Sn10      1.0  0.52714  0.77211  0.31634  1.0000
  C  Sn11      1.0  0.53037  0.80969  0.37186  1.0000
  C   C166      1.0  0.50442  0.82530  0.26347  1.0000
  C  Sn12      1.0  0.47529  0.80416  0.10076  1.0000
  O  Te9       1.0  0.51477  0.81108  0.88316  1.0000
  O  Te10      1.0  0.55276  0.75587  0.42243  1.0000
  O  Te11      1.0  0.55929  0.83136  0.53408  1.0000
  O  Te12      1.0  0.52127  0.88656  0.99472  1.0000
  Mg  Mg5       1.0  0.58724  0.79674  0.63195  1.0000
  Mg  Mg6       1.0  0.48678  0.84572  0.78525  1.0000
  C  Sn13      1.0  0.53479  0.21290  0.37671  1.0000
  C   C167      1.0  0.50486  0.18826  0.32231  1.0000
  C  Sn14      1.0  0.47044  0.19391  0.21985  1.0000
  C  Sn15      1.0  0.46583  0.22484  0.17062  1.0000
  C   C168      1.0  0.49574  0.24946  0.22498  1.0000
  C  Sn16      1.0  0.53018  0.24383  0.32747  1.0000
  O  Te13      1.0  0.56895  0.20670  0.47907  1.0000
  O  Te14      1.0  0.44093  0.16890  0.16711  1.0000
  O  Te15      1.0  0.43163  0.23102  0.06818  1.0000
  O  Te16      1.0  0.55968  0.26882  0.38017  1.0000
  Mg  Mg7       1.0  0.39980  0.18919  0.02871  1.0000
  Mg  Mg8       1.0  0.60082  0.24855  0.51848  1.0000
  C  Sn17      1.0  0.78180  0.47628  0.85255  1.0000
  C   C169      1.0  0.75656  0.49792  0.79242  1.0000
  C  Sn18      1.0  0.76218  0.51845  0.69181  1.0000
  C  Sn19      1.0  0.79369  0.51732  0.65033  1.0000
  C   C170      1.0  0.81891  0.49569  0.71042  1.0000
  C  Sn20      1.0  0.81331  0.47514  0.81107  1.0000
  O  Te17      1.0  0.77563  0.45597  0.95292  1.0000
  O  Te18      1.0  0.73657  0.53989  0.63324  1.0000
  O  Te19      1.0  0.79985  0.53765  0.54988  1.0000
  O  Te20      1.0  0.83890  0.45371  0.86960  1.0000
  Mg  Mg9       1.0  0.75707  0.56267  0.50041  1.0000
  Mg  Mg10      1.0  0.74682  0.36473  0.00234  1.0000
  C  Sn21      1.0  0.21053  0.48027  0.85602  1.0000
  C   C171      1.0  0.18576  0.50358  0.81564  1.0000
  C  Sn22      1.0  0.19114  0.52702  0.72927  1.0000
  C  Sn23      1.0  0.22191  0.52715  0.68215  1.0000
  C   C172      1.0  0.24666  0.50385  0.72250  1.0000
  C  Sn24      1.0  0.24130  0.48040  0.80891  1.0000
  O  Te21      1.0  0.20462  0.45707  0.94242  1.0000
  O  Te22      1.0  0.16600  0.55009  0.69035  1.0000
  O  Te23      1.0  0.22781  0.55038  0.59570  1.0000
  O  Te24      1.0  0.26642  0.45734  0.84779  1.0000
  Mg  Mg11      1.0  0.18590  0.57673  0.57115  1.0000
  Mg  Mg12      1.0  0.24654  0.43067  0.96689  1.0000
  C  Sn25      1.0  0.47154  0.76512  0.54743  1.0000
  C   C173      1.0  0.49767  0.74914  0.65263  1.0000
  C  Sn26      1.0  0.52709  0.76999  0.81455  1.0000
  C  Sn27      1.0  0.53045  0.80761  0.87262  1.0000
  C   C174      1.0  0.50433  0.82357  0.76747  1.0000
  C  Sn28      1.0  0.47491  0.80273  0.60550  1.0000
  O  Te25      1.0  0.44236  0.74374  0.38604  1.0000
  O  Te26      1.0  0.55287  0.75341  0.91738  1.0000
  O  Te27      1.0  0.48808  0.76280  0.03415  1.0000
  O  Te28      1.0  0.44913  0.81930  0.50273  1.0000
  Mg  Mg13      1.0  0.51616  0.72777  0.12719  1.0000
  Mg  Mg14      1.0  0.41423  0.77878  0.29296  1.0000
  C  Sn29      1.0  0.47073  0.22929  0.83921  1.0000
  C   C175      1.0  0.49532  0.25043  0.81724  1.0000
  C  Sn30      1.0  0.52077  0.23516  0.74517  1.0000
  C  Sn31      1.0  0.52166  0.19797  0.69387  1.0000
  C   C176      1.0  0.49708  0.17684  0.71582  1.0000
  C  Sn32      1.0  0.47162  0.19210  0.78792  1.0000
  O  Te29      1.0  0.44552  0.24513  0.91153  1.0000
  O  Te30      1.0  0.54508  0.25684  0.72454  1.0000
  O  Te31      1.0  0.54690  0.18214  0.62151  1.0000
  O  Te32      1.0  0.44731  0.17043  0.80851  1.0000
  Mg  Mg15      1.0  0.57435  0.22283  0.61969  1.0000
  Mg  Mg16      1.0  0.41802  0.20442  0.91325  1.0000
