data_image0
_chemical_formula_structural       C32O8H8N4B4N4C2OC2OC2OC2OC2OC2OC2OC2OCHCHCHCHCuN4C32O8H8N4B4N4C2OC2OC2OC2OC2OC2OC2OC2OCHCHCHCHCuN4SnCSn2CSnTe4Mg2SnCSn2CSnTe4Mg2SnCSn2CSnTe4Mg2SnCSn2CSnTe4Mg2SnCSn2CSnTe4Mg2SnCSn2CSnTe4Mg2SnCSn2CSnTe4Mg2SnCSn2CSnTe4Mg2
_chemical_formula_sum              "C120 O32 H24 N24 B8 Cu2 Sn32 Te32 Mg16"
_cell_length_a       35.6132
_cell_length_b       35.5983
_cell_length_c       7.80639
_cell_angle_alpha    104.098
_cell_angle_beta     91.3587
_cell_angle_gamma    90.9122

_symmetry_space_group_name_H-M    'P1'
_space_group_IT_number       1

loop_
  _space_group_symop_operation_xyz
  'x, y, z'

loop_
  _atom_site_type_symbol
  _atom_site_label
  _atom_site_symmetry_multiplicity
  _atom_site_fract_x
  _atom_site_fract_y
  _atom_site_fract_z
  _atom_site_occupancy
  C   C1        1.0  0.48328  0.68130  0.25800  1.0000
  C   C2        1.0  0.54293  0.64794  0.26031  1.0000
  C   C3        1.0  0.52067  0.61535  0.25734  1.0000
  C   C4        1.0  0.53176  0.57632  0.25860  1.0000
  C   C5        1.0  0.51660  0.31589  0.25220  1.0000
  C   C6        1.0  0.45720  0.34895  0.24515  1.0000
  C   C7        1.0  0.47993  0.38200  0.25978  1.0000
  C   C8        1.0  0.46856  0.42087  0.25854  1.0000
  C   C9        1.0  0.31726  0.47923  0.23501  1.0000
  C   C10       1.0  0.35202  0.53984  0.25185  1.0000
  C   C11       1.0  0.38417  0.51782  0.24970  1.0000
  C   C12       1.0  0.42333  0.52964  0.25925  1.0000
  C   C13       1.0  0.68339  0.52081  0.25833  1.0000
  C   C14       1.0  0.65090  0.45984  0.26611  1.0000
  C   C15       1.0  0.61767  0.48023  0.26658  1.0000
  C   C16       1.0  0.57859  0.46802  0.26728  1.0000
  C   C17       1.0  0.52291  0.68089  0.26034  1.0000
  C   C18       1.0  0.46092  0.64900  0.25870  1.0000
  C   C19       1.0  0.48115  0.61570  0.25997  1.0000
  C   C20       1.0  0.46949  0.57647  0.26209  1.0000
  C   C21       1.0  0.47704  0.31576  0.24122  1.0000
  C   C22       1.0  0.53940  0.34840  0.26707  1.0000
  C   C23       1.0  0.51977  0.38230  0.26973  1.0000
  C   C24       1.0  0.53188  0.42179  0.27346  1.0000
  C   C25       1.0  0.68349  0.48148  0.26395  1.0000
  C   C26       1.0  0.65052  0.54120  0.25895  1.0000
  C   C27       1.0  0.61756  0.51979  0.26476  1.0000
  C   C28       1.0  0.57835  0.53076  0.26238  1.0000
  C   C29       1.0  0.31873  0.51919  0.24787  1.0000
  C   C30       1.0  0.34902  0.45693  0.22640  1.0000
  C   C31       1.0  0.38322  0.47768  0.24059  1.0000
  C   C32       1.0  0.42246  0.46631  0.24683  1.0000
  O   O1        1.0  0.53661  0.71731  0.25750  1.0000
  O   O2        1.0  0.46331  0.27889  0.23458  1.0000
  O   O3        1.0  0.28273  0.53306  0.25424  1.0000
  O   O4        1.0  0.72028  0.46935  0.26082  1.0000
  O   O5        1.0  0.47208  0.71806  0.25370  1.0000
  O   O6        1.0  0.52810  0.27905  0.25105  1.0000
  O   O7        1.0  0.72007  0.53369  0.24946  1.0000
  O   O8        1.0  0.27983  0.46779  0.23077  1.0000
  H   H1        1.0  0.57319  0.64548  0.25700  1.0000
  H   H2        1.0  0.42681  0.34957  0.23544  1.0000
  H   H3        1.0  0.35345  0.57041  0.25620  1.0000
  H   H4        1.0  0.65006  0.42926  0.26374  1.0000
  H   H5        1.0  0.43042  0.64874  0.25636  1.0000
  H   H6        1.0  0.56985  0.34701  0.27510  1.0000
  H   H7        1.0  0.64955  0.57121  0.25236  1.0000
  H   H8        1.0  0.34713  0.42583  0.20631  1.0000
  N   N1        1.0  0.56738  0.56605  0.25794  1.0000
  N   N2        1.0  0.43270  0.43058  0.24775  1.0000
  N   N3        1.0  0.43391  0.56547  0.26115  1.0000
  N   N4        1.0  0.56793  0.43244  0.27340  1.0000
  B   B1        1.0  0.50504  0.74064  0.25623  1.0000
  B   B2        1.0  0.49515  0.25642  0.24126  1.0000
  B   B3        1.0  0.25862  0.50121  0.24506  1.0000
  B   B4        1.0  0.74255  0.50188  0.25412  1.0000
  N   N5        1.0  0.49524  0.09427  0.23889  1.0000
  N   N6        1.0  0.50243  0.90480  0.26006  1.0000
  N   N7        1.0  0.90488  0.50429  0.24789  1.0000
  N   N8        1.0  0.09600  0.50154  0.22793  1.0000
  C   C33       1.0  0.48089  0.96695  0.26799  1.0000
  C   C34       1.0  0.46301  0.07067  0.25564  1.0000
  O   O9        1.0  0.43068  0.08118  0.27158  1.0000
  C   C35       1.0  0.51672  0.03273  0.23438  1.0000
  C   C36       1.0  0.53446  0.92879  0.23739  1.0000
  O   O10       1.0  0.56715  0.91976  0.21603  1.0000
  C   C37       1.0  0.03288  0.48345  0.25374  1.0000
  C   C38       1.0  0.92780  0.47147  0.25619  1.0000
  O   O11       1.0  0.91700  0.43944  0.26408  1.0000
  C   C39       1.0  0.96811  0.52306  0.24564  1.0000
  C   C40       1.0  0.07364  0.53357  0.21575  1.0000
  O   O12       1.0  0.08370  0.56466  0.19018  1.0000
  C   C41       1.0  0.51969  0.96788  0.24682  1.0000
  C   C42       1.0  0.52837  0.07174  0.21948  1.0000
  O   O13       1.0  0.55993  0.08164  0.18845  1.0000
  C   C43       1.0  0.47765  0.03167  0.25321  1.0000
  C   C44       1.0  0.46943  0.92843  0.29291  1.0000
  O   O14       1.0  0.43846  0.91939  0.33643  1.0000
  C   C45       1.0  0.96738  0.48433  0.25485  1.0000
  C   C46       1.0  0.07193  0.47104  0.26043  1.0000
  O   O15       1.0  0.08233  0.44046  0.29318  1.0000
  C   C47       1.0  0.03394  0.52169  0.23743  1.0000
  C   C48       1.0  0.92856  0.53688  0.24378  1.0000
  O   O16       1.0  0.91944  0.56937  0.23954  1.0000
  C   C49       1.0  0.45816  0.99840  0.26814  1.0000
  H   H9        1.0  0.42787  0.99596  0.28062  1.0000
  C   C50       1.0  0.53931  0.00109  0.23300  1.0000
  H   H10       1.0  0.56968  0.00183  0.22190  1.0000
  C   C51       1.0  0.99966  0.46285  0.25952  1.0000
  H   H11       1.0  0.99953  0.43263  0.26532  1.0000
  C   C52       1.0  0.00154  0.54323  0.23452  1.0000
  H   H12       1.0  0.00188  0.57351  0.22769  1.0000
  Cu  Cu1       1.0  0.50075  0.49869  0.26203  1.0000
  N   N9        1.0  0.50040  0.55371  0.26235  1.0000
  N   N10       1.0  0.50042  0.44406  0.26833  1.0000
  N   N11       1.0  0.44560  0.49838  0.25940  1.0000
  N   N12       1.0  0.55592  0.49891  0.26202  1.0000
  C   C53       1.0  0.47668  0.68296  0.74629  1.0000
  C   C54       1.0  0.53843  0.65321  0.75752  1.0000
  C   C55       1.0  0.51795  0.61958  0.76269  1.0000
  C   C56       1.0  0.52985  0.58094  0.76794  1.0000
  C   C57       1.0  0.52042  0.32086  0.76133  1.0000
  C   C58       1.0  0.45914  0.34977  0.73696  1.0000
  C   C59       1.0  0.47963  0.38348  0.73403  1.0000
  C   C60       1.0  0.46708  0.42185  0.72650  1.0000
  C   C61       1.0  0.31646  0.47800  0.73574  1.0000
  C   C62       1.0  0.34894  0.54020  0.74407  1.0000
  C   C63       1.0  0.38183  0.51880  0.73852  1.0000
  C   C64       1.0  0.42094  0.53112  0.74208  1.0000
  C   C65       1.0  0.68185  0.52231  0.74222  1.0000
  C   C66       1.0  0.64791  0.46317  0.76177  1.0000
  C   C67       1.0  0.61545  0.48498  0.76568  1.0000
  C   C68       1.0  0.57623  0.47308  0.76781  1.0000
  C   C69       1.0  0.51645  0.68449  0.75016  1.0000
  C   C70       1.0  0.45624  0.64972  0.74994  1.0000
  C   C71       1.0  0.47829  0.61815  0.75910  1.0000
  C   C72       1.0  0.46711  0.57892  0.75916  1.0000
  C   C73       1.0  0.48081  0.31839  0.74764  1.0000
  C   C74       1.0  0.54145  0.35403  0.76096  1.0000
  C   C75       1.0  0.51935  0.38543  0.74597  1.0000
  C   C76       1.0  0.53006  0.42483  0.74508  1.0000
  C   C77       1.0  0.68107  0.48304  0.74753  1.0000
  C   C78       1.0  0.64993  0.54464  0.75224  1.0000
  C   C79       1.0  0.61598  0.52459  0.76344  1.0000
  C   C80       1.0  0.57650  0.53578  0.76965  1.0000
  C   C81       1.0  0.31650  0.51806  0.74266  1.0000
  C   C82       1.0  0.34862  0.45680  0.72813  1.0000
  C   C83       1.0  0.38179  0.47841  0.72820  1.0000
  C   C84       1.0  0.42080  0.46693  0.72363  1.0000
  O   O17       1.0  0.52915  0.72140  0.75092  1.0000
  O   O18       1.0  0.46919  0.28106  0.74746  1.0000
  O   O19       1.0  0.27982  0.52989  0.75020  1.0000
  O   O20       1.0  0.71732  0.46961  0.73843  1.0000
  O   O21       1.0  0.46398  0.71907  0.74010  1.0000
  O   O22       1.0  0.53381  0.28531  0.77382  1.0000
  O   O23       1.0  0.71903  0.53354  0.72855  1.0000
  O   O24       1.0  0.28000  0.46433  0.73909  1.0000
  H   H13       1.0  0.56891  0.65372  0.75229  1.0000
  H   H14       1.0  0.42874  0.34900  0.73458  1.0000
  H   H15       1.0  0.34944  0.57113  0.74761  1.0000
  H   H16       1.0  0.64646  0.43305  0.76610  1.0000
  H   H17       1.0  0.42575  0.64786  0.74792  1.0000
  H   H18       1.0  0.57207  0.35598  0.77078  1.0000
  H   H19       1.0  0.65122  0.57531  0.75439  1.0000
  H   H20       1.0  0.34767  0.42607  0.72325  1.0000
  N   N13       1.0  0.56563  0.57118  0.76577  1.0000
  N   N14       1.0  0.43094  0.43087  0.72300  1.0000
  N   N15       1.0  0.43132  0.56761  0.75209  1.0000
  N   N16       1.0  0.56563  0.43681  0.75827  1.0000
  B   B5        1.0  0.49648  0.74249  0.74560  1.0000
  B   B6        1.0  0.50227  0.26053  0.75837  1.0000
  B   B7        1.0  0.25756  0.49669  0.74373  1.0000
  B   B8        1.0  0.74102  0.50119  0.73290  1.0000
  N   N17       1.0  0.50096  0.09575  0.74331  1.0000
  N   N18       1.0  0.49956  0.90477  0.75194  1.0000
  N   N19       1.0  0.90454  0.49927  0.75623  1.0000
  N   N20       1.0  0.09563  0.49764  0.75504  1.0000
  C   C85       1.0  0.48049  0.96700  0.74161  1.0000
  C   C86       1.0  0.46797  0.07189  0.74676  1.0000
  O   O25       1.0  0.43531  0.08151  0.75769  1.0000
  C   C87       1.0  0.52120  0.03317  0.74450  1.0000
  C   C88       1.0  0.53306  0.92787  0.74417  1.0000
  O   O26       1.0  0.56515  0.91771  0.73830  1.0000
  C   C89       1.0  0.03254  0.47864  0.76893  1.0000
  C   C90       1.0  0.92665  0.46618  0.75642  1.0000
  O   O27       1.0  0.91446  0.43377  0.74644  1.0000
  C   C91       1.0  0.96783  0.51644  0.73954  1.0000
  C   C92       1.0  0.07278  0.52932  0.73936  1.0000
  O   O28       1.0  0.08228  0.56108  0.72569  1.0000
  C   C93       1.0  0.51975  0.96726  0.74359  1.0000
  C   C94       1.0  0.53422  0.07279  0.73995  1.0000
  O   O29       1.0  0.56632  0.08337  0.73279  1.0000
  C   C95       1.0  0.48189  0.03251  0.74254  1.0000
  C   C96       1.0  0.46676  0.92768  0.74635  1.0000
  O   O30       1.0  0.43415  0.91834  0.75575  1.0000
  C   C97       1.0  0.96689  0.47864  0.76380  1.0000
  C   C98       1.0  0.07202  0.46730  0.78696  1.0000
  O   O31       1.0  0.08224  0.43767  0.82920  1.0000
  C   C99       1.0  0.03329  0.51614  0.74469  1.0000
  C   C100      1.0  0.92862  0.52979  0.73078  1.0000
  O   O32       1.0  0.91942  0.56096  0.70228  1.0000
  C   C101      1.0  0.45960  0.99973  0.73787  1.0000
  H   H21       1.0  0.42868  0.00098  0.73158  1.0000
  C   C102      1.0  0.54138  0.00011  0.74531  1.0000
  H   H22       1.0  0.57149  0.99920  0.75672  1.0000
  C   C103      1.0  0.99942  0.45823  0.78485  1.0000
  H   H23       1.0  0.00020  0.42928  0.81186  1.0000
  C   C104      1.0  0.00109  0.53671  0.72801  1.0000
  H   H24       1.0  0.00187  0.56588  0.70728  1.0000
  Cu  Cu2       1.0  0.49828  0.50168  0.75088  1.0000
  N   N21       1.0  0.49859  0.55743  0.76902  1.0000
  N   N22       1.0  0.49827  0.44581  0.73057  1.0000
  N   N23       1.0  0.44353  0.49944  0.73228  1.0000
  N   N24       1.0  0.55362  0.50418  0.77342  1.0000
  C  Sn1       1.0  0.45811  0.18715  0.29693  1.0000
  C   C105      1.0  0.48866  0.21215  0.29495  1.0000
  C  Sn2       1.0  0.52428  0.19738  0.25262  1.0000
  C  Sn3       1.0  0.52947  0.15678  0.21129  1.0000
  C   C106      1.0  0.49892  0.13180  0.21325  1.0000
  C  Sn4       1.0  0.46329  0.14655  0.25560  1.0000
  O  Te1       1.0  0.42275  0.20256  0.33963  1.0000
  O  Te2       1.0  0.55441  0.22295  0.25157  1.0000
  O  Te3       1.0  0.56486  0.14138  0.16858  1.0000
  O  Te4       1.0  0.43318  0.12101  0.25664  1.0000
  Mg  Mg1       1.0  0.59715  0.18797  0.18493  1.0000
  Mg  Mg2       1.0  0.39043  0.15595  0.32317  1.0000
  C  Sn5       1.0  0.54039  0.83401  0.19682  1.0000
  C   C107      1.0  0.50913  0.85739  0.20031  1.0000
  C  Sn6       1.0  0.47412  0.84524  0.24642  1.0000
  C  Sn7       1.0  0.47027  0.80898  0.29007  1.0000
  C   C108      1.0  0.50153  0.78563  0.28659  1.0000
  C  Sn8       1.0  0.53655  0.79775  0.24046  1.0000
  O  Te5       1.0  0.57513  0.84673  0.15035  1.0000
  O  Te6       1.0  0.44326  0.86911  0.24892  1.0000
  O  Te7       1.0  0.43550  0.79627  0.33656  1.0000
  O  Te8       1.0  0.56739  0.77390  0.23798  1.0000
  Mg  Mg3       1.0  0.40181  0.83907  0.32088  1.0000
  Mg  Mg4       1.0  0.60886  0.80392  0.16613  1.0000
  C  Sn9       1.0  0.81387  0.53589  0.19464  1.0000
  C   C109      1.0  0.78956  0.50511  0.20146  1.0000
  C  Sn10      1.0  0.80309  0.47280  0.25301  1.0000
  C  Sn11      1.0  0.84171  0.47122  0.29882  1.0000
  C   C110      1.0  0.86599  0.50199  0.29202  1.0000
  C  Sn12      1.0  0.85249  0.53432  0.24045  1.0000
  O  Te9       1.0  0.79973  0.56791  0.14274  1.0000
  O  Te10      1.0  0.77825  0.44237  0.25875  1.0000
  O  Te11      1.0  0.85583  0.43917  0.35074  1.0000
  O  Te12      1.0  0.87730  0.56473  0.23473  1.0000
  Mg  Mg5       1.0  0.81092  0.40501  0.33786  1.0000
  Mg  Mg6       1.0  0.84466  0.60211  0.15573  1.0000
  C  Sn13      1.0  0.18731  0.54075  0.31887  1.0000
  C   C111      1.0  0.21114  0.50921  0.29649  1.0000
  C  Sn14      1.0  0.19733  0.47168  0.22229  1.0000
  C  Sn15      1.0  0.15891  0.46553  0.16923  1.0000
  C   C112      1.0  0.13510  0.49706  0.19158  1.0000
  C  Sn16      1.0  0.14889  0.53461  0.26581  1.0000
  O  Te13      1.0  0.20172  0.57802  0.39334  1.0000
  O  Te14      1.0  0.22170  0.44061  0.20130  1.0000
  O  Te15      1.0  0.14451  0.42822  0.09471  1.0000
  O  Te16      1.0  0.12454  0.56567  0.28677  1.0000
  Mg  Mg7       1.0  0.18879  0.39526  0.09323  1.0000
  Mg  Mg8       1.0  0.15742  0.61102  0.39473  1.0000
  C  Sn17      1.0  0.53922  0.18596  0.71041  1.0000
  C   C113      1.0  0.50843  0.20929  0.70068  1.0000
  C  Sn18      1.0  0.47232  0.19710  0.73200  1.0000
  C  Sn19      1.0  0.46685  0.16086  0.77404  1.0000
  C   C114      1.0  0.49763  0.13756  0.78378  1.0000
  C  Sn20      1.0  0.53376  0.14972  0.75245  1.0000
  O  Te17      1.0  0.57508  0.19873  0.67861  1.0000
  O  Te18      1.0  0.44197  0.22092  0.72145  1.0000
  O  Te19      1.0  0.43096  0.14811  0.80584  1.0000
  O  Te20      1.0  0.56409  0.12593  0.76301  1.0000
  Mg  Mg9       1.0  0.39854  0.19084  0.77592  1.0000
  Mg  Mg10      1.0  0.60753  0.15598  0.70866  1.0000
  C  Sn21      1.0  0.46135  0.83934  0.80738  1.0000
  C   C115      1.0  0.49270  0.86333  0.80544  1.0000
  C  Sn22      1.0  0.52768  0.84734  0.75883  1.0000
  C  Sn23      1.0  0.53139  0.80653  0.71308  1.0000
  C   C116      1.0  0.50005  0.78257  0.71500  1.0000
  C  Sn24      1.0  0.46506  0.79853  0.76164  1.0000
  O  Te21      1.0  0.42665  0.85596  0.85440  1.0000
  O  Te22      1.0  0.55862  0.87191  0.75791  1.0000
  O  Te23      1.0  0.56613  0.78993  0.66605  1.0000
  O  Te24      1.0  0.43413  0.77398  0.76254  1.0000
  Mg  Mg11      1.0  0.59998  0.83546  0.68443  1.0000
  Mg  Mg12      1.0  0.39276  0.81040  0.83591  1.0000
  C  Sn25      1.0  0.81497  0.52927  0.66435  1.0000
  C   C117      1.0  0.78923  0.50061  0.68331  1.0000
  C  Sn26      1.0  0.80074  0.47043  0.75656  1.0000
  C  Sn27      1.0  0.83877  0.46887  0.81212  1.0000
  C   C118      1.0  0.86448  0.49752  0.79318  1.0000
  C  Sn28      1.0  0.85299  0.52771  0.71992  1.0000
  O  Te25      1.0  0.80283  0.55917  0.59078  1.0000
  O  Te26      1.0  0.77450  0.44211  0.77411  1.0000
  O  Te27      1.0  0.85089  0.43894  0.88573  1.0000
  O  Te28      1.0  0.87921  0.55602  0.70238  1.0000
  Mg  Mg13      1.0  0.80462  0.40718  0.88222  1.0000
  Mg  Mg14      1.0  0.84912  0.59098  0.59439  1.0000
  C  Sn29      1.0  0.16322  0.46222  0.78927  1.0000
  C   C119      1.0  0.13941  0.49311  0.79066  1.0000
  C  Sn30      1.0  0.15313  0.52697  0.75166  1.0000
  C  Sn31      1.0  0.19145  0.53001  0.71031  1.0000
  C   C120      1.0  0.21524  0.49913  0.70890  1.0000
  C  Sn32      1.0  0.20154  0.46526  0.74791  1.0000
  O  Te29      1.0  0.14889  0.42865  0.82865  1.0000
  O  Te30      1.0  0.12879  0.55747  0.75395  1.0000
  O  Te31      1.0  0.20577  0.56362  0.67091  1.0000
  O  Te32      1.0  0.22586  0.43477  0.74561  1.0000
  Mg  Mg15      1.0  0.16155  0.59725  0.69108  1.0000
  Mg  Mg16      1.0  0.19313  0.39497  0.80836  1.0000
