data_image0
_chemical_formula_structural       H18C42N12C2Sn2C2HTe2HMgC2Sn2C2HTe2HMgC2Sn2C2HTe2HMg
_chemical_formula_sum              "H24 C54 N12 Sn6 Te6 Mg3"
_cell_length_a       17.9696
_cell_length_b       18.0578
_cell_length_c       7.31469
_cell_angle_alpha    91.6092
_cell_angle_beta     78.9094
_cell_angle_gamma    116.542

_symmetry_space_group_name_H-M    'P1'
_space_group_IT_number       1

loop_
  _space_group_symop_operation_xyz
  'x, y, z'

loop_
  _atom_site_type_symbol
  _atom_site_label
  _atom_site_symmetry_multiplicity
  _atom_site_fract_x
  _atom_site_fract_y
  _atom_site_fract_z
  _atom_site_occupancy
  H   H1        1.0  0.48889  0.17067  0.16573  1.0000
  H   H2        1.0  0.40962  0.01550  0.18379  1.0000
  H   H3        1.0  0.61162  0.99970  0.38548  1.0000
  H   H4        1.0  0.69474  0.15405  0.34596  1.0000
  H   H5        1.0  0.25861  0.77115  0.37955  1.0000
  H   H6        1.0  0.25561  0.54339  0.19002  1.0000
  H   H7        1.0  0.49254  0.75099  0.22585  1.0000
  H   H8        1.0  0.83967  0.28875  0.86236  1.0000
  H   H9        1.0  0.47070  0.13958  0.67263  1.0000
  H   H10       1.0  0.99674  0.36548  0.84559  1.0000
  H   H11       1.0  0.39632  0.98604  0.65781  1.0000
  H   H12       1.0  0.99455  0.59181  0.68590  1.0000
  H   H13       1.0  0.60037  0.96626  0.84295  1.0000
  H   H14       1.0  0.83781  0.51574  0.71302  1.0000
  H   H15       1.0  0.67572  0.12080  0.85076  1.0000
  H   H16       1.0  0.24741  0.73428  0.64250  1.0000
  H   H17       1.0  0.24573  0.50238  0.76325  1.0000
  H   H18       1.0  0.46437  0.73405  0.79623  1.0000
  C   C1        1.0  0.15807  0.59873  0.41526  1.0000
  C   C2        1.0  0.42274  0.59804  0.07025  1.0000
  C   C3        1.0  0.42199  0.84836  0.40864  1.0000
  C   C4        1.0  0.59614  0.17253  0.25803  1.0000
  C   C5        1.0  0.51489  0.13254  0.21389  1.0000
  C   C6        1.0  0.47063  0.04704  0.22566  1.0000
  C   C7        1.0  0.50318  0.99804  0.29680  1.0000
  C   C8        1.0  0.58564  0.03752  0.33578  1.0000
  C   C9        1.0  0.63163  0.12348  0.31358  1.0000
  C   C10       1.0  0.38039  0.77005  0.31067  1.0000
  C   C11       1.0  0.24737  0.65026  0.30849  1.0000
  C   C12       1.0  0.37993  0.64706  0.16974  1.0000
  C   C13       1.0  0.29235  0.73541  0.32543  1.0000
  C   C14       1.0  0.29117  0.60813  0.21746  1.0000
  C   C15       1.0  0.42441  0.72554  0.23469  1.0000
  C   C16       1.0  0.63559  0.38729  0.22599  1.0000
  C   C17       1.0  0.64046  0.26382  0.24940  1.0000
  C   C18       1.0  0.75782  0.38503  0.26414  1.0000
  C   C19       1.0  0.15524  0.57271  0.62017  1.0000
  C   C20       1.0  0.40046  0.57161  0.87953  1.0000
  C   C21       1.0  0.41681  0.83256  0.62038  1.0000
  C   C22       1.0  0.82941  0.39722  0.78310  1.0000
  C   C23       1.0  0.57873  0.14023  0.75729  1.0000
  C   C24       1.0  0.87437  0.35482  0.82283  1.0000
  C   C25       1.0  0.49876  0.10104  0.70811  1.0000
  C   C26       1.0  0.96123  0.39699  0.81258  1.0000
  C   C27       1.0  0.45812  0.01584  0.69674  1.0000
  C   C28       1.0  0.00667  0.48202  0.75133  1.0000
  C   C29       1.0  0.49620  0.96652  0.73848  1.0000
  C   C30       1.0  0.96082  0.52541  0.72250  1.0000
  C   C31       1.0  0.57368  0.00517  0.80169  1.0000
  C   C32       1.0  0.87343  0.48338  0.74033  1.0000
  C   C33       1.0  0.61519  0.09083  0.80615  1.0000
  C   C34       1.0  0.36461  0.74371  0.69425  1.0000
  C   C35       1.0  0.23829  0.61339  0.68587  1.0000
  C   C36       1.0  0.35572  0.61379  0.80461  1.0000
  C   C37       1.0  0.28005  0.70004  0.67579  1.0000
  C   C38       1.0  0.27703  0.56984  0.75150  1.0000
  C   C39       1.0  0.40028  0.70020  0.77029  1.0000
  C   C40       1.0  0.61837  0.35512  0.72889  1.0000
  C   C41       1.0  0.62194  0.23133  0.75774  1.0000
  C   C42       1.0  0.73904  0.35226  0.77406  1.0000
  N   N1        1.0  0.10150  0.57963  0.31511  1.0000
  N   N2        1.0  0.46846  0.58515  0.17003  1.0000
  N   N3        1.0  0.45583  0.91407  0.29858  1.0000
  N   N4        1.0  0.71692  0.43028  0.24372  1.0000
  N   N5        1.0  0.59499  0.30410  0.22343  1.0000
  N   N6        1.0  0.72191  0.30128  0.27164  1.0000
  N   N7        1.0  0.09284  0.52033  0.74250  1.0000
  N   N8        1.0  0.41578  0.52219  0.76360  1.0000
  N   N9        1.0  0.45573  0.88153  0.73990  1.0000
  N   N10       1.0  0.69956  0.39817  0.74786  1.0000
  N   N11       1.0  0.57753  0.27188  0.72777  1.0000
  N   N12       1.0  0.70234  0.26846  0.78561  1.0000
  C   C43       1.0  0.95223  0.56548  0.24132  1.0000
  C   C44       1.0  0.00709  0.54021  0.30138  1.0000
  C  Sn1       1.0  0.98082  0.45634  0.34579  1.0000
  C  Sn2       1.0  0.89806  0.39680  0.32958  1.0000
  C   C45       1.0  0.84368  0.42270  0.26925  1.0000
  C   C46       1.0  0.87061  0.50679  0.22523  1.0000
  H   H19       1.0  0.97307  0.63054  0.20716  1.0000
  O  Te1       1.0  0.03642  0.43216  0.40565  1.0000
  O  Te2       1.0  0.87019  0.31257  0.37299  1.0000
  H   H20       1.0  0.82814  0.52634  0.17862  1.0000
  Mg  Mg1       1.0  0.96919  0.31020  0.44858  1.0000
  C   C47       1.0  0.48835  0.40094  0.15965  1.0000
  C   C48       1.0  0.56923  0.42537  0.19680  1.0000
  C  Sn3       1.0  0.61791  0.50715  0.23689  1.0000
  C  Sn4       1.0  0.58484  0.56541  0.23980  1.0000
  C   C49       1.0  0.50383  0.54034  0.20258  1.0000
  C   C50       1.0  0.45566  0.45836  0.16256  1.0000
  H   H21       1.0  0.45105  0.33750  0.12879  1.0000
  O  Te3       1.0  0.69861  0.53052  0.27362  1.0000
  O  Te4       1.0  0.63213  0.64753  0.27954  1.0000
  H   H22       1.0  0.39302  0.43945  0.13393  1.0000
  Mg  Mg2       1.0  0.73877  0.64952  0.32037  1.0000
  C   C51       1.0  0.44021  0.38382  0.68061  1.0000
  C   C52       1.0  0.45937  0.46451  0.73186  1.0000
  C  Sn5       1.0  0.53944  0.51652  0.76866  1.0000
  C  Sn6       1.0  0.60136  0.48702  0.75371  1.0000
  C   C53       1.0  0.58159  0.40622  0.70221  1.0000
  C   C54       1.0  0.50126  0.35469  0.66576  1.0000
  H   H23       1.0  0.37807  0.34396  0.65230  1.0000
  O  Te5       1.0  0.55752  0.59695  0.81977  1.0000
  O  Te6       1.0  0.68190  0.53770  0.78963  1.0000
  H   H24       1.0  0.48646  0.29224  0.62596  1.0000
  Mg  Mg3       1.0  0.67625  0.64250  0.85465  1.0000
