data_image0
_chemical_formula_structural       H6C24N12C2Sn2C2HTe2HMgC2Sn2C2HTe2HMgC2Sn2C2HTe2HMgC2Sn2C2HTe2HMgC2Sn2C2HTe2HMgC2Sn2C2HTe2HMg
_chemical_formula_sum              "H18 C48 N12 Sn12 Te12 Mg6"
_cell_length_a       17.9696
_cell_length_b       18.0578
_cell_length_c       7.31469
_cell_angle_alpha    91.6092
_cell_angle_beta     78.9094
_cell_angle_gamma    116.542

_symmetry_space_group_name_H-M    'P1'
_space_group_IT_number       1

loop_
  _space_group_symop_operation_xyz
  'x, y, z'

loop_
  _atom_site_type_symbol
  _atom_site_label
  _atom_site_symmetry_multiplicity
  _atom_site_fract_x
  _atom_site_fract_y
  _atom_site_fract_z
  _atom_site_occupancy
  H   H1        1.0  0.25861  0.77115  0.37955  1.0000
  H   H2        1.0  0.25561  0.54339  0.19002  1.0000
  H   H3        1.0  0.49254  0.75099  0.22585  1.0000
  H   H4        1.0  0.24741  0.73428  0.64250  1.0000
  H   H5        1.0  0.24573  0.50238  0.76325  1.0000
  H   H6        1.0  0.46437  0.73405  0.79623  1.0000
  C   C1        1.0  0.15807  0.59873  0.41526  1.0000
  C   C2        1.0  0.42274  0.59804  0.07025  1.0000
  C   C3        1.0  0.42199  0.84836  0.40864  1.0000
  C   C4        1.0  0.38039  0.77005  0.31067  1.0000
  C   C5        1.0  0.24737  0.65026  0.30849  1.0000
  C   C6        1.0  0.37993  0.64706  0.16974  1.0000
  C   C7        1.0  0.29235  0.73541  0.32543  1.0000
  C   C8        1.0  0.29117  0.60813  0.21746  1.0000
  C   C9        1.0  0.42441  0.72554  0.23469  1.0000
  C   C10       1.0  0.63559  0.38729  0.22599  1.0000
  C   C11       1.0  0.64046  0.26382  0.24940  1.0000
  C   C12       1.0  0.75782  0.38503  0.26414  1.0000
  C   C13       1.0  0.15524  0.57271  0.62017  1.0000
  C   C14       1.0  0.40046  0.57161  0.87953  1.0000
  C   C15       1.0  0.41681  0.83256  0.62038  1.0000
  C   C16       1.0  0.36461  0.74371  0.69425  1.0000
  C   C17       1.0  0.23829  0.61339  0.68587  1.0000
  C   C18       1.0  0.35572  0.61379  0.80461  1.0000
  C   C19       1.0  0.28005  0.70004  0.67579  1.0000
  C   C20       1.0  0.27703  0.56984  0.75150  1.0000
  C   C21       1.0  0.40028  0.70020  0.77029  1.0000
  C   C22       1.0  0.61837  0.35512  0.72889  1.0000
  C   C23       1.0  0.62194  0.23133  0.75774  1.0000
  C   C24       1.0  0.73904  0.35226  0.77406  1.0000
  N   N1        1.0  0.10150  0.57963  0.31511  1.0000
  N   N2        1.0  0.46846  0.58515  0.17003  1.0000
  N   N3        1.0  0.45583  0.91407  0.29858  1.0000
  N   N4        1.0  0.71692  0.43028  0.24372  1.0000
  N   N5        1.0  0.59499  0.30410  0.22343  1.0000
  N   N6        1.0  0.72191  0.30128  0.27164  1.0000
  N   N7        1.0  0.09284  0.52033  0.74250  1.0000
  N   N8        1.0  0.41578  0.52219  0.76360  1.0000
  N   N9        1.0  0.45573  0.88153  0.73990  1.0000
  N   N10       1.0  0.69956  0.39817  0.74786  1.0000
  N   N11       1.0  0.57753  0.27188  0.72777  1.0000
  N   N12       1.0  0.70234  0.26846  0.78561  1.0000
  C   C25       1.0  0.95897  0.42086  0.35692  1.0000
  C   C26       1.0  0.01053  0.50592  0.31667  1.0000
  C  Sn1       1.0  0.97724  0.55634  0.26120  1.0000
  C  Sn2       1.0  0.89071  0.52077  0.24592  1.0000
  C   C27       1.0  0.83964  0.43562  0.28663  1.0000
  C   C28       1.0  0.87361  0.38573  0.34196  1.0000
  H   H7        1.0  0.98523  0.38227  0.39983  1.0000
  O  Te1       1.0  0.02965  0.64120  0.22144  1.0000
  O  Te2       1.0  0.85580  0.56973  0.19085  1.0000
  H   H8        1.0  0.83366  0.31989  0.37323  1.0000
  Mg  Mg1       1.0  0.95276  0.68220  0.15172  1.0000
  C   C29       1.0  0.46818  0.42804  0.13855  1.0000
  C   C30       1.0  0.49203  0.51076  0.17875  1.0000
  C  Sn3       1.0  0.56964  0.55818  0.23193  1.0000
  C  Sn4       1.0  0.62425  0.52195  0.24494  1.0000
  C   C31       1.0  0.59982  0.43916  0.20430  1.0000
  C   C32       1.0  0.52202  0.39227  0.15127  1.0000
  H   H9        1.0  0.40800  0.39177  0.09742  1.0000
  O  Te3       1.0  0.59247  0.64072  0.27167  1.0000
  O  Te4       1.0  0.70218  0.56794  0.29770  1.0000
  H   H10       1.0  0.50359  0.32824  0.12004  1.0000
  Mg  Mg2       1.0  0.70510  0.67803  0.33777  1.0000
  C   C33       1.0  0.47026  0.06740  0.21986  1.0000
  C   C34       1.0  0.49728  0.00898  0.25795  1.0000
  C  Sn5       1.0  0.57602  0.03460  0.30771  1.0000
  C  Sn6       1.0  0.62852  0.12035  0.31950  1.0000
  C   C35       1.0  0.60087  0.17830  0.28125  1.0000
  C   C36       1.0  0.52198  0.15198  0.23153  1.0000
  H   H11       1.0  0.40920  0.04704  0.18148  1.0000
  O  Te5       1.0  0.05111  0.97541  0.34524  1.0000
  O  Te6       1.0  0.70749  0.14766  0.36899  1.0000
  H   H12       1.0  0.50105  0.19722  0.20216  1.0000
  Mg  Mg3       1.0  0.71501  0.04327  0.40696  1.0000
  C   C37       1.0  0.94113  0.37731  0.82634  1.0000
  C   C38       1.0  0.99653  0.46025  0.76887  1.0000
  C  Sn7       1.0  0.96498  0.51414  0.72504  1.0000
  C  Sn8       1.0  0.87629  0.48427  0.73918  1.0000
  C   C39       1.0  0.82139  0.40120  0.79693  1.0000
  C   C40       1.0  0.85364  0.34780  0.84040  1.0000
  H   H13       1.0  0.96608  0.33600  0.86007  1.0000
  O  Te7       1.0  0.02122  0.59682  0.66778  1.0000
  O  Te8       1.0  0.84304  0.53680  0.69629  1.0000
  H   H14       1.0  0.81073  0.28359  0.88500  1.0000
  Mg  Mg4       1.0  0.94532  0.64434  0.62457  1.0000
  C   C41       1.0  0.44021  0.38382  0.68061  1.0000
  C   C42       1.0  0.45937  0.46451  0.73186  1.0000
  C  Sn9       1.0  0.53944  0.51652  0.76866  1.0000
  C  Sn10      1.0  0.60136  0.48702  0.75371  1.0000
  C   C43       1.0  0.58159  0.40622  0.70221  1.0000
  C   C44       1.0  0.50126  0.35469  0.66576  1.0000
  H   H15       1.0  0.37807  0.34396  0.65230  1.0000
  O  Te9       1.0  0.55752  0.59695  0.81977  1.0000
  O  Te10      1.0  0.68190  0.53770  0.78963  1.0000
  H   H16       1.0  0.48646  0.29224  0.62596  1.0000
  Mg  Mg5       1.0  0.67625  0.64250  0.85465  1.0000
  C   C45       1.0  0.59365  0.02399  0.80611  1.0000
  C   C46       1.0  0.96152  0.97423  0.77208  1.0000
  C  Sn11      1.0  0.46452  0.01046  0.72092  1.0000
  C  Sn12      1.0  0.49866  0.09815  0.70356  1.0000
  C   C47       1.0  0.57996  0.14739  0.73778  1.0000
  C   C48       1.0  0.62738  0.11049  0.78895  1.0000
  H   H17       1.0  0.63036  0.99545  0.84561  1.0000
  O  Te11      1.0  0.83256  0.95983  0.68750  1.0000
  O  Te12      1.0  0.45212  0.13599  0.65256  1.0000
  H   H18       1.0  0.69025  0.14904  0.81517  1.0000
  Mg  Mg6       1.0  0.34467  0.04057  0.62167  1.0000
