data_image0
_chemical_formula_structural       H6C24N12SnCSn2CSnTe4Mg2SnCSn2CSnTe4Mg2SnCSn2CSnTe4Mg2SnCSn2CSnTe4Mg2SnCSn2CSnTe4Mg2SnCSn2CSnTe4Mg2
_chemical_formula_sum              "H6 C36 N12 Sn24 Te24 Mg12"
_cell_length_a       17.9696
_cell_length_b       18.0578
_cell_length_c       7.31469
_cell_angle_alpha    91.6092
_cell_angle_beta     78.9094
_cell_angle_gamma    116.542

_symmetry_space_group_name_H-M    'P1'
_space_group_IT_number       1

loop_
  _space_group_symop_operation_xyz
  'x, y, z'

loop_
  _atom_site_type_symbol
  _atom_site_label
  _atom_site_symmetry_multiplicity
  _atom_site_fract_x
  _atom_site_fract_y
  _atom_site_fract_z
  _atom_site_occupancy
  H   H1        1.0  0.25861  0.77115  0.37955  1.0000
  H   H2        1.0  0.25561  0.54339  0.19002  1.0000
  H   H3        1.0  0.49254  0.75099  0.22585  1.0000
  H   H4        1.0  0.24741  0.73428  0.64250  1.0000
  H   H5        1.0  0.24573  0.50238  0.76325  1.0000
  H   H6        1.0  0.46437  0.73405  0.79623  1.0000
  C   C1        1.0  0.15807  0.59873  0.41526  1.0000
  C   C2        1.0  0.42274  0.59804  0.07025  1.0000
  C   C3        1.0  0.42199  0.84836  0.40864  1.0000
  C   C4        1.0  0.38039  0.77005  0.31067  1.0000
  C   C5        1.0  0.24737  0.65026  0.30849  1.0000
  C   C6        1.0  0.37993  0.64706  0.16974  1.0000
  C   C7        1.0  0.29235  0.73541  0.32543  1.0000
  C   C8        1.0  0.29117  0.60813  0.21746  1.0000
  C   C9        1.0  0.42441  0.72554  0.23469  1.0000
  C   C10       1.0  0.63559  0.38729  0.22599  1.0000
  C   C11       1.0  0.64046  0.26382  0.24940  1.0000
  C   C12       1.0  0.75782  0.38503  0.26414  1.0000
  C   C13       1.0  0.15524  0.57271  0.62017  1.0000
  C   C14       1.0  0.40046  0.57161  0.87953  1.0000
  C   C15       1.0  0.41681  0.83256  0.62038  1.0000
  C   C16       1.0  0.36461  0.74371  0.69425  1.0000
  C   C17       1.0  0.23829  0.61339  0.68587  1.0000
  C   C18       1.0  0.35572  0.61379  0.80461  1.0000
  C   C19       1.0  0.28005  0.70004  0.67579  1.0000
  C   C20       1.0  0.27703  0.56984  0.75150  1.0000
  C   C21       1.0  0.40028  0.70020  0.77029  1.0000
  C   C22       1.0  0.61837  0.35512  0.72889  1.0000
  C   C23       1.0  0.62194  0.23133  0.75774  1.0000
  C   C24       1.0  0.73904  0.35226  0.77406  1.0000
  N   N1        1.0  0.10150  0.57963  0.31511  1.0000
  N   N2        1.0  0.46846  0.58515  0.17003  1.0000
  N   N3        1.0  0.45583  0.91407  0.29858  1.0000
  N   N4        1.0  0.71692  0.43028  0.24372  1.0000
  N   N5        1.0  0.59499  0.30410  0.22343  1.0000
  N   N6        1.0  0.72191  0.30128  0.27164  1.0000
  N   N7        1.0  0.09284  0.52033  0.74250  1.0000
  N   N8        1.0  0.41578  0.52219  0.76360  1.0000
  N   N9        1.0  0.45573  0.88153  0.73990  1.0000
  N   N10       1.0  0.69956  0.39817  0.74786  1.0000
  N   N11       1.0  0.57753  0.27188  0.72777  1.0000
  N   N12       1.0  0.70234  0.26846  0.78561  1.0000
  C  Sn1       1.0  0.90437  0.40250  0.39067  1.0000
  C   C25       1.0  0.85074  0.42944  0.33052  1.0000
  C  Sn2       1.0  0.88382  0.50822  0.24115  1.0000
  C  Sn3       1.0  0.97237  0.56116  0.21116  1.0000
  C   C26       1.0  0.02594  0.53420  0.27126  1.0000
  C  Sn4       1.0  0.99291  0.45544  0.36068  1.0000
  O  Te1       1.0  0.86991  0.32349  0.47970  1.0000
  O  Te2       1.0  0.82894  0.53379  0.18233  1.0000
  O  Te3       1.0  0.00680  0.64021  0.12205  1.0000
  O  Te4       1.0  0.04774  0.42986  0.41945  1.0000
  Mg  Mg1       1.0  0.90621  0.64691  0.06741  1.0000
  Mg  Mg2       1.0  0.97055  0.31674  0.53430  1.0000
  C  Sn5       1.0  0.61033  0.52923  0.30246  1.0000
  C   C27       1.0  0.58420  0.44593  0.26502  1.0000
  C  Sn6       1.0  0.51883  0.40577  0.16713  1.0000
  C  Sn7       1.0  0.47878  0.44980  0.10527  1.0000
  C   C28       1.0  0.50493  0.53305  0.14268  1.0000
  C  Sn8       1.0  0.57028  0.57325  0.24059  1.0000
  O  Te5       1.0  0.67581  0.56813  0.40054  1.0000
  O  Te6       1.0  0.49379  0.32246  0.13143  1.0000
  O  Te7       1.0  0.41326  0.41082  0.00712  1.0000
  O  Te8       1.0  0.59533  0.65652  0.27627  1.0000
  Mg  Mg3       1.0  0.31022  0.26736  0.99254  1.0000
  Mg  Mg4       1.0  0.68746  0.68240  0.41505  1.0000
  C  Sn9       1.0  0.59014  0.05706  0.38885  1.0000
  C   C29       1.0  0.50946  0.00810  0.35129  1.0000
  C  Sn10      1.0  0.47373  0.04142  0.24432  1.0000
  C  Sn11      1.0  0.51961  0.12541  0.17332  1.0000
  C   C30       1.0  0.60024  0.17431  0.21086  1.0000
  C  Sn12      1.0  0.63602  0.14105  0.31784  1.0000
  O  Te9       1.0  0.62462  0.02246  0.49609  1.0000
  O  Te10      1.0  0.84200  0.99127  0.20868  1.0000
  O  Te11      1.0  0.48505  0.15998  0.06601  1.0000
  O  Te12      1.0  0.71674  0.19115  0.35346  1.0000
  Mg  Mg5       1.0  0.37301  0.06673  0.05540  1.0000
  Mg  Mg6       1.0  0.73677  0.11573  0.50664  1.0000
  C  Sn13      1.0  0.89533  0.49228  0.67917  1.0000
  C   C31       1.0  0.84147  0.40875  0.73410  1.0000
  C  Sn14      1.0  0.86960  0.36140  0.82281  1.0000
  C  Sn15      1.0  0.95330  0.39832  0.85745  1.0000
  C   C32       1.0  0.00710  0.48180  0.80257  1.0000
  C  Sn16      1.0  0.97903  0.52920  0.71382  1.0000
  O  Te13      1.0  0.86587  0.53844  0.59071  1.0000
  O  Te14      1.0  0.81461  0.27801  0.87637  1.0000
  O  Te15      1.0  0.98274  0.35208  0.94599  1.0000
  O  Te16      1.0  0.03397  0.61255  0.66030  1.0000
  Mg  Mg7       1.0  0.88406  0.24085  0.99263  1.0000
  Mg  Mg8       1.0  0.96457  0.64978  0.54413  1.0000
  C  Sn17      1.0  0.58944  0.49283  0.81181  1.0000
  C   C33       1.0  0.56815  0.41142  0.76339  1.0000
  C  Sn18      1.0  0.49799  0.36784  0.68099  1.0000
  C  Sn19      1.0  0.44808  0.40645  0.64615  1.0000
  C   C34       1.0  0.46939  0.48781  0.69453  1.0000
  C  Sn20      1.0  0.53954  0.53143  0.77697  1.0000
  O  Te17      1.0  0.65986  0.53522  0.89404  1.0000
  O  Te18      1.0  0.47794  0.28651  0.63386  1.0000
  O  Te19      1.0  0.37761  0.36397  0.56386  1.0000
  O  Te20      1.0  0.55960  0.61272  0.82405  1.0000
  Mg  Mg9       1.0  0.37596  0.25439  0.52467  1.0000
  Mg  Mg10      1.0  0.66159  0.64491  0.93316  1.0000
  C  Sn21      1.0  0.47320  0.08111  0.75600  1.0000
  C   C35       1.0  0.55198  0.12922  0.80354  1.0000
  C  Sn22      1.0  0.60808  0.09553  0.80861  1.0000
  C  Sn23      1.0  0.58498  0.01203  0.76514  1.0000
  C   C36       1.0  0.95530  0.96397  0.71759  1.0000
  C  Sn24      1.0  0.45011  0.99761  0.71252  1.0000
  O  Te21      1.0  0.41812  0.11607  0.75181  1.0000
  O  Te22      1.0  0.68647  0.14484  0.85660  1.0000
  O  Te23      1.0  0.08919  0.97709  0.76937  1.0000
  O  Te24      1.0  0.82081  0.94835  0.66453  1.0000
  Mg  Mg11      1.0  0.73978  0.06917  0.84278  1.0000
  Mg  Mg12      1.0  0.31843  0.02397  0.67821  1.0000
