data_image0
_chemical_formula_structural       H18C42N12SnCSn2CSnTe4Mg2SnCSn2CSnTe4Mg2SnCSn2CSnTe4Mg2
_chemical_formula_sum              "H18 C48 N12 Sn12 Te12 Mg6"
_cell_length_a       17.9696
_cell_length_b       18.0578
_cell_length_c       7.31469
_cell_angle_alpha    91.6092
_cell_angle_beta     78.9094
_cell_angle_gamma    116.542

_symmetry_space_group_name_H-M    'P1'
_space_group_IT_number       1

loop_
  _space_group_symop_operation_xyz
  'x, y, z'

loop_
  _atom_site_type_symbol
  _atom_site_label
  _atom_site_symmetry_multiplicity
  _atom_site_fract_x
  _atom_site_fract_y
  _atom_site_fract_z
  _atom_site_occupancy
  H   H1        1.0  0.86415  0.32751  0.35586  1.0000
  H   H2        1.0  0.01376  0.41195  0.39145  1.0000
  H   H3        1.0  0.00328  0.63297  0.22268  1.0000
  H   H4        1.0  0.85079  0.54774  0.20209  1.0000
  H   H5        1.0  0.25861  0.77115  0.37955  1.0000
  H   H6        1.0  0.25561  0.54339  0.19002  1.0000
  H   H7        1.0  0.49254  0.75099  0.22585  1.0000
  H   H8        1.0  0.83967  0.28875  0.86236  1.0000
  H   H9        1.0  0.47070  0.13958  0.67263  1.0000
  H   H10       1.0  0.99674  0.36548  0.84559  1.0000
  H   H11       1.0  0.39632  0.98604  0.65781  1.0000
  H   H12       1.0  0.99455  0.59181  0.68590  1.0000
  H   H13       1.0  0.60037  0.96626  0.84295  1.0000
  H   H14       1.0  0.83781  0.51574  0.71302  1.0000
  H   H15       1.0  0.67572  0.12080  0.85076  1.0000
  H   H16       1.0  0.24741  0.73428  0.64250  1.0000
  H   H17       1.0  0.24573  0.50238  0.76325  1.0000
  H   H18       1.0  0.46437  0.73405  0.79623  1.0000
  C   C1        1.0  0.15807  0.59873  0.41526  1.0000
  C   C2        1.0  0.42274  0.59804  0.07025  1.0000
  C   C3        1.0  0.42199  0.84836  0.40864  1.0000
  C   C4        1.0  0.84745  0.43241  0.27926  1.0000
  C   C5        1.0  0.89473  0.39454  0.32867  1.0000
  C   C6        1.0  0.97813  0.44157  0.34958  1.0000
  C   C7        1.0  0.01764  0.52875  0.31610  1.0000
  C   C8        1.0  0.97147  0.56635  0.25581  1.0000
  C   C9        1.0  0.88760  0.51924  0.24291  1.0000
  C   C10       1.0  0.38039  0.77005  0.31067  1.0000
  C   C11       1.0  0.24737  0.65026  0.30849  1.0000
  C   C12       1.0  0.37993  0.64706  0.16974  1.0000
  C   C13       1.0  0.29235  0.73541  0.32543  1.0000
  C   C14       1.0  0.29117  0.60813  0.21746  1.0000
  C   C15       1.0  0.42441  0.72554  0.23469  1.0000
  C   C16       1.0  0.63559  0.38729  0.22599  1.0000
  C   C17       1.0  0.64046  0.26382  0.24940  1.0000
  C   C18       1.0  0.75782  0.38503  0.26414  1.0000
  C   C19       1.0  0.15524  0.57271  0.62017  1.0000
  C   C20       1.0  0.40046  0.57161  0.87953  1.0000
  C   C21       1.0  0.41681  0.83256  0.62038  1.0000
  C   C22       1.0  0.82941  0.39722  0.78310  1.0000
  C   C23       1.0  0.57873  0.14023  0.75729  1.0000
  C   C24       1.0  0.87437  0.35482  0.82283  1.0000
  C   C25       1.0  0.49876  0.10104  0.70811  1.0000
  C   C26       1.0  0.96123  0.39699  0.81258  1.0000
  C   C27       1.0  0.45812  0.01584  0.69674  1.0000
  C   C28       1.0  0.00667  0.48202  0.75133  1.0000
  C   C29       1.0  0.49620  0.96652  0.73848  1.0000
  C   C30       1.0  0.96082  0.52541  0.72250  1.0000
  C   C31       1.0  0.57368  0.00517  0.80169  1.0000
  C   C32       1.0  0.87343  0.48338  0.74033  1.0000
  C   C33       1.0  0.61519  0.09083  0.80615  1.0000
  C   C34       1.0  0.36461  0.74371  0.69425  1.0000
  C   C35       1.0  0.23829  0.61339  0.68587  1.0000
  C   C36       1.0  0.35572  0.61379  0.80461  1.0000
  C   C37       1.0  0.28005  0.70004  0.67579  1.0000
  C   C38       1.0  0.27703  0.56984  0.75150  1.0000
  C   C39       1.0  0.40028  0.70020  0.77029  1.0000
  C   C40       1.0  0.61837  0.35512  0.72889  1.0000
  C   C41       1.0  0.62194  0.23133  0.75774  1.0000
  C   C42       1.0  0.73904  0.35226  0.77406  1.0000
  N   N1        1.0  0.10150  0.57963  0.31511  1.0000
  N   N2        1.0  0.46846  0.58515  0.17003  1.0000
  N   N3        1.0  0.45583  0.91407  0.29858  1.0000
  N   N4        1.0  0.71692  0.43028  0.24372  1.0000
  N   N5        1.0  0.59499  0.30410  0.22343  1.0000
  N   N6        1.0  0.72191  0.30128  0.27164  1.0000
  N   N7        1.0  0.09284  0.52033  0.74250  1.0000
  N   N8        1.0  0.41578  0.52219  0.76360  1.0000
  N   N9        1.0  0.45573  0.88153  0.73990  1.0000
  N   N10       1.0  0.69956  0.39817  0.74786  1.0000
  N   N11       1.0  0.57753  0.27188  0.72777  1.0000
  N   N12       1.0  0.70234  0.26846  0.78561  1.0000
  C  Sn1       1.0  0.57789  0.53112  0.71336  1.0000
  C   C43       1.0  0.49333  0.49945  0.69475  1.0000
  C  Sn2       1.0  0.44259  0.41386  0.70055  1.0000
  C  Sn3       1.0  0.47706  0.35877  0.72561  1.0000
  C   C44       1.0  0.56156  0.39044  0.74424  1.0000
  C  Sn4       1.0  0.61236  0.47603  0.73842  1.0000
  O  Te1       1.0  0.62745  0.61691  0.70715  1.0000
  O  Te2       1.0  0.35824  0.38366  0.68156  1.0000
  O  Te3       1.0  0.42742  0.27292  0.73181  1.0000
  O  Te4       1.0  0.69666  0.50623  0.75743  1.0000
  Mg  Mg1       1.0  0.31612  0.26183  0.69946  1.0000
  Mg  Mg2       1.0  0.73882  0.62804  0.73965  1.0000
  C  Sn5       1.0  0.50664  0.41141  0.10443  1.0000
  C   C45       1.0  0.58382  0.43544  0.16070  1.0000
  C  Sn6       1.0  0.61998  0.50949  0.24783  1.0000
  C  Sn7       1.0  0.57811  0.56056  0.27949  1.0000
  C   C46       1.0  0.50097  0.53652  0.22326  1.0000
  C  Sn8       1.0  0.46476  0.46248  0.13609  1.0000
  O  Te5       1.0  0.47164  0.33712  0.01759  1.0000
  O  Te6       1.0  0.69721  0.53222  0.30278  1.0000
  O  Te7       1.0  0.61317  0.63490  0.36640  1.0000
  O  Te8       1.0  0.38757  0.43973  0.08118  1.0000
  Mg  Mg3       1.0  0.71945  0.63914  0.41591  1.0000
  Mg  Mg4       1.0  0.27381  0.30353  0.96814  1.0000
  C  Sn9       1.0  0.63717  0.10315  0.26990  1.0000
  C   C47       1.0  0.61302  0.16038  0.20936  1.0000
  C  Sn10      1.0  0.52814  0.13658  0.20343  1.0000
  C  Sn11      1.0  0.46610  0.05386  0.25930  1.0000
  C   C48       1.0  0.49026  0.99669  0.31983  1.0000
  C  Sn12      1.0  0.57513  0.02044  0.32577  1.0000
  O  Te9       1.0  0.72239  0.12831  0.27470  1.0000
  O  Te10      1.0  0.50553  0.19489  0.14233  1.0000
  O  Te11      1.0  0.38084  0.02873  0.25445  1.0000
  O  Te12      1.0  0.04680  0.96218  0.38686  1.0000
  Mg  Mg5       1.0  0.38139  0.13078  0.16073  1.0000
  Mg  Mg6       1.0  0.72186  0.02623  0.36860  1.0000
