data_image0
_chemical_formula_structural       H120C150N24SnCSn2CSnTe4Mg2SnCSn2CSnTe4Mg2SnCSn2CSnTe4Mg2
_chemical_formula_sum              "H120 C156 N24 Sn12 Te12 Mg6"
_cell_length_a       36.235
_cell_length_b       36.0655
_cell_length_c       8.27373
_cell_angle_alpha    80.5569
_cell_angle_beta     115.928
_cell_angle_gamma    119.677

_symmetry_space_group_name_H-M    'P1'
_space_group_IT_number       1

loop_
  _space_group_symop_operation_xyz
  'x, y, z'

loop_
  _atom_site_type_symbol
  _atom_site_label
  _atom_site_symmetry_multiplicity
  _atom_site_fract_x
  _atom_site_fract_y
  _atom_site_fract_z
  _atom_site_occupancy
  H   H1        1.0  0.83418  0.38136  0.25639  1.0000
  H   H2        1.0  0.61412  0.45031  0.25759  1.0000
  H   H3        1.0  0.54979  0.16042  0.24805  1.0000
  H   H4        1.0  0.16273  0.60654  0.27967  1.0000
  H   H5        1.0  0.39526  0.55436  0.28222  1.0000
  H   H6        1.0  0.44276  0.83513  0.23009  1.0000
  H   H7        1.0  0.82997  0.49995  0.18785  1.0000
  H   H8        1.0  0.48767  0.33358  0.18597  1.0000
  H   H9        1.0  0.65687  0.16133  0.14595  1.0000
  H   H10       1.0  0.15738  0.48969  0.18928  1.0000
  H   H11       1.0  0.49373  0.67101  0.15539  1.0000
  H   H12       1.0  0.32492  0.83523  0.23406  1.0000
  H   H13       1.0  0.75352  0.46508  0.19817  1.0000
  H   H14       1.0  0.52144  0.29107  0.16941  1.0000
  H   H15       1.0  0.69805  0.24015  0.15994  1.0000
  H   H16       1.0  0.23406  0.52893  0.17976  1.0000
  H   H17       1.0  0.45250  0.70902  0.15355  1.0000
  H   H18       1.0  0.28414  0.75751  0.22781  1.0000
  H   H19       1.0  0.73741  0.28348  0.41010  1.0000
  H   H20       1.0  0.72835  0.44882  0.37837  1.0000
  H   H21       1.0  0.55412  0.26345  0.34455  1.0000
  H   H22       1.0  0.27377  0.71433  0.38588  1.0000
  H   H23       1.0  0.29931  0.55202  0.38858  1.0000
  H   H24       1.0  0.45288  0.72700  0.39805  1.0000
  H   H25       1.0  0.79054  0.33090  0.50005  1.0000
  H   H26       1.0  0.68899  0.45099  0.43865  1.0000
  H   H27       1.0  0.55027  0.21272  0.37810  1.0000
  H   H28       1.0  0.22805  0.67011  0.42219  1.0000
  H   H29       1.0  0.35007  0.54873  0.44435  1.0000
  H   H30       1.0  0.45445  0.76937  0.48437  1.0000
  H   H31       1.0  0.81859  0.31899  0.29473  1.0000
  H   H32       1.0  0.71406  0.51567  0.29745  1.0000
  H   H33       1.0  0.47357  0.20647  0.14701  1.0000
  H   H34       1.0  0.19270  0.71156  0.21819  1.0000
  H   H35       1.0  0.27605  0.48309  0.25760  1.0000
  H   H36       1.0  0.48337  0.81371  0.23020  1.0000
  H   H37       1.0  0.76441  0.27261  0.19076  1.0000
  H   H38       1.0  0.65982  0.48197  0.12301  1.0000
  H   H39       1.0  0.49839  0.18939  0.05097  1.0000
  H   H40       1.0  0.17348  0.66570  0.08868  1.0000
  H   H41       1.0  0.31650  0.50800  0.15821  1.0000
  H   H42       1.0  0.49861  0.77352  0.23760  1.0000
  H   H43       1.0  0.80069  0.27426  0.42159  1.0000
  H   H44       1.0  0.71284  0.49321  0.11988  1.0000
  H   H45       1.0  0.50124  0.24037  0.00716  1.0000
  H   H46       1.0  0.21770  0.71602  0.06826  1.0000
  H   H47       1.0  0.26653  0.51540  0.07269  1.0000
  H   H48       1.0  0.52204  0.80487  0.43519  1.0000
  H   H49       1.0  0.89550  0.49973  0.19776  1.0000
  H   H50       1.0  0.49057  0.40024  0.20703  1.0000
  H   H51       1.0  0.59296  0.09460  0.15138  1.0000
  H   H52       1.0  0.09651  0.48588  0.24001  1.0000
  H   H53       1.0  0.50505  0.61019  0.20470  1.0000
  H   H54       1.0  0.39053  0.90120  0.24739  1.0000
  H   H55       1.0  0.94472  0.41660  0.12767  1.0000
  H   H56       1.0  0.57384  0.53740  0.18770  1.0000
  H   H57       1.0  0.05071  0.56752  0.37175  1.0000
  H   H58       1.0  0.43840  0.47327  0.34728  1.0000
  H   H59       1.0  0.02431  0.45409  0.13778  1.0000
  H   H60       1.0  0.53460  0.57920  0.16611  1.0000
  H   H61       1.0  0.97068  0.53001  0.35942  1.0000
  H   H62       1.0  0.47756  0.43107  0.36612  1.0000
  H   H63       1.0  0.83886  0.38857  0.75312  1.0000
  H   H64       1.0  0.61255  0.44835  0.76198  1.0000
  H   H65       1.0  0.55708  0.16231  0.74154  1.0000
  H   H66       1.0  0.16896  0.61499  0.79287  1.0000
  H   H67       1.0  0.39259  0.55310  0.77463  1.0000
  H   H68       1.0  0.45075  0.83758  0.73455  1.0000
  H   H69       1.0  0.83351  0.50628  0.70784  1.0000
  H   H70       1.0  0.48821  0.32939  0.68841  1.0000
  H   H71       1.0  0.66762  0.16671  0.65329  1.0000
  H   H72       1.0  0.15874  0.49619  0.69546  1.0000
  H   H73       1.0  0.49527  0.66855  0.66077  1.0000
  H   H74       1.0  0.33177  0.84094  0.71035  1.0000
  H   H75       1.0  0.75550  0.46902  0.70354  1.0000
  H   H76       1.0  0.52389  0.28907  0.66883  1.0000
  H   H77       1.0  0.70542  0.24550  0.65501  1.0000
  H   H78       1.0  0.23524  0.53326  0.68446  1.0000
  H   H79       1.0  0.45626  0.70872  0.66041  1.0000
  H   H80       1.0  0.28995  0.76328  0.71141  1.0000
  H   H81       1.0  0.74192  0.28931  0.91036  1.0000
  H   H82       1.0  0.72784  0.45179  0.87410  1.0000
  H   H83       1.0  0.56078  0.26447  0.84827  1.0000
  H   H84       1.0  0.28012  0.72196  0.88267  1.0000
  H   H85       1.0  0.30065  0.55517  0.89057  1.0000
  H   H86       1.0  0.45769  0.72864  0.90284  1.0000
  H   H87       1.0  0.79400  0.33755  0.00177  1.0000
  H   H88       1.0  0.68689  0.45258  0.92943  1.0000
  H   H89       1.0  0.55978  0.21484  0.88809  1.0000
  H   H90       1.0  0.23509  0.67875  0.92663  1.0000
  H   H91       1.0  0.35066  0.55096  0.94199  1.0000
  H   H92       1.0  0.46186  0.77343  0.98372  1.0000
  H   H93       1.0  0.80855  0.28213  0.94407  1.0000
  H   H94       1.0  0.70915  0.51618  0.78005  1.0000
  H   H95       1.0  0.48039  0.20494  0.67471  1.0000
  H   H96       1.0  0.20143  0.72164  0.71640  1.0000
  H   H97       1.0  0.27531  0.48520  0.76591  1.0000
  H   H98       1.0  0.52849  0.80364  0.92906  1.0000
  H   H99       1.0  0.82619  0.32601  0.81311  1.0000
  H   H100      1.0  0.65596  0.48030  0.60747  1.0000
  H   H101      1.0  0.50264  0.18689  0.56952  1.0000
  H   H102      1.0  0.17769  0.67203  0.60236  1.0000
  H   H103      1.0  0.31417  0.50773  0.65940  1.0000
  H   H104      1.0  0.49047  0.81445  0.72822  1.0000
  H   H105      1.0  0.77352  0.27804  0.71035  1.0000
  H   H106      1.0  0.71016  0.49363  0.60869  1.0000
  H   H107      1.0  0.50295  0.23679  0.51816  1.0000
  H   H108      1.0  0.22146  0.71895  0.55944  1.0000
  H   H109      1.0  0.26493  0.51617  0.57652  1.0000
  H   H110      1.0  0.50168  0.77174  0.72940  1.0000
  H   H111      1.0  0.90096  0.50785  0.72093  1.0000
  H   H112      1.0  0.48914  0.39498  0.71616  1.0000
  H   H113      1.0  0.60603  0.09925  0.66693  1.0000
  H   H114      1.0  0.10000  0.49417  0.75067  1.0000
  H   H115      1.0  0.50327  0.60661  0.70144  1.0000
  H   H116      1.0  0.39724  0.90609  0.70950  1.0000
  H   H117      1.0  0.94690  0.42689  0.61165  1.0000
  H   H118      1.0  0.05668  0.57357  0.90335  1.0000
  H   H119      1.0  0.02644  0.46529  0.61948  1.0000
  H   H120      1.0  0.97673  0.53516  0.89386  1.0000
  C   C1        1.0  0.76989  0.44592  0.21046  1.0000
  C   C2        1.0  0.54313  0.32536  0.19349  1.0000
  C   C3        1.0  0.66665  0.22364  0.18385  1.0000
  C   C4        1.0  0.22064  0.54653  0.21038  1.0000
  C   C5        1.0  0.44006  0.67576  0.18481  1.0000
  C   C6        1.0  0.31870  0.77298  0.23078  1.0000
  C   C7        1.0  0.74741  0.40160  0.22734  1.0000
  C   C8        1.0  0.58974  0.34557  0.21420  1.0000
  C   C9        1.0  0.64815  0.24657  0.21538  1.0000
  C   C10       1.0  0.24590  0.59140  0.23914  1.0000
  C   C11       1.0  0.39976  0.65370  0.21818  1.0000
  C   C12       1.0  0.34043  0.74936  0.23426  1.0000
  C   C13       1.0  0.77123  0.37859  0.23996  1.0000
  C   C14       1.0  0.61380  0.39125  0.22830  1.0000
  C   C15       1.0  0.60453  0.22294  0.22985  1.0000
  C   C16       1.0  0.22314  0.61244  0.25635  1.0000
  C   C17       1.0  0.38276  0.60906  0.24410  1.0000
  C   C18       1.0  0.38538  0.77278  0.23010  1.0000
  C   C19       1.0  0.81553  0.39851  0.24306  1.0000
  C   C20       1.0  0.59529  0.41563  0.24196  1.0000
  C   C21       1.0  0.58206  0.17867  0.22998  1.0000
  C   C22       1.0  0.17968  0.59061  0.26228  1.0000
  C   C23       1.0  0.40664  0.58782  0.25355  1.0000
  C   C24       1.0  0.40852  0.81698  0.23188  1.0000
  C   C25       1.0  0.83699  0.44280  0.22293  1.0000
  C   C26       1.0  0.54952  0.39456  0.22964  1.0000
  C   C27       1.0  0.60185  0.15633  0.20307  1.0000
  C   C28       1.0  0.15629  0.54568  0.24362  1.0000
  C   C29       1.0  0.44757  0.61072  0.22388  1.0000
  C   C30       1.0  0.38676  0.83995  0.23482  1.0000
  C   C31       1.0  0.81350  0.46581  0.20604  1.0000
  C   C32       1.0  0.52361  0.34959  0.20064  1.0000
  C   C33       1.0  0.64333  0.17915  0.17577  1.0000
  C   C34       1.0  0.17684  0.52436  0.21357  1.0000
  C   C35       1.0  0.46327  0.65433  0.18646  1.0000
  C   C36       1.0  0.34179  0.81738  0.23286  1.0000
  C   C37       1.0  0.88253  0.46532  0.21714  1.0000
  C   C38       1.0  0.52808  0.41874  0.23825  1.0000
  C   C39       1.0  0.57928  0.10984  0.19856  1.0000
  C   C40       1.0  0.11084  0.52080  0.24968  1.0000
  C   C41       1.0  0.47303  0.58959  0.22584  1.0000
  C   C42       1.0  0.40981  0.88634  0.23836  1.0000
  C   C43       1.0  0.95137  0.47054  0.23808  1.0000
  C   C44       1.0  0.52794  0.48127  0.27428  1.0000
  C   C45       1.0  0.04390  0.51373  0.25963  1.0000
  C   C46       1.0  0.48321  0.52886  0.25496  1.0000
  C   C47       1.0  0.70284  0.37033  0.23086  1.0000
  C   C48       1.0  0.62250  0.33243  0.22357  1.0000
  C   C49       1.0  0.66103  0.29111  0.22775  1.0000
  C   C50       1.0  0.29060  0.62470  0.24507  1.0000
  C   C51       1.0  0.36759  0.66455  0.22933  1.0000
  C   C52       1.0  0.32900  0.70449  0.24068  1.0000
  C   C53       1.0  0.70087  0.32972  0.23624  1.0000
  C   C54       1.0  0.66390  0.37092  0.22982  1.0000
  C   C55       1.0  0.62282  0.29299  0.23162  1.0000
  C   C56       1.0  0.29182  0.66493  0.25193  1.0000
  C   C57       1.0  0.33007  0.62556  0.24518  1.0000
  C   C58       1.0  0.36687  0.70304  0.23308  1.0000
  C   C59       1.0  0.76481  0.31012  0.37637  1.0000
  C   C60       1.0  0.69480  0.44857  0.32246  1.0000
  C   C61       1.0  0.54928  0.23665  0.27775  1.0000
  C   C62       1.0  0.24081  0.68561  0.31808  1.0000
  C   C63       1.0  0.32073  0.55097  0.33083  1.0000
  C   C64       1.0  0.45058  0.75659  0.36366  1.0000
  C   C65       1.0  0.78826  0.29330  0.31539  1.0000
  C   C66       1.0  0.69519  0.48667  0.20831  1.0000
  C   C67       1.0  0.50296  0.21721  0.11067  1.0000
  C   C68       1.0  0.20422  0.69536  0.16389  1.0000
  C   C69       1.0  0.29337  0.51229  0.19634  1.0000
  C   C70       1.0  0.49038  0.78885  0.31141  1.0000
  C   C71       1.0  0.96842  0.44955  0.18288  1.0000
  C   C72       1.0  0.54443  0.52392  0.22424  1.0000
  C   C73       1.0  0.02695  0.53459  0.31615  1.0000
  C   C74       1.0  0.46756  0.48660  0.30926  1.0000
  C   C75       1.0  0.01341  0.47061  0.19154  1.0000
  C   C76       1.0  0.52220  0.54705  0.21240  1.0000
  C   C77       1.0  0.98181  0.51359  0.30641  1.0000
  C   C78       1.0  0.48938  0.46317  0.31903  1.0000
  C   C79       1.0  0.77266  0.45057  0.71630  1.0000
  C   C80       1.0  0.54469  0.32346  0.69226  1.0000
  C   C81       1.0  0.67401  0.22821  0.67879  1.0000
  C   C82       1.0  0.22272  0.55181  0.71454  1.0000
  C   C83       1.0  0.44227  0.67518  0.68699  1.0000
  C   C84       1.0  0.32490  0.77812  0.71848  1.0000
  C   C85       1.0  0.75037  0.40595  0.72634  1.0000
  C   C86       1.0  0.59127  0.34494  0.71114  1.0000
  C   C87       1.0  0.65396  0.25010  0.70635  1.0000
  C   C88       1.0  0.24890  0.59665  0.74208  1.0000
  C   C89       1.0  0.40152  0.65417  0.71703  1.0000
  C   C90       1.0  0.34640  0.75371  0.72970  1.0000
  C   C91       1.0  0.77513  0.38394  0.73772  1.0000
  C   C92       1.0  0.61405  0.39058  0.72664  1.0000
  C   C93       1.0  0.61047  0.22542  0.72123  1.0000
  C   C94       1.0  0.22758  0.61890  0.76174  1.0000
  C   C95       1.0  0.38278  0.60931  0.73927  1.0000
  C   C96       1.0  0.39185  0.77611  0.72989  1.0000
  C   C97       1.0  0.81969  0.40496  0.74315  1.0000
  C   C98       1.0  0.59450  0.41370  0.74329  1.0000
  C   C99       1.0  0.58927  0.18124  0.72339  1.0000
  C   C100      1.0  0.18448  0.59818  0.77071  1.0000
  C   C101      1.0  0.40537  0.58677  0.74826  1.0000
  C   C102      1.0  0.41597  0.82026  0.73159  1.0000
  C   C103      1.0  0.84108  0.44960  0.73130  1.0000
  C   C104      1.0  0.54880  0.39143  0.73217  1.0000
  C   C105      1.0  0.61062  0.15996  0.70119  1.0000
  C   C106      1.0  0.15988  0.55328  0.75041  1.0000
  C   C107      1.0  0.44677  0.60863  0.72160  1.0000
  C   C108      1.0  0.39429  0.84408  0.72574  1.0000
  C   C109      1.0  0.81701  0.47177  0.71810  1.0000
  C   C110      1.0  0.52409  0.34644  0.70178  1.0000
  C   C111      1.0  0.65236  0.18376  0.67601  1.0000
  C   C112      1.0  0.17912  0.53084  0.71906  1.0000
  C   C113      1.0  0.46422  0.65253  0.68797  1.0000
  C   C114      1.0  0.34862  0.82243  0.71677  1.0000
  C   C115      1.0  0.88717  0.47304  0.73040  1.0000
  C   C116      1.0  0.52641  0.41442  0.74412  1.0000
  C   C117      1.0  0.58951  0.11360  0.70106  1.0000
  C   C118      1.0  0.11448  0.52914  0.75702  1.0000
  C   C119      1.0  0.47136  0.58654  0.72383  1.0000
  C   C120      1.0  0.41793  0.89043  0.72470  1.0000
  C   C121      1.0  0.95576  0.47841  0.74783  1.0000
  C   C122      1.0  0.04772  0.52233  0.76525  1.0000
  C   C123      1.0  0.70552  0.37364  0.72528  1.0000
  C   C124      1.0  0.62510  0.33346  0.71824  1.0000
  C   C125      1.0  0.66544  0.29427  0.71819  1.0000
  C   C126      1.0  0.29369  0.62893  0.74568  1.0000
  C   C127      1.0  0.37062  0.66656  0.72964  1.0000
  C   C128      1.0  0.33406  0.70863  0.73956  1.0000
  C   C129      1.0  0.70465  0.33357  0.72787  1.0000
  C   C130      1.0  0.66589  0.37283  0.72526  1.0000
  C   C131      1.0  0.62674  0.29478  0.72397  1.0000
  C   C132      1.0  0.29638  0.66984  0.75297  1.0000
  C   C133      1.0  0.33216  0.62825  0.74365  1.0000
  C   C134      1.0  0.37155  0.70586  0.73465  1.0000
  C   C135      1.0  0.76972  0.31608  0.87928  1.0000
  C   C136      1.0  0.69355  0.45010  0.81553  1.0000
  C   C137      1.0  0.55590  0.23735  0.78337  1.0000
  C   C138      1.0  0.24707  0.69298  0.81953  1.0000
  C   C139      1.0  0.32102  0.55309  0.83008  1.0000
  C   C140      1.0  0.45635  0.75859  0.86435  1.0000
  C   C141      1.0  0.79574  0.29987  0.83168  1.0000
  C   C142      1.0  0.69192  0.48686  0.69509  1.0000
  C   C143      1.0  0.50774  0.21533  0.62671  1.0000
  C   C144      1.0  0.20992  0.70197  0.66502  1.0000
  C   C145      1.0  0.29221  0.51347  0.69950  1.0000
  C   C146      1.0  0.49593  0.78867  0.80705  1.0000
  C   C147      1.0  0.97157  0.45874  0.67838  1.0000
  C   C148      1.0  0.03203  0.54171  0.83679  1.0000
  C   C149      1.0  0.01637  0.48030  0.68486  1.0000
  C   C150      1.0  0.98714  0.52030  0.82940  1.0000
  N   N1        1.0  0.90625  0.44650  0.23107  1.0000
  N   N2        1.0  0.55106  0.45977  0.27352  1.0000
  N   N3        1.0  0.54461  0.08823  0.24439  1.0000
  N   N4        1.0  0.08898  0.53845  0.26652  1.0000
  N   N5        1.0  0.45852  0.54921  0.25130  1.0000
  N   N6        1.0  0.45028  0.90831  0.23251  1.0000
  N   N7        1.0  0.74301  0.33475  0.24850  1.0000
  N   N8        1.0  0.65798  0.40611  0.23388  1.0000
  N   N9        1.0  0.58991  0.25136  0.23971  1.0000
  N   N10       1.0  0.25113  0.65653  0.26360  1.0000
  N   N11       1.0  0.34033  0.59242  0.25723  1.0000
  N   N12       1.0  0.40190  0.74454  0.23148  1.0000
  N   N13       1.0  0.91037  0.45428  0.73748  1.0000
  N   N14       1.0  0.54853  0.45546  0.77875  1.0000
  N   N15       1.0  0.55365  0.09138  0.73952  1.0000
  N   N16       1.0  0.09268  0.54718  0.77110  1.0000
  N   N17       1.0  0.45646  0.54616  0.75086  1.0000
  N   N18       1.0  0.46034  0.91177  0.73763  1.0000
  N   N19       1.0  0.74755  0.33968  0.74324  1.0000
  N   N20       1.0  0.65839  0.40692  0.73137  1.0000
  N   N21       1.0  0.59466  0.25274  0.73210  1.0000
  N   N22       1.0  0.25651  0.66278  0.76792  1.0000
  N   N23       1.0  0.34052  0.59395  0.75212  1.0000
  N   N24       1.0  0.40753  0.74698  0.73450  1.0000
  C  Sn1       1.0  0.54923  0.53169  0.78355  1.0000
  C   C151      1.0  0.53599  0.48912  0.82627  1.0000
  C  Sn2       1.0  0.49144  0.46220  0.82107  1.0000
  C  Sn3       1.0  0.45945  0.47815  0.77203  1.0000
  C   C152      1.0  0.47269  0.52069  0.72931  1.0000
  C  Sn4       1.0  0.51724  0.54764  0.73451  1.0000
  O  Te1       1.0  0.59395  0.55802  0.78963  1.0000
  O  Te2       1.0  0.47900  0.41976  0.86441  1.0000
  O  Te3       1.0  0.41470  0.45177  0.76598  1.0000
  O  Te4       1.0  0.52968  0.59004  0.69118  1.0000
  Mg  Mg1       1.0  0.41409  0.39636  0.83644  1.0000
  Mg  Mg2       1.0  0.59457  0.61346  0.71901  1.0000
  C  Sn5       1.0  0.02660  0.00995  0.63912  1.0000
  C   C153      1.0  0.52714  0.04095  0.68623  1.0000
  C  Sn6       1.0  0.50003  0.03031  0.78217  1.0000
  C  Sn7       1.0  0.97195  0.98779  0.83219  1.0000
  C   C154      1.0  0.97862  0.95682  0.78511  1.0000
  C  Sn8       1.0  0.00573  0.96743  0.68914  1.0000
  O  Te5       1.0  0.56105  0.02131  0.54320  1.0000
  O  Te6       1.0  0.49386  0.06185  0.82769  1.0000
  O  Te7       1.0  0.94469  0.97645  0.92818  1.0000
  O  Te8       1.0  0.01191  0.93592  0.64366  1.0000
  Mg  Mg3       1.0  0.45374  0.03070  0.95905  1.0000
  Mg  Mg4       1.0  0.05203  0.96704  0.51239  1.0000
  C  Sn9       1.0  0.53455  0.00761  0.19161  1.0000
  C   C155      1.0  0.52149  0.03794  0.19457  1.0000
  C  Sn10      1.0  0.48373  0.02642  0.23525  1.0000
  C  Sn11      1.0  0.95131  0.98368  0.27390  1.0000
  C   C156      1.0  0.96438  0.95338  0.27097  1.0000
  C  Sn12      1.0  0.00213  0.96488  0.23027  1.0000
  O  Te9       1.0  0.57241  0.01985  0.15061  1.0000
  O  Te10      1.0  0.47132  0.05730  0.23731  1.0000
  O  Te11      1.0  0.91343  0.97146  0.31491  1.0000
  O  Te12      1.0  0.01455  0.93402  0.22822  1.0000
  Mg  Mg5       1.0  0.41718  0.02505  0.30087  1.0000
  Mg  Mg6       1.0  0.06869  0.96623  0.16477  1.0000
