data_image0
_chemical_formula_structural       H16C28N20SnCSn2CSnTe4Mg2SnCSn2CSnTe4Mg2SnCSn2CSnTe4Mg2SnCSn2CSnTe4Mg2SnCSn2CSnTe4Mg2SnCSn2CSnTe4Mg2SnCSn2CSnTe4Mg2SnCSn2CSnTe4Mg2SnCSn2CSnTe4Mg2SnCSn2CSnTe4Mg2SnCSn2CSnTe4Mg2SnCSn2CSnTe4Mg2
_chemical_formula_sum              "H16 C52 N20 Sn48 Te48 Mg24"
_cell_length_a       30.3477
_cell_length_b       29.0731
_cell_length_c       7.97949
_cell_angle_alpha    110.637
_cell_angle_beta     74.1196
_cell_angle_gamma    121.086

_symmetry_space_group_name_H-M    'P1'
_space_group_IT_number       1

loop_
  _space_group_symop_operation_xyz
  'x, y, z'

loop_
  _atom_site_type_symbol
  _atom_site_label
  _atom_site_symmetry_multiplicity
  _atom_site_fract_x
  _atom_site_fract_y
  _atom_site_fract_z
  _atom_site_occupancy
  H   H1        1.0  0.94991  0.42694  0.35122  1.0000
  H   H2        1.0  0.04947  0.57201  0.15587  1.0000
  H   H3        1.0  0.57837  0.53133  0.13436  1.0000
  H   H4        1.0  0.42229  0.47338  0.37444  1.0000
  H   H5        1.0  0.47041  0.04105  0.15658  1.0000
  H   H6        1.0  0.52840  0.96344  0.33755  1.0000
  H   H7        1.0  0.73018  0.43836  0.20216  1.0000
  H   H8        1.0  0.27218  0.56546  0.29590  1.0000
  H   H9        1.0  0.94970  0.42149  0.84836  1.0000
  H   H10       1.0  0.04900  0.56834  0.66436  1.0000
  H   H11       1.0  0.58109  0.53011  0.63276  1.0000
  H   H12       1.0  0.42463  0.47235  0.86939  1.0000
  H   H13       1.0  0.46944  0.03842  0.65803  1.0000
  H   H14       1.0  0.52800  0.96056  0.83500  1.0000
  H   H15       1.0  0.73065  0.43479  0.70096  1.0000
  H   H16       1.0  0.27256  0.56340  0.80163  1.0000
  C   C1        1.0  0.72439  0.36459  0.23665  1.0000
  C   C2        1.0  0.27679  0.63926  0.26557  1.0000
  C   C3        1.0  0.93968  0.44939  0.29606  1.0000
  C   C4        1.0  0.06029  0.55030  0.21220  1.0000
  C   C5        1.0  0.65169  0.37130  0.20301  1.0000
  C   C6        1.0  0.35025  0.63342  0.29703  1.0000
  C   C7        1.0  0.55495  0.49569  0.19339  1.0000
  C   C8        1.0  0.44609  0.50905  0.31557  1.0000
  C   C9        1.0  0.70504  0.39573  0.21021  1.0000
  C   C10       1.0  0.29684  0.60831  0.28909  1.0000
  C   C11       1.0  0.64201  0.29082  0.23465  1.0000
  C   C12       1.0  0.35891  0.71355  0.26563  1.0000
  C   C13       1.0  0.50729  0.05977  0.21033  1.0000
  C   C14       1.0  0.49118  0.94471  0.28615  1.0000
  C   C15       1.0  0.72425  0.36092  0.73873  1.0000
  C   C16       1.0  0.27667  0.63655  0.76785  1.0000
  C   C17       1.0  0.93949  0.44427  0.79480  1.0000
  C   C18       1.0  0.06008  0.54547  0.71396  1.0000
  C   C19       1.0  0.65193  0.36824  0.70488  1.0000
  C   C20       1.0  0.35033  0.63143  0.80068  1.0000
  C   C21       1.0  0.55739  0.49513  0.69487  1.0000
  C   C22       1.0  0.44849  0.50871  0.81390  1.0000
  C   C23       1.0  0.70532  0.39231  0.71093  1.0000
  C   C24       1.0  0.29693  0.60615  0.79381  1.0000
  C   C25       1.0  0.64173  0.28745  0.73627  1.0000
  C   C26       1.0  0.35848  0.71108  0.76781  1.0000
  C   C27       1.0  0.50657  0.05666  0.70939  1.0000
  C   C28       1.0  0.49045  0.94177  0.78574  1.0000
  N   N1        1.0  0.97552  0.49343  0.24298  1.0000
  N   N2        1.0  0.02477  0.50636  0.26647  1.0000
  N   N3        1.0  0.69259  0.31176  0.24842  1.0000
  N   N4        1.0  0.30806  0.69228  0.25486  1.0000
  N   N5        1.0  0.50733  0.48367  0.26159  1.0000
  N   N6        1.0  0.49368  0.52091  0.24763  1.0000
  N   N7        1.0  0.51867  0.02966  0.26140  1.0000
  N   N8        1.0  0.47928  0.97486  0.23753  1.0000
  N   N9        1.0  0.62014  0.31866  0.21540  1.0000
  N   N10       1.0  0.38135  0.68614  0.28430  1.0000
  N   N11       1.0  0.97543  0.48811  0.74099  1.0000
  N   N12       1.0  0.02472  0.50028  0.76155  1.0000
  N   N13       1.0  0.69218  0.30815  0.75091  1.0000
  N   N14       1.0  0.30768  0.68940  0.75541  1.0000
  N   N15       1.0  0.51007  0.48415  0.76517  1.0000
  N   N16       1.0  0.49656  0.52151  0.75064  1.0000
  N   N17       1.0  0.51799  0.02634  0.75911  1.0000
  N   N18       1.0  0.47842  0.97173  0.73680  1.0000
  N   N19       1.0  0.62014  0.31568  0.71777  1.0000
  N   N20       1.0  0.38116  0.68408  0.78735  1.0000
  C  Sn1       1.0  0.80365  0.36467  0.35758  1.0000
  C   C29       1.0  0.78171  0.38919  0.30712  1.0000
  C  Sn2       1.0  0.81307  0.43356  0.22762  1.0000
  C  Sn3       1.0  0.86751  0.45384  0.19783  1.0000
  C   C30       1.0  0.88943  0.42933  0.24825  1.0000
  C  Sn4       1.0  0.85809  0.38495  0.32779  1.0000
  O  Te1       1.0  0.77155  0.32035  0.43683  1.0000
  O  Te2       1.0  0.79024  0.45741  0.17837  1.0000
  O  Te3       1.0  0.89961  0.49820  0.11851  1.0000
  O  Te4       1.0  0.88090  0.36111  0.37699  1.0000
  Mg  Mg1       1.0  0.85025  0.51685  0.07475  1.0000
  Mg  Mg2       1.0  0.82093  0.30165  0.48054  1.0000
  C  Sn5       1.0  0.16545  0.62455  0.14015  1.0000
  C   C31       1.0  0.12397  0.57445  0.17044  1.0000
  C  Sn6       1.0  0.12969  0.54487  0.26094  1.0000
  C  Sn7       1.0  0.17785  0.56582  0.32256  1.0000
  C   C32       1.0  0.21928  0.61590  0.29228  1.0000
  C  Sn8       1.0  0.21361  0.64551  0.20176  1.0000
  O  Te5       1.0  0.15886  0.65343  0.04939  1.0000
  O  Te6       1.0  0.08767  0.49486  0.28959  1.0000
  O  Te7       1.0  0.18440  0.53689  0.41337  1.0000
  O  Te8       1.0  0.25558  0.69549  0.17314  1.0000
  Mg  Mg3       1.0  0.11575  0.47071  0.41998  1.0000
  Mg  Mg4       1.0  0.22754  0.71969  0.04285  1.0000
  C  Sn9       1.0  0.65732  0.46916  0.17475  1.0000
  C   C33       1.0  0.63531  0.42030  0.22953  1.0000
  C  Sn10      1.0  0.58155  0.38840  0.25425  1.0000
  C  Sn11      1.0  0.54910  0.40566  0.22349  1.0000
  C   C34       1.0  0.57111  0.45449  0.16872  1.0000
  C  Sn12      1.0  0.62487  0.48643  0.14398  1.0000
  O  Te9       1.0  0.71116  0.50040  0.15086  1.0000
  O  Te10      1.0  0.56045  0.33972  0.30913  1.0000
  O  Te11      1.0  0.49522  0.37437  0.24743  1.0000
  O  Te12      1.0  0.64597  0.53507  0.08911  1.0000
  Mg  Mg5       1.0  0.48489  0.31125  0.32332  1.0000
  Mg  Mg6       1.0  0.72152  0.56355  0.07479  1.0000
  C  Sn13      1.0  0.43266  0.60731  0.19535  1.0000
  C   C35       1.0  0.38154  0.59730  0.25805  1.0000
  C  Sn14      1.0  0.35072  0.56099  0.36851  1.0000
  C  Sn15      1.0  0.37142  0.53415  0.41743  1.0000
  C   C36       1.0  0.42250  0.54416  0.35477  1.0000
  C  Sn16      1.0  0.45336  0.58046  0.24426  1.0000
  O  Te13      1.0  0.46277  0.64377  0.08507  1.0000
  O  Te14      1.0  0.29972  0.55164  0.42948  1.0000
  O  Te15      1.0  0.34125  0.49766  0.52780  1.0000
  O  Te16      1.0  0.50432  0.58982  0.18334  1.0000
  Mg  Mg7       1.0  0.27404  0.49841  0.57682  1.0000
  Mg  Mg8       1.0  0.53005  0.64306  0.03607  1.0000
  C  Sn17      1.0  0.59699  0.16103  0.32938  1.0000
  C   C37       1.0  0.54656  0.12818  0.28165  1.0000
  C  Sn18      1.0  0.52713  0.14632  0.19227  1.0000
  C  Sn19      1.0  0.55877  0.19837  0.14959  1.0000
  C   C38       1.0  0.60918  0.23118  0.19728  1.0000
  C  Sn20      1.0  0.62864  0.21307  0.28670  1.0000
  O  Te17      1.0  0.61562  0.14206  0.41868  1.0000
  O  Te18      1.0  0.47657  0.11276  0.14599  1.0000
  O  Te19      1.0  0.54010  0.21731  0.06022  1.0000
  O  Te20      1.0  0.67916  0.24660  0.33294  1.0000
  Mg  Mg9       1.0  0.46873  0.15668  0.02536  1.0000
  Mg  Mg10      1.0  0.68706  0.20271  0.45349  1.0000
  C  Sn21      1.0  0.47669  0.83959  0.26003  1.0000
  C   C39       1.0  0.46414  0.87610  0.23199  1.0000
  C  Sn22      1.0  0.41251  0.86146  0.23107  1.0000
  C  Sn23      1.0  0.37259  0.80926  0.25888  1.0000
  C   C40       1.0  0.38515  0.77280  0.28693  1.0000
  C  Sn24      1.0  0.43677  0.78739  0.28784  1.0000
  O  Te21      1.0  0.52856  0.85509  0.26041  1.0000
  O  Te22      1.0  0.40092  0.89864  0.20269  1.0000
  O  Te23      1.0  0.32069  0.79379  0.25847  1.0000
  O  Te24      1.0  0.44837  0.75025  0.31623  1.0000
  Mg  Mg11      1.0  0.32444  0.85863  0.21420  1.0000
  Mg  Mg12      1.0  0.52483  0.79023  0.30484  1.0000
  C  Sn25      1.0  0.83790  0.35772  0.76381  1.0000
  C   C41       1.0  0.87987  0.40874  0.74375  1.0000
  C  Sn26      1.0  0.87161  0.45180  0.74399  1.0000
  C  Sn27      1.0  0.82035  0.44370  0.76484  1.0000
  C   C42       1.0  0.77842  0.39271  0.78491  1.0000
  C  Sn28      1.0  0.78663  0.34962  0.78465  1.0000
  O  Te25      1.0  0.84705  0.31526  0.76318  1.0000
  O  Te26      1.0  0.91419  0.50243  0.72366  1.0000
  O  Te27      1.0  0.81122  0.48622  0.76545  1.0000
  O  Te28      1.0  0.74409  0.29902  0.80500  1.0000
  Mg  Mg13      1.0  0.88183  0.54766  0.73336  1.0000
  Mg  Mg14      1.0  0.77641  0.25377  0.79542  1.0000
  C  Sn29      1.0  0.17551  0.54406  0.72606  1.0000
  C   C43       1.0  0.21607  0.59578  0.70581  1.0000
  C  Sn30      1.0  0.20569  0.63762  0.70871  1.0000
  C  Sn31      1.0  0.15368  0.62757  0.73246  1.0000
  C   C44       1.0  0.11316  0.57589  0.75274  1.0000
  C  Sn32      1.0  0.12351  0.53402  0.74982  1.0000
  O  Te29      1.0  0.18680  0.50285  0.72274  1.0000
  O  Te30      1.0  0.24688  0.68897  0.68812  1.0000
  O  Te31      1.0  0.14242  0.66884  0.73577  1.0000
  O  Te32      1.0  0.08235  0.48269  0.77042  1.0000
  Mg  Mg15      1.0  0.21177  0.73195  0.70214  1.0000
  Mg  Mg16      1.0  0.11741  0.43970  0.75652  1.0000
  C  Sn33      1.0  0.55729  0.41375  0.81439  1.0000
  C   C45       1.0  0.57930  0.46136  0.75247  1.0000
  C  Sn34      1.0  0.62611  0.47636  0.64006  1.0000
  C  Sn35      1.0  0.65143  0.44305  0.58836  1.0000
  C   C46       1.0  0.62941  0.39547  0.65024  1.0000
  C  Sn36      1.0  0.58261  0.38045  0.76269  1.0000
  O  Te33      1.0  0.51046  0.39955  0.92665  1.0000
  O  Te34      1.0  0.64737  0.52415  0.57991  1.0000
  O  Te35      1.0  0.69829  0.45729  0.47601  1.0000
  O  Te36      1.0  0.56134  0.33268  0.82280  1.0000
  Mg  Mg17      1.0  0.71183  0.52621  0.42912  1.0000
  Mg  Mg18      1.0  0.49688  0.33056  0.97351  1.0000
  C  Sn37      1.0  0.35336  0.55335  0.93106  1.0000
  C   C47       1.0  0.37434  0.60039  0.86700  1.0000
  C  Sn38      1.0  0.42146  0.61632  0.75647  1.0000
  C  Sn39      1.0  0.44817  0.58455  0.70887  1.0000
  C   C48       1.0  0.42719  0.53753  0.77289  1.0000
  C  Sn40      1.0  0.38006  0.52157  0.88347  1.0000
  O  Te37      1.0  0.33906  0.45917  0.04138  1.0000
  O  Te38      1.0  0.44167  0.66353  0.69412  1.0000
  O  Te39      1.0  0.49536  0.59975  0.59846  1.0000
  O  Te40      1.0  0.35985  0.47439  0.94577  1.0000
  Mg  Mg19      1.0  0.50711  0.66734  0.54730  1.0000
  Mg  Mg20      1.0  0.32727  0.39151  0.09251  1.0000
  C  Sn41      1.0  0.62570  0.18133  0.72635  1.0000
  C   C49       1.0  0.61461  0.21838  0.69449  1.0000
  C  Sn42      1.0  0.56346  0.20483  0.69078  1.0000
  C  Sn43      1.0  0.52253  0.15319  0.71963  1.0000
  C   C50       1.0  0.53363  0.11617  0.75150  1.0000
  C  Sn44      1.0  0.58478  0.12968  0.75520  1.0000
  O  Te41      1.0  0.67713  0.19574  0.72947  1.0000
  O  Te42      1.0  0.55333  0.24255  0.65861  1.0000
  O  Te43      1.0  0.47108  0.13880  0.71648  1.0000
  O  Te44      1.0  0.59492  0.09200  0.78739  1.0000
  Mg  Mg21      1.0  0.47693  0.20401  0.66741  1.0000
  Mg  Mg22      1.0  0.67129  0.13050  0.77870  1.0000
  C  Sn45      1.0  0.39058  0.84828  0.77606  1.0000
  C   C51       1.0  0.44214  0.88113  0.81211  1.0000
  C  Sn46      1.0  0.47165  0.85652  0.80892  1.0000
  C  Sn47      1.0  0.44916  0.79783  0.76875  1.0000
  C   C52       1.0  0.39763  0.76500  0.73270  1.0000
  C  Sn48      1.0  0.36809  0.78959  0.73589  1.0000
  O  Te45      1.0  0.36181  0.87378  0.77998  1.0000
  O  Te46      1.0  0.52311  0.89023  0.84547  1.0000
  O  Te47      1.0  0.47798  0.77234  0.76487  1.0000
  O  Te48      1.0  0.31665  0.75590  0.69934  1.0000
  Mg  Mg23      1.0  0.54651  0.83597  0.82377  1.0000
  Mg  Mg24      1.0  0.29323  0.81012  0.72091  1.0000
