data_image0
_chemical_formula_structural       H44C68N16C2Sn2C2HTe2HMgC2Sn2C2HTe2HMgC2Sn2C2HTe2HMgC2Sn2C2HTe2HMgC2Sn2C2HTe2HMgC2Sn2C2HTe2HMg
_chemical_formula_sum              "H56 C92 N16 Sn12 Te12 Mg6"
_cell_length_a       30.1232
_cell_length_b       28.8275
_cell_length_c       7.96225
_cell_angle_alpha    89.9202
_cell_angle_beta     92.0988
_cell_angle_gamma    119.06

_symmetry_space_group_name_H-M    'P1'
_space_group_IT_number       1

loop_
  _space_group_symop_operation_xyz
  'x, y, z'

loop_
  _atom_site_type_symbol
  _atom_site_label
  _atom_site_symmetry_multiplicity
  _atom_site_fract_x
  _atom_site_fract_y
  _atom_site_fract_z
  _atom_site_occupancy
  H   H1        1.0  0.21683  0.67131  0.03431  1.0000
  H   H2        1.0  0.78385  0.32721  0.46346  1.0000
  H   H3        1.0  0.10765  0.50154  0.31559  1.0000
  H   H4        1.0  0.89172  0.49755  0.18233  1.0000
  H   H5        1.0  0.20142  0.54089  0.33713  1.0000
  H   H6        1.0  0.79788  0.45783  0.16439  1.0000
  H   H7        1.0  0.03819  0.56118  0.06933  1.0000
  H   H8        1.0  0.96221  0.43805  0.42264  1.0000
  H   H9        1.0  0.28156  0.71511  0.23166  1.0000
  H   H10       1.0  0.71689  0.28332  0.27504  1.0000
  H   H11       1.0  0.12328  0.63089  0.00742  1.0000
  H   H12       1.0  0.87754  0.36768  0.48446  1.0000
  H   H13       1.0  0.68341  0.46140  0.08897  1.0000
  H   H14       1.0  0.51234  0.39613  0.31717  1.0000
  H   H15       1.0  0.55509  0.34039  0.33799  1.0000
  H   H16       1.0  0.43987  0.47912  0.40206  1.0000
  H   H17       1.0  0.56634  0.52730  0.09293  1.0000
  H   H18       1.0  0.27824  0.56420  0.21114  1.0000
  H   H19       1.0  0.72267  0.43530  0.28809  1.0000
  H   H20       1.0  0.64001  0.51523  0.06090  1.0000
  H   H21       1.0  0.49013  0.88407  0.17887  1.0000
  H   H22       1.0  0.44674  0.78494  0.15356  1.0000
  H   H23       1.0  0.36856  0.87302  0.47254  1.0000
  H   H24       1.0  0.32400  0.77521  0.43811  1.0000
  H   H25       1.0  0.44172  0.96002  0.43126  1.0000
  H   H26       1.0  0.55713  0.03920  0.08040  1.0000
  H   H27       1.0  0.03711  0.56300  0.56607  1.0000
  H   H28       1.0  0.96086  0.43976  0.91759  1.0000
  H   H29       1.0  0.28197  0.71618  0.72533  1.0000
  H   H30       1.0  0.71749  0.28478  0.76637  1.0000
  H   H31       1.0  0.31759  0.54118  0.91849  1.0000
  H   H32       1.0  0.48556  0.60229  0.66989  1.0000
  H   H33       1.0  0.44289  0.65837  0.64796  1.0000
  H   H34       1.0  0.43236  0.47348  0.90777  1.0000
  H   H35       1.0  0.55744  0.51881  0.59235  1.0000
  H   H36       1.0  0.27671  0.56425  0.70623  1.0000
  H   H37       1.0  0.71949  0.43484  0.79053  1.0000
  H   H38       1.0  0.36149  0.48760  0.94988  1.0000
  H   H39       1.0  0.49342  0.88137  0.68376  1.0000
  H   H40       1.0  0.44767  0.78179  0.66273  1.0000
  H   H41       1.0  0.37199  0.87513  0.96652  1.0000
  H   H42       1.0  0.32552  0.77680  0.93833  1.0000
  H   H43       1.0  0.44180  0.95918  0.91581  1.0000
  H   H44       1.0  0.56168  0.03991  0.58128  1.0000
  C   C1        1.0  0.21596  0.60942  0.18940  1.0000
  C   C2        1.0  0.78393  0.38908  0.31000  1.0000
  C   C3        1.0  0.19305  0.63427  0.09687  1.0000
  C   C4        1.0  0.80726  0.36418  0.39999  1.0000
  C   C5        1.0  0.14041  0.61138  0.08102  1.0000
  C   C6        1.0  0.85995  0.38707  0.41268  1.0000
  C   C7        1.0  0.10892  0.56351  0.16108  1.0000
  C   C8        1.0  0.89106  0.43500  0.33232  1.0000
  C   C9        1.0  0.13183  0.53798  0.25098  1.0000
  C   C10       1.0  0.86780  0.46069  0.24550  1.0000
  C   C11       1.0  0.18433  0.56025  0.26282  1.0000
  C   C12       1.0  0.81528  0.43832  0.23638  1.0000
  C   C13       1.0  0.27162  0.63559  0.21669  1.0000
  C   C14       1.0  0.72819  0.36329  0.28438  1.0000
  C   C15       1.0  0.05422  0.54288  0.15511  1.0000
  C   C16       1.0  0.94567  0.45536  0.33481  1.0000
  C   C17       1.0  0.30010  0.69082  0.23619  1.0000
  C   C18       1.0  0.69892  0.30811  0.26633  1.0000
  C   C19       1.0  0.62269  0.39766  0.21970  1.0000
  C   C20       1.0  0.64633  0.44727  0.14195  1.0000
  C   C21       1.0  0.62189  0.47755  0.12543  1.0000
  C   C22       1.0  0.57358  0.45978  0.19059  1.0000
  C   C23       1.0  0.54967  0.40977  0.26692  1.0000
  C   C24       1.0  0.57351  0.37891  0.27881  1.0000
  C   C25       1.0  0.35133  0.63441  0.25577  1.0000
  C   C26       1.0  0.64936  0.36619  0.23931  1.0000
  C   C27       1.0  0.45549  0.51235  0.31529  1.0000
  C   C28       1.0  0.55004  0.49343  0.17721  1.0000
  C   C29       1.0  0.29824  0.60712  0.22877  1.0000
  C   C30       1.0  0.70228  0.39244  0.27010  1.0000
  C   C31       1.0  0.38179  0.77357  0.29000  1.0000
  C   C32       1.0  0.42982  0.80458  0.22258  1.0000
  C   C33       1.0  0.45408  0.85960  0.23705  1.0000
  C   C34       1.0  0.43192  0.88516  0.32450  1.0000
  C   C35       1.0  0.38514  0.85392  0.39914  1.0000
  C   C36       1.0  0.36003  0.79902  0.37905  1.0000
  C   C37       1.0  0.35300  0.71535  0.26388  1.0000
  C   C38       1.0  0.64617  0.28443  0.23444  1.0000
  C   C39       1.0  0.45489  0.94264  0.33595  1.0000
  C   C40       1.0  0.54201  0.05683  0.16790  1.0000
  C   C41       1.0  0.27087  0.63622  0.71018  1.0000
  C   C42       1.0  0.72665  0.36375  0.78335  1.0000
  C   C43       1.0  0.05328  0.54515  0.65329  1.0000
  C   C44       1.0  0.94444  0.45764  0.83167  1.0000
  C   C45       1.0  0.29997  0.69138  0.73151  1.0000
  C   C46       1.0  0.69845  0.30859  0.76236  1.0000
  C   C47       1.0  0.37677  0.60262  0.77659  1.0000
  C   C48       1.0  0.35395  0.55427  0.86135  1.0000
  C   C49       1.0  0.37854  0.52425  0.87963  1.0000
  C   C50       1.0  0.42583  0.54092  0.80810  1.0000
  C   C51       1.0  0.44904  0.58982  0.72509  1.0000
  C   C52       1.0  0.42521  0.62064  0.71203  1.0000
  C   C53       1.0  0.34980  0.63365  0.75583  1.0000
  C   C54       1.0  0.64664  0.36449  0.74650  1.0000
  C   C55       1.0  0.44889  0.50694  0.82201  1.0000
  C   C56       1.0  0.54196  0.48599  0.68078  1.0000
  C   C57       1.0  0.29690  0.60714  0.72413  1.0000
  C   C58       1.0  0.69973  0.39194  0.77306  1.0000
  C   C59       1.0  0.38250  0.77313  0.79087  1.0000
  C   C60       1.0  0.43126  0.80280  0.72693  1.0000
  C   C61       1.0  0.45672  0.85788  0.73922  1.0000
  C   C62       1.0  0.43471  0.88459  0.82128  1.0000
  C   C63       1.0  0.38768  0.85460  0.89561  1.0000
  C   C64       1.0  0.36158  0.79965  0.87847  1.0000
  C   C65       1.0  0.35271  0.71510  0.76305  1.0000
  C   C66       1.0  0.64552  0.28386  0.73525  1.0000
  C   C67       1.0  0.45762  0.94197  0.82952  1.0000
  C   C68       1.0  0.54537  0.05674  0.66717  1.0000
  N   N1        1.0  0.02515  0.50494  0.25330  1.0000
  N   N2        1.0  0.97423  0.49212  0.23228  1.0000
  N   N3        1.0  0.49469  0.52158  0.22905  1.0000
  N   N4        1.0  0.51081  0.48441  0.26275  1.0000
  N   N5        1.0  0.48942  0.97292  0.23334  1.0000
  N   N6        1.0  0.50514  0.02658  0.26318  1.0000
  N   N7        1.0  0.37865  0.68786  0.26943  1.0000
  N   N8        1.0  0.62135  0.31279  0.22442  1.0000
  N   N9        1.0  0.02427  0.50798  0.75385  1.0000
  N   N10       1.0  0.97334  0.49535  0.73244  1.0000
  N   N11       1.0  0.48750  0.51505  0.73437  1.0000
  N   N12       1.0  0.50339  0.47776  0.76884  1.0000
  N   N13       1.0  0.49425  0.97246  0.73391  1.0000
  N   N14       1.0  0.50840  0.02583  0.76104  1.0000
  N   N15       1.0  0.37770  0.68695  0.77098  1.0000
  N   N16       1.0  0.61958  0.31107  0.73149  1.0000
  C   C69       1.0  0.17063  0.55049  0.76629  1.0000
  C   C70       1.0  0.20785  0.59574  0.69013  1.0000
  C  Sn1       1.0  0.19422  0.62815  0.59594  1.0000
  C  Sn2       1.0  0.14234  0.61492  0.57792  1.0000
  C   C71       1.0  0.10540  0.56959  0.65470  1.0000
  C   C72       1.0  0.11945  0.53743  0.74863  1.0000
  H   H45       1.0  0.18150  0.52562  0.83904  1.0000
  O  Te1       1.0  0.23189  0.67320  0.52064  1.0000
  O  Te2       1.0  0.12767  0.64663  0.48453  1.0000
  H   H46       1.0  0.09063  0.50242  0.80767  1.0000
  Mg  Mg1       1.0  0.19296  0.70392  0.40582  1.0000
  C   C73       1.0  0.62460  0.15778  0.09827  1.0000
  C   C74       1.0  0.57842  0.12090  0.16389  1.0000
  C  Sn3       1.0  0.54912  0.13810  0.24881  1.0000
  C  Sn4       1.0  0.56645  0.19326  0.26816  1.0000
  C   C75       1.0  0.61268  0.22983  0.20195  1.0000
  C   C76       1.0  0.64171  0.21219  0.11724  1.0000
  H   H47       1.0  0.64705  0.14413  0.03265  1.0000
  O  Te3       1.0  0.50308  0.10072  0.31364  1.0000
  O  Te4       1.0  0.53791  0.21153  0.35243  1.0000
  H   H48       1.0  0.67744  0.24075  0.06636  1.0000
  Mg  Mg2       1.0  0.47774  0.14517  0.41857  1.0000
  C   C77       1.0  0.63917  0.18830  0.60430  1.0000
  C   C78       1.0  0.62256  0.22068  0.67907  1.0000
  C  Sn5       1.0  0.57681  0.19811  0.76192  1.0000
  C  Sn6       1.0  0.54723  0.14207  0.76989  1.0000
  C   C79       1.0  0.56419  0.11002  0.69479  1.0000
  C   C80       1.0  0.61002  0.13302  0.61216  1.0000
  H   H49       1.0  0.67464  0.20609  0.54044  1.0000
  O  Te5       1.0  0.56077  0.23104  0.83590  1.0000
  O  Te6       1.0  0.50136  0.11847  0.85195  1.0000
  H   H50       1.0  0.62288  0.10794  0.55437  1.0000
  Mg  Mg3       1.0  0.49557  0.18010  0.93336  1.0000
  C   C81       1.0  0.45199  0.60534  0.19828  1.0000
  C   C82       1.0  0.43845  0.55829  0.28408  1.0000
  C  Sn7       1.0  0.39235  0.53276  0.36453  1.0000
  C  Sn8       1.0  0.35925  0.55482  0.35872  1.0000
  C   C83       1.0  0.37312  0.60188  0.27245  1.0000
  C   C84       1.0  0.41936  0.62711  0.19243  1.0000
  H   H51       1.0  0.48775  0.62485  0.13628  1.0000
  O  Te7       1.0  0.37942  0.48579  0.44975  1.0000
  O  Te8       1.0  0.31293  0.53011  0.43798  1.0000
  H   H52       1.0  0.42981  0.66352  0.12591  1.0000
  Mg  Mg4       1.0  0.31220  0.46686  0.53821  1.0000
  C   C85       1.0  0.62550  0.47016  0.61757  1.0000
  C   C86       1.0  0.57690  0.45713  0.66787  1.0000
  C  Sn9       1.0  0.54896  0.41148  0.76059  1.0000
  C  Sn10      1.0  0.57017  0.37835  0.80360  1.0000
  C   C87       1.0  0.61884  0.39177  0.75278  1.0000
  C   C88       1.0  0.64646  0.43753  0.65999  1.0000
  H   H53       1.0  0.64689  0.50559  0.54585  1.0000
  O  Te9       1.0  0.50045  0.39903  0.80978  1.0000
  O  Te10      1.0  0.54308  0.33251  0.89623  1.0000
  H   H54       1.0  0.68410  0.44763  0.62116  1.0000
  Mg  Mg5       1.0  0.47841  0.33233  0.93429  1.0000
  C   C89       1.0  0.82604  0.45113  0.72582  1.0000
  C   C90       1.0  0.78932  0.40228  0.78515  1.0000
  C  Sn11      1.0  0.80391  0.37063  0.87934  1.0000
  C  Sn12      1.0  0.85627  0.38832  0.91462  1.0000
  C   C91       1.0  0.89272  0.43727  0.85479  1.0000
  C   C92       1.0  0.87769  0.46861  0.76061  1.0000
  H   H55       1.0  0.81442  0.47540  0.65303  1.0000
  O  Te11      1.0  0.76673  0.32192  0.93760  1.0000
  O  Te12      1.0  0.85948  0.35155  0.00851  1.0000
  H   H56       1.0  0.90613  0.50645  0.71479  1.0000
  Mg  Mg6       1.0  0.79454  0.28816  0.06027  1.0000
