data_image0
_chemical_formula_structural       H16C28N20C2Sn2C2HTe2HMgC2Sn2C2HTe2HMgC2Sn2C2HTe2HMgC2Sn2C2HTe2HMgC2Sn2C2HTe2HMgC2Sn2C2HTe2HMgC2Sn2C2HTe2HMgC2Sn2C2HTe2HMgC2Sn2C2HTe2HMgC2Sn2C2HTe2HMgC2Sn2C2HTe2HMgC2Sn2C2HTe2HMg
_chemical_formula_sum              "H40 C76 N20 Sn24 Te24 Mg12"
_cell_length_a       30.3477
_cell_length_b       29.0731
_cell_length_c       7.97949
_cell_angle_alpha    110.637
_cell_angle_beta     74.1196
_cell_angle_gamma    121.086

_symmetry_space_group_name_H-M    'P1'
_space_group_IT_number       1

loop_
  _space_group_symop_operation_xyz
  'x, y, z'

loop_
  _atom_site_type_symbol
  _atom_site_label
  _atom_site_symmetry_multiplicity
  _atom_site_fract_x
  _atom_site_fract_y
  _atom_site_fract_z
  _atom_site_occupancy
  H   H1        1.0  0.94991  0.42694  0.35122  1.0000
  H   H2        1.0  0.04947  0.57201  0.15587  1.0000
  H   H3        1.0  0.57837  0.53133  0.13436  1.0000
  H   H4        1.0  0.42229  0.47338  0.37444  1.0000
  H   H5        1.0  0.47041  0.04105  0.15658  1.0000
  H   H6        1.0  0.52840  0.96344  0.33755  1.0000
  H   H7        1.0  0.73018  0.43836  0.20216  1.0000
  H   H8        1.0  0.27218  0.56546  0.29590  1.0000
  H   H9        1.0  0.94970  0.42149  0.84836  1.0000
  H   H10       1.0  0.04900  0.56834  0.66436  1.0000
  H   H11       1.0  0.58109  0.53011  0.63276  1.0000
  H   H12       1.0  0.42463  0.47235  0.86939  1.0000
  H   H13       1.0  0.46944  0.03842  0.65803  1.0000
  H   H14       1.0  0.52800  0.96056  0.83500  1.0000
  H   H15       1.0  0.73065  0.43479  0.70096  1.0000
  H   H16       1.0  0.27256  0.56340  0.80163  1.0000
  C   C1        1.0  0.72439  0.36459  0.23665  1.0000
  C   C2        1.0  0.27679  0.63926  0.26557  1.0000
  C   C3        1.0  0.93968  0.44939  0.29606  1.0000
  C   C4        1.0  0.06029  0.55030  0.21220  1.0000
  C   C5        1.0  0.65169  0.37130  0.20301  1.0000
  C   C6        1.0  0.35025  0.63342  0.29703  1.0000
  C   C7        1.0  0.55495  0.49569  0.19339  1.0000
  C   C8        1.0  0.44609  0.50905  0.31557  1.0000
  C   C9        1.0  0.70504  0.39573  0.21021  1.0000
  C   C10       1.0  0.29684  0.60831  0.28909  1.0000
  C   C11       1.0  0.64201  0.29082  0.23465  1.0000
  C   C12       1.0  0.35891  0.71355  0.26563  1.0000
  C   C13       1.0  0.50729  0.05977  0.21033  1.0000
  C   C14       1.0  0.49118  0.94471  0.28615  1.0000
  C   C15       1.0  0.72425  0.36092  0.73873  1.0000
  C   C16       1.0  0.27667  0.63655  0.76785  1.0000
  C   C17       1.0  0.93949  0.44427  0.79480  1.0000
  C   C18       1.0  0.06008  0.54547  0.71396  1.0000
  C   C19       1.0  0.65193  0.36824  0.70488  1.0000
  C   C20       1.0  0.35033  0.63143  0.80068  1.0000
  C   C21       1.0  0.55739  0.49513  0.69487  1.0000
  C   C22       1.0  0.44849  0.50871  0.81390  1.0000
  C   C23       1.0  0.70532  0.39231  0.71093  1.0000
  C   C24       1.0  0.29693  0.60615  0.79381  1.0000
  C   C25       1.0  0.64173  0.28745  0.73627  1.0000
  C   C26       1.0  0.35848  0.71108  0.76781  1.0000
  C   C27       1.0  0.50657  0.05666  0.70939  1.0000
  C   C28       1.0  0.49045  0.94177  0.78574  1.0000
  N   N1        1.0  0.97552  0.49343  0.24298  1.0000
  N   N2        1.0  0.02477  0.50636  0.26647  1.0000
  N   N3        1.0  0.69259  0.31176  0.24842  1.0000
  N   N4        1.0  0.30806  0.69228  0.25486  1.0000
  N   N5        1.0  0.50733  0.48367  0.26159  1.0000
  N   N6        1.0  0.49368  0.52091  0.24763  1.0000
  N   N7        1.0  0.51867  0.02966  0.26140  1.0000
  N   N8        1.0  0.47928  0.97486  0.23753  1.0000
  N   N9        1.0  0.62014  0.31866  0.21540  1.0000
  N   N10       1.0  0.38135  0.68614  0.28430  1.0000
  N   N11       1.0  0.97543  0.48811  0.74099  1.0000
  N   N12       1.0  0.02472  0.50028  0.76155  1.0000
  N   N13       1.0  0.69218  0.30815  0.75091  1.0000
  N   N14       1.0  0.30768  0.68940  0.75541  1.0000
  N   N15       1.0  0.51007  0.48415  0.76517  1.0000
  N   N16       1.0  0.49656  0.52151  0.75064  1.0000
  N   N17       1.0  0.51799  0.02634  0.75911  1.0000
  N   N18       1.0  0.47842  0.97173  0.73680  1.0000
  N   N19       1.0  0.62014  0.31568  0.71777  1.0000
  N   N20       1.0  0.38116  0.68408  0.78735  1.0000
  C   C29       1.0  0.80627  0.35371  0.30348  1.0000
  C   C30       1.0  0.78260  0.37977  0.27153  1.0000
  C  Sn1       1.0  0.81248  0.43230  0.23796  1.0000
  C  Sn2       1.0  0.86705  0.45914  0.23638  1.0000
  C   C31       1.0  0.89036  0.43270  0.26837  1.0000
  C   C32       1.0  0.86010  0.38014  0.30188  1.0000
  H   H17       1.0  0.78286  0.31303  0.32931  1.0000
  O  Te1       1.0  0.78820  0.45775  0.20638  1.0000
  O  Te2       1.0  0.89784  0.51164  0.20313  1.0000
  H   H18       1.0  0.87844  0.35996  0.32649  1.0000
  Mg  Mg1       1.0  0.84676  0.52940  0.16762  1.0000
  C   C33       1.0  0.16463  0.63620  0.19490  1.0000
  C   C34       1.0  0.12339  0.58397  0.20621  1.0000
  C  Sn3       1.0  0.13105  0.54645  0.25087  1.0000
  C  Sn4       1.0  0.18097  0.56163  0.28480  1.0000
  C   C35       1.0  0.22198  0.61400  0.27327  1.0000
  C   C36       1.0  0.21388  0.65121  0.22842  1.0000
  H   H19       1.0  0.15837  0.66501  0.16030  1.0000
  O  Te3       1.0  0.08942  0.49442  0.26152  1.0000
  O  Te4       1.0  0.18971  0.52494  0.32977  1.0000
  H   H20       1.0  0.24581  0.69167  0.21979  1.0000
  Mg  Mg2       1.0  0.12071  0.45881  0.32749  1.0000
  C   C37       1.0  0.54876  0.40171  0.26231  1.0000
  C   C38       1.0  0.57063  0.45242  0.21931  1.0000
  C  Sn5       1.0  0.62279  0.47754  0.15078  1.0000
  C  Sn6       1.0  0.65352  0.45130  0.12492  1.0000
  C   C39       1.0  0.63128  0.40056  0.16823  1.0000
  C   C40       1.0  0.57905  0.37579  0.23677  1.0000
  H   H21       1.0  0.50835  0.38253  0.31525  1.0000
  O  Te5       1.0  0.64402  0.52821  0.10860  1.0000
  O  Te6       1.0  0.70575  0.47548  0.05657  1.0000
  H   H22       1.0  0.56212  0.33652  0.26994  1.0000
  Mg  Mg3       1.0  0.71701  0.54477  0.01925  1.0000
  C   C41       1.0  0.35862  0.52708  0.39053  1.0000
  C   C42       1.0  0.40907  0.53518  0.32365  1.0000
  C  Sn7       1.0  0.44453  0.58079  0.25329  1.0000
  C  Sn8       1.0  0.42909  0.61893  0.25005  1.0000
  C   C43       1.0  0.37855  0.61049  0.31741  1.0000
  C   C44       1.0  0.34338  0.56470  0.38746  1.0000
  H   H23       1.0  0.33141  0.49168  0.44483  1.0000
  O  Te7       1.0  0.49476  0.58824  0.18695  1.0000
  O  Te8       1.0  0.46376  0.66488  0.18055  1.0000
  H   H24       1.0  0.30433  0.55846  0.43934  1.0000
  Mg  Mg4       1.0  0.52794  0.65717  0.10582  1.0000
  C   C45       1.0  0.62232  0.18834  0.28887  1.0000
  C   C46       1.0  0.61417  0.22439  0.23753  1.0000
  C  Sn9       1.0  0.56651  0.20672  0.18429  1.0000
  C  Sn10      1.0  0.52632  0.15192  0.18260  1.0000
  C   C47       1.0  0.53484  0.11619  0.23433  1.0000
  C   C48       1.0  0.58269  0.13429  0.28731  1.0000
  H   H25       1.0  0.65933  0.20235  0.32996  1.0000
  O  Te9       1.0  0.55903  0.24326  0.13334  1.0000
  O  Te10      1.0  0.47829  0.13319  0.13005  1.0000
  H   H26       1.0  0.58897  0.10638  0.32717  1.0000
  Mg  Mg5       1.0  0.48684  0.19844  0.07230  1.0000
  C   C49       1.0  0.39364  0.84579  0.21426  1.0000
  C   C50       1.0  0.44333  0.88070  0.26785  1.0000
  C  Sn11      1.0  0.46919  0.85926  0.31290  1.0000
  C  Sn12      1.0  0.44478  0.80178  0.30397  1.0000
  C   C51       1.0  0.39508  0.76719  0.25007  1.0000
  C   C52       1.0  0.36954  0.78908  0.20534  1.0000
  H   H27       1.0  0.37389  0.86271  0.17955  1.0000
  O  Te11      1.0  0.51881  0.89473  0.36624  1.0000
  O  Te12      1.0  0.46976  0.77925  0.34819  1.0000
  H   H28       1.0  0.33109  0.76203  0.16374  1.0000
  Mg  Mg6       1.0  0.53705  0.84441  0.41320  1.0000
  C   C53       1.0  0.83367  0.36197  0.82421  1.0000
  C   C54       1.0  0.87695  0.41007  0.78683  1.0000
  C  Sn13      1.0  0.87086  0.44802  0.73827  1.0000
  C  Sn14      1.0  0.82046  0.43750  0.72710  1.0000
  C   C55       1.0  0.77741  0.38927  0.76489  1.0000
  C   C56       1.0  0.78394  0.35157  0.81329  1.0000
  H   H29       1.0  0.83872  0.33281  0.86176  1.0000
  O  Te13      1.0  0.91452  0.49586  0.70130  1.0000
  O  Te14      1.0  0.81327  0.47473  0.67895  1.0000
  H   H30       1.0  0.75042  0.31434  0.84235  1.0000
  Mg  Mg7       1.0  0.88480  0.53408  0.64127  1.0000
  C   C57       1.0  0.19271  0.64328  0.69612  1.0000
  C   C58       1.0  0.21711  0.62230  0.75163  1.0000
  C  Sn15      1.0  0.18889  0.57009  0.78780  1.0000
  C  Sn16      1.0  0.13526  0.53839  0.76786  1.0000
  C   C59       1.0  0.11122  0.55974  0.71213  1.0000
  C   C60       1.0  0.13982  0.61204  0.67635  1.0000
  H   H31       1.0  0.21485  0.68374  0.66834  1.0000
  O  Te15      1.0  0.21386  0.54976  0.84320  1.0000
  O  Te16      1.0  0.10613  0.48608  0.80305  1.0000
  H   H32       1.0  0.12093  0.62826  0.63326  1.0000
  Mg  Mg8       1.0  0.15761  0.47626  0.87511  1.0000
  C   C61       1.0  0.65698  0.45896  0.61381  1.0000
  C   C62       1.0  0.63698  0.41390  0.68724  1.0000
  C  Sn17      1.0  0.58520  0.39030  0.76106  1.0000
  C  Sn18      1.0  0.55294  0.41230  0.76113  1.0000
  C   C63       1.0  0.57332  0.45736  0.68723  1.0000
  C   C64       1.0  0.62519  0.48067  0.61376  1.0000
  H   H33       1.0  0.69711  0.47698  0.55687  1.0000
  O  Te17      1.0  0.56584  0.34532  0.83393  1.0000
  O  Te18      1.0  0.50104  0.38950  0.83398  1.0000
  H   H34       1.0  0.64066  0.51553  0.55681  1.0000
  Mg  Mg9       1.0  0.49258  0.32855  0.91755  1.0000
  C   C65       1.0  0.36020  0.52548  0.89128  1.0000
  C   C66       1.0  0.41077  0.53430  0.82284  1.0000
  C  Sn19      1.0  0.44551  0.58014  0.75279  1.0000
  C  Sn20      1.0  0.42921  0.61779  0.75147  1.0000
  C   C67       1.0  0.37855  0.60862  0.82037  1.0000
  C   C68       1.0  0.34410  0.56260  0.89009  1.0000
  H   H35       1.0  0.33355  0.48989  0.94531  1.0000
  O  Te19      1.0  0.49589  0.58832  0.68489  1.0000
  O  Te20      1.0  0.46314  0.66396  0.68233  1.0000
  H   H36       1.0  0.30496  0.55581  0.94318  1.0000
  Mg  Mg10      1.0  0.52785  0.65730  0.60498  1.0000
  C   C69       1.0  0.62200  0.18470  0.78699  1.0000
  C   C70       1.0  0.61376  0.22108  0.73792  1.0000
  C  Sn21      1.0  0.56604  0.20363  0.68559  1.0000
  C  Sn22      1.0  0.52590  0.14873  0.68251  1.0000
  C   C71       1.0  0.53451  0.11267  0.73197  1.0000
  C   C72       1.0  0.58242  0.13055  0.78406  1.0000
  H   H37       1.0  0.65905  0.19854  0.82740  1.0000
  O  Te21      1.0  0.55847  0.24050  0.63692  1.0000
  O  Te22      1.0  0.47782  0.13022  0.63082  1.0000
  H   H38       1.0  0.58878  0.10239  0.82216  1.0000
  Mg  Mg11      1.0  0.48624  0.19588  0.57627  1.0000
  C   C73       1.0  0.39286  0.84289  0.71516  1.0000
  C   C74       1.0  0.44253  0.87799  0.76871  1.0000
  C  Sn23      1.0  0.46853  0.85678  0.81423  1.0000
  C  Sn24      1.0  0.44426  0.79935  0.80581  1.0000
  C   C75       1.0  0.39457  0.76457  0.75195  1.0000
  C   C76       1.0  0.36890  0.78624  0.70675  1.0000
  H   H39       1.0  0.37300  0.85964  0.68009  1.0000
  O  Te23      1.0  0.51813  0.89243  0.86751  1.0000
  O  Te24      1.0  0.46937  0.77705  0.85051  1.0000
  H   H40       1.0  0.33045  0.75904  0.66519  1.0000
  Mg  Mg12      1.0  0.53659  0.84240  0.91524  1.0000
