data_image0
_chemical_formula_structural       H48C72N12SnCSn2CSnTe4Mg2SnCSn2CSnTe4Mg2SnCSn2CSnTe4Mg2SnCSn2CSnTe4Mg2SnCSn2CSnTe4Mg2SnCSn2CSnTe4Mg2
_chemical_formula_sum              "H48 C84 N12 Sn24 Te24 Mg12"
_cell_length_a       29.5424
_cell_length_b       29.5937
_cell_length_c       8.02371
_cell_angle_alpha    89.8352
_cell_angle_beta     89.4776
_cell_angle_gamma    120.491

_symmetry_space_group_name_H-M    'P1'
_space_group_IT_number       1

loop_
  _space_group_symop_operation_xyz
  'x, y, z'

loop_
  _atom_site_type_symbol
  _atom_site_label
  _atom_site_symmetry_multiplicity
  _atom_site_fract_x
  _atom_site_fract_y
  _atom_site_fract_z
  _atom_site_occupancy
  H   H1        1.0  0.56625  0.28813  0.38889  1.0000
  H   H2        1.0  0.70598  0.27784  0.39889  1.0000
  H   H3        1.0  0.71826  0.42873  0.38416  1.0000
  H   H4        1.0  0.43095  0.71024  0.10316  1.0000
  H   H5        1.0  0.29069  0.71984  0.09288  1.0000
  H   H6        1.0  0.27983  0.56958  0.13179  1.0000
  H   H7        1.0  0.53713  0.21474  0.03106  1.0000
  H   H8        1.0  0.78371  0.32568  0.03531  1.0000
  H   H9        1.0  0.46248  0.78952  0.43729  1.0000
  H   H10       1.0  0.48388  0.11482  0.52238  1.0000
  H   H11       1.0  0.87433  0.36091  0.52689  1.0000
  H   H12       1.0  0.11817  0.63052  0.99601  1.0000
  H   H13       1.0  0.60057  0.11550  0.19634  1.0000
  H   H14       1.0  0.88670  0.48692  0.22361  1.0000
  H   H15       1.0  0.11315  0.50756  0.29620  1.0000
  H   H16       1.0  0.56488  0.52936  0.42644  1.0000
  H   H17       1.0  0.46857  0.03153  0.41127  1.0000
  H   H18       1.0  0.96222  0.43165  0.43556  1.0000
  H   H19       1.0  0.43569  0.47195  0.09855  1.0000
  H   H20       1.0  0.52992  0.96700  0.06223  1.0000
  H   H21       1.0  0.03335  0.55900  0.08892  1.0000
  H   H22       1.0  0.21029  0.55094  0.27714  1.0000
  H   H23       1.0  0.65497  0.21191  0.22270  1.0000
  H   H24       1.0  0.79023  0.44723  0.23601  1.0000
  H   H25       1.0  0.56928  0.29055  0.88947  1.0000
  H   H26       1.0  0.70896  0.27974  0.90057  1.0000
  H   H27       1.0  0.72086  0.43069  0.87942  1.0000
  H   H28       1.0  0.43436  0.71196  0.60910  1.0000
  H   H29       1.0  0.29506  0.72293  0.58879  1.0000
  H   H30       1.0  0.28218  0.57186  0.62216  1.0000
  H   H31       1.0  0.53802  0.21116  0.54860  1.0000
  H   H32       1.0  0.77810  0.32205  0.54495  1.0000
  H   H33       1.0  0.21461  0.67350  0.97262  1.0000
  H   H34       1.0  0.48210  0.11862  0.00688  1.0000
  H   H35       1.0  0.88012  0.36822  0.02038  1.0000
  H   H36       1.0  0.51457  0.88645  0.45378  1.0000
  H   H37       1.0  0.60422  0.11465  0.72434  1.0000
  H   H38       1.0  0.88768  0.49199  0.71697  1.0000
  H   H39       1.0  0.39609  0.88584  0.77019  1.0000
  H   H40       1.0  0.56647  0.52937  0.92638  1.0000
  H   H41       1.0  0.46857  0.03384  0.91442  1.0000
  H   H42       1.0  0.96619  0.43882  0.92599  1.0000
  H   H43       1.0  0.43569  0.47102  0.60207  1.0000
  H   H44       1.0  0.52917  0.96972  0.56174  1.0000
  H   H45       1.0  0.03804  0.56583  0.57974  1.0000
  H   H46       1.0  0.34421  0.78885  0.75686  1.0000
  H   H47       1.0  0.65993  0.21155  0.74686  1.0000
  H   H48       1.0  0.79103  0.44917  0.73009  1.0000
  C   C1        1.0  0.60889  0.30742  0.39162  1.0000
  C   C2        1.0  0.68742  0.30152  0.39750  1.0000
  C   C3        1.0  0.69432  0.38619  0.38880  1.0000
  C   C4        1.0  0.38833  0.69115  0.10401  1.0000
  C   C5        1.0  0.30944  0.69637  0.09889  1.0000
  C   C6        1.0  0.30320  0.61206  0.11963  1.0000
  C   C7        1.0  0.63247  0.27653  0.39490  1.0000
  C   C8        1.0  0.71901  0.35636  0.39421  1.0000
  C   C9        1.0  0.63931  0.36241  0.38786  1.0000
  C   C10       1.0  0.36455  0.72185  0.09634  1.0000
  C   C11       1.0  0.27806  0.64152  0.11189  1.0000
  C   C12       1.0  0.35819  0.63630  0.11574  1.0000
  C   C13       1.0  0.60032  0.21883  0.38644  1.0000
  C   C14       1.0  0.77678  0.38133  0.39098  1.0000
  C   C15       1.0  0.22012  0.61560  0.12287  1.0000
  C   C16       1.0  0.55150  0.19054  0.46906  1.0000
  C   C17       1.0  0.80162  0.35754  0.47124  1.0000
  C   C18       1.0  0.19303  0.63769  0.04638  1.0000
  C   C19       1.0  0.52120  0.13622  0.45538  1.0000
  C   C20       1.0  0.85593  0.37986  0.46306  1.0000
  C   C21       1.0  0.13856  0.61332  0.05820  1.0000
  C   C22       1.0  0.53839  0.10843  0.35669  1.0000
  C   C23       1.0  0.88734  0.42687  0.37389  1.0000
  C   C24       1.0  0.10916  0.56610  0.14799  1.0000
  C   C25       1.0  0.58761  0.13672  0.27509  1.0000
  C   C26       1.0  0.86258  0.45111  0.29500  1.0000
  C   C27       1.0  0.13599  0.54362  0.22437  1.0000
  C   C28       1.0  0.61792  0.19069  0.29094  1.0000
  C   C29       1.0  0.80848  0.42881  0.30375  1.0000
  C   C30       1.0  0.19027  0.56792  0.21158  1.0000
  C   C31       1.0  0.54601  0.49256  0.35701  1.0000
  C   C32       1.0  0.50495  0.05215  0.33721  1.0000
  C   C33       1.0  0.94381  0.44903  0.36145  1.0000
  C   C34       1.0  0.45210  0.50752  0.17408  1.0000
  C   C35       1.0  0.49265  0.94696  0.13191  1.0000
  C   C36       1.0  0.05268  0.54270  0.16351  1.0000
  C   C37       1.0  0.61188  0.30932  0.89142  1.0000
  C   C38       1.0  0.69037  0.30340  0.89657  1.0000
  C   C39       1.0  0.69724  0.38813  0.88610  1.0000
  C   C40       1.0  0.39174  0.69288  0.60614  1.0000
  C   C41       1.0  0.31326  0.69896  0.59564  1.0000
  C   C42       1.0  0.30622  0.61433  0.61338  1.0000
  C   C43       1.0  0.63530  0.27827  0.89508  1.0000
  C   C44       1.0  0.72196  0.35829  0.89032  1.0000
  C   C45       1.0  0.64234  0.36423  0.88800  1.0000
  C   C46       1.0  0.36826  0.72388  0.59737  1.0000
  C   C47       1.0  0.28160  0.64420  0.60505  1.0000
  C   C48       1.0  0.36114  0.63781  0.61407  1.0000
  C   C49       1.0  0.60263  0.22053  0.88937  1.0000
  C   C50       1.0  0.77983  0.38405  0.88411  1.0000
  C   C51       1.0  0.39975  0.78182  0.59826  1.0000
  C   C52       1.0  0.55184  0.19341  0.96052  1.0000
  C   C53       1.0  0.80617  0.36166  0.96304  1.0000
  C   C54       1.0  0.44827  0.81017  0.51377  1.0000
  C   C55       1.0  0.52091  0.13912  0.94834  1.0000
  C   C56       1.0  0.86069  0.38592  0.95553  1.0000
  C   C57       1.0  0.47748  0.86474  0.52197  1.0000
  C   C58       1.0  0.53940  0.11013  0.86266  1.0000
  C   C59       1.0  0.89101  0.43330  0.86709  1.0000
  C   C60       1.0  0.45950  0.89268  0.61632  1.0000
  C   C61       1.0  0.59038  0.13714  0.79238  1.0000
  C   C62       1.0  0.86469  0.45590  0.78811  1.0000
  C   C63       1.0  0.41021  0.86443  0.69739  1.0000
  C   C64       1.0  0.62128  0.19114  0.80623  1.0000
  C   C65       1.0  0.81042  0.43181  0.79702  1.0000
  C   C66       1.0  0.38114  0.81022  0.68789  1.0000
  C   C67       1.0  0.54830  0.49307  0.85419  1.0000
  C   C68       1.0  0.50565  0.05386  0.84385  1.0000
  C   C69       1.0  0.94765  0.45673  0.85530  1.0000
  C   C70       1.0  0.45435  0.50799  0.67067  1.0000
  C   C71       1.0  0.49271  0.94898  0.63535  1.0000
  C   C72       1.0  0.05687  0.54965  0.65719  1.0000
  N   N1        1.0  0.50486  0.48005  0.26761  1.0000
  N   N2        1.0  0.51710  0.02635  0.23245  1.0000
  N   N3        1.0  0.97215  0.48839  0.26173  1.0000
  N   N4        1.0  0.49039  0.51813  0.27511  1.0000
  N   N5        1.0  0.47926  0.97316  0.23076  1.0000
  N   N6        1.0  0.02517  0.50385  0.26603  1.0000
  N   N7        1.0  0.50862  0.48169  0.75872  1.0000
  N   N8        1.0  0.51838  0.02774  0.74248  1.0000
  N   N9        1.0  0.97612  0.49725  0.75972  1.0000
  N   N10       1.0  0.49467  0.52016  0.76398  1.0000
  N   N11       1.0  0.48062  0.97451  0.74144  1.0000
  N   N12       1.0  0.02906  0.51206  0.76327  1.0000
  C  Sn1       1.0  0.18022  0.55566  0.67287  1.0000
  C   C73       1.0  0.21588  0.60196  0.58938  1.0000
  C  Sn2       1.0  0.20057  0.63722  0.53683  1.0000
  C  Sn3       1.0  0.14854  0.62600  0.56850  1.0000
  C   C74       1.0  0.11292  0.57973  0.65197  1.0000
  C  Sn4       1.0  0.12819  0.54443  0.70454  1.0000
  O  Te1       1.0  0.19638  0.52097  0.72428  1.0000
  O  Te2       1.0  0.23692  0.68325  0.45353  1.0000
  O  Te3       1.0  0.13240  0.66073  0.51700  1.0000
  O  Te4       1.0  0.09188  0.49844  0.78781  1.0000
  Mg  Mg1       1.0  0.19621  0.71823  0.40818  1.0000
  Mg  Mg2       1.0  0.13255  0.46344  0.83330  1.0000
  C  Sn5       1.0  0.44817  0.59681  0.76603  1.0000
  C   C75       1.0  0.42988  0.54637  0.70472  1.0000
  C  Sn6       1.0  0.38993  0.52518  0.58698  1.0000
  C  Sn7       1.0  0.36782  0.55504  0.52923  1.0000
  C   C76       1.0  0.38611  0.60546  0.59051  1.0000
  C  Sn8       1.0  0.42606  0.62668  0.70828  1.0000
  O  Te5       1.0  0.48815  0.61721  0.88368  1.0000
  O  Te6       1.0  0.37228  0.47465  0.52756  1.0000
  O  Te7       1.0  0.32781  0.53460  0.41149  1.0000
  O  Te8       1.0  0.44371  0.67717  0.76766  1.0000
  Mg  Mg3       1.0  0.31705  0.46402  0.36801  1.0000
  Mg  Mg4       1.0  0.49896  0.68785  0.92714  1.0000
  C  Sn9       1.0  0.35484  0.53920  0.08372  1.0000
  C   C77       1.0  0.37151  0.58834  0.15336  1.0000
  C  Sn10      1.0  0.42204  0.61786  0.21769  1.0000
  C  Sn11      1.0  0.45666  0.59786  0.21220  1.0000
  C   C78       1.0  0.43999  0.54875  0.14256  1.0000
  C  Sn12      1.0  0.38946  0.51920  0.07823  1.0000
  O  Te9       1.0  0.30416  0.51036  0.02015  1.0000
  O  Te10      1.0  0.43780  0.66689  0.28674  1.0000
  O  Te11      1.0  0.50737  0.62675  0.27585  1.0000
  O  Te12      1.0  0.37370  0.47021  0.00919  1.0000
  Mg  Mg5       1.0  0.51067  0.69142  0.35720  1.0000
  Mg  Mg6       1.0  0.29698  0.44292  0.93861  1.0000
  C  Sn13      1.0  0.63180  0.44862  0.01257  1.0000
  C   C79       1.0  0.61262  0.39862  0.93143  1.0000
  C  Sn14      1.0  0.57753  0.38280  0.79911  1.0000
  C  Sn15      1.0  0.55736  0.41491  0.74671  1.0000
  C   C80       1.0  0.57268  0.46214  0.82780  1.0000
  C  Sn16      1.0  0.60776  0.47798  0.96017  1.0000
  O  Te13      1.0  0.66693  0.46366  0.14455  1.0000
  O  Te14      1.0  0.56279  0.33538  0.71996  1.0000
  O  Te15      1.0  0.52221  0.39983  0.61461  1.0000
  O  Te16      1.0  0.62638  0.52812  0.03927  1.0000
  Mg  Mg7       1.0  0.51394  0.33185  0.54627  1.0000
  Mg  Mg8       1.0  0.67524  0.53170  0.21291  1.0000
  C  Sn17      1.0  0.40593  0.85095  0.23429  1.0000
  C   C81       1.0  0.45534  0.88379  0.16204  1.0000
  C  Sn18      1.0  0.47500  0.86488  0.03875  1.0000
  C  Sn19      1.0  0.44075  0.80932  0.98648  1.0000
  C   C82       1.0  0.39523  0.77926  0.05869  1.0000
  C  Sn20      1.0  0.37555  0.79813  0.18202  1.0000
  O  Te17      1.0  0.38706  0.87069  0.35733  1.0000
  O  Te18      1.0  0.52064  0.89571  0.96840  1.0000
  O  Te19      1.0  0.45966  0.78961  0.86333  1.0000
  O  Te20      1.0  0.32606  0.76460  0.25233  1.0000
  Mg  Mg9       1.0  0.52931  0.85057  0.80501  1.0000
  Mg  Mg10      1.0  0.31735  0.80970  0.41566  1.0000
  C  Sn21      1.0  0.63253  0.47909  0.40704  1.0000
  C   C83       1.0  0.58462  0.46742  0.33758  1.0000
  C  Sn22      1.0  0.54714  0.41573  0.29906  1.0000
  C  Sn23      1.0  0.55775  0.37485  0.33073  1.0000
  C   C84       1.0  0.60564  0.38652  0.40018  1.0000
  C  Sn24      1.0  0.64315  0.43820  0.43871  1.0000
  O  Te21      1.0  0.66943  0.53104  0.44456  1.0000
  O  Te22      1.0  0.49953  0.40504  0.22965  1.0000
  O  Te23      1.0  0.52081  0.32287  0.29314  1.0000
  O  Te24      1.0  0.69073  0.44890  0.50811  1.0000
  Mg  Mg11      1.0  0.46175  0.32805  0.20021  1.0000
  Mg  Mg12      1.0  0.72852  0.52587  0.53767  1.0000
