data_image0
_chemical_formula_structural       H12C24N24C2Sn2C2HTe2HMgC2Sn2C2HTe2HMgC2Sn2C2HTe2HMgC2Sn2C2HTe2HMgC2Sn2C2HTe2HMgC2Sn2C2HTe2HMgC2Sn2C2HTe2HMgC2Sn2C2HTe2HMgC2Sn2C2HTe2HMgC2Sn2C2HTe2HMgC2Sn2C2HTe2HMgC2Sn2C2HTe2HMg
_chemical_formula_sum              "H36 C72 N24 Sn24 Te24 Mg12"
_cell_length_a       29.4278
_cell_length_b       29.4562
_cell_length_c       8.04776
_cell_angle_alpha    93.1658
_cell_angle_beta     61.5978
_cell_angle_gamma    120.051

_symmetry_space_group_name_H-M    'P1'
_space_group_IT_number       1

loop_
  _space_group_symop_operation_xyz
  'x, y, z'

loop_
  _atom_site_type_symbol
  _atom_site_label
  _atom_site_symmetry_multiplicity
  _atom_site_fract_x
  _atom_site_fract_y
  _atom_site_fract_z
  _atom_site_occupancy
  H   H1        1.0  0.04722  0.59226  0.22725  1.0000
  H   H2        1.0  0.41921  0.45909  0.18409  1.0000
  H   H3        1.0  0.53552  0.95118  0.30956  1.0000
  H   H4        1.0  0.95293  0.42281  0.27484  1.0000
  H   H5        1.0  0.56790  0.52978  0.28226  1.0000
  H   H6        1.0  0.47058  0.04296  0.22179  1.0000
  H   H7        1.0  0.04700  0.57912  0.73168  1.0000
  H   H8        1.0  0.43509  0.47056  0.68839  1.0000
  H   H9        1.0  0.52805  0.95554  0.80022  1.0000
  H   H10       1.0  0.95354  0.40991  0.77522  1.0000
  H   H11       1.0  0.58460  0.54211  0.78355  1.0000
  H   H12       1.0  0.45861  0.04564  0.73480  1.0000
  C   C1        1.0  0.28216  0.64783  0.24464  1.0000
  C   C2        1.0  0.35095  0.63449  0.25343  1.0000
  C   C3        1.0  0.36296  0.71718  0.25805  1.0000
  C   C4        1.0  0.71603  0.35526  0.25502  1.0000
  C   C5        1.0  0.64403  0.36235  0.24218  1.0000
  C   C6        1.0  0.63605  0.28132  0.25241  1.0000
  C   C7        1.0  0.05962  0.56381  0.24072  1.0000
  C   C8        1.0  0.44069  0.49814  0.21836  1.0000
  C   C9        1.0  0.49723  0.93814  0.28719  1.0000
  C   C10       1.0  0.93958  0.45043  0.26087  1.0000
  C   C11       1.0  0.54537  0.48940  0.25776  1.0000
  C   C12       1.0  0.50816  0.05706  0.24895  1.0000
  C   C13       1.0  0.28448  0.64544  0.74650  1.0000
  C   C14       1.0  0.35695  0.63789  0.75391  1.0000
  C   C15       1.0  0.36286  0.71812  0.76054  1.0000
  C   C16       1.0  0.71821  0.35284  0.75739  1.0000
  C   C17       1.0  0.64989  0.36587  0.74341  1.0000
  C   C18       1.0  0.63648  0.28260  0.75072  1.0000
  C   C19       1.0  0.06073  0.55159  0.74296  1.0000
  C   C20       1.0  0.45728  0.51063  0.71541  1.0000
  C   C21       1.0  0.48764  0.94054  0.78784  1.0000
  C   C22       1.0  0.94086  0.43818  0.76224  1.0000
  C   C23       1.0  0.56242  0.50243  0.75395  1.0000
  C   C24       1.0  0.49699  0.05891  0.75693  1.0000
  N   N1        1.0  0.02476  0.51281  0.25364  1.0000
  N   N2        1.0  0.48481  0.51232  0.25070  1.0000
  N   N3        1.0  0.48328  0.97214  0.26674  1.0000
  N   N4        1.0  0.97374  0.50157  0.24794  1.0000
  N   N5        1.0  0.49876  0.47295  0.23637  1.0000
  N   N6        1.0  0.52181  0.02351  0.27641  1.0000
  N   N7        1.0  0.31272  0.70022  0.24776  1.0000
  N   N8        1.0  0.29957  0.61345  0.24640  1.0000
  N   N9        1.0  0.38403  0.68597  0.26089  1.0000
  N   N10       1.0  0.68724  0.30205  0.26004  1.0000
  N   N11       1.0  0.69624  0.38706  0.24611  1.0000
  N   N12       1.0  0.61229  0.30965  0.24458  1.0000
  N   N13       1.0  0.02680  0.50053  0.75402  1.0000
  N   N14       1.0  0.50352  0.52678  0.73859  1.0000
  N   N15       1.0  0.47078  0.97305  0.77767  1.0000
  N   N16       1.0  0.97555  0.48919  0.74966  1.0000
  N   N17       1.0  0.51745  0.48744  0.72516  1.0000
  N   N18       1.0  0.51009  0.02474  0.78303  1.0000
  N   N19       1.0  0.31216  0.69804  0.75038  1.0000
  N   N20       1.0  0.30507  0.61372  0.74806  1.0000
  N   N21       1.0  0.38739  0.68986  0.76137  1.0000
  N   N22       1.0  0.68705  0.30006  0.75948  1.0000
  N   N23       1.0  0.70133  0.38728  0.75040  1.0000
  N   N24       1.0  0.61595  0.31385  0.74264  1.0000
  C   C25       1.0  0.16583  0.65181  0.22764  1.0000
  C   C26       1.0  0.12584  0.59929  0.22790  1.0000
  C  Sn1       1.0  0.13533  0.55821  0.24454  1.0000
  C  Sn2       1.0  0.18582  0.57005  0.26127  1.0000
  C   C27       1.0  0.22553  0.62272  0.26100  1.0000
  C   C28       1.0  0.21562  0.66352  0.24421  1.0000
  H   H13       1.0  0.15815  0.68338  0.21476  1.0000
  O  Te1       1.0  0.09495  0.50596  0.24447  1.0000
  O  Te2       1.0  0.19635  0.52975  0.27816  1.0000
  H   H14       1.0  0.24657  0.70417  0.24415  1.0000
  Mg  Mg1       1.0  0.12855  0.46479  0.27092  1.0000
  C   C29       1.0  0.43603  0.61621  0.27002  1.0000
  C   C30       1.0  0.38864  0.60638  0.24303  1.0000
  C  Sn3       1.0  0.35303  0.55631  0.21618  1.0000
  C  Sn4       1.0  0.36519  0.51541  0.21650  1.0000
  C   C31       1.0  0.41268  0.52563  0.24376  1.0000
  C   C32       1.0  0.44804  0.57588  0.27043  1.0000
  H   H15       1.0  0.46338  0.65508  0.29076  1.0000
  O  Te3       1.0  0.30588  0.54718  0.18934  1.0000
  O  Te4       1.0  0.33030  0.46500  0.19007  1.0000
  H   H16       1.0  0.48471  0.58346  0.29146  1.0000
  Mg  Mg2       1.0  0.27105  0.47195  0.15910  1.0000
  C   C33       1.0  0.46351  0.80527  0.27944  1.0000
  C   C34       1.0  0.40877  0.77700  0.27879  1.0000
  C  Sn5       1.0  0.38164  0.80378  0.27039  1.0000
  C  Sn6       1.0  0.40997  0.85991  0.26245  1.0000
  C   C35       1.0  0.46476  0.88784  0.26303  1.0000
  C   C36       1.0  0.49150  0.86064  0.27154  1.0000
  H   H17       1.0  0.48423  0.78423  0.28591  1.0000
  O  Te5       1.0  0.32693  0.77492  0.26993  1.0000
  O  Te6       1.0  0.38386  0.88768  0.25389  1.0000
  H   H18       1.0  0.53391  0.88254  0.27191  1.0000
  Mg  Mg3       1.0  0.30904  0.83067  0.25679  1.0000
  C   C37       1.0  0.80606  0.34659  0.27616  1.0000
  C   C38       1.0  0.77592  0.37066  0.27180  1.0000
  C  Sn7       1.0  0.80262  0.42634  0.25212  1.0000
  C  Sn8       1.0  0.86059  0.45842  0.23650  1.0000
  C   C39       1.0  0.89039  0.43395  0.24088  1.0000
  C   C40       1.0  0.86324  0.37820  0.26068  1.0000
  H   H19       1.0  0.78508  0.30346  0.29137  1.0000
  O  Te7       1.0  0.77187  0.44974  0.24810  1.0000
  O  Te8       1.0  0.88833  0.51416  0.21664  1.0000
  H   H20       1.0  0.88661  0.35958  0.26393  1.0000
  Mg  Mg4       1.0  0.82837  0.52732  0.21872  1.0000
  C   C41       1.0  0.54201  0.38993  0.22063  1.0000
  C   C42       1.0  0.55974  0.44172  0.25259  1.0000
  C  Sn9       1.0  0.61132  0.47176  0.27017  1.0000
  C  Sn10      1.0  0.64569  0.44943  0.25537  1.0000
  C   C43       1.0  0.62760  0.39759  0.22324  1.0000
  C   C44       1.0  0.57590  0.36788  0.20593  1.0000
  H   H21       1.0  0.50203  0.36694  0.20712  1.0000
  O  Te9       1.0  0.62839  0.52344  0.30215  1.0000
  O  Te10      1.0  0.69745  0.47858  0.27231  1.0000
  H   H22       1.0  0.56220  0.32780  0.18106  1.0000
  Mg  Mg5       1.0  0.70237  0.54735  0.31533  1.0000
  C   C45       1.0  0.52011  0.15862  0.24322  1.0000
  C   C46       1.0  0.53686  0.12151  0.23762  1.0000
  C  Sn11      1.0  0.58809  0.13613  0.24968  1.0000
  C  Sn12      1.0  0.62311  0.18891  0.26772  1.0000
  C   C47       1.0  0.60595  0.22574  0.27333  1.0000
  C   C48       1.0  0.55461  0.21068  0.26109  1.0000
  H   H23       1.0  0.48038  0.14697  0.23386  1.0000
  O  Te11      1.0  0.60419  0.09856  0.24378  1.0000
  O  Te12      1.0  0.67451  0.20459  0.28013  1.0000
  H   H24       1.0  0.54164  0.23942  0.26556  1.0000
  Mg  Mg6       1.0  0.67807  0.13902  0.26564  1.0000
  C   C49       1.0  0.16563  0.64232  0.72376  1.0000
  C   C50       1.0  0.12710  0.58886  0.72715  1.0000
  C  Sn13      1.0  0.13858  0.54954  0.74805  1.0000
  C  Sn14      1.0  0.18962  0.56412  0.76591  1.0000
  C   C51       1.0  0.22787  0.61770  0.76249  1.0000
  C   C52       1.0  0.21596  0.65673  0.74144  1.0000
  H   H25       1.0  0.15640  0.67251  0.70759  1.0000
  O  Te13      1.0  0.09964  0.49632  0.75107  1.0000
  O  Te14      1.0  0.20214  0.52562  0.78703  1.0000
  H   H26       1.0  0.24578  0.69811  0.73895  1.0000
  Mg  Mg7       1.0  0.13575  0.45839  0.78285  1.0000
  C   C53       1.0  0.36689  0.52239  0.72054  1.0000
  C   C54       1.0  0.42121  0.53816  0.71395  1.0000
  C  Sn15      1.0  0.45584  0.58943  0.73602  1.0000
  C  Sn16      1.0  0.43557  0.62550  0.76525  1.0000
  C   C55       1.0  0.38113  0.60933  0.77176  1.0000
  C   C56       1.0  0.34685  0.55793  0.74945  1.0000
  H   H27       1.0  0.34034  0.48262  0.70339  1.0000
  O  Te15      1.0  0.51002  0.60454  0.72898  1.0000
  O  Te16      1.0  0.46928  0.67697  0.78780  1.0000
  H   H28       1.0  0.30477  0.54572  0.75468  1.0000
  Mg  Mg8       1.0  0.54005  0.67894  0.76724  1.0000
  C   C57       1.0  0.46108  0.81018  0.77818  1.0000
  C   C58       1.0  0.40574  0.77905  0.78206  1.0000
  C  Sn17      1.0  0.37539  0.80285  0.77758  1.0000
  C  Sn18      1.0  0.40103  0.85887  0.76899  1.0000
  C   C59       1.0  0.45643  0.88967  0.76502  1.0000
  C   C60       1.0  0.48642  0.86544  0.76963  1.0000
  H   H29       1.0  0.48430  0.79144  0.78164  1.0000
  O  Te17      1.0  0.32012  0.77115  0.78163  1.0000
  O  Te18      1.0  0.37166  0.88370  0.76428  1.0000
  H   H30       1.0  0.52928  0.88956  0.76649  1.0000
  Mg  Mg9       1.0  0.29736  0.82348  0.77263  1.0000
  C   C61       1.0  0.83287  0.34920  0.78791  1.0000
  C   C62       1.0  0.87767  0.40313  0.75602  1.0000
  C  Sn19      1.0  0.86875  0.44420  0.73368  1.0000
  C  Sn20      1.0  0.81390  0.43092  0.74358  1.0000
  C   C63       1.0  0.76934  0.37684  0.77567  1.0000
  C   C64       1.0  0.77875  0.33606  0.79777  1.0000
  H   H31       1.0  0.84013  0.31765  0.80511  1.0000
  O  Te19      1.0  0.91400  0.49787  0.70184  1.0000
  O  Te20      1.0  0.80380  0.47116  0.72182  1.0000
  H   H32       1.0  0.74403  0.29431  0.82258  1.0000
  Mg  Mg10      1.0  0.87905  0.53837  0.68105  1.0000
  C   C65       1.0  0.64755  0.48530  0.76769  1.0000
  C   C66       1.0  0.59980  0.47471  0.74140  1.0000
  C  Sn21      1.0  0.56371  0.42399  0.71932  1.0000
  C  Sn22      1.0  0.57576  0.38321  0.72376  1.0000
  C   C67       1.0  0.62361  0.39421  0.75028  1.0000
  C   C68       1.0  0.65944  0.44510  0.77216  1.0000
  H   H33       1.0  0.67525  0.52467  0.78474  1.0000
  O  Te21      1.0  0.51620  0.41409  0.69312  1.0000
  O  Te22      1.0  0.54039  0.33217  0.70213  1.0000
  H   H34       1.0  0.69638  0.45328  0.79264  1.0000
  Mg  Mg11      1.0  0.48079  0.33819  0.67014  1.0000
  C   C69       1.0  0.51486  0.16325  0.74836  1.0000
  C   C70       1.0  0.52871  0.12397  0.74181  1.0000
  C  Sn23      1.0  0.57996  0.13594  0.74912  1.0000
  C  Sn24      1.0  0.61796  0.18823  0.76330  1.0000
  C   C71       1.0  0.60369  0.22724  0.76990  1.0000
  C   C72       1.0  0.55230  0.21484  0.76242  1.0000
  H   H35       1.0  0.47509  0.15365  0.74268  1.0000
  O  Te23      1.0  0.59314  0.09622  0.74235  1.0000
  O  Te24      1.0  0.66945  0.20127  0.77093  1.0000
  H   H36       1.0  0.54157  0.24525  0.76762  1.0000
  Mg  Mg12      1.0  0.66839  0.13346  0.75708  1.0000
