data_image0
_chemical_formula_structural       H40C64N20SnCSn2CSnTe4Mg2SnCSn2CSnTe4Mg2SnCSn2CSnTe4Mg2SnCSn2CSnTe4Mg2SnCSn2CSnTe4Mg2SnCSn2CSnTe4Mg2
_chemical_formula_sum              "H40 C76 N20 Sn24 Te24 Mg12"
_cell_length_a       30.3477
_cell_length_b       29.0731
_cell_length_c       7.97949
_cell_angle_alpha    110.637
_cell_angle_beta     74.1196
_cell_angle_gamma    121.086

_symmetry_space_group_name_H-M    'P1'
_space_group_IT_number       1

loop_
  _space_group_symop_operation_xyz
  'x, y, z'

loop_
  _atom_site_type_symbol
  _atom_site_label
  _atom_site_symmetry_multiplicity
  _atom_site_fract_x
  _atom_site_fract_y
  _atom_site_fract_z
  _atom_site_occupancy
  H   H1        1.0  0.76695  0.31604  0.32065  1.0000
  H   H2        1.0  0.89806  0.50095  0.21644  1.0000
  H   H3        1.0  0.80599  0.46578  0.19332  1.0000
  H   H4        1.0  0.94991  0.42694  0.35122  1.0000
  H   H5        1.0  0.04947  0.57201  0.15587  1.0000
  H   H6        1.0  0.85962  0.35285  0.35246  1.0000
  H   H7        1.0  0.30585  0.54070  0.42380  1.0000
  H   H8        1.0  0.49248  0.60303  0.20126  1.0000
  H   H9        1.0  0.45001  0.65758  0.20088  1.0000
  H   H10       1.0  0.57837  0.53133  0.13436  1.0000
  H   H11       1.0  0.42229  0.47338  0.37444  1.0000
  H   H12       1.0  0.34821  0.48808  0.42908  1.0000
  H   H13       1.0  0.48624  0.12891  0.14217  1.0000
  H   H14       1.0  0.51412  0.87671  0.34985  1.0000
  H   H15       1.0  0.54373  0.22974  0.15983  1.0000
  H   H16       1.0  0.45781  0.77581  0.33458  1.0000
  H   H17       1.0  0.60564  0.12127  0.30632  1.0000
  H   H18       1.0  0.39240  0.88220  0.19433  1.0000
  H   H19       1.0  0.66374  0.22181  0.31507  1.0000
  H   H20       1.0  0.33530  0.78139  0.18662  1.0000
  H   H21       1.0  0.47041  0.04105  0.15658  1.0000
  H   H22       1.0  0.52840  0.96344  0.33755  1.0000
  H   H23       1.0  0.73018  0.43836  0.20216  1.0000
  H   H24       1.0  0.27218  0.56546  0.29590  1.0000
  H   H25       1.0  0.94970  0.42149  0.84836  1.0000
  H   H26       1.0  0.04900  0.56834  0.66436  1.0000
  H   H27       1.0  0.69657  0.46062  0.57434  1.0000
  H   H28       1.0  0.30696  0.53872  0.92851  1.0000
  H   H29       1.0  0.51097  0.40112  0.81156  1.0000
  H   H30       1.0  0.49368  0.60317  0.70038  1.0000
  H   H31       1.0  0.55329  0.34565  0.80578  1.0000
  H   H32       1.0  0.44959  0.65683  0.70460  1.0000
  H   H33       1.0  0.58109  0.53011  0.63276  1.0000
  H   H34       1.0  0.42463  0.47235  0.86939  1.0000
  H   H35       1.0  0.65454  0.51402  0.57249  1.0000
  H   H36       1.0  0.35067  0.48691  0.93050  1.0000
  H   H37       1.0  0.46944  0.03842  0.65803  1.0000
  H   H38       1.0  0.52800  0.96056  0.83500  1.0000
  H   H39       1.0  0.73065  0.43479  0.70096  1.0000
  H   H40       1.0  0.27256  0.56340  0.80163  1.0000
  C   C1        1.0  0.77969  0.38777  0.25503  1.0000
  C   C2        1.0  0.79601  0.35640  0.29789  1.0000
  C   C3        1.0  0.84790  0.37703  0.31407  1.0000
  C   C4        1.0  0.88544  0.42917  0.28311  1.0000
  C   C5        1.0  0.86905  0.46078  0.24098  1.0000
  C   C6        1.0  0.81718  0.44059  0.22836  1.0000
  C   C7        1.0  0.72439  0.36459  0.23665  1.0000
  C   C8        1.0  0.27679  0.63926  0.26557  1.0000
  C   C9        1.0  0.93968  0.44939  0.29606  1.0000
  C   C10       1.0  0.06029  0.55030  0.21220  1.0000
  C   C11       1.0  0.37504  0.60263  0.30996  1.0000
  C   C12       1.0  0.34656  0.55441  0.37299  1.0000
  C   C13       1.0  0.37031  0.52479  0.37666  1.0000
  C   C14       1.0  0.42308  0.54188  0.31356  1.0000
  C   C15       1.0  0.45178  0.59035  0.25091  1.0000
  C   C16       1.0  0.42825  0.62046  0.25070  1.0000
  C   C17       1.0  0.65169  0.37130  0.20301  1.0000
  C   C18       1.0  0.35025  0.63342  0.29703  1.0000
  C   C19       1.0  0.55495  0.49569  0.19339  1.0000
  C   C20       1.0  0.44609  0.50905  0.31557  1.0000
  C   C21       1.0  0.70504  0.39573  0.21021  1.0000
  C   C22       1.0  0.29684  0.60831  0.28909  1.0000
  C   C23       1.0  0.60735  0.23208  0.23794  1.0000
  C   C24       1.0  0.39298  0.77228  0.26041  1.0000
  C   C25       1.0  0.55667  0.20573  0.19274  1.0000
  C   C26       1.0  0.44400  0.79929  0.30302  1.0000
  C   C27       1.0  0.52485  0.14954  0.18319  1.0000
  C   C28       1.0  0.47519  0.85547  0.31122  1.0000
  C   C29       1.0  0.54222  0.11829  0.22209  1.0000
  C   C30       1.0  0.45680  0.88611  0.27428  1.0000
  C   C31       1.0  0.59267  0.14514  0.27215  1.0000
  C   C32       1.0  0.40605  0.85863  0.22669  1.0000
  C   C33       1.0  0.62475  0.20103  0.27796  1.0000
  C   C34       1.0  0.37456  0.80270  0.22181  1.0000
  C   C35       1.0  0.64201  0.29082  0.23465  1.0000
  C   C36       1.0  0.35891  0.71355  0.26563  1.0000
  C   C37       1.0  0.50729  0.05977  0.21033  1.0000
  C   C38       1.0  0.49118  0.94471  0.28615  1.0000
  C   C39       1.0  0.72425  0.36092  0.73873  1.0000
  C   C40       1.0  0.27667  0.63655  0.76785  1.0000
  C   C41       1.0  0.93949  0.44427  0.79480  1.0000
  C   C42       1.0  0.06008  0.54547  0.71396  1.0000
  C   C43       1.0  0.62773  0.39988  0.69385  1.0000
  C   C44       1.0  0.37547  0.60088  0.81254  1.0000
  C   C45       1.0  0.65621  0.44779  0.62931  1.0000
  C   C46       1.0  0.34758  0.55265  0.87546  1.0000
  C   C47       1.0  0.63264  0.47792  0.62796  1.0000
  C   C48       1.0  0.37200  0.52338  0.87690  1.0000
  C   C49       1.0  0.58018  0.46186  0.69575  1.0000
  C   C50       1.0  0.42485  0.54105  0.81243  1.0000
  C   C51       1.0  0.55153  0.41361  0.75971  1.0000
  C   C52       1.0  0.45292  0.58973  0.75070  1.0000
  C   C53       1.0  0.57482  0.38289  0.75661  1.0000
  C   C54       1.0  0.42866  0.61933  0.75242  1.0000
  C   C55       1.0  0.65193  0.36824  0.70488  1.0000
  C   C56       1.0  0.35033  0.63143  0.80068  1.0000
  C   C57       1.0  0.55739  0.49513  0.69487  1.0000
  C   C58       1.0  0.44849  0.50871  0.81390  1.0000
  C   C59       1.0  0.70532  0.39231  0.71093  1.0000
  C   C60       1.0  0.29693  0.60615  0.79381  1.0000
  C   C61       1.0  0.64173  0.28745  0.73627  1.0000
  C   C62       1.0  0.35848  0.71108  0.76781  1.0000
  C   C63       1.0  0.50657  0.05666  0.70939  1.0000
  C   C64       1.0  0.49045  0.94177  0.78574  1.0000
  N   N1        1.0  0.97552  0.49343  0.24298  1.0000
  N   N2        1.0  0.02477  0.50636  0.26647  1.0000
  N   N3        1.0  0.69259  0.31176  0.24842  1.0000
  N   N4        1.0  0.30806  0.69228  0.25486  1.0000
  N   N5        1.0  0.50733  0.48367  0.26159  1.0000
  N   N6        1.0  0.49368  0.52091  0.24763  1.0000
  N   N7        1.0  0.51867  0.02966  0.26140  1.0000
  N   N8        1.0  0.47928  0.97486  0.23753  1.0000
  N   N9        1.0  0.62014  0.31866  0.21540  1.0000
  N   N10       1.0  0.38135  0.68614  0.28430  1.0000
  N   N11       1.0  0.97543  0.48811  0.74099  1.0000
  N   N12       1.0  0.02472  0.50028  0.76155  1.0000
  N   N13       1.0  0.69218  0.30815  0.75091  1.0000
  N   N14       1.0  0.30768  0.68940  0.75541  1.0000
  N   N15       1.0  0.51007  0.48415  0.76517  1.0000
  N   N16       1.0  0.49656  0.52151  0.75064  1.0000
  N   N17       1.0  0.51799  0.02634  0.75911  1.0000
  N   N18       1.0  0.47842  0.97173  0.73680  1.0000
  N   N19       1.0  0.62014  0.31568  0.71777  1.0000
  N   N20       1.0  0.38116  0.68408  0.78735  1.0000
  C  Sn1       1.0  0.44736  0.81243  0.86254  1.0000
  C   C65       1.0  0.39720  0.77850  0.81259  1.0000
  C  Sn2       1.0  0.37700  0.79607  0.72400  1.0000
  C  Sn3       1.0  0.40758  0.84863  0.68439  1.0000
  C   C66       1.0  0.45771  0.88252  0.73429  1.0000
  C  Sn4       1.0  0.47794  0.86499  0.82293  1.0000
  O  Te1       1.0  0.46676  0.79402  0.95100  1.0000
  O  Te2       1.0  0.32675  0.76143  0.67546  1.0000
  O  Te3       1.0  0.38813  0.86701  0.59586  1.0000
  O  Te4       1.0  0.52816  0.89959  0.87143  1.0000
  Mg  Mg1       1.0  0.31756  0.80493  0.55710  1.0000
  Mg  Mg2       1.0  0.53740  0.85612  0.98971  1.0000
  C  Sn5       1.0  0.63568  0.46735  0.07381  1.0000
  C   C67       1.0  0.58442  0.45676  0.13649  1.0000
  C  Sn6       1.0  0.55397  0.42032  0.24676  1.0000
  C  Sn7       1.0  0.57520  0.39395  0.29551  1.0000
  C   C68       1.0  0.62643  0.40456  0.23287  1.0000
  C  Sn8       1.0  0.65691  0.44098  0.12256  1.0000
  O  Te5       1.0  0.63256  0.58295  0.96373  1.0000
  O  Te6       1.0  0.50281  0.41038  0.30771  1.0000
  O  Te7       1.0  0.54541  0.35736  0.40568  1.0000
  O  Te8       1.0  0.70803  0.45094  0.06165  1.0000
  Mg  Mg3       1.0  0.47779  0.35722  0.45475  1.0000
  Mg  Mg4       1.0  0.70024  0.58312  0.91469  1.0000
  C  Sn9       1.0  0.59654  0.15729  0.82695  1.0000
  C   C69       1.0  0.54618  0.12449  0.77850  1.0000
  C  Sn10      1.0  0.52679  0.14293  0.69002  1.0000
  C  Sn11      1.0  0.55841  0.19522  0.64900  1.0000
  C   C70       1.0  0.60874  0.22798  0.69741  1.0000
  C  Sn12      1.0  0.62816  0.20958  0.78593  1.0000
  O  Te9       1.0  0.61511  0.13803  0.91532  1.0000
  O  Te10      1.0  0.47632  0.10941  0.64299  1.0000
  O  Te11      1.0  0.53979  0.21446  0.56057  1.0000
  O  Te12      1.0  0.67860  0.24306  0.83292  1.0000
  Mg  Mg5       1.0  0.46852  0.15378  0.52413  1.0000
  Mg  Mg6       1.0  0.68645  0.19873  0.95169  1.0000
  C  Sn13      1.0  0.17551  0.54406  0.72606  1.0000
  C   C71       1.0  0.21607  0.59578  0.70581  1.0000
  C  Sn14      1.0  0.20569  0.63762  0.70871  1.0000
  C  Sn15      1.0  0.15368  0.62757  0.73246  1.0000
  C   C72       1.0  0.11316  0.57589  0.75274  1.0000
  C  Sn16      1.0  0.12351  0.53402  0.74982  1.0000
  O  Te13      1.0  0.18680  0.50285  0.72274  1.0000
  O  Te14      1.0  0.24688  0.68897  0.68812  1.0000
  O  Te15      1.0  0.14242  0.66884  0.73577  1.0000
  O  Te16      1.0  0.08235  0.48269  0.77042  1.0000
  Mg  Mg7       1.0  0.21177  0.73195  0.70214  1.0000
  Mg  Mg8       1.0  0.11741  0.43970  0.75652  1.0000
  C  Sn17      1.0  0.83122  0.43616  0.67582  1.0000
  C   C73       1.0  0.78877  0.38676  0.70742  1.0000
  C  Sn18      1.0  0.79322  0.35655  0.79895  1.0000
  C  Sn19      1.0  0.84108  0.37615  0.86030  1.0000
  C   C74       1.0  0.88349  0.42553  0.82873  1.0000
  C  Sn20      1.0  0.87908  0.45576  0.73717  1.0000
  O  Te17      1.0  0.82590  0.46569  0.58404  1.0000
  O  Te18      1.0  0.75025  0.30726  0.82888  1.0000
  O  Te19      1.0  0.84637  0.34658  0.95214  1.0000
  O  Te20      1.0  0.92201  0.50503  0.70727  1.0000
  Mg  Mg9       1.0  0.77675  0.28179  0.96033  1.0000
  Mg  Mg10      1.0  0.89555  0.53055  0.57593  1.0000
  C  Sn21      1.0  0.16545  0.62455  0.14015  1.0000
  C   C75       1.0  0.12397  0.57445  0.17044  1.0000
  C  Sn22      1.0  0.12969  0.54487  0.26094  1.0000
  C  Sn23      1.0  0.17785  0.56582  0.32256  1.0000
  C   C76       1.0  0.21928  0.61590  0.29228  1.0000
  C  Sn24      1.0  0.21361  0.64551  0.20176  1.0000
  O  Te21      1.0  0.15886  0.65343  0.04939  1.0000
  O  Te22      1.0  0.08767  0.49486  0.28959  1.0000
  O  Te23      1.0  0.18440  0.53689  0.41337  1.0000
  O  Te24      1.0  0.25558  0.69549  0.17314  1.0000
  Mg  Mg11      1.0  0.11575  0.47071  0.41998  1.0000
  Mg  Mg12      1.0  0.22754  0.71969  0.04285  1.0000
