data_image0
_chemical_formula_structural       H36C60N24C2Sn2C2HTe2HMgC2Sn2C2HTe2HMgC2Sn2C2HTe2HMgC2Sn2C2HTe2HMgC2Sn2C2HTe2HMgC2Sn2C2HTe2HMg
_chemical_formula_sum              "H48 C84 N24 Sn12 Te12 Mg6"
_cell_length_a       29.4278
_cell_length_b       29.4562
_cell_length_c       8.04776
_cell_angle_alpha    93.1658
_cell_angle_beta     61.5978
_cell_angle_gamma    120.051

_symmetry_space_group_name_H-M    'P1'
_space_group_IT_number       1

loop_
  _space_group_symop_operation_xyz
  'x, y, z'

loop_
  _atom_site_type_symbol
  _atom_site_label
  _atom_site_symmetry_multiplicity
  _atom_site_fract_x
  _atom_site_fract_y
  _atom_site_fract_z
  _atom_site_occupancy
  H   H1        1.0  0.46375  0.76673  0.28744  1.0000
  H   H2        1.0  0.76669  0.30501  0.29287  1.0000
  H   H3        1.0  0.52172  0.86280  0.30148  1.0000
  H   H4        1.0  0.86411  0.34699  0.29580  1.0000
  H   H5        1.0  0.39603  0.88910  0.25905  1.0000
  H   H6        1.0  0.88979  0.50315  0.22352  1.0000
  H   H7        1.0  0.33769  0.79235  0.24789  1.0000
  H   H8        1.0  0.79115  0.46044  0.22492  1.0000
  H   H9        1.0  0.04722  0.59226  0.22725  1.0000
  H   H10       1.0  0.41921  0.45909  0.18409  1.0000
  H   H11       1.0  0.53552  0.95118  0.30956  1.0000
  H   H12       1.0  0.95293  0.42281  0.27484  1.0000
  H   H13       1.0  0.56790  0.52978  0.28226  1.0000
  H   H14       1.0  0.47058  0.04296  0.22179  1.0000
  H   H15       1.0  0.23523  0.69667  0.70389  1.0000
  H   H16       1.0  0.46398  0.77307  0.78515  1.0000
  H   H17       1.0  0.69906  0.46963  0.76795  1.0000
  H   H18       1.0  0.53331  0.23145  0.73459  1.0000
  H   H19       1.0  0.13758  0.65521  0.70293  1.0000
  H   H20       1.0  0.51798  0.86983  0.79669  1.0000
  H   H21       1.0  0.65960  0.52825  0.77864  1.0000
  H   H22       1.0  0.47305  0.13418  0.73639  1.0000
  H   H23       1.0  0.10979  0.49832  0.78162  1.0000
  H   H24       1.0  0.38420  0.88595  0.76875  1.0000
  H   H25       1.0  0.51506  0.39960  0.71282  1.0000
  H   H26       1.0  0.60103  0.10960  0.76944  1.0000
  H   H27       1.0  0.20873  0.54055  0.77751  1.0000
  H   H28       1.0  0.32969  0.78842  0.76070  1.0000
  H   H29       1.0  0.55398  0.34053  0.70804  1.0000
  H   H30       1.0  0.66159  0.20740  0.76547  1.0000
  H   H31       1.0  0.04700  0.57912  0.73168  1.0000
  H   H32       1.0  0.43509  0.47056  0.68839  1.0000
  H   H33       1.0  0.52805  0.95554  0.80022  1.0000
  H   H34       1.0  0.95354  0.40991  0.77522  1.0000
  H   H35       1.0  0.58460  0.54211  0.78355  1.0000
  H   H36       1.0  0.45861  0.04564  0.73480  1.0000
  C   C1        1.0  0.39715  0.77375  0.26745  1.0000
  C   C2        1.0  0.77326  0.38023  0.25807  1.0000
  C   C3        1.0  0.44948  0.79390  0.28089  1.0000
  C   C4        1.0  0.79406  0.34823  0.27762  1.0000
  C   C5        1.0  0.48172  0.84748  0.28795  1.0000
  C   C6        1.0  0.84835  0.37182  0.27796  1.0000
  C   C7        1.0  0.46271  0.88231  0.27999  1.0000
  C   C8        1.0  0.88336  0.42789  0.25871  1.0000
  C   C9        1.0  0.41013  0.86186  0.26661  1.0000
  C   C10       1.0  0.86235  0.45990  0.23904  1.0000
  C   C11       1.0  0.37783  0.80841  0.26069  1.0000
  C   C12       1.0  0.80797  0.43633  0.23982  1.0000
  C   C13       1.0  0.28216  0.64783  0.24464  1.0000
  C   C14       1.0  0.35095  0.63449  0.25343  1.0000
  C   C15       1.0  0.36296  0.71718  0.25805  1.0000
  C   C16       1.0  0.71603  0.35526  0.25502  1.0000
  C   C17       1.0  0.64403  0.36235  0.24218  1.0000
  C   C18       1.0  0.63605  0.28132  0.25241  1.0000
  C   C19       1.0  0.05962  0.56381  0.24072  1.0000
  C   C20       1.0  0.44069  0.49814  0.21836  1.0000
  C   C21       1.0  0.49723  0.93814  0.28719  1.0000
  C   C22       1.0  0.93958  0.45043  0.26087  1.0000
  C   C23       1.0  0.54537  0.48940  0.25776  1.0000
  C   C24       1.0  0.50816  0.05706  0.24895  1.0000
  C   C25       1.0  0.22749  0.62101  0.74234  1.0000
  C   C26       1.0  0.39384  0.77501  0.77121  1.0000
  C   C27       1.0  0.62871  0.40148  0.73843  1.0000
  C   C28       1.0  0.60107  0.22533  0.74998  1.0000
  C   C29       1.0  0.20730  0.65339  0.72127  1.0000
  C   C30       1.0  0.44720  0.79824  0.78061  1.0000
  C   C31       1.0  0.65910  0.45488  0.75517  1.0000
  C   C32       1.0  0.54753  0.20440  0.74307  1.0000
  C   C33       1.0  0.15288  0.63009  0.72188  1.0000
  C   C34       1.0  0.47718  0.85218  0.78619  1.0000
  C   C35       1.0  0.63684  0.48730  0.76115  1.0000
  C   C36       1.0  0.51401  0.15015  0.74483  1.0000
  C   C37       1.0  0.11718  0.57396  0.74356  1.0000
  C   C38       1.0  0.45481  0.88437  0.78160  1.0000
  C   C39       1.0  0.58439  0.46752  0.74782  1.0000
  C   C40       1.0  0.53289  0.11541  0.75526  1.0000
  C   C41       1.0  0.13774  0.54162  0.76393  1.0000
  C   C42       1.0  0.40098  0.86079  0.77349  1.0000
  C   C43       1.0  0.55484  0.41425  0.72680  1.0000
  C   C44       1.0  0.58680  0.13669  0.76131  1.0000
  C   C45       1.0  0.19227  0.56491  0.76198  1.0000
  C   C46       1.0  0.37088  0.80688  0.76888  1.0000
  C   C47       1.0  0.57653  0.38169  0.72348  1.0000
  C   C48       1.0  0.62033  0.19077  0.75876  1.0000
  C   C49       1.0  0.28448  0.64544  0.74650  1.0000
  C   C50       1.0  0.35695  0.63789  0.75391  1.0000
  C   C51       1.0  0.36286  0.71812  0.76054  1.0000
  C   C52       1.0  0.71821  0.35284  0.75739  1.0000
  C   C53       1.0  0.64989  0.36587  0.74341  1.0000
  C   C54       1.0  0.63648  0.28260  0.75072  1.0000
  C   C55       1.0  0.06073  0.55159  0.74296  1.0000
  C   C56       1.0  0.45728  0.51063  0.71541  1.0000
  C   C57       1.0  0.48764  0.94054  0.78784  1.0000
  C   C58       1.0  0.94086  0.43818  0.76224  1.0000
  C   C59       1.0  0.56242  0.50243  0.75395  1.0000
  C   C60       1.0  0.49699  0.05891  0.75693  1.0000
  N   N1        1.0  0.02476  0.51281  0.25364  1.0000
  N   N2        1.0  0.48481  0.51232  0.25070  1.0000
  N   N3        1.0  0.48328  0.97214  0.26674  1.0000
  N   N4        1.0  0.97374  0.50157  0.24794  1.0000
  N   N5        1.0  0.49876  0.47295  0.23637  1.0000
  N   N6        1.0  0.52181  0.02351  0.27641  1.0000
  N   N7        1.0  0.31272  0.70022  0.24776  1.0000
  N   N8        1.0  0.29957  0.61345  0.24640  1.0000
  N   N9        1.0  0.38403  0.68597  0.26089  1.0000
  N   N10       1.0  0.68724  0.30205  0.26004  1.0000
  N   N11       1.0  0.69624  0.38706  0.24611  1.0000
  N   N12       1.0  0.61229  0.30965  0.24458  1.0000
  N   N13       1.0  0.02680  0.50053  0.75402  1.0000
  N   N14       1.0  0.50352  0.52678  0.73859  1.0000
  N   N15       1.0  0.47078  0.97305  0.77767  1.0000
  N   N16       1.0  0.97555  0.48919  0.74966  1.0000
  N   N17       1.0  0.51745  0.48744  0.72516  1.0000
  N   N18       1.0  0.51009  0.02474  0.78303  1.0000
  N   N19       1.0  0.31216  0.69804  0.75038  1.0000
  N   N20       1.0  0.30507  0.61372  0.74806  1.0000
  N   N21       1.0  0.38739  0.68986  0.76137  1.0000
  N   N22       1.0  0.68705  0.30006  0.75948  1.0000
  N   N23       1.0  0.70133  0.38728  0.75040  1.0000
  N   N24       1.0  0.61595  0.31385  0.74264  1.0000
  C   C61       1.0  0.46227  0.61068  0.75071  1.0000
  C   C62       1.0  0.43934  0.55654  0.74311  1.0000
  C  Sn1       1.0  0.38706  0.52685  0.72902  1.0000
  C  Sn2       1.0  0.35730  0.55194  0.72239  1.0000
  C   C63       1.0  0.38063  0.60613  0.72994  1.0000
  C   C64       1.0  0.43296  0.63546  0.74410  1.0000
  H   H37       1.0  0.50278  0.63339  0.76155  1.0000
  O  Te1       1.0  0.36474  0.47279  0.72166  1.0000
  O  Te2       1.0  0.30498  0.52321  0.70824  1.0000
  H   H38       1.0  0.45073  0.67739  0.74985  1.0000
  Mg  Mg1       1.0  0.29206  0.45053  0.70267  1.0000
  C   C65       1.0  0.63379  0.47754  0.26704  1.0000
  C   C66       1.0  0.58504  0.46404  0.24188  1.0000
  C  Sn3       1.0  0.55087  0.41250  0.22048  1.0000
  C  Sn4       1.0  0.56589  0.37386  0.22447  1.0000
  C   C67       1.0  0.61471  0.38776  0.24986  1.0000
  C   C68       1.0  0.64861  0.43945  0.27107  1.0000
  H   H39       1.0  0.66000  0.51753  0.28356  1.0000
  O  Te3       1.0  0.50233  0.39969  0.19540  1.0000
  O  Te4       1.0  0.53248  0.32206  0.20350  1.0000
  H   H40       1.0  0.68632  0.44988  0.29068  1.0000
  Mg  Mg2       1.0  0.47043  0.32382  0.17299  1.0000
  C   C69       1.0  0.62337  0.17801  0.27079  1.0000
  C   C70       1.0  0.61262  0.21733  0.24316  1.0000
  C  Sn5       1.0  0.56212  0.20297  0.22704  1.0000
  C  Sn6       1.0  0.52171  0.14821  0.23892  1.0000
  C   C71       1.0  0.53284  0.10917  0.26672  1.0000
  C   C72       1.0  0.58352  0.12399  0.28259  1.0000
  H   H41       1.0  0.66256  0.18946  0.28318  1.0000
  O  Te5       1.0  0.55207  0.24276  0.19940  1.0000
  O  Te6       1.0  0.47088  0.13274  0.22335  1.0000
  H   H42       1.0  0.59181  0.09353  0.30411  1.0000
  Mg  Mg3       1.0  0.47657  0.20170  0.18655  1.0000
  C   C73       1.0  0.16583  0.65181  0.22764  1.0000
  C   C74       1.0  0.12584  0.59929  0.22790  1.0000
  C  Sn7       1.0  0.13533  0.55821  0.24454  1.0000
  C  Sn8       1.0  0.18582  0.57005  0.26127  1.0000
  C   C75       1.0  0.22553  0.62272  0.26100  1.0000
  C   C76       1.0  0.21562  0.66352  0.24421  1.0000
  H   H43       1.0  0.15815  0.68338  0.21476  1.0000
  O  Te7       1.0  0.09495  0.50596  0.24447  1.0000
  O  Te8       1.0  0.19635  0.52975  0.27816  1.0000
  H   H44       1.0  0.24657  0.70417  0.24415  1.0000
  Mg  Mg4       1.0  0.12855  0.46479  0.27092  1.0000
  C   C77       1.0  0.82488  0.44213  0.74523  1.0000
  C   C78       1.0  0.78470  0.38934  0.74810  1.0000
  C  Sn9       1.0  0.79415  0.34840  0.76712  1.0000
  C  Sn10      1.0  0.84479  0.36065  0.78360  1.0000
  C   C79       1.0  0.88470  0.41358  0.78072  1.0000
  C   C80       1.0  0.87483  0.45424  0.76156  1.0000
  H   H45       1.0  0.81722  0.47359  0.73051  1.0000
  O  Te9       1.0  0.75357  0.29588  0.76964  1.0000
  O  Te10      1.0  0.85530  0.32050  0.80284  1.0000
  H   H46       1.0  0.90592  0.49510  0.75947  1.0000
  Mg  Mg5       1.0  0.78721  0.25506  0.79868  1.0000
  C   C81       1.0  0.45030  0.59974  0.25381  1.0000
  C   C82       1.0  0.42493  0.54548  0.24618  1.0000
  C  Sn11      1.0  0.37269  0.51817  0.23121  1.0000
  C  Sn12      1.0  0.34545  0.54580  0.22371  1.0000
  C   C83       1.0  0.37121  0.60009  0.23130  1.0000
  C   C84       1.0  0.42348  0.62702  0.24634  1.0000
  H   H47       1.0  0.49076  0.62059  0.26534  1.0000
  O  Te11      1.0  0.34792  0.46396  0.22383  1.0000
  O  Te12      1.0  0.29323  0.51948  0.20867  1.0000
  H   H48       1.0  0.44313  0.66904  0.25212  1.0000
  Mg  Mg6       1.0  0.27642  0.44554  0.20345  1.0000
