data_image0
_chemical_formula_structural       H48C72N12C2Sn2C2HTe2HMgC2Sn2C2HTe2HMgC2Sn2C2HTe2HMgC2Sn2C2HTe2HMgC2Sn2C2HTe2HMgC2Sn2C2HTe2HMg
_chemical_formula_sum              "H60 C96 N12 Sn12 Te12 Mg6"
_cell_length_a       29.5424
_cell_length_b       29.5937
_cell_length_c       8.02371
_cell_angle_alpha    89.8352
_cell_angle_beta     89.4776
_cell_angle_gamma    120.491

_symmetry_space_group_name_H-M    'P1'
_space_group_IT_number       1

loop_
  _space_group_symop_operation_xyz
  'x, y, z'

loop_
  _atom_site_type_symbol
  _atom_site_label
  _atom_site_symmetry_multiplicity
  _atom_site_fract_x
  _atom_site_fract_y
  _atom_site_fract_z
  _atom_site_occupancy
  H   H1        1.0  0.56625  0.28813  0.38889  1.0000
  H   H2        1.0  0.70598  0.27784  0.39889  1.0000
  H   H3        1.0  0.71826  0.42873  0.38416  1.0000
  H   H4        1.0  0.43095  0.71024  0.10316  1.0000
  H   H5        1.0  0.29069  0.71984  0.09288  1.0000
  H   H6        1.0  0.27983  0.56958  0.13179  1.0000
  H   H7        1.0  0.67372  0.45666  0.04306  1.0000
  H   H8        1.0  0.78371  0.32568  0.03531  1.0000
  H   H9        1.0  0.21969  0.67623  0.45627  1.0000
  H   H10       1.0  0.36854  0.48813  0.99463  1.0000
  H   H11       1.0  0.51657  0.88191  0.97206  1.0000
  H   H12       1.0  0.11817  0.63052  0.99601  1.0000
  H   H13       1.0  0.48643  0.60272  0.31533  1.0000
  H   H14       1.0  0.39468  0.88619  0.25368  1.0000
  H   H15       1.0  0.11315  0.50756  0.29620  1.0000
  H   H16       1.0  0.56488  0.52936  0.42644  1.0000
  H   H17       1.0  0.46857  0.03153  0.41127  1.0000
  H   H18       1.0  0.96222  0.43165  0.43556  1.0000
  H   H19       1.0  0.43569  0.47195  0.09855  1.0000
  H   H20       1.0  0.52992  0.96700  0.06223  1.0000
  H   H21       1.0  0.03335  0.55900  0.08892  1.0000
  H   H22       1.0  0.44568  0.65817  0.28878  1.0000
  H   H23       1.0  0.34033  0.78919  0.24110  1.0000
  H   H24       1.0  0.21029  0.55094  0.27714  1.0000
  H   H25       1.0  0.56928  0.29055  0.88947  1.0000
  H   H26       1.0  0.70896  0.27974  0.90057  1.0000
  H   H27       1.0  0.72086  0.43069  0.87942  1.0000
  H   H28       1.0  0.43436  0.71196  0.60910  1.0000
  H   H29       1.0  0.29506  0.72293  0.58879  1.0000
  H   H30       1.0  0.28218  0.57186  0.62216  1.0000
  H   H31       1.0  0.32767  0.54280  0.96940  1.0000
  H   H32       1.0  0.46230  0.78527  0.95548  1.0000
  H   H33       1.0  0.21461  0.67350  0.97262  1.0000
  H   H34       1.0  0.63244  0.51155  0.02858  1.0000
  H   H35       1.0  0.88012  0.36822  0.02038  1.0000
  H   H36       1.0  0.12335  0.63504  0.47920  1.0000
  H   H37       1.0  0.51343  0.39907  0.70627  1.0000
  H   H38       1.0  0.88768  0.49199  0.71697  1.0000
  H   H39       1.0  0.11616  0.51329  0.79175  1.0000
  H   H40       1.0  0.56647  0.52937  0.92638  1.0000
  H   H41       1.0  0.46857  0.03384  0.91442  1.0000
  H   H42       1.0  0.96619  0.43882  0.92599  1.0000
  H   H43       1.0  0.43569  0.47102  0.60207  1.0000
  H   H44       1.0  0.52917  0.96972  0.56174  1.0000
  H   H45       1.0  0.03804  0.56583  0.57974  1.0000
  H   H46       1.0  0.21307  0.55479  0.77079  1.0000
  H   H47       1.0  0.55506  0.34421  0.71830  1.0000
  H   H48       1.0  0.79103  0.44917  0.73009  1.0000
  C   C1        1.0  0.60889  0.30742  0.39162  1.0000
  C   C2        1.0  0.68742  0.30152  0.39750  1.0000
  C   C3        1.0  0.69432  0.38619  0.38880  1.0000
  C   C4        1.0  0.38833  0.69115  0.10401  1.0000
  C   C5        1.0  0.30944  0.69637  0.09889  1.0000
  C   C6        1.0  0.30320  0.61206  0.11963  1.0000
  C   C7        1.0  0.63247  0.27653  0.39490  1.0000
  C   C8        1.0  0.71901  0.35636  0.39421  1.0000
  C   C9        1.0  0.63931  0.36241  0.38786  1.0000
  C   C10       1.0  0.36455  0.72185  0.09634  1.0000
  C   C11       1.0  0.27806  0.64152  0.11189  1.0000
  C   C12       1.0  0.35819  0.63630  0.11574  1.0000
  C   C13       1.0  0.38346  0.60430  0.12828  1.0000
  C   C14       1.0  0.39686  0.77974  0.09620  1.0000
  C   C15       1.0  0.22012  0.61560  0.12287  1.0000
  C   C16       1.0  0.36188  0.55571  0.04769  1.0000
  C   C17       1.0  0.44721  0.80692  0.02218  1.0000
  C   C18       1.0  0.19303  0.63769  0.04638  1.0000
  C   C19       1.0  0.38504  0.52504  0.06121  1.0000
  C   C20       1.0  0.47779  0.86138  0.03068  1.0000
  C   C21       1.0  0.13856  0.61332  0.05820  1.0000
  C   C22       1.0  0.43012  0.54144  0.15816  1.0000
  C   C23       1.0  0.45920  0.89061  0.11435  1.0000
  C   C24       1.0  0.10916  0.56610  0.14799  1.0000
  C   C25       1.0  0.45200  0.59030  0.23861  1.0000
  C   C26       1.0  0.40855  0.86357  0.18668  1.0000
  C   C27       1.0  0.13599  0.54362  0.22437  1.0000
  C   C28       1.0  0.42924  0.62120  0.22256  1.0000
  C   C29       1.0  0.37821  0.80944  0.17726  1.0000
  C   C30       1.0  0.19027  0.56792  0.21158  1.0000
  C   C31       1.0  0.54601  0.49256  0.35701  1.0000
  C   C32       1.0  0.50495  0.05215  0.33721  1.0000
  C   C33       1.0  0.94381  0.44903  0.36145  1.0000
  C   C34       1.0  0.45210  0.50752  0.17408  1.0000
  C   C35       1.0  0.49265  0.94696  0.13191  1.0000
  C   C36       1.0  0.05268  0.54270  0.16351  1.0000
  C   C37       1.0  0.61188  0.30932  0.89142  1.0000
  C   C38       1.0  0.69037  0.30340  0.89657  1.0000
  C   C39       1.0  0.69724  0.38813  0.88610  1.0000
  C   C40       1.0  0.39174  0.69288  0.60614  1.0000
  C   C41       1.0  0.31326  0.69896  0.59564  1.0000
  C   C42       1.0  0.30622  0.61433  0.61338  1.0000
  C   C43       1.0  0.63530  0.27827  0.89508  1.0000
  C   C44       1.0  0.72196  0.35829  0.89032  1.0000
  C   C45       1.0  0.64234  0.36423  0.88800  1.0000
  C   C46       1.0  0.36826  0.72388  0.59737  1.0000
  C   C47       1.0  0.28160  0.64420  0.60505  1.0000
  C   C48       1.0  0.36114  0.63781  0.61407  1.0000
  C   C49       1.0  0.61740  0.39655  0.88176  1.0000
  C   C50       1.0  0.77983  0.38405  0.88411  1.0000
  C   C51       1.0  0.22381  0.61892  0.61301  1.0000
  C   C52       1.0  0.63923  0.44447  0.96668  1.0000
  C   C53       1.0  0.80617  0.36166  0.96304  1.0000
  C   C54       1.0  0.19748  0.64116  0.53280  1.0000
  C   C55       1.0  0.61591  0.47513  0.95921  1.0000
  C   C56       1.0  0.86069  0.38592  0.95553  1.0000
  C   C57       1.0  0.14313  0.61779  0.54475  1.0000
  C   C58       1.0  0.57035  0.45912  0.86514  1.0000
  C   C59       1.0  0.89101  0.43330  0.86709  1.0000
  C   C60       1.0  0.11318  0.57166  0.63947  1.0000
  C   C61       1.0  0.54818  0.41090  0.78082  1.0000
  C   C62       1.0  0.86469  0.45590  0.78811  1.0000
  C   C63       1.0  0.13930  0.54879  0.71788  1.0000
  C   C64       1.0  0.57130  0.38023  0.78971  1.0000
  C   C65       1.0  0.81042  0.43181  0.79702  1.0000
  C   C66       1.0  0.19346  0.57199  0.70425  1.0000
  C   C67       1.0  0.54830  0.49307  0.85419  1.0000
  C   C68       1.0  0.50565  0.05386  0.84385  1.0000
  C   C69       1.0  0.94765  0.45673  0.85530  1.0000
  C   C70       1.0  0.45435  0.50799  0.67067  1.0000
  C   C71       1.0  0.49271  0.94898  0.63535  1.0000
  C   C72       1.0  0.05687  0.54965  0.65719  1.0000
  N   N1        1.0  0.50486  0.48005  0.26761  1.0000
  N   N2        1.0  0.51710  0.02635  0.23245  1.0000
  N   N3        1.0  0.97215  0.48839  0.26173  1.0000
  N   N4        1.0  0.49039  0.51813  0.27511  1.0000
  N   N5        1.0  0.47926  0.97316  0.23076  1.0000
  N   N6        1.0  0.02517  0.50385  0.26603  1.0000
  N   N7        1.0  0.50862  0.48169  0.75872  1.0000
  N   N8        1.0  0.51838  0.02774  0.74248  1.0000
  N   N9        1.0  0.97612  0.49725  0.75972  1.0000
  N   N10       1.0  0.49467  0.52016  0.76398  1.0000
  N   N11       1.0  0.48062  0.97451  0.74144  1.0000
  N   N12       1.0  0.02906  0.51206  0.76327  1.0000
  C   C73       1.0  0.45972  0.82273  0.49785  1.0000
  C   C74       1.0  0.41318  0.78773  0.58203  1.0000
  C  Sn1       1.0  0.38757  0.80651  0.68270  1.0000
  C  Sn2       1.0  0.40903  0.86137  0.69913  1.0000
  C   C75       1.0  0.45559  0.89606  0.61430  1.0000
  C   C76       1.0  0.48090  0.87684  0.51393  1.0000
  H   H49       1.0  0.47929  0.80786  0.42011  1.0000
  O  Te1       1.0  0.34112  0.77100  0.76598  1.0000
  O  Te2       1.0  0.38424  0.88120  0.79889  1.0000
  H   H50       1.0  0.51691  0.90395  0.44869  1.0000
  Mg  Mg1       1.0  0.32184  0.81711  0.88742  1.0000
  C   C77       1.0  0.62751  0.47452  0.46081  1.0000
  C   C78       1.0  0.58253  0.46598  0.37747  1.0000
  C  Sn3       1.0  0.55069  0.41845  0.29717  1.0000
  C  Sn4       1.0  0.56423  0.37880  0.30061  1.0000
  C   C79       1.0  0.60929  0.38772  0.38443  1.0000
  C   C80       1.0  0.64088  0.43543  0.46433  1.0000
  H   H51       1.0  0.65193  0.51142  0.52272  1.0000
  O  Te3       1.0  0.50590  0.41056  0.21443  1.0000
  O  Te4       1.0  0.53310  0.33093  0.22144  1.0000
  H   H52       1.0  0.67568  0.44203  0.52893  1.0000
  Mg  Mg2       1.0  0.47598  0.33878  0.12505  1.0000
  C   C81       1.0  0.53859  0.17828  0.47701  1.0000
  C   C82       1.0  0.58912  0.21245  0.41464  1.0000
  C  Sn5       1.0  0.61423  0.19371  0.31145  1.0000
  C  Sn6       1.0  0.58816  0.13975  0.27013  1.0000
  C   C83       1.0  0.53760  0.10588  0.33307  1.0000
  C   C84       1.0  0.51285  0.12505  0.43627  1.0000
  H   H53       1.0  0.51942  0.19310  0.55678  1.0000
  O  Te5       1.0  0.66472  0.22839  0.25026  1.0000
  O  Te6       1.0  0.61234  0.11998  0.16721  1.0000
  H   H54       1.0  0.47371  0.09859  0.48445  1.0000
  Mg  Mg3       1.0  0.68135  0.18273  0.11467  1.0000
  C   C85       1.0  0.36019  0.54109  0.55383  1.0000
  C   C86       1.0  0.37674  0.59080  0.61874  1.0000
  C  Sn7       1.0  0.42451  0.61805  0.70184  1.0000
  C  Sn8       1.0  0.45622  0.59501  0.72007  1.0000
  C   C87       1.0  0.43932  0.54529  0.65459  1.0000
  C   C88       1.0  0.39144  0.51836  0.57170  1.0000
  H   H55       1.0  0.32315  0.52026  0.48962  1.0000
  O  Te7       1.0  0.44046  0.66766  0.76598  1.0000
  O  Te8       1.0  0.50415  0.62139  0.80251  1.0000
  H   H56       1.0  0.37865  0.47989  0.52137  1.0000
  Mg  Mg4       1.0  0.50892  0.68810  0.86834  1.0000
  C   C89       1.0  0.60248  0.14951  0.77869  1.0000
  C   C90       1.0  0.55364  0.11555  0.85259  1.0000
  C  Sn9       1.0  0.52744  0.13554  0.94471  1.0000
  C  Sn10      1.0  0.55066  0.19056  0.96293  1.0000
  C   C91       1.0  0.59951  0.22421  0.88840  1.0000
  C   C92       1.0  0.62540  0.20379  0.79653  1.0000
  H   H57       1.0  0.62250  0.13372  0.70752  1.0000
  O  Te9       1.0  0.48255  0.10379  0.01778  1.0000
  O  Te10      1.0  0.52918  0.21433  0.05428  1.0000
  H   H58       1.0  0.66320  0.23010  0.73923  1.0000
  Mg  Mg5       1.0  0.46338  0.15134  0.13035  1.0000
  C   C93       1.0  0.84314  0.36997  0.48291  1.0000
  C   C94       1.0  0.88021  0.41296  0.38884  1.0000
  C  Sn11      1.0  0.86498  0.44316  0.29721  1.0000
  C  Sn12      1.0  0.81162  0.42999  0.30009  1.0000
  C   C95       1.0  0.77484  0.38693  0.39468  1.0000
  C   C96       1.0  0.79051  0.35697  0.48587  1.0000
  H   H59       1.0  0.85526  0.34681  0.55354  1.0000
  O  Te11      1.0  0.90252  0.48596  0.20384  1.0000
  O  Te12      1.0  0.79533  0.45952  0.20971  1.0000
  H   H60       1.0  0.76180  0.32371  0.55878  1.0000
  Mg  Mg6       1.0  0.86111  0.51421  0.10138  1.0000
