data_image0
_chemical_formula_structural       H20C32N16C2Sn2C2HTe2HMgC2Sn2C2HTe2HMgC2Sn2C2HTe2HMgC2Sn2C2HTe2HMgC2Sn2C2HTe2HMgC2Sn2C2HTe2HMgC2Sn2C2HTe2HMgC2Sn2C2HTe2HMgC2Sn2C2HTe2HMgC2Sn2C2HTe2HMgC2Sn2C2HTe2HMgC2Sn2C2HTe2HMg
_chemical_formula_sum              "H44 C80 N16 Sn24 Te24 Mg12"
_cell_length_a       30.1232
_cell_length_b       28.8275
_cell_length_c       7.96225
_cell_angle_alpha    89.9202
_cell_angle_beta     92.0988
_cell_angle_gamma    119.06

_symmetry_space_group_name_H-M    'P1'
_space_group_IT_number       1

loop_
  _space_group_symop_operation_xyz
  'x, y, z'

loop_
  _atom_site_type_symbol
  _atom_site_label
  _atom_site_symmetry_multiplicity
  _atom_site_fract_x
  _atom_site_fract_y
  _atom_site_fract_z
  _atom_site_occupancy
  H   H1        1.0  0.03819  0.56118  0.06933  1.0000
  H   H2        1.0  0.96221  0.43805  0.42264  1.0000
  H   H3        1.0  0.28156  0.71511  0.23166  1.0000
  H   H4        1.0  0.71689  0.28332  0.27504  1.0000
  H   H5        1.0  0.43987  0.47912  0.40206  1.0000
  H   H6        1.0  0.56634  0.52730  0.09293  1.0000
  H   H7        1.0  0.27824  0.56420  0.21114  1.0000
  H   H8        1.0  0.72267  0.43530  0.28809  1.0000
  H   H9        1.0  0.44172  0.96002  0.43126  1.0000
  H   H10       1.0  0.55713  0.03920  0.08040  1.0000
  H   H11       1.0  0.03711  0.56300  0.56607  1.0000
  H   H12       1.0  0.96086  0.43976  0.91759  1.0000
  H   H13       1.0  0.28197  0.71618  0.72533  1.0000
  H   H14       1.0  0.71749  0.28478  0.76637  1.0000
  H   H15       1.0  0.43236  0.47348  0.90777  1.0000
  H   H16       1.0  0.55744  0.51881  0.59235  1.0000
  H   H17       1.0  0.27671  0.56425  0.70623  1.0000
  H   H18       1.0  0.71949  0.43484  0.79053  1.0000
  H   H19       1.0  0.44180  0.95918  0.91581  1.0000
  H   H20       1.0  0.56168  0.03991  0.58128  1.0000
  C   C1        1.0  0.27162  0.63559  0.21669  1.0000
  C   C2        1.0  0.72819  0.36329  0.28438  1.0000
  C   C3        1.0  0.05422  0.54288  0.15511  1.0000
  C   C4        1.0  0.94567  0.45536  0.33481  1.0000
  C   C5        1.0  0.30010  0.69082  0.23619  1.0000
  C   C6        1.0  0.69892  0.30811  0.26633  1.0000
  C   C7        1.0  0.35133  0.63441  0.25577  1.0000
  C   C8        1.0  0.64936  0.36619  0.23931  1.0000
  C   C9        1.0  0.45549  0.51235  0.31529  1.0000
  C   C10       1.0  0.55004  0.49343  0.17721  1.0000
  C   C11       1.0  0.29824  0.60712  0.22877  1.0000
  C   C12       1.0  0.70228  0.39244  0.27010  1.0000
  C   C13       1.0  0.35300  0.71535  0.26388  1.0000
  C   C14       1.0  0.64617  0.28443  0.23444  1.0000
  C   C15       1.0  0.45489  0.94264  0.33595  1.0000
  C   C16       1.0  0.54201  0.05683  0.16790  1.0000
  C   C17       1.0  0.27087  0.63622  0.71018  1.0000
  C   C18       1.0  0.72665  0.36375  0.78335  1.0000
  C   C19       1.0  0.05328  0.54515  0.65329  1.0000
  C   C20       1.0  0.94444  0.45764  0.83167  1.0000
  C   C21       1.0  0.29997  0.69138  0.73151  1.0000
  C   C22       1.0  0.69845  0.30859  0.76236  1.0000
  C   C23       1.0  0.34980  0.63365  0.75583  1.0000
  C   C24       1.0  0.64664  0.36449  0.74650  1.0000
  C   C25       1.0  0.44889  0.50694  0.82201  1.0000
  C   C26       1.0  0.54196  0.48599  0.68078  1.0000
  C   C27       1.0  0.29690  0.60714  0.72413  1.0000
  C   C28       1.0  0.69973  0.39194  0.77306  1.0000
  C   C29       1.0  0.35271  0.71510  0.76305  1.0000
  C   C30       1.0  0.64552  0.28386  0.73525  1.0000
  C   C31       1.0  0.45762  0.94197  0.82952  1.0000
  C   C32       1.0  0.54537  0.05674  0.66717  1.0000
  N   N1        1.0  0.02515  0.50494  0.25330  1.0000
  N   N2        1.0  0.97423  0.49212  0.23228  1.0000
  N   N3        1.0  0.49469  0.52158  0.22905  1.0000
  N   N4        1.0  0.51081  0.48441  0.26275  1.0000
  N   N5        1.0  0.48942  0.97292  0.23334  1.0000
  N   N6        1.0  0.50514  0.02658  0.26318  1.0000
  N   N7        1.0  0.37865  0.68786  0.26943  1.0000
  N   N8        1.0  0.62135  0.31279  0.22442  1.0000
  N   N9        1.0  0.02427  0.50798  0.75385  1.0000
  N   N10       1.0  0.97334  0.49535  0.73244  1.0000
  N   N11       1.0  0.48750  0.51505  0.73437  1.0000
  N   N12       1.0  0.50339  0.47776  0.76884  1.0000
  N   N13       1.0  0.49425  0.97246  0.73391  1.0000
  N   N14       1.0  0.50840  0.02583  0.76104  1.0000
  N   N15       1.0  0.37770  0.68695  0.77098  1.0000
  N   N16       1.0  0.61958  0.31107  0.73149  1.0000
  C   C33       1.0  0.15315  0.62317  0.07448  1.0000
  C   C34       1.0  0.11581  0.57405  0.12998  1.0000
  C  Sn1       1.0  0.12949  0.54205  0.22621  1.0000
  C  Sn2       1.0  0.18154  0.55967  0.26748  1.0000
  C   C35       1.0  0.21860  0.60889  0.21146  1.0000
  C   C36       1.0  0.20449  0.64059  0.11519  1.0000
  H   H21       1.0  0.14223  0.64771  0.00008  1.0000
  O  Te1       1.0  0.09171  0.49307  0.28057  1.0000
  O  Te2       1.0  0.19627  0.52849  0.36353  1.0000
  H   H22       1.0  0.23340  0.67864  0.07233  1.0000
  Mg  Mg1       1.0  0.13077  0.46481  0.40827  1.0000
  C   C37       1.0  0.81862  0.36275  0.41275  1.0000
  C   C38       1.0  0.78881  0.38300  0.34000  1.0000
  C  Sn3       1.0  0.81151  0.43070  0.25341  1.0000
  C  Sn4       1.0  0.86506  0.45855  0.23958  1.0000
  C   C39       1.0  0.89454  0.43794  0.31270  1.0000
  C   C40       1.0  0.87143  0.39018  0.39911  1.0000
  H   H23       1.0  0.80074  0.32579  0.47953  1.0000
  O  Te3       1.0  0.78116  0.45038  0.18153  1.0000
  O  Te4       1.0  0.88873  0.50629  0.15370  1.0000
  H   H24       1.0  0.89452  0.37450  0.45533  1.0000
  Mg  Mg2       1.0  0.83112  0.51701  0.07718  1.0000
  C   C41       1.0  0.43952  0.62268  0.19924  1.0000
  C   C42       1.0  0.39130  0.61000  0.25257  1.0000
  C  Sn5       1.0  0.36278  0.56336  0.34024  1.0000
  C  Sn6       1.0  0.38303  0.52887  0.37502  1.0000
  C   C43       1.0  0.43132  0.54193  0.32123  1.0000
  C   C44       1.0  0.45952  0.58869  0.23355  1.0000
  H   H25       1.0  0.46136  0.65887  0.13148  1.0000
  O  Te5       1.0  0.31466  0.55128  0.39256  1.0000
  O  Te6       1.0  0.35535  0.48201  0.46247  1.0000
  H   H26       1.0  0.49687  0.59851  0.19237  1.0000
  Mg  Mg3       1.0  0.29153  0.48285  0.50762  1.0000
  C   C45       1.0  0.64599  0.45896  0.12276  1.0000
  C   C46       1.0  0.63106  0.41166  0.20856  1.0000
  C  Sn7       1.0  0.58386  0.38618  0.28239  1.0000
  C  Sn8       1.0  0.55108  0.40856  0.26985  1.0000
  C   C47       1.0  0.56635  0.45588  0.18363  1.0000
  C   C48       1.0  0.61367  0.48106  0.11027  1.0000
  H   H27       1.0  0.68259  0.47843  0.06591  1.0000
  O  Te7       1.0  0.56955  0.33895  0.36771  1.0000
  O  Te8       1.0  0.50370  0.38391  0.34241  1.0000
  H   H28       1.0  0.62521  0.51767  0.04375  1.0000
  Mg  Mg4       1.0  0.50125  0.32022  0.44563  1.0000
  C   C49       1.0  0.45481  0.84747  0.22472  1.0000
  C   C50       1.0  0.43733  0.87984  0.29402  1.0000
  C  Sn9       1.0  0.39116  0.85729  0.37439  1.0000
  C  Sn10      1.0  0.36204  0.80129  0.38543  1.0000
  C   C51       1.0  0.37988  0.76925  0.31580  1.0000
  C   C52       1.0  0.42613  0.79222  0.23561  1.0000
  H   H29       1.0  0.49060  0.86524  0.16275  1.0000
  O  Te9       1.0  0.37424  0.89022  0.44290  1.0000
  O  Te10      1.0  0.31578  0.77771  0.46511  1.0000
  H   H30       1.0  0.43967  0.76715  0.18206  1.0000
  Mg  Mg5       1.0  0.30877  0.83932  0.53894  1.0000
  C   C53       1.0  0.55559  0.18312  0.27378  1.0000
  C   C54       1.0  0.60450  0.21968  0.22668  1.0000
  C  Sn11      1.0  0.63409  0.20245  0.14365  1.0000
  C  Sn12      1.0  0.61423  0.14758  0.10723  1.0000
  C   C55       1.0  0.56525  0.11133  0.15478  1.0000
  C   C56       1.0  0.53597  0.12900  0.23786  1.0000
  H   H31       1.0  0.53293  0.19679  0.33798  1.0000
  O  Te11      1.0  0.68288  0.23950  0.09753  1.0000
  O  Te12      1.0  0.64298  0.12928  0.02432  1.0000
  H   H32       1.0  0.49810  0.10068  0.27422  1.0000
  Mg  Mg6       1.0  0.71983  0.20107  0.98698  1.0000
  C   C57       1.0  0.15232  0.62545  0.57311  1.0000
  C   C58       1.0  0.11489  0.57617  0.62724  1.0000
  C  Sn13      1.0  0.12849  0.54329  0.71886  1.0000
  C  Sn14      1.0  0.18057  0.56017  0.75684  1.0000
  C   C59       1.0  0.21773  0.60955  0.70223  1.0000
  C   C60       1.0  0.20369  0.64213  0.61058  1.0000
  H   H33       1.0  0.14147  0.65067  0.50228  1.0000
  O  Te13      1.0  0.09061  0.49417  0.77192  1.0000
  O  Te14      1.0  0.19522  0.52810  0.84827  1.0000
  H   H34       1.0  0.23269  0.68030  0.56878  1.0000
  Mg  Mg7       1.0  0.12960  0.46458  0.89291  1.0000
  C   C61       1.0  0.82604  0.45113  0.72582  1.0000
  C   C62       1.0  0.78932  0.40228  0.78515  1.0000
  C  Sn15      1.0  0.80391  0.37063  0.87934  1.0000
  C  Sn16      1.0  0.85627  0.38832  0.91462  1.0000
  C   C63       1.0  0.89272  0.43727  0.85479  1.0000
  C   C64       1.0  0.87769  0.46861  0.76061  1.0000
  H   H35       1.0  0.81442  0.47540  0.65303  1.0000
  O  Te15      1.0  0.76673  0.32192  0.93760  1.0000
  O  Te16      1.0  0.85948  0.35155  0.00851  1.0000
  H   H36       1.0  0.90613  0.50645  0.71479  1.0000
  Mg  Mg8       1.0  0.79454  0.28816  0.06027  1.0000
  C   C65       1.0  0.35328  0.54147  0.87436  1.0000
  C   C66       1.0  0.37071  0.59145  0.80367  1.0000
  C  Sn17      1.0  0.41731  0.61607  0.72589  1.0000
  C  Sn18      1.0  0.44691  0.59007  0.71890  1.0000
  C   C67       1.0  0.42912  0.54006  0.78988  1.0000
  C   C68       1.0  0.38245  0.51578  0.86746  1.0000
  H   H37       1.0  0.31716  0.52267  0.93430  1.0000
  O  Te17      1.0  0.43416  0.66602  0.65596  1.0000
  O  Te18      1.0  0.49361  0.61377  0.64187  1.0000
  H   H38       1.0  0.36895  0.47707  0.92208  1.0000
  Mg  Mg9       1.0  0.50034  0.68213  0.56468  1.0000
  C   C69       1.0  0.54508  0.39285  0.79921  1.0000
  C   C70       1.0  0.56149  0.44282  0.72957  1.0000
  C  Sn19      1.0  0.60736  0.46789  0.64760  1.0000
  C  Sn20      1.0  0.63726  0.44236  0.63528  1.0000
  C   C71       1.0  0.62049  0.39236  0.70526  1.0000
  C   C72       1.0  0.57453  0.36763  0.78706  1.0000
  H   H39       1.0  0.50951  0.37370  0.86242  1.0000
  O  Te19      1.0  0.62320  0.51782  0.57878  1.0000
  O  Te20      1.0  0.68324  0.46652  0.55398  1.0000
  H   H40       1.0  0.56182  0.32893  0.84087  1.0000
  Mg  Mg10      1.0  0.68868  0.53466  0.48034  1.0000
  C   C73       1.0  0.37557  0.84190  0.90076  1.0000
  C   C74       1.0  0.42455  0.87778  0.85245  1.0000
  C  Sn21      1.0  0.45280  0.85993  0.76428  1.0000
  C  Sn22      1.0  0.43152  0.80513  0.72387  1.0000
  C   C75       1.0  0.38247  0.76955  0.77266  1.0000
  C   C76       1.0  0.35453  0.78783  0.86090  1.0000
  H   H41       1.0  0.35394  0.85604  0.96895  1.0000
  O  Te21      1.0  0.50169  0.89632  0.71703  1.0000
  O  Te22      1.0  0.45891  0.78622  0.63580  1.0000
  H   H42       1.0  0.31660  0.76005  0.89819  1.0000
  Mg  Mg11      1.0  0.52405  0.85129  0.59885  1.0000
  C   C77       1.0  0.62450  0.15859  0.58711  1.0000
  C   C78       1.0  0.57988  0.12092  0.65926  1.0000
  C  Sn23      1.0  0.55154  0.13708  0.75421  1.0000
  C  Sn24      1.0  0.56827  0.19201  0.77709  1.0000
  C   C79       1.0  0.61295  0.22939  0.70429  1.0000
  C   C80       1.0  0.64102  0.21278  0.60956  1.0000
  H   H43       1.0  0.64621  0.14575  0.51374  1.0000
  O  Te23      1.0  0.50706  0.09892  0.82547  1.0000
  O  Te24      1.0  0.54067  0.20926  0.87134  1.0000
  H   H44       1.0  0.67555  0.24195  0.55362  1.0000
  Mg  Mg12      1.0  0.48254  0.14210  0.94334  1.0000
