data_image0
_chemical_formula_structural       H40C64N20C2Sn2C2HTe2HMgC2Sn2C2HTe2HMgC2Sn2C2HTe2HMgC2Sn2C2HTe2HMgC2Sn2C2HTe2HMgC2Sn2C2HTe2HMg
_chemical_formula_sum              "H52 C88 N20 Sn12 Te12 Mg6"
_cell_length_a       30.3477
_cell_length_b       29.0731
_cell_length_c       7.97949
_cell_angle_alpha    110.637
_cell_angle_beta     74.1196
_cell_angle_gamma    121.086

_symmetry_space_group_name_H-M    'P1'
_space_group_IT_number       1

loop_
  _space_group_symop_operation_xyz
  'x, y, z'

loop_
  _atom_site_type_symbol
  _atom_site_label
  _atom_site_symmetry_multiplicity
  _atom_site_fract_x
  _atom_site_fract_y
  _atom_site_fract_z
  _atom_site_occupancy
  H   H1        1.0  0.76695  0.31604  0.32065  1.0000
  H   H2        1.0  0.89806  0.50095  0.21644  1.0000
  H   H3        1.0  0.80599  0.46578  0.19332  1.0000
  H   H4        1.0  0.94991  0.42694  0.35122  1.0000
  H   H5        1.0  0.04947  0.57201  0.15587  1.0000
  H   H6        1.0  0.85962  0.35285  0.35246  1.0000
  H   H7        1.0  0.30585  0.54070  0.42380  1.0000
  H   H8        1.0  0.49248  0.60303  0.20126  1.0000
  H   H9        1.0  0.45001  0.65758  0.20088  1.0000
  H   H10       1.0  0.57837  0.53133  0.13436  1.0000
  H   H11       1.0  0.42229  0.47338  0.37444  1.0000
  H   H12       1.0  0.34821  0.48808  0.42908  1.0000
  H   H13       1.0  0.48624  0.12891  0.14217  1.0000
  H   H14       1.0  0.54373  0.22974  0.15983  1.0000
  H   H15       1.0  0.60564  0.12127  0.30632  1.0000
  H   H16       1.0  0.66374  0.22181  0.31507  1.0000
  H   H17       1.0  0.47041  0.04105  0.15658  1.0000
  H   H18       1.0  0.52840  0.96344  0.33755  1.0000
  H   H19       1.0  0.73018  0.43836  0.20216  1.0000
  H   H20       1.0  0.27218  0.56546  0.29590  1.0000
  H   H21       1.0  0.94970  0.42149  0.84836  1.0000
  H   H22       1.0  0.04900  0.56834  0.66436  1.0000
  H   H23       1.0  0.69657  0.46062  0.57434  1.0000
  H   H24       1.0  0.30696  0.53872  0.92851  1.0000
  H   H25       1.0  0.51097  0.40112  0.81156  1.0000
  H   H26       1.0  0.49368  0.60317  0.70038  1.0000
  H   H27       1.0  0.55329  0.34565  0.80578  1.0000
  H   H28       1.0  0.44959  0.65683  0.70460  1.0000
  H   H29       1.0  0.58109  0.53011  0.63276  1.0000
  H   H30       1.0  0.42463  0.47235  0.86939  1.0000
  H   H31       1.0  0.65454  0.51402  0.57249  1.0000
  H   H32       1.0  0.35067  0.48691  0.93050  1.0000
  H   H33       1.0  0.51343  0.87432  0.85135  1.0000
  H   H34       1.0  0.45747  0.77357  0.83676  1.0000
  H   H35       1.0  0.39155  0.87920  0.69467  1.0000
  H   H36       1.0  0.33464  0.77837  0.68778  1.0000
  H   H37       1.0  0.46944  0.03842  0.65803  1.0000
  H   H38       1.0  0.52800  0.96056  0.83500  1.0000
  H   H39       1.0  0.73065  0.43479  0.70096  1.0000
  H   H40       1.0  0.27256  0.56340  0.80163  1.0000
  C   C1        1.0  0.77969  0.38777  0.25503  1.0000
  C   C2        1.0  0.79601  0.35640  0.29789  1.0000
  C   C3        1.0  0.84790  0.37703  0.31407  1.0000
  C   C4        1.0  0.88544  0.42917  0.28311  1.0000
  C   C5        1.0  0.86905  0.46078  0.24098  1.0000
  C   C6        1.0  0.81718  0.44059  0.22836  1.0000
  C   C7        1.0  0.72439  0.36459  0.23665  1.0000
  C   C8        1.0  0.27679  0.63926  0.26557  1.0000
  C   C9        1.0  0.93968  0.44939  0.29606  1.0000
  C   C10       1.0  0.06029  0.55030  0.21220  1.0000
  C   C11       1.0  0.37504  0.60263  0.30996  1.0000
  C   C12       1.0  0.34656  0.55441  0.37299  1.0000
  C   C13       1.0  0.37031  0.52479  0.37666  1.0000
  C   C14       1.0  0.42308  0.54188  0.31356  1.0000
  C   C15       1.0  0.45178  0.59035  0.25091  1.0000
  C   C16       1.0  0.42825  0.62046  0.25070  1.0000
  C   C17       1.0  0.65169  0.37130  0.20301  1.0000
  C   C18       1.0  0.35025  0.63342  0.29703  1.0000
  C   C19       1.0  0.55495  0.49569  0.19339  1.0000
  C   C20       1.0  0.44609  0.50905  0.31557  1.0000
  C   C21       1.0  0.70504  0.39573  0.21021  1.0000
  C   C22       1.0  0.29684  0.60831  0.28909  1.0000
  C   C23       1.0  0.60735  0.23208  0.23794  1.0000
  C   C24       1.0  0.55667  0.20573  0.19274  1.0000
  C   C25       1.0  0.52485  0.14954  0.18319  1.0000
  C   C26       1.0  0.54222  0.11829  0.22209  1.0000
  C   C27       1.0  0.59267  0.14514  0.27215  1.0000
  C   C28       1.0  0.62475  0.20103  0.27796  1.0000
  C   C29       1.0  0.64201  0.29082  0.23465  1.0000
  C   C30       1.0  0.35891  0.71355  0.26563  1.0000
  C   C31       1.0  0.50729  0.05977  0.21033  1.0000
  C   C32       1.0  0.49118  0.94471  0.28615  1.0000
  C   C33       1.0  0.72425  0.36092  0.73873  1.0000
  C   C34       1.0  0.27667  0.63655  0.76785  1.0000
  C   C35       1.0  0.93949  0.44427  0.79480  1.0000
  C   C36       1.0  0.06008  0.54547  0.71396  1.0000
  C   C37       1.0  0.62773  0.39988  0.69385  1.0000
  C   C38       1.0  0.37547  0.60088  0.81254  1.0000
  C   C39       1.0  0.65621  0.44779  0.62931  1.0000
  C   C40       1.0  0.34758  0.55265  0.87546  1.0000
  C   C41       1.0  0.63264  0.47792  0.62796  1.0000
  C   C42       1.0  0.37200  0.52338  0.87690  1.0000
  C   C43       1.0  0.58018  0.46186  0.69575  1.0000
  C   C44       1.0  0.42485  0.54105  0.81243  1.0000
  C   C45       1.0  0.55153  0.41361  0.75971  1.0000
  C   C46       1.0  0.45292  0.58973  0.75070  1.0000
  C   C47       1.0  0.57482  0.38289  0.75661  1.0000
  C   C48       1.0  0.42866  0.61933  0.75242  1.0000
  C   C49       1.0  0.65193  0.36824  0.70488  1.0000
  C   C50       1.0  0.35033  0.63143  0.80068  1.0000
  C   C51       1.0  0.55739  0.49513  0.69487  1.0000
  C   C52       1.0  0.44849  0.50871  0.81390  1.0000
  C   C53       1.0  0.70532  0.39231  0.71093  1.0000
  C   C54       1.0  0.29693  0.60615  0.79381  1.0000
  C   C55       1.0  0.39242  0.76970  0.76232  1.0000
  C   C56       1.0  0.44347  0.79676  0.80469  1.0000
  C   C57       1.0  0.47451  0.85290  0.81265  1.0000
  C   C58       1.0  0.45600  0.88334  0.77531  1.0000
  C   C59       1.0  0.40525  0.85577  0.72753  1.0000
  C   C60       1.0  0.37392  0.79990  0.72299  1.0000
  C   C61       1.0  0.64173  0.28745  0.73627  1.0000
  C   C62       1.0  0.35848  0.71108  0.76781  1.0000
  C   C63       1.0  0.50657  0.05666  0.70939  1.0000
  C   C64       1.0  0.49045  0.94177  0.78574  1.0000
  N   N1        1.0  0.97552  0.49343  0.24298  1.0000
  N   N2        1.0  0.02477  0.50636  0.26647  1.0000
  N   N3        1.0  0.69259  0.31176  0.24842  1.0000
  N   N4        1.0  0.30806  0.69228  0.25486  1.0000
  N   N5        1.0  0.50733  0.48367  0.26159  1.0000
  N   N6        1.0  0.49368  0.52091  0.24763  1.0000
  N   N7        1.0  0.51867  0.02966  0.26140  1.0000
  N   N8        1.0  0.47928  0.97486  0.23753  1.0000
  N   N9        1.0  0.62014  0.31866  0.21540  1.0000
  N   N10       1.0  0.38135  0.68614  0.28430  1.0000
  N   N11       1.0  0.97543  0.48811  0.74099  1.0000
  N   N12       1.0  0.02472  0.50028  0.76155  1.0000
  N   N13       1.0  0.69218  0.30815  0.75091  1.0000
  N   N14       1.0  0.30768  0.68940  0.75541  1.0000
  N   N15       1.0  0.51007  0.48415  0.76517  1.0000
  N   N16       1.0  0.49656  0.52151  0.75064  1.0000
  N   N17       1.0  0.51799  0.02634  0.75911  1.0000
  N   N18       1.0  0.47842  0.97173  0.73680  1.0000
  N   N19       1.0  0.62014  0.31568  0.71777  1.0000
  N   N20       1.0  0.38116  0.68408  0.78735  1.0000
  C   C65       1.0  0.16380  0.63232  0.69881  1.0000
  C   C66       1.0  0.12314  0.57963  0.70816  1.0000
  C  Sn1       1.0  0.13160  0.54234  0.75078  1.0000
  C  Sn2       1.0  0.18174  0.55822  0.78464  1.0000
  C   C67       1.0  0.22215  0.61104  0.77508  1.0000
  C   C68       1.0  0.21326  0.64802  0.73226  1.0000
  H   H41       1.0  0.15691  0.66094  0.66578  1.0000
  O  Te1       1.0  0.09055  0.48986  0.75949  1.0000
  O  Te2       1.0  0.19127  0.52178  0.82759  1.0000
  H   H42       1.0  0.24474  0.68883  0.72514  1.0000
  Mg  Mg1       1.0  0.12284  0.45482  0.82312  1.0000
  C   C69       1.0  0.64350  0.47974  0.12327  1.0000
  C   C70       1.0  0.59125  0.46686  0.16767  1.0000
  C  Sn3       1.0  0.55603  0.42066  0.23540  1.0000
  C  Sn4       1.0  0.57356  0.38681  0.25902  1.0000
  C   C71       1.0  0.62591  0.40007  0.21432  1.0000
  C   C72       1.0  0.66082  0.44639  0.14659  1.0000
  H   H43       1.0  0.67052  0.51560  0.07095  1.0000
  O  Te3       1.0  0.50396  0.40837  0.27901  1.0000
  O  Te4       1.0  0.53919  0.34040  0.32653  1.0000
  H   H44       1.0  0.70128  0.45638  0.11233  1.0000
  Mg  Mg2       1.0  0.47200  0.34072  0.36645  1.0000
  C   C73       1.0  0.14287  0.53879  0.27198  1.0000
  C   C74       1.0  0.11798  0.56404  0.24277  1.0000
  C  Sn5       1.0  0.14678  0.61644  0.20799  1.0000
  C  Sn6       1.0  0.20151  0.64396  0.20238  1.0000
  C   C75       1.0  0.22605  0.61834  0.23165  1.0000
  C   C76       1.0  0.19685  0.56590  0.26640  1.0000
  H   H45       1.0  0.12028  0.49821  0.29877  1.0000
  O  Te5       1.0  0.12129  0.64107  0.17918  1.0000
  O  Te6       1.0  0.23124  0.69635  0.16783  1.0000
  H   H46       1.0  0.21613  0.54635  0.28890  1.0000
  Mg  Mg3       1.0  0.17870  0.71288  0.13721  1.0000
  C   C77       1.0  0.60564  0.15354  0.77336  1.0000
  C   C78       1.0  0.55354  0.12135  0.74357  1.0000
  C  Sn7       1.0  0.52830  0.14385  0.70055  1.0000
  C  Sn8       1.0  0.55583  0.19962  0.68714  1.0000
  C   C79       1.0  0.60796  0.23147  0.71706  1.0000
  C   C80       1.0  0.63283  0.20855  0.76009  1.0000
  H   H47       1.0  0.62489  0.13580  0.80655  1.0000
  O  Te7       1.0  0.47623  0.11111  0.67128  1.0000
  O  Te8       1.0  0.53156  0.22314  0.64428  1.0000
  H   H48       1.0  0.67317  0.23348  0.78303  1.0000
  Mg  Mg4       1.0  0.46012  0.16185  0.61646  1.0000
  C   C81       1.0  0.83367  0.36197  0.82421  1.0000
  C   C82       1.0  0.87695  0.41007  0.78683  1.0000
  C  Sn9       1.0  0.87086  0.44802  0.73827  1.0000
  C  Sn10      1.0  0.82046  0.43750  0.72710  1.0000
  C   C83       1.0  0.77741  0.38927  0.76489  1.0000
  C   C84       1.0  0.78394  0.35157  0.81329  1.0000
  H   H49       1.0  0.83872  0.33281  0.86176  1.0000
  O  Te9       1.0  0.91452  0.49586  0.70130  1.0000
  O  Te10      1.0  0.81327  0.47473  0.67895  1.0000
  H   H50       1.0  0.75042  0.31434  0.84235  1.0000
  Mg  Mg5       1.0  0.88480  0.53408  0.64127  1.0000
  C   C85       1.0  0.39364  0.84579  0.21426  1.0000
  C   C86       1.0  0.44333  0.88070  0.26785  1.0000
  C  Sn11      1.0  0.46919  0.85926  0.31290  1.0000
  C  Sn12      1.0  0.44478  0.80178  0.30397  1.0000
  C   C87       1.0  0.39508  0.76719  0.25007  1.0000
  C   C88       1.0  0.36954  0.78908  0.20534  1.0000
  H   H51       1.0  0.37389  0.86271  0.17955  1.0000
  O  Te11      1.0  0.51881  0.89473  0.36624  1.0000
  O  Te12      1.0  0.46976  0.77925  0.34819  1.0000
  H   H52       1.0  0.33109  0.76203  0.16374  1.0000
  Mg  Mg6       1.0  0.53705  0.84441  0.41320  1.0000
