data_image0
_chemical_formula_structural       H24C36N12C2Sn2C2HTe2HMgC2Sn2C2HTe2HMgC2Sn2C2HTe2HMgC2Sn2C2HTe2HMgC2Sn2C2HTe2HMgC2Sn2C2HTe2HMgC2Sn2C2HTe2HMgC2Sn2C2HTe2HMgC2Sn2C2HTe2HMgC2Sn2C2HTe2HMgC2Sn2C2HTe2HMgC2Sn2C2HTe2HMg
_chemical_formula_sum              "H48 C84 N12 Sn24 Te24 Mg12"
_cell_length_a       29.5424
_cell_length_b       29.5937
_cell_length_c       8.02371
_cell_angle_alpha    89.8352
_cell_angle_beta     89.4776
_cell_angle_gamma    120.491

_symmetry_space_group_name_H-M    'P1'
_space_group_IT_number       1

loop_
  _space_group_symop_operation_xyz
  'x, y, z'

loop_
  _atom_site_type_symbol
  _atom_site_label
  _atom_site_symmetry_multiplicity
  _atom_site_fract_x
  _atom_site_fract_y
  _atom_site_fract_z
  _atom_site_occupancy
  H   H1        1.0  0.56625  0.28813  0.38889  1.0000
  H   H2        1.0  0.70598  0.27784  0.39889  1.0000
  H   H3        1.0  0.71826  0.42873  0.38416  1.0000
  H   H4        1.0  0.43095  0.71024  0.10316  1.0000
  H   H5        1.0  0.29069  0.71984  0.09288  1.0000
  H   H6        1.0  0.27983  0.56958  0.13179  1.0000
  H   H7        1.0  0.56488  0.52936  0.42644  1.0000
  H   H8        1.0  0.46857  0.03153  0.41127  1.0000
  H   H9        1.0  0.96222  0.43165  0.43556  1.0000
  H   H10       1.0  0.43569  0.47195  0.09855  1.0000
  H   H11       1.0  0.52992  0.96700  0.06223  1.0000
  H   H12       1.0  0.03335  0.55900  0.08892  1.0000
  H   H13       1.0  0.56928  0.29055  0.88947  1.0000
  H   H14       1.0  0.70896  0.27974  0.90057  1.0000
  H   H15       1.0  0.72086  0.43069  0.87942  1.0000
  H   H16       1.0  0.43436  0.71196  0.60910  1.0000
  H   H17       1.0  0.29506  0.72293  0.58879  1.0000
  H   H18       1.0  0.28218  0.57186  0.62216  1.0000
  H   H19       1.0  0.56647  0.52937  0.92638  1.0000
  H   H20       1.0  0.46857  0.03384  0.91442  1.0000
  H   H21       1.0  0.96619  0.43882  0.92599  1.0000
  H   H22       1.0  0.43569  0.47102  0.60207  1.0000
  H   H23       1.0  0.52917  0.96972  0.56174  1.0000
  H   H24       1.0  0.03804  0.56583  0.57974  1.0000
  C   C1        1.0  0.60889  0.30742  0.39162  1.0000
  C   C2        1.0  0.68742  0.30152  0.39750  1.0000
  C   C3        1.0  0.69432  0.38619  0.38880  1.0000
  C   C4        1.0  0.38833  0.69115  0.10401  1.0000
  C   C5        1.0  0.30944  0.69637  0.09889  1.0000
  C   C6        1.0  0.30320  0.61206  0.11963  1.0000
  C   C7        1.0  0.63247  0.27653  0.39490  1.0000
  C   C8        1.0  0.71901  0.35636  0.39421  1.0000
  C   C9        1.0  0.63931  0.36241  0.38786  1.0000
  C   C10       1.0  0.36455  0.72185  0.09634  1.0000
  C   C11       1.0  0.27806  0.64152  0.11189  1.0000
  C   C12       1.0  0.35819  0.63630  0.11574  1.0000
  C   C13       1.0  0.54601  0.49256  0.35701  1.0000
  C   C14       1.0  0.50495  0.05215  0.33721  1.0000
  C   C15       1.0  0.94381  0.44903  0.36145  1.0000
  C   C16       1.0  0.45210  0.50752  0.17408  1.0000
  C   C17       1.0  0.49265  0.94696  0.13191  1.0000
  C   C18       1.0  0.05268  0.54270  0.16351  1.0000
  C   C19       1.0  0.61188  0.30932  0.89142  1.0000
  C   C20       1.0  0.69037  0.30340  0.89657  1.0000
  C   C21       1.0  0.69724  0.38813  0.88610  1.0000
  C   C22       1.0  0.39174  0.69288  0.60614  1.0000
  C   C23       1.0  0.31326  0.69896  0.59564  1.0000
  C   C24       1.0  0.30622  0.61433  0.61338  1.0000
  C   C25       1.0  0.63530  0.27827  0.89508  1.0000
  C   C26       1.0  0.72196  0.35829  0.89032  1.0000
  C   C27       1.0  0.64234  0.36423  0.88800  1.0000
  C   C28       1.0  0.36826  0.72388  0.59737  1.0000
  C   C29       1.0  0.28160  0.64420  0.60505  1.0000
  C   C30       1.0  0.36114  0.63781  0.61407  1.0000
  C   C31       1.0  0.54830  0.49307  0.85419  1.0000
  C   C32       1.0  0.50565  0.05386  0.84385  1.0000
  C   C33       1.0  0.94765  0.45673  0.85530  1.0000
  C   C34       1.0  0.45435  0.50799  0.67067  1.0000
  C   C35       1.0  0.49271  0.94898  0.63535  1.0000
  C   C36       1.0  0.05687  0.54965  0.65719  1.0000
  N   N1        1.0  0.50486  0.48005  0.26761  1.0000
  N   N2        1.0  0.51710  0.02635  0.23245  1.0000
  N   N3        1.0  0.97215  0.48839  0.26173  1.0000
  N   N4        1.0  0.49039  0.51813  0.27511  1.0000
  N   N5        1.0  0.47926  0.97316  0.23076  1.0000
  N   N6        1.0  0.02517  0.50385  0.26603  1.0000
  N   N7        1.0  0.50862  0.48169  0.75872  1.0000
  N   N8        1.0  0.51838  0.02774  0.74248  1.0000
  N   N9        1.0  0.97612  0.49725  0.75972  1.0000
  N   N10       1.0  0.49467  0.52016  0.76398  1.0000
  N   N11       1.0  0.48062  0.97451  0.74144  1.0000
  N   N12       1.0  0.02906  0.51206  0.76327  1.0000
  C   C37       1.0  0.64130  0.45876  0.45593  1.0000
  C   C38       1.0  0.62071  0.40689  0.40511  1.0000
  C  Sn1       1.0  0.57279  0.38095  0.32226  1.0000
  C  Sn2       1.0  0.54509  0.40754  0.28983  1.0000
  C   C39       1.0  0.56605  0.45944  0.34108  1.0000
  C   C40       1.0  0.61401  0.48502  0.42394  1.0000
  H   H25       1.0  0.67843  0.47856  0.51996  1.0000
  O  Te1       1.0  0.55277  0.32912  0.27240  1.0000
  O  Te2       1.0  0.49713  0.38256  0.20720  1.0000
  H   H26       1.0  0.62997  0.52519  0.46317  1.0000
  Mg  Mg1       1.0  0.48596  0.31179  0.16387  1.0000
  C   C41       1.0  0.52353  0.14841  0.47694  1.0000
  C   C42       1.0  0.53156  0.11464  0.37599  1.0000
  C  Sn3       1.0  0.57761  0.13387  0.28071  1.0000
  C  Sn4       1.0  0.61627  0.18792  0.28690  1.0000
  C   C43       1.0  0.60788  0.22138  0.38838  1.0000
  C   C44       1.0  0.56165  0.20173  0.48317  1.0000
  H   H27       1.0  0.48777  0.13321  0.55035  1.0000
  O  Te3       1.0  0.58500  0.09959  0.18047  1.0000
  O  Te4       1.0  0.66267  0.20817  0.19300  1.0000
  H   H28       1.0  0.55546  0.22787  0.56140  1.0000
  Mg  Mg2       1.0  0.65467  0.14584  0.07539  1.0000
  C   C45       1.0  0.82157  0.44036  0.29206  1.0000
  C   C46       1.0  0.78361  0.39245  0.36196  1.0000
  C  Sn5       1.0  0.79873  0.36164  0.45060  1.0000
  C  Sn6       1.0  0.85289  0.37923  0.46944  1.0000
  C   C47       1.0  0.89056  0.42724  0.39913  1.0000
  C   C48       1.0  0.87499  0.45775  0.31063  1.0000
  H   H29       1.0  0.80953  0.46398  0.22366  1.0000
  O  Te5       1.0  0.76029  0.31386  0.51959  1.0000
  O  Te6       1.0  0.86909  0.34923  0.55747  1.0000
  H   H30       1.0  0.90439  0.49486  0.25661  1.0000
  Mg  Mg3       1.0  0.80194  0.28694  0.62853  1.0000
  C   C49       1.0  0.43896  0.61869  0.24403  1.0000
  C   C50       1.0  0.39735  0.61139  0.14393  1.0000
  C  Sn7       1.0  0.36975  0.56577  0.05029  1.0000
  C  Sn8       1.0  0.38416  0.52680  0.05729  1.0000
  C   C51       1.0  0.42583  0.53446  0.15791  1.0000
  C   C52       1.0  0.45320  0.58026  0.25105  1.0000
  H   H31       1.0  0.46012  0.65412  0.31617  1.0000
  O  Te7       1.0  0.32441  0.55637  0.95089  1.0000
  O  Te8       1.0  0.35336  0.47808  0.96503  1.0000
  H   H32       1.0  0.48540  0.58589  0.32863  1.0000
  Mg  Mg4       1.0  0.29967  0.48705  0.84802  1.0000
  C   C53       1.0  0.39550  0.85144  0.19424  1.0000
  C   C54       1.0  0.44703  0.88463  0.13805  1.0000
  C  Sn9       1.0  0.47366  0.86432  0.04990  1.0000
  C  Sn10      1.0  0.44811  0.80976  0.01757  1.0000
  C   C55       1.0  0.39654  0.77689  0.07421  1.0000
  C   C56       1.0  0.37027  0.79762  0.16234  1.0000
  H   H33       1.0  0.37516  0.86748  0.26235  1.0000
  O  Te9       1.0  0.52126  0.89529  0.99471  1.0000
  O  Te10      1.0  0.46993  0.78570  0.92971  1.0000
  H   H34       1.0  0.33036  0.77192  0.20574  1.0000
  Mg  Mg5       1.0  0.53985  0.84759  0.88022  1.0000
  C   C57       1.0  0.14811  0.54293  0.23197  1.0000
  C   C58       1.0  0.11499  0.56018  0.17339  1.0000
  C  Sn11      1.0  0.13542  0.60619  0.07833  1.0000
  C  Sn12      1.0  0.19004  0.63539  0.04138  1.0000
  C   C59       1.0  0.22285  0.61779  0.10046  1.0000
  C   C60       1.0  0.20199  0.57170  0.19553  1.0000
  H   H35       1.0  0.13198  0.50726  0.30545  1.0000
  O  Te11      1.0  0.10177  0.62288  0.02084  1.0000
  O  Te12      1.0  0.20763  0.67877  0.94658  1.0000
  H   H36       1.0  0.22764  0.55833  0.24077  1.0000
  Mg  Mg6       1.0  0.14578  0.68547  0.89642  1.0000
  C   C61       1.0  0.62575  0.47251  0.97926  1.0000
  C   C62       1.0  0.58371  0.46584  0.88263  1.0000
  C  Sn13      1.0  0.55598  0.42105  0.78545  1.0000
  C  Sn14      1.0  0.57070  0.38227  0.78529  1.0000
  C   C63       1.0  0.61280  0.38928  0.88249  1.0000
  C   C64       1.0  0.64029  0.43426  0.97923  1.0000
  H   H37       1.0  0.65087  0.51003  0.05419  1.0000
  O  Te13      1.0  0.51408  0.41503  0.68959  1.0000
  O  Te14      1.0  0.54365  0.33711  0.68936  1.0000
  H   H38       1.0  0.67669  0.44213  0.05412  1.0000
  Mg  Mg7       1.0  0.48934  0.34672  0.57947  1.0000
  C   C65       1.0  0.53863  0.18135  0.96655  1.0000
  C   C66       1.0  0.59069  0.21439  0.91495  1.0000
  C  Sn15      1.0  0.61727  0.19430  0.82545  1.0000
  C  Sn16      1.0  0.59114  0.14011  0.78704  1.0000
  C   C67       1.0  0.53904  0.10740  0.83912  1.0000
  C   C68       1.0  0.51282  0.12791  0.92866  1.0000
  H   H39       1.0  0.52220  0.19997  0.03575  1.0000
  O  Te15      1.0  0.66929  0.22785  0.77490  1.0000
  O  Te16      1.0  0.61677  0.11900  0.69770  1.0000
  H   H40       1.0  0.47250  0.10233  0.96850  1.0000
  Mg  Mg8       1.0  0.68756  0.18055  0.65612  1.0000
  C   C69       1.0  0.82330  0.44363  0.78528  1.0000
  C   C70       1.0  0.78652  0.39524  0.85534  1.0000
  C  Sn17      1.0  0.80319  0.36570  0.94398  1.0000
  C  Sn18      1.0  0.85771  0.38508  0.96268  1.0000
  C   C71       1.0  0.89419  0.43356  0.89222  1.0000
  C   C72       1.0  0.87709  0.46279  0.80372  1.0000
  H   H41       1.0  0.81007  0.46627  0.71688  1.0000
  O  Te17      1.0  0.76978  0.32015  0.01312  1.0000
  O  Te18      1.0  0.87931  0.35911  0.05071  1.0000
  H   H42       1.0  0.90557  0.50028  0.74959  1.0000
  Mg  Mg9       1.0  0.81335  0.29547  0.12200  1.0000
  C   C73       1.0  0.36019  0.54109  0.55383  1.0000
  C   C74       1.0  0.37674  0.59080  0.61874  1.0000
  C  Sn19      1.0  0.42451  0.61805  0.70184  1.0000
  C  Sn20      1.0  0.45622  0.59501  0.72007  1.0000
  C   C75       1.0  0.43932  0.54529  0.65459  1.0000
  C   C76       1.0  0.39144  0.51836  0.57170  1.0000
  H   H43       1.0  0.32315  0.52026  0.48962  1.0000
  O  Te19      1.0  0.44046  0.66766  0.76598  1.0000
  O  Te20      1.0  0.50415  0.62139  0.80251  1.0000
  H   H44       1.0  0.37865  0.47989  0.52137  1.0000
  Mg  Mg10      1.0  0.50892  0.68810  0.86834  1.0000
  C   C77       1.0  0.39753  0.85204  0.70661  1.0000
  C   C78       1.0  0.44759  0.88655  0.64158  1.0000
  C  Sn21      1.0  0.47360  0.86772  0.54303  1.0000
  C  Sn22      1.0  0.44891  0.81331  0.50914  1.0000
  C   C79       1.0  0.39880  0.77911  0.57468  1.0000
  C   C80       1.0  0.37314  0.79837  0.67319  1.0000
  H   H45       1.0  0.37766  0.86695  0.78275  1.0000
  O  Te21      1.0  0.52361  0.90274  0.47910  1.0000
  O  Te22      1.0  0.47400  0.79343  0.41097  1.0000
  H   H46       1.0  0.33436  0.77165  0.72343  1.0000
  Mg  Mg11      1.0  0.54188  0.85676  0.35211  1.0000
  C   C81       1.0  0.15599  0.62934  0.53121  1.0000
  C   C82       1.0  0.11938  0.58201  0.60762  1.0000
  C  Sn23      1.0  0.13622  0.55287  0.69767  1.0000
  C  Sn24      1.0  0.19076  0.57156  0.71128  1.0000
  C   C83       1.0  0.22708  0.61897  0.63448  1.0000
  C   C84       1.0  0.20979  0.64781  0.54463  1.0000
  H   H47       1.0  0.14262  0.65167  0.46177  1.0000
  O  Te23      1.0  0.09911  0.50566  0.77318  1.0000
  O  Te24      1.0  0.20868  0.54323  0.80058  1.0000
  H   H48       1.0  0.23815  0.68446  0.48558  1.0000
  Mg  Mg12      1.0  0.14289  0.48112  0.88135  1.0000
