data_image0
_chemical_formula_structural       H20C32N16SnCSn2CSnTe4Mg2SnCSn2CSnTe4Mg2SnCSn2CSnTe4Mg2SnCSn2CSnTe4Mg2SnCSn2CSnTe4Mg2SnCSn2CSnTe4Mg2SnCSn2CSnTe4Mg2SnCSn2CSnTe4Mg2SnCSn2CSnTe4Mg2SnCSn2CSnTe4Mg2SnCSn2CSnTe4Mg2SnCSn2CSnTe4Mg2
_chemical_formula_sum              "H20 C56 N16 Sn48 Te48 Mg24"
_cell_length_a       30.1232
_cell_length_b       28.8275
_cell_length_c       7.96225
_cell_angle_alpha    89.9202
_cell_angle_beta     92.0988
_cell_angle_gamma    119.06

_symmetry_space_group_name_H-M    'P1'
_space_group_IT_number       1

loop_
  _space_group_symop_operation_xyz
  'x, y, z'

loop_
  _atom_site_type_symbol
  _atom_site_label
  _atom_site_symmetry_multiplicity
  _atom_site_fract_x
  _atom_site_fract_y
  _atom_site_fract_z
  _atom_site_occupancy
  H   H1        1.0  0.03819  0.56118  0.06933  1.0000
  H   H2        1.0  0.96221  0.43805  0.42264  1.0000
  H   H3        1.0  0.28156  0.71511  0.23166  1.0000
  H   H4        1.0  0.71689  0.28332  0.27504  1.0000
  H   H5        1.0  0.43987  0.47912  0.40206  1.0000
  H   H6        1.0  0.56634  0.52730  0.09293  1.0000
  H   H7        1.0  0.27824  0.56420  0.21114  1.0000
  H   H8        1.0  0.72267  0.43530  0.28809  1.0000
  H   H9        1.0  0.44172  0.96002  0.43126  1.0000
  H   H10       1.0  0.55713  0.03920  0.08040  1.0000
  H   H11       1.0  0.03711  0.56300  0.56607  1.0000
  H   H12       1.0  0.96086  0.43976  0.91759  1.0000
  H   H13       1.0  0.28197  0.71618  0.72533  1.0000
  H   H14       1.0  0.71749  0.28478  0.76637  1.0000
  H   H15       1.0  0.43236  0.47348  0.90777  1.0000
  H   H16       1.0  0.55744  0.51881  0.59235  1.0000
  H   H17       1.0  0.27671  0.56425  0.70623  1.0000
  H   H18       1.0  0.71949  0.43484  0.79053  1.0000
  H   H19       1.0  0.44180  0.95918  0.91581  1.0000
  H   H20       1.0  0.56168  0.03991  0.58128  1.0000
  C   C1        1.0  0.27162  0.63559  0.21669  1.0000
  C   C2        1.0  0.72819  0.36329  0.28438  1.0000
  C   C3        1.0  0.05422  0.54288  0.15511  1.0000
  C   C4        1.0  0.94567  0.45536  0.33481  1.0000
  C   C5        1.0  0.30010  0.69082  0.23619  1.0000
  C   C6        1.0  0.69892  0.30811  0.26633  1.0000
  C   C7        1.0  0.35133  0.63441  0.25577  1.0000
  C   C8        1.0  0.64936  0.36619  0.23931  1.0000
  C   C9        1.0  0.45549  0.51235  0.31529  1.0000
  C   C10       1.0  0.55004  0.49343  0.17721  1.0000
  C   C11       1.0  0.29824  0.60712  0.22877  1.0000
  C   C12       1.0  0.70228  0.39244  0.27010  1.0000
  C   C13       1.0  0.35300  0.71535  0.26388  1.0000
  C   C14       1.0  0.64617  0.28443  0.23444  1.0000
  C   C15       1.0  0.45489  0.94264  0.33595  1.0000
  C   C16       1.0  0.54201  0.05683  0.16790  1.0000
  C   C17       1.0  0.27087  0.63622  0.71018  1.0000
  C   C18       1.0  0.72665  0.36375  0.78335  1.0000
  C   C19       1.0  0.05328  0.54515  0.65329  1.0000
  C   C20       1.0  0.94444  0.45764  0.83167  1.0000
  C   C21       1.0  0.29997  0.69138  0.73151  1.0000
  C   C22       1.0  0.69845  0.30859  0.76236  1.0000
  C   C23       1.0  0.34980  0.63365  0.75583  1.0000
  C   C24       1.0  0.64664  0.36449  0.74650  1.0000
  C   C25       1.0  0.44889  0.50694  0.82201  1.0000
  C   C26       1.0  0.54196  0.48599  0.68078  1.0000
  C   C27       1.0  0.29690  0.60714  0.72413  1.0000
  C   C28       1.0  0.69973  0.39194  0.77306  1.0000
  C   C29       1.0  0.35271  0.71510  0.76305  1.0000
  C   C30       1.0  0.64552  0.28386  0.73525  1.0000
  C   C31       1.0  0.45762  0.94197  0.82952  1.0000
  C   C32       1.0  0.54537  0.05674  0.66717  1.0000
  N   N1        1.0  0.02515  0.50494  0.25330  1.0000
  N   N2        1.0  0.97423  0.49212  0.23228  1.0000
  N   N3        1.0  0.49469  0.52158  0.22905  1.0000
  N   N4        1.0  0.51081  0.48441  0.26275  1.0000
  N   N5        1.0  0.48942  0.97292  0.23334  1.0000
  N   N6        1.0  0.50514  0.02658  0.26318  1.0000
  N   N7        1.0  0.37865  0.68786  0.26943  1.0000
  N   N8        1.0  0.62135  0.31279  0.22442  1.0000
  N   N9        1.0  0.02427  0.50798  0.75385  1.0000
  N   N10       1.0  0.97334  0.49535  0.73244  1.0000
  N   N11       1.0  0.48750  0.51505  0.73437  1.0000
  N   N12       1.0  0.50339  0.47776  0.76884  1.0000
  N   N13       1.0  0.49425  0.97246  0.73391  1.0000
  N   N14       1.0  0.50840  0.02583  0.76104  1.0000
  N   N15       1.0  0.37770  0.68695  0.77098  1.0000
  N   N16       1.0  0.61958  0.31107  0.73149  1.0000
  C  Sn1       1.0  0.17233  0.54436  0.22546  1.0000
  C   C33       1.0  0.20900  0.59181  0.15801  1.0000
  C  Sn2       1.0  0.19588  0.62941  0.09928  1.0000
  C  Sn3       1.0  0.14504  0.61939  0.10823  1.0000
  C   C34       1.0  0.10841  0.57198  0.17567  1.0000
  C  Sn4       1.0  0.12150  0.53435  0.23441  1.0000
  O  Te1       1.0  0.18631  0.50734  0.28344  1.0000
  O  Te2       1.0  0.23320  0.67654  0.03232  1.0000
  O  Te3       1.0  0.13109  0.65647  0.05018  1.0000
  O  Te4       1.0  0.08421  0.48724  0.30136  1.0000
  Mg  Mg1       1.0  0.20794  0.72065  0.96975  1.0000
  Mg  Mg2       1.0  0.12187  0.44905  0.36404  1.0000
  C  Sn5       1.0  0.82617  0.43777  0.18960  1.0000
  C   C35       1.0  0.78996  0.39152  0.26425  1.0000
  C  Sn6       1.0  0.80447  0.36808  0.39303  1.0000
  C  Sn7       1.0  0.85626  0.39137  0.44844  1.0000
  C   C36       1.0  0.89243  0.43760  0.37384  1.0000
  C  Sn8       1.0  0.87795  0.46106  0.24502  1.0000
  O  Te5       1.0  0.81081  0.46053  0.06107  1.0000
  O  Te6       1.0  0.76759  0.32184  0.46569  1.0000
  O  Te7       1.0  0.87160  0.36857  0.57708  1.0000
  O  Te8       1.0  0.91481  0.50727  0.17240  1.0000
  Mg  Mg3       1.0  0.80728  0.30571  0.63671  1.0000
  Mg  Mg4       1.0  0.87515  0.52346  0.00143  1.0000
  C  Sn9       1.0  0.36830  0.52233  0.33077  1.0000
  C   C37       1.0  0.41638  0.53566  0.27441  1.0000
  C  Sn10      1.0  0.44957  0.58756  0.22725  1.0000
  C  Sn11      1.0  0.43440  0.62696  0.23671  1.0000
  C   C38       1.0  0.38635  0.61362  0.29307  1.0000
  C  Sn12      1.0  0.35313  0.56173  0.34024  1.0000
  O  Te9       1.0  0.33575  0.47020  0.37728  1.0000
  O  Te10      1.0  0.49744  0.59993  0.17124  1.0000
  O  Te11      1.0  0.46700  0.67911  0.19014  1.0000
  O  Te12      1.0  0.30530  0.54935  0.39624  1.0000
  Mg  Mg5       1.0  0.52829  0.67649  0.12204  1.0000
  Mg  Mg6       1.0  0.27442  0.47282  0.44556  1.0000
  C  Sn13      1.0  0.62366  0.46668  0.07816  1.0000
  C   C39       1.0  0.57621  0.45520  0.13605  1.0000
  C  Sn14      1.0  0.55233  0.41545  0.25354  1.0000
  C  Sn15      1.0  0.57638  0.38659  0.31454  1.0000
  C   C40       1.0  0.62380  0.39809  0.25669  1.0000
  C  Sn16      1.0  0.64771  0.43783  0.13917  1.0000
  O  Te13      1.0  0.65927  0.51252  0.96070  1.0000
  O  Te14      1.0  0.50489  0.40467  0.30949  1.0000
  O  Te15      1.0  0.55316  0.34666  0.43209  1.0000
  O  Te16      1.0  0.69513  0.44861  0.08324  1.0000
  Mg  Mg7       1.0  0.48859  0.34664  0.47022  1.0000
  Mg  Mg8       1.0  0.72391  0.51258  0.92259  1.0000
  C  Sn17      1.0  0.35532  0.81154  0.34740  1.0000
  C   C41       1.0  0.37150  0.78011  0.26403  1.0000
  C  Sn18      1.0  0.42216  0.80131  0.22096  1.0000
  C  Sn19      1.0  0.45739  0.85504  0.26215  1.0000
  C   C42       1.0  0.44121  0.88643  0.34548  1.0000
  C  Sn20      1.0  0.39055  0.86526  0.38859  1.0000
  O  Te17      1.0  0.30450  0.78951  0.38925  1.0000
  O  Te18      1.0  0.43743  0.76912  0.13759  1.0000
  O  Te19      1.0  0.50824  0.87705  0.22021  1.0000
  O  Te20      1.0  0.37528  0.89742  0.47192  1.0000
  Mg  Mg9       1.0  0.51072  0.81727  0.10725  1.0000
  Mg  Mg10      1.0  0.30201  0.84930  0.50240  1.0000
  C  Sn21      1.0  0.62994  0.18923  0.07405  1.0000
  C   C43       1.0  0.61420  0.22139  0.15518  1.0000
  C  Sn22      1.0  0.57427  0.19937  0.26521  1.0000
  C  Sn23      1.0  0.54957  0.14405  0.29486  1.0000
  C   C44       1.0  0.56532  0.11192  0.21378  1.0000
  C  Sn24      1.0  0.60525  0.13391  0.10370  1.0000
  O  Te21      1.0  0.68238  0.21803  0.96457  1.0000
  O  Te22      1.0  0.55919  0.23233  0.34481  1.0000
  O  Te23      1.0  0.50954  0.12120  0.40444  1.0000
  O  Te24      1.0  0.62033  0.10099  0.02415  1.0000
  Mg  Mg11      1.0  0.50282  0.18253  0.48301  1.0000
  Mg  Mg12      1.0  0.68915  0.15668  0.88600  1.0000
  C  Sn25      1.0  0.14201  0.54823  0.79310  1.0000
  C   C45       1.0  0.11336  0.56773  0.70746  1.0000
  C  Sn26      1.0  0.13575  0.60756  0.58920  1.0000
  C  Sn27      1.0  0.18788  0.62832  0.55576  1.0000
  C   C46       1.0  0.21650  0.60882  0.64135  1.0000
  C  Sn28      1.0  0.19413  0.56899  0.75966  1.0000
  O  Te25      1.0  0.11883  0.50840  0.91079  1.0000
  O  Te26      1.0  0.10634  0.62643  0.50521  1.0000
  O  Te27      1.0  0.21105  0.66819  0.43795  1.0000
  O  Te28      1.0  0.22352  0.55012  0.84359  1.0000
  Mg  Mg13      1.0  0.15513  0.68093  0.35598  1.0000
  Mg  Mg14      1.0  0.17476  0.49561  0.99278  1.0000
  C  Sn29      1.0  0.81749  0.37571  0.94902  1.0000
  C   C47       1.0  0.78802  0.39382  0.86118  1.0000
  C  Sn30      1.0  0.80958  0.43269  0.73958  1.0000
  C  Sn31      1.0  0.86168  0.45390  0.70497  1.0000
  C   C48       1.0  0.89111  0.43580  0.79276  1.0000
  C  Sn32      1.0  0.86958  0.39692  0.91442  1.0000
  O  Te29      1.0  0.78270  0.33089  0.07005  1.0000
  O  Te30      1.0  0.77936  0.45018  0.65343  1.0000
  O  Te31      1.0  0.88401  0.49283  0.58383  1.0000
  O  Te32      1.0  0.88734  0.37351  0.00051  1.0000
  Mg  Mg15      1.0  0.82719  0.50379  0.49988  1.0000
  Mg  Mg16      1.0  0.83954  0.31988  0.15401  1.0000
  C  Sn33      1.0  0.45391  0.60651  0.76037  1.0000
  C   C49       1.0  0.43578  0.55673  0.83316  1.0000
  C  Sn34      1.0  0.38458  0.52675  0.87039  1.0000
  C  Sn35      1.0  0.35079  0.54692  0.83400  1.0000
  C   C50       1.0  0.36892  0.59667  0.76122  1.0000
  C  Sn36      1.0  0.42012  0.62669  0.72398  1.0000
  O  Te33      1.0  0.50524  0.63579  0.72421  1.0000
  O  Te34      1.0  0.36735  0.47709  0.94320  1.0000
  O  Te35      1.0  0.29942  0.51759  0.87023  1.0000
  O  Te36      1.0  0.43736  0.67630  0.65119  1.0000
  Mg  Mg17      1.0  0.29409  0.45212  0.96905  1.0000
  Mg  Mg18      1.0  0.51059  0.70130  0.62520  1.0000
  C  Sn37      1.0  0.61460  0.45893  0.57734  1.0000
  C   C51       1.0  0.56824  0.44783  0.64387  1.0000
  C  Sn38      1.0  0.54775  0.41099  0.77172  1.0000
  C  Sn39      1.0  0.57417  0.38471  0.83447  1.0000
  C   C52       1.0  0.62050  0.39582  0.76797  1.0000
  C  Sn40      1.0  0.64102  0.43266  0.64009  1.0000
  O  Te37      1.0  0.63437  0.49591  0.44959  1.0000
  O  Te38      1.0  0.50133  0.40053  0.83620  1.0000
  O  Te39      1.0  0.55435  0.34771  0.96232  1.0000
  O  Te40      1.0  0.68741  0.44312  0.57564  1.0000
  Mg  Mg19      1.0  0.47751  0.34103  0.00946  1.0000
  Mg  Mg20      1.0  0.69884  0.49670  0.40245  1.0000
  C  Sn41      1.0  0.38621  0.84177  0.94210  1.0000
  C   C53       1.0  0.43305  0.87729  0.87737  1.0000
  C  Sn42      1.0  0.45408  0.86063  0.75322  1.0000
  C  Sn43      1.0  0.42772  0.80737  0.69242  1.0000
  C   C54       1.0  0.38091  0.77189  0.75712  1.0000
  C  Sn44      1.0  0.35986  0.78852  0.88129  1.0000
  O  Te41      1.0  0.35348  0.85337  0.06615  1.0000
  O  Te42      1.0  0.50096  0.89686  0.69049  1.0000
  O  Te43      1.0  0.44807  0.78987  0.56828  1.0000
  O  Te44      1.0  0.31300  0.75233  0.94400  1.0000
  Mg  Mg21      1.0  0.51298  0.85407  0.52231  1.0000
  Mg  Mg22      1.0  0.28849  0.78915  0.11211  1.0000
  C  Sn45      1.0  0.53994  0.15138  0.72972  1.0000
  C   C55       1.0  0.55713  0.11991  0.65219  1.0000
  C  Sn46      1.0  0.60784  0.14174  0.60912  1.0000
  C  Sn47      1.0  0.64211  0.19615  0.64436  1.0000
  C   C56       1.0  0.62493  0.22758  0.72187  1.0000
  C  Sn48      1.0  0.57421  0.20579  0.76497  1.0000
  O  Te45      1.0  0.48908  0.12872  0.77169  1.0000
  O  Te46      1.0  0.62413  0.10949  0.53164  1.0000
  O  Te47      1.0  0.69300  0.21880  0.60232  1.0000
  O  Te48      1.0  0.55792  0.23800  0.84242  1.0000
  Mg  Mg23      1.0  0.69705  0.15866  0.49864  1.0000
  Mg  Mg24      1.0  0.48502  0.18887  0.87556  1.0000
