data_image0
_chemical_formula_structural       H44C68N16SnCSn2CSnTe4Mg2SnCSn2CSnTe4Mg2SnCSn2CSnTe4Mg2SnCSn2CSnTe4Mg2SnCSn2CSnTe4Mg2SnCSn2CSnTe4Mg2
_chemical_formula_sum              "H44 C80 N16 Sn24 Te24 Mg12"
_cell_length_a       30.1232
_cell_length_b       28.8275
_cell_length_c       7.96225
_cell_angle_alpha    89.9202
_cell_angle_beta     92.0988
_cell_angle_gamma    119.06

_symmetry_space_group_name_H-M    'P1'
_space_group_IT_number       1

loop_
  _space_group_symop_operation_xyz
  'x, y, z'

loop_
  _atom_site_type_symbol
  _atom_site_label
  _atom_site_symmetry_multiplicity
  _atom_site_fract_x
  _atom_site_fract_y
  _atom_site_fract_z
  _atom_site_occupancy
  H   H1        1.0  0.03819  0.56118  0.06933  1.0000
  H   H2        1.0  0.96221  0.43805  0.42264  1.0000
  H   H3        1.0  0.28156  0.71511  0.23166  1.0000
  H   H4        1.0  0.71689  0.28332  0.27504  1.0000
  H   H5        1.0  0.32129  0.54160  0.41411  1.0000
  H   H6        1.0  0.68341  0.46140  0.08897  1.0000
  H   H7        1.0  0.48917  0.60728  0.16036  1.0000
  H   H8        1.0  0.51234  0.39613  0.31717  1.0000
  H   H9        1.0  0.44434  0.66130  0.14239  1.0000
  H   H10       1.0  0.55509  0.34039  0.33799  1.0000
  H   H11       1.0  0.43987  0.47912  0.40206  1.0000
  H   H12       1.0  0.56634  0.52730  0.09293  1.0000
  H   H13       1.0  0.27824  0.56420  0.21114  1.0000
  H   H14       1.0  0.72267  0.43530  0.28809  1.0000
  H   H15       1.0  0.36706  0.48985  0.44099  1.0000
  H   H16       1.0  0.64001  0.51523  0.06090  1.0000
  H   H17       1.0  0.44172  0.96002  0.43126  1.0000
  H   H18       1.0  0.55713  0.03920  0.08040  1.0000
  H   H19       1.0  0.21606  0.67344  0.53185  1.0000
  H   H20       1.0  0.10643  0.50133  0.80106  1.0000
  H   H21       1.0  0.20033  0.54071  0.82284  1.0000
  H   H22       1.0  0.03711  0.56300  0.56607  1.0000
  H   H23       1.0  0.96086  0.43976  0.91759  1.0000
  H   H24       1.0  0.28197  0.71618  0.72533  1.0000
  H   H25       1.0  0.71749  0.28478  0.76637  1.0000
  H   H26       1.0  0.12244  0.63396  0.51003  1.0000
  H   H27       1.0  0.31759  0.54118  0.91849  1.0000
  H   H28       1.0  0.67522  0.45532  0.58035  1.0000
  H   H29       1.0  0.48556  0.60229  0.66989  1.0000
  H   H30       1.0  0.50939  0.39248  0.84573  1.0000
  H   H31       1.0  0.44289  0.65837  0.64796  1.0000
  H   H32       1.0  0.55443  0.33913  0.86875  1.0000
  H   H33       1.0  0.43236  0.47348  0.90777  1.0000
  H   H34       1.0  0.55744  0.51881  0.59235  1.0000
  H   H35       1.0  0.27671  0.56425  0.70623  1.0000
  H   H36       1.0  0.71949  0.43484  0.79053  1.0000
  H   H37       1.0  0.36149  0.48760  0.94988  1.0000
  H   H38       1.0  0.62922  0.50655  0.54860  1.0000
  H   H39       1.0  0.49342  0.88137  0.68376  1.0000
  H   H40       1.0  0.44767  0.78179  0.66273  1.0000
  H   H41       1.0  0.37199  0.87513  0.96652  1.0000
  H   H42       1.0  0.32552  0.77680  0.93833  1.0000
  H   H43       1.0  0.44180  0.95918  0.91581  1.0000
  H   H44       1.0  0.56168  0.03991  0.58128  1.0000
  C   C1        1.0  0.27162  0.63559  0.21669  1.0000
  C   C2        1.0  0.72819  0.36329  0.28438  1.0000
  C   C3        1.0  0.05422  0.54288  0.15511  1.0000
  C   C4        1.0  0.94567  0.45536  0.33481  1.0000
  C   C5        1.0  0.30010  0.69082  0.23619  1.0000
  C   C6        1.0  0.69892  0.30811  0.26633  1.0000
  C   C7        1.0  0.37929  0.60425  0.27241  1.0000
  C   C8        1.0  0.62269  0.39766  0.21970  1.0000
  C   C9        1.0  0.35759  0.55561  0.35570  1.0000
  C   C10       1.0  0.64633  0.44727  0.14195  1.0000
  C   C11       1.0  0.38333  0.52667  0.37162  1.0000
  C   C12       1.0  0.62189  0.47755  0.12543  1.0000
  C   C13       1.0  0.43086  0.54484  0.30019  1.0000
  C   C14       1.0  0.57358  0.45978  0.19059  1.0000
  C   C15       1.0  0.45265  0.59373  0.21679  1.0000
  C   C16       1.0  0.54967  0.40977  0.26692  1.0000
  C   C17       1.0  0.42766  0.62345  0.20597  1.0000
  C   C18       1.0  0.57351  0.37891  0.27881  1.0000
  C   C19       1.0  0.35133  0.63441  0.25577  1.0000
  C   C20       1.0  0.64936  0.36619  0.23931  1.0000
  C   C21       1.0  0.45549  0.51235  0.31529  1.0000
  C   C22       1.0  0.55004  0.49343  0.17721  1.0000
  C   C23       1.0  0.29824  0.60712  0.22877  1.0000
  C   C24       1.0  0.70228  0.39244  0.27010  1.0000
  C   C25       1.0  0.35300  0.71535  0.26388  1.0000
  C   C26       1.0  0.64617  0.28443  0.23444  1.0000
  C   C27       1.0  0.45489  0.94264  0.33595  1.0000
  C   C28       1.0  0.54201  0.05683  0.16790  1.0000
  C   C29       1.0  0.21516  0.61059  0.68216  1.0000
  C   C30       1.0  0.19225  0.63616  0.59333  1.0000
  C   C31       1.0  0.13956  0.61370  0.57969  1.0000
  C   C32       1.0  0.10795  0.56528  0.65693  1.0000
  C   C33       1.0  0.13078  0.53871  0.74117  1.0000
  C   C34       1.0  0.18332  0.56085  0.75212  1.0000
  C   C35       1.0  0.27087  0.63622  0.71018  1.0000
  C   C36       1.0  0.72665  0.36375  0.78335  1.0000
  C   C37       1.0  0.05328  0.54515  0.65329  1.0000
  C   C38       1.0  0.94444  0.45764  0.83167  1.0000
  C   C39       1.0  0.29997  0.69138  0.73151  1.0000
  C   C40       1.0  0.69845  0.30859  0.76236  1.0000
  C   C41       1.0  0.37677  0.60262  0.77659  1.0000
  C   C42       1.0  0.61849  0.39447  0.73023  1.0000
  C   C43       1.0  0.35395  0.55427  0.86135  1.0000
  C   C44       1.0  0.63941  0.44206  0.64139  1.0000
  C   C45       1.0  0.37854  0.52425  0.87963  1.0000
  C   C46       1.0  0.61347  0.47072  0.62287  1.0000
  C   C47       1.0  0.42583  0.54092  0.80810  1.0000
  C   C48       1.0  0.56655  0.45348  0.69785  1.0000
  C   C49       1.0  0.44904  0.58982  0.72509  1.0000
  C   C50       1.0  0.54551  0.40560  0.78694  1.0000
  C   C51       1.0  0.42521  0.62064  0.71203  1.0000
  C   C52       1.0  0.57068  0.37609  0.80031  1.0000
  C   C53       1.0  0.34980  0.63365  0.75583  1.0000
  C   C54       1.0  0.64664  0.36449  0.74650  1.0000
  C   C55       1.0  0.44889  0.50694  0.82201  1.0000
  C   C56       1.0  0.54196  0.48599  0.68078  1.0000
  C   C57       1.0  0.29690  0.60714  0.72413  1.0000
  C   C58       1.0  0.69973  0.39194  0.77306  1.0000
  C   C59       1.0  0.38250  0.77313  0.79087  1.0000
  C   C60       1.0  0.43126  0.80280  0.72693  1.0000
  C   C61       1.0  0.45672  0.85788  0.73922  1.0000
  C   C62       1.0  0.43471  0.88459  0.82128  1.0000
  C   C63       1.0  0.38768  0.85460  0.89561  1.0000
  C   C64       1.0  0.36158  0.79965  0.87847  1.0000
  C   C65       1.0  0.35271  0.71510  0.76305  1.0000
  C   C66       1.0  0.64552  0.28386  0.73525  1.0000
  C   C67       1.0  0.45762  0.94197  0.82952  1.0000
  C   C68       1.0  0.54537  0.05674  0.66717  1.0000
  N   N1        1.0  0.02515  0.50494  0.25330  1.0000
  N   N2        1.0  0.97423  0.49212  0.23228  1.0000
  N   N3        1.0  0.49469  0.52158  0.22905  1.0000
  N   N4        1.0  0.51081  0.48441  0.26275  1.0000
  N   N5        1.0  0.48942  0.97292  0.23334  1.0000
  N   N6        1.0  0.50514  0.02658  0.26318  1.0000
  N   N7        1.0  0.37865  0.68786  0.26943  1.0000
  N   N8        1.0  0.62135  0.31279  0.22442  1.0000
  N   N9        1.0  0.02427  0.50798  0.75385  1.0000
  N   N10       1.0  0.97334  0.49535  0.73244  1.0000
  N   N11       1.0  0.48750  0.51505  0.73437  1.0000
  N   N12       1.0  0.50339  0.47776  0.76884  1.0000
  N   N13       1.0  0.49425  0.97246  0.73391  1.0000
  N   N14       1.0  0.50840  0.02583  0.76104  1.0000
  N   N15       1.0  0.37770  0.68695  0.77098  1.0000
  N   N16       1.0  0.61958  0.31107  0.73149  1.0000
  C  Sn1       1.0  0.82426  0.43889  0.68678  1.0000
  C   C69       1.0  0.78840  0.39258  0.76207  1.0000
  C  Sn2       1.0  0.80335  0.36947  0.89068  1.0000
  C  Sn3       1.0  0.85523  0.39316  0.94528  1.0000
  C   C70       1.0  0.89105  0.43945  0.87003  1.0000
  C  Sn4       1.0  0.87614  0.46258  0.74137  1.0000
  O  Te1       1.0  0.80846  0.46131  0.55842  1.0000
  O  Te2       1.0  0.76680  0.32315  0.96399  1.0000
  O  Te3       1.0  0.85857  0.36477  0.07374  1.0000
  O  Te4       1.0  0.91265  0.50887  0.66810  1.0000
  Mg  Mg1       1.0  0.79460  0.30164  0.13447  1.0000
  Mg  Mg2       1.0  0.87245  0.52451  0.49769  1.0000
  C  Sn5       1.0  0.56896  0.18231  0.82321  1.0000
  C   C71       1.0  0.61402  0.21916  0.75135  1.0000
  C  Sn6       1.0  0.63465  0.20350  0.62321  1.0000
  C  Sn7       1.0  0.60970  0.14990  0.56560  1.0000
  C   C72       1.0  0.56466  0.11308  0.63743  1.0000
  C  Sn8       1.0  0.54401  0.12871  0.76560  1.0000
  O  Te5       1.0  0.54901  0.19885  0.95115  1.0000
  O  Te6       1.0  0.67976  0.24106  0.55335  1.0000
  O  Te7       1.0  0.62969  0.13338  0.43756  1.0000
  O  Te8       1.0  0.49893  0.09119  0.83542  1.0000
  Mg  Mg3       1.0  0.69196  0.19924  0.38207  1.0000
  Mg  Mg4       1.0  0.47424  0.12704  0.00664  1.0000
  C  Sn9       1.0  0.82617  0.43777  0.18960  1.0000
  C   C73       1.0  0.78996  0.39152  0.26425  1.0000
  C  Sn10      1.0  0.80447  0.36808  0.39303  1.0000
  C  Sn11      1.0  0.85626  0.39137  0.44844  1.0000
  C   C74       1.0  0.89243  0.43760  0.37384  1.0000
  C  Sn12      1.0  0.87795  0.46106  0.24502  1.0000
  O  Te9       1.0  0.81081  0.46053  0.06107  1.0000
  O  Te10      1.0  0.76759  0.32184  0.46569  1.0000
  O  Te11      1.0  0.87160  0.36857  0.57708  1.0000
  O  Te12      1.0  0.91481  0.50727  0.17240  1.0000
  Mg  Mg5       1.0  0.80728  0.30571  0.63671  1.0000
  Mg  Mg6       1.0  0.87515  0.52346  0.00143  1.0000
  C  Sn13      1.0  0.18239  0.64052  0.12835  1.0000
  C   C75       1.0  0.21112  0.62090  0.21278  1.0000
  C  Sn14      1.0  0.18833  0.56802  0.26219  1.0000
  C  Sn15      1.0  0.13573  0.53403  0.22638  1.0000
  C   C76       1.0  0.10703  0.55365  0.14197  1.0000
  C  Sn16      1.0  0.12979  0.60653  0.09253  1.0000
  O  Te13      1.0  0.20596  0.69352  0.08012  1.0000
  O  Te14      1.0  0.21784  0.54932  0.34650  1.0000
  O  Te15      1.0  0.11217  0.48099  0.27470  1.0000
  O  Te16      1.0  0.10031  0.62523  0.00825  1.0000
  Mg  Mg7       1.0  0.16839  0.47406  0.38645  1.0000
  Mg  Mg8       1.0  0.16216  0.70639  0.96817  1.0000
  C  Sn17      1.0  0.62825  0.15567  0.15241  1.0000
  C   C77       1.0  0.57966  0.11985  0.20409  1.0000
  C  Sn18      1.0  0.54581  0.13767  0.24637  1.0000
  C  Sn19      1.0  0.56083  0.19244  0.23669  1.0000
  C   C78       1.0  0.60939  0.22823  0.18501  1.0000
  C  Sn20      1.0  0.64327  0.21044  0.14273  1.0000
  O  Te17      1.0  0.66146  0.13697  0.11074  1.0000
  O  Te18      1.0  0.49743  0.10110  0.29775  1.0000
  O  Te19      1.0  0.52757  0.21112  0.27843  1.0000
  O  Te20      1.0  0.69162  0.24697  0.09136  1.0000
  Mg  Mg9       1.0  0.46576  0.14589  0.34132  1.0000
  Mg  Mg10      1.0  0.72331  0.20223  0.04768  1.0000
  C  Sn21      1.0  0.38407  0.84091  0.44445  1.0000
  C   C79       1.0  0.43045  0.87769  0.37981  1.0000
  C  Sn22      1.0  0.45184  0.86266  0.25245  1.0000
  C  Sn23      1.0  0.42632  0.80977  0.18827  1.0000
  C   C80       1.0  0.37997  0.77302  0.25288  1.0000
  C  Sn24      1.0  0.35856  0.78802  0.38027  1.0000
  O  Te21      1.0  0.36340  0.85681  0.57175  1.0000
  O  Te22      1.0  0.49825  0.90013  0.18987  1.0000
  O  Te23      1.0  0.44704  0.79389  0.06087  1.0000
  O  Te24      1.0  0.31217  0.75058  0.44282  1.0000
  Mg  Mg11      1.0  0.51106  0.85935  0.01652  1.0000
  Mg  Mg12      1.0  0.29932  0.79132  0.61609  1.0000
