data_image0
_chemical_formula_structural       H24C36N12SnCSn2CSnTe4Mg2SnCSn2CSnTe4Mg2SnCSn2CSnTe4Mg2SnCSn2CSnTe4Mg2SnCSn2CSnTe4Mg2SnCSn2CSnTe4Mg2SnCSn2CSnTe4Mg2SnCSn2CSnTe4Mg2SnCSn2CSnTe4Mg2SnCSn2CSnTe4Mg2SnCSn2CSnTe4Mg2SnCSn2CSnTe4Mg2
_chemical_formula_sum              "H24 C60 N12 Sn48 Te48 Mg24"
_cell_length_a       29.5424
_cell_length_b       29.5937
_cell_length_c       8.02371
_cell_angle_alpha    89.8352
_cell_angle_beta     89.4776
_cell_angle_gamma    120.491

_symmetry_space_group_name_H-M    'P1'
_space_group_IT_number       1

loop_
  _space_group_symop_operation_xyz
  'x, y, z'

loop_
  _atom_site_type_symbol
  _atom_site_label
  _atom_site_symmetry_multiplicity
  _atom_site_fract_x
  _atom_site_fract_y
  _atom_site_fract_z
  _atom_site_occupancy
  H   H1        1.0  0.56625  0.28813  0.38889  1.0000
  H   H2        1.0  0.70598  0.27784  0.39889  1.0000
  H   H3        1.0  0.71826  0.42873  0.38416  1.0000
  H   H4        1.0  0.43095  0.71024  0.10316  1.0000
  H   H5        1.0  0.29069  0.71984  0.09288  1.0000
  H   H6        1.0  0.27983  0.56958  0.13179  1.0000
  H   H7        1.0  0.56488  0.52936  0.42644  1.0000
  H   H8        1.0  0.46857  0.03153  0.41127  1.0000
  H   H9        1.0  0.96222  0.43165  0.43556  1.0000
  H   H10       1.0  0.43569  0.47195  0.09855  1.0000
  H   H11       1.0  0.52992  0.96700  0.06223  1.0000
  H   H12       1.0  0.03335  0.55900  0.08892  1.0000
  H   H13       1.0  0.56928  0.29055  0.88947  1.0000
  H   H14       1.0  0.70896  0.27974  0.90057  1.0000
  H   H15       1.0  0.72086  0.43069  0.87942  1.0000
  H   H16       1.0  0.43436  0.71196  0.60910  1.0000
  H   H17       1.0  0.29506  0.72293  0.58879  1.0000
  H   H18       1.0  0.28218  0.57186  0.62216  1.0000
  H   H19       1.0  0.56647  0.52937  0.92638  1.0000
  H   H20       1.0  0.46857  0.03384  0.91442  1.0000
  H   H21       1.0  0.96619  0.43882  0.92599  1.0000
  H   H22       1.0  0.43569  0.47102  0.60207  1.0000
  H   H23       1.0  0.52917  0.96972  0.56174  1.0000
  H   H24       1.0  0.03804  0.56583  0.57974  1.0000
  C   C1        1.0  0.60889  0.30742  0.39162  1.0000
  C   C2        1.0  0.68742  0.30152  0.39750  1.0000
  C   C3        1.0  0.69432  0.38619  0.38880  1.0000
  C   C4        1.0  0.38833  0.69115  0.10401  1.0000
  C   C5        1.0  0.30944  0.69637  0.09889  1.0000
  C   C6        1.0  0.30320  0.61206  0.11963  1.0000
  C   C7        1.0  0.63247  0.27653  0.39490  1.0000
  C   C8        1.0  0.71901  0.35636  0.39421  1.0000
  C   C9        1.0  0.63931  0.36241  0.38786  1.0000
  C   C10       1.0  0.36455  0.72185  0.09634  1.0000
  C   C11       1.0  0.27806  0.64152  0.11189  1.0000
  C   C12       1.0  0.35819  0.63630  0.11574  1.0000
  C   C13       1.0  0.54601  0.49256  0.35701  1.0000
  C   C14       1.0  0.50495  0.05215  0.33721  1.0000
  C   C15       1.0  0.94381  0.44903  0.36145  1.0000
  C   C16       1.0  0.45210  0.50752  0.17408  1.0000
  C   C17       1.0  0.49265  0.94696  0.13191  1.0000
  C   C18       1.0  0.05268  0.54270  0.16351  1.0000
  C   C19       1.0  0.61188  0.30932  0.89142  1.0000
  C   C20       1.0  0.69037  0.30340  0.89657  1.0000
  C   C21       1.0  0.69724  0.38813  0.88610  1.0000
  C   C22       1.0  0.39174  0.69288  0.60614  1.0000
  C   C23       1.0  0.31326  0.69896  0.59564  1.0000
  C   C24       1.0  0.30622  0.61433  0.61338  1.0000
  C   C25       1.0  0.63530  0.27827  0.89508  1.0000
  C   C26       1.0  0.72196  0.35829  0.89032  1.0000
  C   C27       1.0  0.64234  0.36423  0.88800  1.0000
  C   C28       1.0  0.36826  0.72388  0.59737  1.0000
  C   C29       1.0  0.28160  0.64420  0.60505  1.0000
  C   C30       1.0  0.36114  0.63781  0.61407  1.0000
  C   C31       1.0  0.54830  0.49307  0.85419  1.0000
  C   C32       1.0  0.50565  0.05386  0.84385  1.0000
  C   C33       1.0  0.94765  0.45673  0.85530  1.0000
  C   C34       1.0  0.45435  0.50799  0.67067  1.0000
  C   C35       1.0  0.49271  0.94898  0.63535  1.0000
  C   C36       1.0  0.05687  0.54965  0.65719  1.0000
  N   N1        1.0  0.50486  0.48005  0.26761  1.0000
  N   N2        1.0  0.51710  0.02635  0.23245  1.0000
  N   N3        1.0  0.97215  0.48839  0.26173  1.0000
  N   N4        1.0  0.49039  0.51813  0.27511  1.0000
  N   N5        1.0  0.47926  0.97316  0.23076  1.0000
  N   N6        1.0  0.02517  0.50385  0.26603  1.0000
  N   N7        1.0  0.50862  0.48169  0.75872  1.0000
  N   N8        1.0  0.51838  0.02774  0.74248  1.0000
  N   N9        1.0  0.97612  0.49725  0.75972  1.0000
  N   N10       1.0  0.49467  0.52016  0.76398  1.0000
  N   N11       1.0  0.48062  0.97451  0.74144  1.0000
  N   N12       1.0  0.02906  0.51206  0.76327  1.0000
  C  Sn1       1.0  0.56561  0.38739  0.25250  1.0000
  C   C37       1.0  0.61229  0.39805  0.32900  1.0000
  C  Sn2       1.0  0.63652  0.43893  0.44295  1.0000
  C  Sn3       1.0  0.61361  0.46978  0.48132  1.0000
  C   C38       1.0  0.56695  0.45911  0.40486  1.0000
  C  Sn4       1.0  0.54269  0.41825  0.29086  1.0000
  O  Te1       1.0  0.54206  0.34633  0.13897  1.0000
  O  Te2       1.0  0.68318  0.44885  0.51780  1.0000
  O  Te3       1.0  0.63720  0.51087  0.59494  1.0000
  O  Te4       1.0  0.49606  0.40832  0.21606  1.0000
  Mg  Mg1       1.0  0.70038  0.50906  0.66435  1.0000
  Mg  Mg2       1.0  0.47881  0.34810  0.06957  1.0000
  C  Sn5       1.0  0.60398  0.14642  0.31083  1.0000
  C   C39       1.0  0.55449  0.11270  0.38119  1.0000
  C  Sn6       1.0  0.52437  0.13266  0.44753  1.0000
  C  Sn7       1.0  0.54409  0.18747  0.44336  1.0000
  C   C40       1.0  0.59354  0.22115  0.37300  1.0000
  C  Sn8       1.0  0.62371  0.20122  0.30666  1.0000
  O  Te5       1.0  0.63342  0.12560  0.24523  1.0000
  O  Te6       1.0  0.47501  0.09817  0.51727  1.0000
  O  Te7       1.0  0.51460  0.20827  0.50903  1.0000
  O  Te8       1.0  0.67302  0.23568  0.23692  1.0000
  Mg  Mg3       1.0  0.44967  0.14541  0.59061  1.0000
  Mg  Mg4       1.0  0.69839  0.18849  0.16347  1.0000
  C  Sn9       1.0  0.81452  0.36780  0.51744  1.0000
  C   C41       1.0  0.78380  0.38558  0.44269  1.0000
  C  Sn10      1.0  0.80457  0.42283  0.31413  1.0000
  C  Sn11      1.0  0.85713  0.44270  0.25904  1.0000
  C   C42       1.0  0.88781  0.42492  0.33375  1.0000
  C  Sn12      1.0  0.86708  0.38767  0.46235  1.0000
  O  Te9       1.0  0.79295  0.33054  0.64575  1.0000
  O  Te10      1.0  0.77310  0.44002  0.24136  1.0000
  O  Te11      1.0  0.87869  0.47999  0.13062  1.0000
  O  Te12      1.0  0.89852  0.37048  0.53508  1.0000
  Mg  Mg5       1.0  0.82023  0.49119  0.07073  1.0000
  Mg  Mg6       1.0  0.85141  0.31929  0.70565  1.0000
  C  Sn13      1.0  0.35484  0.53920  0.08372  1.0000
  C   C43       1.0  0.37151  0.58834  0.15336  1.0000
  C  Sn14      1.0  0.42204  0.61786  0.21769  1.0000
  C  Sn15      1.0  0.45666  0.59786  0.21220  1.0000
  C   C44       1.0  0.43999  0.54875  0.14256  1.0000
  C  Sn16      1.0  0.38946  0.51920  0.07823  1.0000
  O  Te13      1.0  0.30416  0.51036  0.02015  1.0000
  O  Te14      1.0  0.43780  0.66689  0.28674  1.0000
  O  Te15      1.0  0.50737  0.62675  0.27585  1.0000
  O  Te16      1.0  0.37370  0.47021  0.00919  1.0000
  Mg  Mg7       1.0  0.51067  0.69142  0.35720  1.0000
  Mg  Mg8       1.0  0.29698  0.44292  0.93861  1.0000
  C  Sn17      1.0  0.40593  0.85095  0.23429  1.0000
  C   C45       1.0  0.45534  0.88379  0.16204  1.0000
  C  Sn18      1.0  0.47500  0.86488  0.03875  1.0000
  C  Sn19      1.0  0.44075  0.80932  0.98648  1.0000
  C   C46       1.0  0.39523  0.77926  0.05869  1.0000
  C  Sn20      1.0  0.37555  0.79813  0.18202  1.0000
  O  Te17      1.0  0.38706  0.87069  0.35733  1.0000
  O  Te18      1.0  0.52064  0.89571  0.96840  1.0000
  O  Te19      1.0  0.45966  0.78961  0.86333  1.0000
  O  Te20      1.0  0.32606  0.76460  0.25233  1.0000
  Mg  Mg9       1.0  0.52931  0.85057  0.80501  1.0000
  Mg  Mg10      1.0  0.31735  0.80970  0.41566  1.0000
  C  Sn21      1.0  0.18307  0.64366  0.08403  1.0000
  C   C47       1.0  0.21556  0.62652  0.14905  1.0000
  C  Sn22      1.0  0.19424  0.57490  0.20576  1.0000
  C  Sn23      1.0  0.13929  0.53968  0.19722  1.0000
  C   C48       1.0  0.10683  0.55682  0.13221  1.0000
  C  Sn24      1.0  0.12812  0.60844  0.07549  1.0000
  O  Te21      1.0  0.20524  0.69543  0.02805  1.0000
  O  Te22      1.0  0.22751  0.55868  0.27031  1.0000
  O  Te23      1.0  0.11714  0.48787  0.25328  1.0000
  O  Te24      1.0  0.09488  0.62466  0.01095  1.0000
  Mg  Mg11      1.0  0.17867  0.48430  0.33077  1.0000
  Mg  Mg12      1.0  0.13981  0.69628  0.95038  1.0000
  C  Sn25      1.0  0.54136  0.39407  0.81511  1.0000
  C   C49       1.0  0.55803  0.44248  0.89026  1.0000
  C  Sn26      1.0  0.60878  0.47163  0.95325  1.0000
  C  Sn27      1.0  0.64362  0.45200  0.94076  1.0000
  C   C50       1.0  0.62695  0.40363  0.86562  1.0000
  C  Sn28      1.0  0.57620  0.37445  0.80262  1.0000
  O  Te25      1.0  0.49045  0.36560  0.75299  1.0000
  O  Te26      1.0  0.62841  0.52266  0.02790  1.0000
  O  Te27      1.0  0.69842  0.48326  0.00296  1.0000
  O  Te28      1.0  0.56043  0.32619  0.72799  1.0000
  Mg  Mg13      1.0  0.70163  0.54694  0.09371  1.0000
  Mg  Mg14      1.0  0.48724  0.30190  0.66206  1.0000
  C  Sn29      1.0  0.55249  0.18293  0.00679  1.0000
  C   C51       1.0  0.59871  0.21310  0.93905  1.0000
  C  Sn30      1.0  0.61869  0.19496  0.81438  1.0000
  C  Sn31      1.0  0.58797  0.14285  0.75611  1.0000
  C   C52       1.0  0.53791  0.10999  0.82380  1.0000
  C  Sn32      1.0  0.51790  0.12809  0.94851  1.0000
  O  Te29      1.0  0.53330  0.20190  0.13131  1.0000
  O  Te30      1.0  0.66888  0.22857  0.74862  1.0000
  O  Te31      1.0  0.60720  0.12391  0.63148  1.0000
  O  Te32      1.0  0.47161  0.09725  0.01424  1.0000
  Mg  Mg15      1.0  0.67776  0.18463  0.58097  1.0000
  Mg  Mg16      1.0  0.46268  0.14116  0.18182  1.0000
  C  Sn33      1.0  0.82108  0.43148  0.74710  1.0000
  C   C53       1.0  0.78537  0.38566  0.83270  1.0000
  C  Sn34      1.0  0.80276  0.36462  0.95540  1.0000
  C  Sn35      1.0  0.85697  0.38991  0.99341  1.0000
  C   C54       1.0  0.89264  0.43570  0.90785  1.0000
  C  Sn36      1.0  0.87529  0.45677  0.78511  1.0000
  O  Te33      1.0  0.80283  0.45183  0.62492  1.0000
  O  Te34      1.0  0.77019  0.32150  0.03926  1.0000
  O  Te35      1.0  0.87908  0.37226  0.11570  1.0000
  O  Te36      1.0  0.91170  0.50260  0.70130  1.0000
  Mg  Mg17      1.0  0.81423  0.30898  0.19557  1.0000
  Mg  Mg18      1.0  0.86770  0.51518  0.54503  1.0000
  C  Sn37      1.0  0.38317  0.53205  0.52622  1.0000
  C   C55       1.0  0.43002  0.54416  0.60454  1.0000
  C  Sn38      1.0  0.45411  0.58663  0.71283  1.0000
  C  Sn39      1.0  0.43088  0.61764  0.74357  1.0000
  C   C56       1.0  0.38405  0.60553  0.66530  1.0000
  C  Sn40      1.0  0.35993  0.56306  0.55696  1.0000
  O  Te37      1.0  0.35977  0.48941  0.41844  1.0000
  O  Te38      1.0  0.50095  0.59798  0.78964  1.0000
  O  Te39      1.0  0.45432  0.66031  0.85145  1.0000
  O  Te40      1.0  0.31312  0.55171  0.48020  1.0000
  Mg  Mg19      1.0  0.51785  0.66007  0.92635  1.0000
  Mg  Mg20      1.0  0.29617  0.48961  0.34354  1.0000
  C  Sn41      1.0  0.46459  0.82061  0.54921  1.0000
  C   C57       1.0  0.41537  0.78673  0.62098  1.0000
  C  Sn42      1.0  0.38421  0.80621  0.68193  1.0000
  C  Sn43      1.0  0.40260  0.86069  0.67083  1.0000
  C   C58       1.0  0.45179  0.89453  0.59907  1.0000
  C  Sn44      1.0  0.48299  0.87509  0.53811  1.0000
  O  Te41      1.0  0.49508  0.80027  0.48908  1.0000
  O  Te42      1.0  0.33515  0.77157  0.75320  1.0000
  O  Te43      1.0  0.37206  0.88101  0.73104  1.0000
  O  Te44      1.0  0.53201  0.90969  0.46685  1.0000
  Mg  Mg21      1.0  0.30803  0.81811  0.81733  1.0000
  Mg  Mg22      1.0  0.55915  0.86319  0.40261  1.0000
  C  Sn45      1.0  0.18777  0.64769  0.56935  1.0000
  C   C59       1.0  0.21961  0.63023  0.63763  1.0000
  C  Sn46      1.0  0.19749  0.57897  0.69861  1.0000
  C  Sn47      1.0  0.14239  0.54443  0.69109  1.0000
  C   C60       1.0  0.11058  0.56189  0.62282  1.0000
  C  Sn48      1.0  0.13267  0.61314  0.56184  1.0000
  O  Te45      1.0  0.21073  0.69909  0.50913  1.0000
  O  Te46      1.0  0.23012  0.56242  0.76636  1.0000
  O  Te47      1.0  0.11944  0.49299  0.75140  1.0000
  O  Te48      1.0  0.10007  0.62970  0.49410  1.0000
  Mg  Mg23      1.0  0.18031  0.48876  0.83212  1.0000
  Mg  Mg24      1.0  0.14984  0.70334  0.42823  1.0000
