data_image0
_chemical_formula_structural       H12C24N24SnCSn2CSnTe4Mg2SnCSn2CSnTe4Mg2SnCSn2CSnTe4Mg2SnCSn2CSnTe4Mg2SnCSn2CSnTe4Mg2SnCSn2CSnTe4Mg2SnCSn2CSnTe4Mg2SnCSn2CSnTe4Mg2SnCSn2CSnTe4Mg2SnCSn2CSnTe4Mg2SnCSn2CSnTe4Mg2SnCSn2CSnTe4Mg2
_chemical_formula_sum              "H12 C48 N24 Sn48 Te48 Mg24"
_cell_length_a       29.4278
_cell_length_b       29.4562
_cell_length_c       8.04776
_cell_angle_alpha    93.1658
_cell_angle_beta     61.5978
_cell_angle_gamma    120.051

_symmetry_space_group_name_H-M    'P1'
_space_group_IT_number       1

loop_
  _space_group_symop_operation_xyz
  'x, y, z'

loop_
  _atom_site_type_symbol
  _atom_site_label
  _atom_site_symmetry_multiplicity
  _atom_site_fract_x
  _atom_site_fract_y
  _atom_site_fract_z
  _atom_site_occupancy
  H   H1        1.0  0.04722  0.59226  0.22725  1.0000
  H   H2        1.0  0.41921  0.45909  0.18409  1.0000
  H   H3        1.0  0.53552  0.95118  0.30956  1.0000
  H   H4        1.0  0.95293  0.42281  0.27484  1.0000
  H   H5        1.0  0.56790  0.52978  0.28226  1.0000
  H   H6        1.0  0.47058  0.04296  0.22179  1.0000
  H   H7        1.0  0.04700  0.57912  0.73168  1.0000
  H   H8        1.0  0.43509  0.47056  0.68839  1.0000
  H   H9        1.0  0.52805  0.95554  0.80022  1.0000
  H   H10       1.0  0.95354  0.40991  0.77522  1.0000
  H   H11       1.0  0.58460  0.54211  0.78355  1.0000
  H   H12       1.0  0.45861  0.04564  0.73480  1.0000
  C   C1        1.0  0.28216  0.64783  0.24464  1.0000
  C   C2        1.0  0.35095  0.63449  0.25343  1.0000
  C   C3        1.0  0.36296  0.71718  0.25805  1.0000
  C   C4        1.0  0.71603  0.35526  0.25502  1.0000
  C   C5        1.0  0.64403  0.36235  0.24218  1.0000
  C   C6        1.0  0.63605  0.28132  0.25241  1.0000
  C   C7        1.0  0.05962  0.56381  0.24072  1.0000
  C   C8        1.0  0.44069  0.49814  0.21836  1.0000
  C   C9        1.0  0.49723  0.93814  0.28719  1.0000
  C   C10       1.0  0.93958  0.45043  0.26087  1.0000
  C   C11       1.0  0.54537  0.48940  0.25776  1.0000
  C   C12       1.0  0.50816  0.05706  0.24895  1.0000
  C   C13       1.0  0.28448  0.64544  0.74650  1.0000
  C   C14       1.0  0.35695  0.63789  0.75391  1.0000
  C   C15       1.0  0.36286  0.71812  0.76054  1.0000
  C   C16       1.0  0.71821  0.35284  0.75739  1.0000
  C   C17       1.0  0.64989  0.36587  0.74341  1.0000
  C   C18       1.0  0.63648  0.28260  0.75072  1.0000
  C   C19       1.0  0.06073  0.55159  0.74296  1.0000
  C   C20       1.0  0.45728  0.51063  0.71541  1.0000
  C   C21       1.0  0.48764  0.94054  0.78784  1.0000
  C   C22       1.0  0.94086  0.43818  0.76224  1.0000
  C   C23       1.0  0.56242  0.50243  0.75395  1.0000
  C   C24       1.0  0.49699  0.05891  0.75693  1.0000
  N   N1        1.0  0.02476  0.51281  0.25364  1.0000
  N   N2        1.0  0.48481  0.51232  0.25070  1.0000
  N   N3        1.0  0.48328  0.97214  0.26674  1.0000
  N   N4        1.0  0.97374  0.50157  0.24794  1.0000
  N   N5        1.0  0.49876  0.47295  0.23637  1.0000
  N   N6        1.0  0.52181  0.02351  0.27641  1.0000
  N   N7        1.0  0.31272  0.70022  0.24776  1.0000
  N   N8        1.0  0.29957  0.61345  0.24640  1.0000
  N   N9        1.0  0.38403  0.68597  0.26089  1.0000
  N   N10       1.0  0.68724  0.30205  0.26004  1.0000
  N   N11       1.0  0.69624  0.38706  0.24611  1.0000
  N   N12       1.0  0.61229  0.30965  0.24458  1.0000
  N   N13       1.0  0.02680  0.50053  0.75402  1.0000
  N   N14       1.0  0.50352  0.52678  0.73859  1.0000
  N   N15       1.0  0.47078  0.97305  0.77767  1.0000
  N   N16       1.0  0.97555  0.48919  0.74966  1.0000
  N   N17       1.0  0.51745  0.48744  0.72516  1.0000
  N   N18       1.0  0.51009  0.02474  0.78303  1.0000
  N   N19       1.0  0.31216  0.69804  0.75038  1.0000
  N   N20       1.0  0.30507  0.61372  0.74806  1.0000
  N   N21       1.0  0.38739  0.68986  0.76137  1.0000
  N   N22       1.0  0.68705  0.30006  0.75948  1.0000
  N   N23       1.0  0.70133  0.38728  0.75040  1.0000
  N   N24       1.0  0.61595  0.31385  0.74264  1.0000
  C  Sn1       1.0  0.17443  0.65055  0.16517  1.0000
  C   C25       1.0  0.13181  0.59673  0.18584  1.0000
  C  Sn2       1.0  0.13293  0.55496  0.25432  1.0000
  C  Sn3       1.0  0.17756  0.56724  0.30328  1.0000
  C   C26       1.0  0.22014  0.62102  0.28263  1.0000
  C  Sn4       1.0  0.21906  0.66282  0.21412  1.0000
  O  Te1       1.0  0.17246  0.69165  0.09644  1.0000
  O  Te2       1.0  0.08986  0.50147  0.27371  1.0000
  O  Te3       1.0  0.17950  0.52607  0.37204  1.0000
  O  Te4       1.0  0.26209  0.71628  0.19477  1.0000
  Mg  Mg1       1.0  0.11114  0.45959  0.37345  1.0000
  Mg  Mg2       1.0  0.24084  0.75820  0.09515  1.0000
  C  Sn5       1.0  0.33373  0.53045  0.28275  1.0000
  C   C27       1.0  0.35762  0.58358  0.30369  1.0000
  C  Sn6       1.0  0.41719  0.61466  0.26979  1.0000
  C  Sn7       1.0  0.45367  0.59219  0.21366  1.0000
  C   C28       1.0  0.42979  0.53910  0.19271  1.0000
  C  Sn8       1.0  0.37021  0.50798  0.22662  1.0000
  O  Te5       1.0  0.27405  0.50012  0.31738  1.0000
  O  Te6       1.0  0.44007  0.66767  0.29173  1.0000
  O  Te7       1.0  0.51339  0.62257  0.17903  1.0000
  O  Te8       1.0  0.34734  0.45501  0.20467  1.0000
  Mg  Mg3       1.0  0.52404  0.69286  0.22801  1.0000
  Mg  Mg4       1.0  0.26339  0.42979  0.26825  1.0000
  C  Sn9       1.0  0.48858  0.83996  0.22839  1.0000
  C   C29       1.0  0.47508  0.87918  0.22825  1.0000
  C  Sn10      1.0  0.41743  0.86429  0.26474  1.0000
  C  Sn11      1.0  0.37232  0.80903  0.30226  1.0000
  C   C30       1.0  0.38582  0.76984  0.30241  1.0000
  C  Sn12      1.0  0.44346  0.78470  0.26591  1.0000
  O  Te9       1.0  0.54651  0.85577  0.19156  1.0000
  O  Te10      1.0  0.40502  0.90423  0.26377  1.0000
  O  Te11      1.0  0.31436  0.79324  0.33910  1.0000
  O  Te12      1.0  0.45588  0.74479  0.26690  1.0000
  Mg  Mg5       1.0  0.31937  0.86254  0.32208  1.0000
  Mg  Mg6       1.0  0.54151  0.78643  0.20871  1.0000
  C  Sn13      1.0  0.84590  0.36571  0.22055  1.0000
  C   C31       1.0  0.88474  0.41991  0.20927  1.0000
  C  Sn14      1.0  0.86474  0.45541  0.23938  1.0000
  C  Sn15      1.0  0.80465  0.43634  0.28178  1.0000
  C   C32       1.0  0.76584  0.38217  0.29307  1.0000
  C  Sn16      1.0  0.78580  0.34664  0.26294  1.0000
  O  Te13      1.0  0.86685  0.33094  0.18993  1.0000
  O  Te14      1.0  0.90442  0.50942  0.22729  1.0000
  O  Te15      1.0  0.78371  0.47116  0.31239  1.0000
  O  Te16      1.0  0.74616  0.29266  0.27505  1.0000
  Mg  Mg7       1.0  0.85476  0.54114  0.28055  1.0000
  Mg  Mg8       1.0  0.79576  0.26090  0.22192  1.0000
  C  Sn17      1.0  0.56916  0.38124  0.16527  1.0000
  C   C33       1.0  0.61950  0.39643  0.18358  1.0000
  C  Sn18      1.0  0.64318  0.44185  0.25376  1.0000
  C  Sn19      1.0  0.61595  0.47270  0.30686  1.0000
  C   C34       1.0  0.56563  0.45750  0.28857  1.0000
  C  Sn20      1.0  0.54193  0.41210  0.21837  1.0000
  O  Te17      1.0  0.54624  0.33569  0.09480  1.0000
  O  Te18      1.0  0.69355  0.45625  0.27072  1.0000
  O  Te19      1.0  0.63891  0.51829  0.37737  1.0000
  O  Te20      1.0  0.49158  0.39769  0.20144  1.0000
  Mg  Mg9       1.0  0.70819  0.52161  0.37423  1.0000
  Mg  Mg10      1.0  0.47689  0.33232  0.09804  1.0000
  C  Sn21      1.0  0.53421  0.16177  0.18016  1.0000
  C   C35       1.0  0.54832  0.12395  0.19498  1.0000
  C  Sn22      1.0  0.58850  0.13483  0.25917  1.0000
  C  Sn23      1.0  0.61511  0.18454  0.30972  1.0000
  C   C36       1.0  0.60099  0.22232  0.29493  1.0000
  C  Sn24      1.0  0.56082  0.21148  0.23072  1.0000
  O  Te21      1.0  0.49391  0.15004  0.11565  1.0000
  O  Te22      1.0  0.60193  0.09639  0.27272  1.0000
  O  Te23      1.0  0.65543  0.19624  0.37426  1.0000
  O  Te24      1.0  0.54738  0.24988  0.21719  1.0000
  Mg  Mg11      1.0  0.65944  0.13103  0.36830  1.0000
  Mg  Mg12      1.0  0.48985  0.21527  0.12172  1.0000
  C  Sn25      1.0  0.13948  0.54081  0.82372  1.0000
  C   C37       1.0  0.11342  0.56691  0.80091  1.0000
  C  Sn26      1.0  0.14839  0.62283  0.72786  1.0000
  C  Sn27      1.0  0.21073  0.65329  0.67641  1.0000
  C   C38       1.0  0.23676  0.62719  0.69920  1.0000
  C  Sn28      1.0  0.20181  0.57127  0.77228  1.0000
  O  Te25      1.0  0.10365  0.48487  0.89702  1.0000
  O  Te26      1.0  0.12132  0.64802  0.70642  1.0000
  O  Te27      1.0  0.24654  0.70927  0.60308  1.0000
  O  Te28      1.0  0.22886  0.54608  0.79369  1.0000
  Mg  Mg13      1.0  0.18897  0.72513  0.60038  1.0000
  Mg  Mg14      1.0  0.16126  0.46898  0.89962  1.0000
  C  Sn29      1.0  0.45475  0.62971  0.70221  1.0000
  C   C39       1.0  0.40229  0.61412  0.69632  1.0000
  C  Sn30      1.0  0.36006  0.55963  0.72349  1.0000
  C  Sn31      1.0  0.37044  0.51988  0.75739  1.0000
  C   C40       1.0  0.42286  0.53547  0.76330  1.0000
  C  Sn32      1.0  0.46513  0.58996  0.73610  1.0000
  O  Te29      1.0  0.49635  0.68442  0.67467  1.0000
  O  Te30      1.0  0.30796  0.54503  0.71690  1.0000
  O  Te31      1.0  0.32878  0.46514  0.78493  1.0000
  O  Te32      1.0  0.51719  0.60456  0.74271  1.0000
  Mg  Mg15      1.0  0.26468  0.46537  0.76302  1.0000
  Mg  Mg16      1.0  0.56048  0.68421  0.69672  1.0000
  C  Sn33      1.0  0.44611  0.80492  0.84150  1.0000
  C   C41       1.0  0.39418  0.77610  0.82513  1.0000
  C  Sn34      1.0  0.37444  0.80334  0.76826  1.0000
  C  Sn35      1.0  0.40730  0.86058  0.72676  1.0000
  C   C42       1.0  0.45920  0.88937  0.74310  1.0000
  C  Sn36      1.0  0.47897  0.86217  0.80000  1.0000
  O  Te33      1.0  0.46502  0.77686  0.89858  1.0000
  O  Te34      1.0  0.32238  0.77364  0.75299  1.0000
  O  Te35      1.0  0.38834  0.88863  0.66964  1.0000
  O  Te36      1.0  0.53100  0.89183  0.81524  1.0000
  Mg  Mg17      1.0  0.31473  0.83023  0.66977  1.0000
  Mg  Mg18      1.0  0.53871  0.83529  0.89835  1.0000
  C  Sn37      1.0  0.79463  0.33882  0.84061  1.0000
  C   C43       1.0  0.77063  0.36703  0.81763  1.0000
  C  Sn38      1.0  0.80740  0.42311  0.74675  1.0000
  C  Sn39      1.0  0.86947  0.45157  0.69771  1.0000
  C   C44       1.0  0.89344  0.42336  0.72067  1.0000
  C  Sn40      1.0  0.85669  0.36728  0.79157  1.0000
  O  Te37      1.0  0.75704  0.28276  0.91171  1.0000
  O  Te38      1.0  0.78238  0.45044  0.72509  1.0000
  O  Te39      1.0  0.90706  0.50767  0.62658  1.0000
  O  Te40      1.0  0.88169  0.33995  0.81321  1.0000
  Mg  Mg19      1.0  0.85195  0.52683  0.62260  1.0000
  Mg  Mg20      1.0  0.81218  0.26356  0.91559  1.0000
  C  Sn41      1.0  0.57976  0.39110  0.66391  1.0000
  C   C45       1.0  0.62899  0.40331  0.68430  1.0000
  C  Sn42      1.0  0.65434  0.44794  0.75526  1.0000
  C  Sn43      1.0  0.62995  0.48105  0.80704  1.0000
  C   C46       1.0  0.58075  0.46884  0.78667  1.0000
  C  Sn44      1.0  0.55537  0.42421  0.71569  1.0000
  O  Te41      1.0  0.55514  0.34628  0.59268  1.0000
  O  Te42      1.0  0.70356  0.45934  0.77431  1.0000
  O  Te43      1.0  0.65462  0.52591  0.87831  1.0000
  O  Te44      1.0  0.50618  0.41280  0.69667  1.0000
  Mg  Mg21      1.0  0.72136  0.52483  0.87812  1.0000
  Mg  Mg22      1.0  0.48832  0.34731  0.59297  1.0000
  C  Sn45      1.0  0.58672  0.14396  0.82046  1.0000
  C   C47       1.0  0.53388  0.11706  0.80863  1.0000
  C  Sn46      1.0  0.51671  0.14626  0.74787  1.0000
  C  Sn47      1.0  0.55312  0.20355  0.69777  1.0000
  C   C48       1.0  0.60593  0.23042  0.70958  1.0000
  C  Sn48      1.0  0.62313  0.20125  0.77036  1.0000
  O  Te45      1.0  0.60301  0.11395  0.88156  1.0000
  O  Te46      1.0  0.46368  0.11846  0.73726  1.0000
  O  Te47      1.0  0.53678  0.23355  0.63664  1.0000
  O  Te48      1.0  0.67613  0.22901  0.78095  1.0000
  Mg  Mg23      1.0  0.46054  0.17730  0.64577  1.0000
  Mg  Mg24      1.0  0.67933  0.17022  0.87232  1.0000
