data_image0
_chemical_formula_structural       H36C60N24SnCSn2CSnTe4Mg2SnCSn2CSnTe4Mg2SnCSn2CSnTe4Mg2SnCSn2CSnTe4Mg2SnCSn2CSnTe4Mg2SnCSn2CSnTe4Mg2
_chemical_formula_sum              "H36 C72 N24 Sn24 Te24 Mg12"
_cell_length_a       29.4278
_cell_length_b       29.4562
_cell_length_c       8.04776
_cell_angle_alpha    93.1658
_cell_angle_beta     61.5978
_cell_angle_gamma    120.051

_symmetry_space_group_name_H-M    'P1'
_space_group_IT_number       1

loop_
  _space_group_symop_operation_xyz
  'x, y, z'

loop_
  _atom_site_type_symbol
  _atom_site_label
  _atom_site_symmetry_multiplicity
  _atom_site_fract_x
  _atom_site_fract_y
  _atom_site_fract_z
  _atom_site_occupancy
  H   H1        1.0  0.23602  0.70371  0.21074  1.0000
  H   H2        1.0  0.30289  0.53177  0.21751  1.0000
  H   H3        1.0  0.46375  0.76673  0.28744  1.0000
  H   H4        1.0  0.76669  0.30501  0.29287  1.0000
  H   H5        1.0  0.68791  0.46563  0.26648  1.0000
  H   H6        1.0  0.13888  0.66681  0.21062  1.0000
  H   H7        1.0  0.34349  0.47336  0.19484  1.0000
  H   H8        1.0  0.52172  0.86280  0.30148  1.0000
  H   H9        1.0  0.86411  0.34699  0.29580  1.0000
  H   H10       1.0  0.64347  0.51991  0.27825  1.0000
  H   H11       1.0  0.10524  0.50717  0.27371  1.0000
  H   H12       1.0  0.48769  0.60027  0.26649  1.0000
  H   H13       1.0  0.39603  0.88910  0.25905  1.0000
  H   H14       1.0  0.88979  0.50315  0.22352  1.0000
  H   H15       1.0  0.50165  0.38554  0.21697  1.0000
  H   H16       1.0  0.20334  0.54474  0.27096  1.0000
  H   H17       1.0  0.44752  0.65909  0.28328  1.0000
  H   H18       1.0  0.33769  0.79235  0.24789  1.0000
  H   H19       1.0  0.79115  0.46044  0.22492  1.0000
  H   H20       1.0  0.54593  0.33107  0.20954  1.0000
  H   H21       1.0  0.04722  0.59226  0.22725  1.0000
  H   H22       1.0  0.41921  0.45909  0.18409  1.0000
  H   H23       1.0  0.53552  0.95118  0.30956  1.0000
  H   H24       1.0  0.95293  0.42281  0.27484  1.0000
  H   H25       1.0  0.56790  0.52978  0.28226  1.0000
  H   H26       1.0  0.47058  0.04296  0.22179  1.0000
  H   H27       1.0  0.46398  0.77307  0.78515  1.0000
  H   H28       1.0  0.51798  0.86983  0.79669  1.0000
  H   H29       1.0  0.38420  0.88595  0.76875  1.0000
  H   H30       1.0  0.32969  0.78842  0.76070  1.0000
  H   H31       1.0  0.04700  0.57912  0.73168  1.0000
  H   H32       1.0  0.43509  0.47056  0.68839  1.0000
  H   H33       1.0  0.52805  0.95554  0.80022  1.0000
  H   H34       1.0  0.95354  0.40991  0.77522  1.0000
  H   H35       1.0  0.58460  0.54211  0.78355  1.0000
  H   H36       1.0  0.45861  0.04564  0.73480  1.0000
  C   C1        1.0  0.22544  0.62643  0.24107  1.0000
  C   C2        1.0  0.37297  0.59901  0.25068  1.0000
  C   C3        1.0  0.39715  0.77375  0.26745  1.0000
  C   C4        1.0  0.77326  0.38023  0.25807  1.0000
  C   C5        1.0  0.61954  0.39508  0.23754  1.0000
  C   C6        1.0  0.20703  0.66086  0.22443  1.0000
  C   C7        1.0  0.34309  0.54617  0.22857  1.0000
  C   C8        1.0  0.44948  0.79390  0.28089  1.0000
  C   C9        1.0  0.79406  0.34823  0.27762  1.0000
  C   C10       1.0  0.64758  0.44878  0.25413  1.0000
  C   C11       1.0  0.15284  0.64005  0.22524  1.0000
  C   C12       1.0  0.36597  0.51388  0.21608  1.0000
  C   C13       1.0  0.48172  0.84748  0.28795  1.0000
  C   C14       1.0  0.84835  0.37182  0.27796  1.0000
  C   C15       1.0  0.62258  0.47874  0.26077  1.0000
  C   C16       1.0  0.11571  0.58441  0.24225  1.0000
  C   C17       1.0  0.41855  0.53317  0.22826  1.0000
  C   C18       1.0  0.46271  0.88231  0.27999  1.0000
  C   C19       1.0  0.88336  0.42789  0.25871  1.0000
  C   C20       1.0  0.56944  0.45618  0.24946  1.0000
  C   C21       1.0  0.13445  0.55008  0.25892  1.0000
  C   C22       1.0  0.44774  0.58594  0.25380  1.0000
  C   C23       1.0  0.41013  0.86186  0.26661  1.0000
  C   C24       1.0  0.86235  0.45990  0.23904  1.0000
  C   C25       1.0  0.54202  0.40255  0.22935  1.0000
  C   C26       1.0  0.18856  0.57082  0.25736  1.0000
  C   C27       1.0  0.42539  0.61838  0.26375  1.0000
  C   C28       1.0  0.37783  0.80841  0.26069  1.0000
  C   C29       1.0  0.80797  0.43633  0.23982  1.0000
  C   C30       1.0  0.56668  0.37247  0.22446  1.0000
  C   C31       1.0  0.28216  0.64783  0.24464  1.0000
  C   C32       1.0  0.35095  0.63449  0.25343  1.0000
  C   C33       1.0  0.36296  0.71718  0.25805  1.0000
  C   C34       1.0  0.71603  0.35526  0.25502  1.0000
  C   C35       1.0  0.64403  0.36235  0.24218  1.0000
  C   C36       1.0  0.63605  0.28132  0.25241  1.0000
  C   C37       1.0  0.05962  0.56381  0.24072  1.0000
  C   C38       1.0  0.44069  0.49814  0.21836  1.0000
  C   C39       1.0  0.49723  0.93814  0.28719  1.0000
  C   C40       1.0  0.93958  0.45043  0.26087  1.0000
  C   C41       1.0  0.54537  0.48940  0.25776  1.0000
  C   C42       1.0  0.50816  0.05706  0.24895  1.0000
  C   C43       1.0  0.39384  0.77501  0.77121  1.0000
  C   C44       1.0  0.44720  0.79824  0.78061  1.0000
  C   C45       1.0  0.47718  0.85218  0.78619  1.0000
  C   C46       1.0  0.45481  0.88437  0.78160  1.0000
  C   C47       1.0  0.40098  0.86079  0.77349  1.0000
  C   C48       1.0  0.37088  0.80688  0.76888  1.0000
  C   C49       1.0  0.28448  0.64544  0.74650  1.0000
  C   C50       1.0  0.35695  0.63789  0.75391  1.0000
  C   C51       1.0  0.36286  0.71812  0.76054  1.0000
  C   C52       1.0  0.71821  0.35284  0.75739  1.0000
  C   C53       1.0  0.64989  0.36587  0.74341  1.0000
  C   C54       1.0  0.63648  0.28260  0.75072  1.0000
  C   C55       1.0  0.06073  0.55159  0.74296  1.0000
  C   C56       1.0  0.45728  0.51063  0.71541  1.0000
  C   C57       1.0  0.48764  0.94054  0.78784  1.0000
  C   C58       1.0  0.94086  0.43818  0.76224  1.0000
  C   C59       1.0  0.56242  0.50243  0.75395  1.0000
  C   C60       1.0  0.49699  0.05891  0.75693  1.0000
  N   N1        1.0  0.02476  0.51281  0.25364  1.0000
  N   N2        1.0  0.48481  0.51232  0.25070  1.0000
  N   N3        1.0  0.48328  0.97214  0.26674  1.0000
  N   N4        1.0  0.97374  0.50157  0.24794  1.0000
  N   N5        1.0  0.49876  0.47295  0.23637  1.0000
  N   N6        1.0  0.52181  0.02351  0.27641  1.0000
  N   N7        1.0  0.31272  0.70022  0.24776  1.0000
  N   N8        1.0  0.29957  0.61345  0.24640  1.0000
  N   N9        1.0  0.38403  0.68597  0.26089  1.0000
  N   N10       1.0  0.68724  0.30205  0.26004  1.0000
  N   N11       1.0  0.69624  0.38706  0.24611  1.0000
  N   N12       1.0  0.61229  0.30965  0.24458  1.0000
  N   N13       1.0  0.02680  0.50053  0.75402  1.0000
  N   N14       1.0  0.50352  0.52678  0.73859  1.0000
  N   N15       1.0  0.47078  0.97305  0.77767  1.0000
  N   N16       1.0  0.97555  0.48919  0.74966  1.0000
  N   N17       1.0  0.51745  0.48744  0.72516  1.0000
  N   N18       1.0  0.51009  0.02474  0.78303  1.0000
  N   N19       1.0  0.31216  0.69804  0.75038  1.0000
  N   N20       1.0  0.30507  0.61372  0.74806  1.0000
  N   N21       1.0  0.38739  0.68986  0.76137  1.0000
  N   N22       1.0  0.68705  0.30006  0.75948  1.0000
  N   N23       1.0  0.70133  0.38728  0.75040  1.0000
  N   N24       1.0  0.61595  0.31385  0.74264  1.0000
  C  Sn1       1.0  0.52838  0.16591  0.68500  1.0000
  C   C61       1.0  0.53976  0.12597  0.69880  1.0000
  C  Sn2       1.0  0.58035  0.13453  0.75845  1.0000
  C  Sn3       1.0  0.61016  0.18403  0.80541  1.0000
  C   C62       1.0  0.59877  0.22393  0.79163  1.0000
  C  Sn4       1.0  0.55819  0.21541  0.73196  1.0000
  O  Te1       1.0  0.48762  0.15649  0.62506  1.0000
  O  Te2       1.0  0.59101  0.09401  0.77106  1.0000
  O  Te3       1.0  0.65094  0.19343  0.86538  1.0000
  O  Te4       1.0  0.54752  0.25590  0.71937  1.0000
  Mg  Mg1       1.0  0.65042  0.12591  0.85988  1.0000
  Mg  Mg2       1.0  0.48810  0.22403  0.63067  1.0000
  C  Sn5       1.0  0.53421  0.16177  0.18016  1.0000
  C   C63       1.0  0.54832  0.12395  0.19498  1.0000
  C  Sn6       1.0  0.58850  0.13483  0.25917  1.0000
  C  Sn7       1.0  0.61511  0.18454  0.30972  1.0000
  C   C64       1.0  0.60099  0.22232  0.29493  1.0000
  C  Sn8       1.0  0.56082  0.21148  0.23072  1.0000
  O  Te5       1.0  0.49391  0.15004  0.11565  1.0000
  O  Te6       1.0  0.60193  0.09639  0.27272  1.0000
  O  Te7       1.0  0.65543  0.19624  0.37426  1.0000
  O  Te8       1.0  0.54738  0.24988  0.21719  1.0000
  Mg  Mg3       1.0  0.65944  0.13103  0.36830  1.0000
  Mg  Mg4       1.0  0.48985  0.21527  0.12172  1.0000
  C  Sn9       1.0  0.64677  0.45920  0.81656  1.0000
  C   C65       1.0  0.62434  0.40655  0.79081  1.0000
  C  Sn10      1.0  0.58376  0.38491  0.72289  1.0000
  C  Sn11      1.0  0.56524  0.41656  0.67967  1.0000
  C   C66       1.0  0.58768  0.46918  0.70539  1.0000
  C  Sn12      1.0  0.62826  0.49085  0.77335  1.0000
  O  Te9       1.0  0.68730  0.48001  0.88461  1.0000
  O  Te10      1.0  0.56193  0.33217  0.69837  1.0000
  O  Te11      1.0  0.52468  0.39570  0.61158  1.0000
  O  Te12      1.0  0.65009  0.54356  0.79783  1.0000
  Mg  Mg5       1.0  0.50759  0.32182  0.60184  1.0000
  Mg  Mg6       1.0  0.70445  0.55396  0.89425  1.0000
  C  Sn13      1.0  0.18700  0.64998  0.77787  1.0000
  C   C67       1.0  0.21425  0.62415  0.79319  1.0000
  C  Sn14      1.0  0.19534  0.57189  0.76554  1.0000
  C  Sn15      1.0  0.14823  0.54488  0.72152  1.0000
  C   C68       1.0  0.12101  0.57071  0.70619  1.0000
  C  Sn16      1.0  0.13989  0.62298  0.73386  1.0000
  O  Te13      1.0  0.20663  0.70224  0.80609  1.0000
  O  Te14      1.0  0.22326  0.54689  0.78166  1.0000
  O  Te15      1.0  0.12861  0.49258  0.69331  1.0000
  O  Te16      1.0  0.11200  0.64798  0.71772  1.0000
  Mg  Mg7       1.0  0.18069  0.47548  0.73046  1.0000
  Mg  Mg8       1.0  0.15456  0.71939  0.76879  1.0000
  C  Sn17      1.0  0.44775  0.60095  0.81283  1.0000
  C   C69       1.0  0.42751  0.54859  0.78497  1.0000
  C  Sn18      1.0  0.38644  0.52520  0.71911  1.0000
  C  Sn19      1.0  0.36518  0.55478  0.68016  1.0000
  C   C70       1.0  0.38542  0.60711  0.70798  1.0000
  C  Sn20      1.0  0.42648  0.63053  0.77388  1.0000
  O  Te17      1.0  0.48881  0.62354  0.87876  1.0000
  O  Te18      1.0  0.36685  0.47278  0.69242  1.0000
  O  Te19      1.0  0.32408  0.53214  0.61419  1.0000
  O  Te20      1.0  0.44608  0.68292  0.80053  1.0000
  Mg  Mg9       1.0  0.31073  0.45952  0.60015  1.0000
  Mg  Mg10      1.0  0.50222  0.69623  0.89270  1.0000
  C  Sn21      1.0  0.84582  0.44823  0.79984  1.0000
  C   C71       1.0  0.87160  0.42045  0.81161  1.0000
  C  Sn22      1.0  0.85100  0.36835  0.78100  1.0000
  C  Sn23      1.0  0.80366  0.34352  0.73760  1.0000
  C   C72       1.0  0.77791  0.37129  0.72582  1.0000
  C  Sn24      1.0  0.79848  0.42339  0.75644  1.0000
  O  Te21      1.0  0.86713  0.50027  0.83096  1.0000
  O  Te22      1.0  0.87747  0.34138  0.79360  1.0000
  O  Te23      1.0  0.78236  0.29143  0.70648  1.0000
  O  Te24      1.0  0.77205  0.45036  0.74382  1.0000
  Mg  Mg11      1.0  0.83287  0.27114  0.73933  1.0000
  Mg  Mg12      1.0  0.81663  0.52061  0.79797  1.0000
