data_image0
_chemical_formula_structural       B12H24C60N12O12C2Sn2C2HTe2HMgC2Sn2C2HTe2HMgC2Sn2C2HTe2HMgC2Sn2C2HTe2HMgC2Sn2C2HTe2HMgC2Sn2C2HTe2HMgC2Sn2C2HTe2HMgC2Sn2C2HTe2HMgC2Sn2C2HTe2HMgC2Sn2C2HTe2HMgC2Sn2C2HTe2HMgC2Sn2C2HTe2HMg
_chemical_formula_sum              "B12 H48 C108 N12 O12 Sn24 Te24 Mg12"
_cell_length_a       36.467
_cell_length_b       36.6378
_cell_length_c       7.99464
_cell_angle_alpha    91.3127
_cell_angle_beta     118.243
_cell_angle_gamma    120.21

_symmetry_space_group_name_H-M    'P1'
_space_group_IT_number       1

loop_
  _space_group_symop_operation_xyz
  'x, y, z'

loop_
  _atom_site_type_symbol
  _atom_site_label
  _atom_site_symmetry_multiplicity
  _atom_site_fract_x
  _atom_site_fract_y
  _atom_site_fract_z
  _atom_site_occupancy
  B   B1        1.0  0.45141  0.55183  0.25472  1.0000
  B   B2        1.0  0.45409  0.89992  0.28218  1.0000
  B   B3        1.0  0.10159  0.54483  0.22001  1.0000
  B   B4        1.0  0.55249  0.44857  0.23562  1.0000
  B   B5        1.0  0.55486  0.10316  0.24576  1.0000
  B   B6        1.0  0.90169  0.45358  0.26846  1.0000
  B   B7        1.0  0.44540  0.55100  0.75030  1.0000
  B   B8        1.0  0.45635  0.89926  0.77838  1.0000
  B   B9        1.0  0.09646  0.55651  0.72112  1.0000
  B   B10       1.0  0.54333  0.44387  0.73857  1.0000
  B   B11       1.0  0.55064  0.10331  0.75892  1.0000
  B   B12       1.0  0.89685  0.44618  0.77113  1.0000
  H   H1        1.0  0.43227  0.42922  0.24999  1.0000
  H   H2        1.0  0.57166  0.57120  0.24126  1.0000
  H   H3        1.0  0.57289  0.99904  0.25521  1.0000
  H   H4        1.0  0.01319  0.57494  0.28803  1.0000
  H   H5        1.0  0.43676  0.00450  0.27823  1.0000
  H   H6        1.0  0.99075  0.42386  0.20597  1.0000
  H   H7        1.0  0.59025  0.29424  0.25135  1.0000
  H   H8        1.0  0.70694  0.29488  0.24142  1.0000
  H   H9        1.0  0.70324  0.40948  0.22071  1.0000
  H   H10       1.0  0.42018  0.70972  0.28270  1.0000
  H   H11       1.0  0.29820  0.70587  0.25727  1.0000
  H   H12       1.0  0.29459  0.58751  0.21811  1.0000
  H   H13       1.0  0.42061  0.42724  0.73340  1.0000
  H   H14       1.0  0.56869  0.56789  0.75921  1.0000
  H   H15       1.0  0.57583  0.00503  0.76585  1.0000
  H   H16       1.0  0.99276  0.56941  0.75908  1.0000
  H   H17       1.0  0.43120  0.99753  0.77039  1.0000
  H   H18       1.0  0.00029  0.43305  0.73071  1.0000
  H   H19       1.0  0.58205  0.29161  0.73545  1.0000
  H   H20       1.0  0.70168  0.29384  0.74757  1.0000
  H   H21       1.0  0.69777  0.40836  0.72164  1.0000
  H   H22       1.0  0.40779  0.70374  0.73590  1.0000
  H   H23       1.0  0.29865  0.71017  0.78034  1.0000
  H   H24       1.0  0.28779  0.58800  0.73210  1.0000
  C   C1        1.0  0.49983  0.46139  0.24276  1.0000
  C   C2        1.0  0.46330  0.49888  0.25155  1.0000
  C   C3        1.0  0.54313  0.03859  0.25629  1.0000
  C   C4        1.0  0.50666  0.96496  0.27118  1.0000
  C   C5        1.0  0.96850  0.50447  0.26932  1.0000
  C   C6        1.0  0.03960  0.53671  0.24211  1.0000
  C   C7        1.0  0.50429  0.53909  0.24961  1.0000
  C   C8        1.0  0.54077  0.50161  0.24060  1.0000
  C   C9        1.0  0.46663  0.96501  0.27768  1.0000
  C   C10       1.0  0.50255  0.03839  0.25902  1.0000
  C   C11       1.0  0.03580  0.49439  0.22635  1.0000
  C   C12       1.0  0.96388  0.46186  0.24804  1.0000
  C   C13       1.0  0.46200  0.45883  0.24843  1.0000
  C   C14       1.0  0.54405  0.99967  0.26105  1.0000
  C   C15       1.0  0.00899  0.54331  0.26997  1.0000
  C   C16       1.0  0.54208  0.54166  0.24388  1.0000
  C   C17       1.0  0.46562  0.00393  0.27233  1.0000
  C   C18       1.0  0.99522  0.45559  0.22509  1.0000
  C   C19       1.0  0.64483  0.28823  0.24062  1.0000
  C   C20       1.0  0.71144  0.35549  0.23614  1.0000
  C   C21       1.0  0.64355  0.35467  0.23470  1.0000
  C   C22       1.0  0.68906  0.31136  0.23856  1.0000
  C   C23       1.0  0.68742  0.37606  0.23040  1.0000
  C   C24       1.0  0.62298  0.31073  0.24013  1.0000
  C   C25       1.0  0.36153  0.71336  0.26631  1.0000
  C   C26       1.0  0.29126  0.64392  0.24340  1.0000
  C   C27       1.0  0.36028  0.64570  0.25061  1.0000
  C   C28       1.0  0.31556  0.68913  0.25593  1.0000
  C   C29       1.0  0.31389  0.62285  0.23642  1.0000
  C   C30       1.0  0.38400  0.69128  0.26927  1.0000
  C   C31       1.0  0.49110  0.45734  0.73848  1.0000
  C   C32       1.0  0.45597  0.49640  0.74513  1.0000
  C   C33       1.0  0.54125  0.03879  0.76499  1.0000
  C   C34       1.0  0.50709  0.96468  0.77191  1.0000
  C   C35       1.0  0.96127  0.50172  0.76658  1.0000
  C   C36       1.0  0.03239  0.54142  0.73991  1.0000
  C   C37       1.0  0.49791  0.53766  0.75208  1.0000
  C   C38       1.0  0.53330  0.49873  0.74717  1.0000
  C   C39       1.0  0.46568  0.96372  0.77045  1.0000
  C   C40       1.0  0.50003  0.03786  0.76517  1.0000
  C   C41       1.0  0.03275  0.50117  0.72975  1.0000
  C   C42       1.0  0.96094  0.46118  0.75217  1.0000
  C   C43       1.0  0.45141  0.45716  0.73823  1.0000
  C   C44       1.0  0.54579  0.00415  0.76756  1.0000
  C   C45       1.0  0.99406  0.54045  0.75508  1.0000
  C   C46       1.0  0.53778  0.53790  0.75367  1.0000
  C   C47       1.0  0.46117  0.99837  0.76833  1.0000
  C   C48       1.0  0.99928  0.46214  0.73681  1.0000
  C   C49       1.0  0.63807  0.28640  0.73487  1.0000
  C   C50       1.0  0.70550  0.35389  0.73527  1.0000
  C   C51       1.0  0.63726  0.35305  0.73095  1.0000
  C   C52       1.0  0.68299  0.30987  0.73834  1.0000
  C   C53       1.0  0.68168  0.37475  0.72971  1.0000
  C   C54       1.0  0.61577  0.30866  0.73097  1.0000
  C   C55       1.0  0.35630  0.71272  0.75849  1.0000
  C   C56       1.0  0.28635  0.64590  0.74906  1.0000
  C   C57       1.0  0.35172  0.64333  0.74161  1.0000
  C   C58       1.0  0.31252  0.69116  0.76344  1.0000
  C   C59       1.0  0.30704  0.62282  0.74060  1.0000
  C   C60       1.0  0.37505  0.68807  0.74684  1.0000
  N   N1        1.0  0.43154  0.50556  0.25579  1.0000
  N   N2        1.0  0.57484  0.07665  0.24941  1.0000
  N   N3        1.0  0.93248  0.50090  0.28428  1.0000
  N   N4        1.0  0.57234  0.49489  0.23499  1.0000
  N   N5        1.0  0.43523  0.92709  0.28639  1.0000
  N   N6        1.0  0.07209  0.49814  0.21324  1.0000
  N   N7        1.0  0.49601  0.42427  0.73243  1.0000
  N   N8        1.0  0.50265  0.92693  0.77772  1.0000
  N   N9        1.0  0.06928  0.57470  0.73212  1.0000
  N   N10       1.0  0.49266  0.57055  0.75590  1.0000
  N   N11       1.0  0.50473  0.07576  0.76233  1.0000
  N   N12       1.0  0.92321  0.42763  0.75516  1.0000
  O   O1        1.0  0.50759  0.42878  0.23938  1.0000
  O   O2        1.0  0.49861  0.92454  0.27503  1.0000
  O   O3        1.0  0.07970  0.56738  0.23383  1.0000
  O   O4        1.0  0.49654  0.57177  0.25228  1.0000
  O   O5        1.0  0.50999  0.07840  0.25030  1.0000
  O   O6        1.0  0.92269  0.43069  0.24909  1.0000
  O   O7        1.0  0.42414  0.50537  0.74689  1.0000
  O   O8        1.0  0.57232  0.07951  0.76076  1.0000
  O   O9        1.0  0.92201  0.49227  0.78174  1.0000
  O   O10       1.0  0.56518  0.48971  0.74603  1.0000
  O   O11       1.0  0.43453  0.92307  0.77435  1.0000
  O   O12       1.0  0.07254  0.51102  0.71803  1.0000
  C   C61       1.0  0.55314  0.36831  0.23504  1.0000
  C   C62       1.0  0.57110  0.41299  0.25230  1.0000
  C  Sn1       1.0  0.61516  0.44154  0.25488  1.0000
  C  Sn2       1.0  0.64163  0.42496  0.23982  1.0000
  C   C63       1.0  0.62333  0.38019  0.22246  1.0000
  C   C64       1.0  0.57922  0.35192  0.22009  1.0000
  H   H25       1.0  0.51900  0.34643  0.23309  1.0000
  O  Te1       1.0  0.63259  0.48610  0.27230  1.0000
  O  Te2       1.0  0.68575  0.45276  0.24194  1.0000
  H   H26       1.0  0.56531  0.31732  0.20659  1.0000
  Mg  Mg1       1.0  0.69447  0.51092  0.26837  1.0000
  C   C65       1.0  0.36010  0.56669  0.23967  1.0000
  C   C66       1.0  0.37790  0.61127  0.25495  1.0000
  C  Sn3       1.0  0.42157  0.63954  0.25474  1.0000
  C  Sn4       1.0  0.44783  0.62278  0.23885  1.0000
  C   C67       1.0  0.42969  0.57812  0.22349  1.0000
  C   C68       1.0  0.38596  0.55012  0.22391  1.0000
  H   H27       1.0  0.32625  0.54501  0.23988  1.0000
  O  Te3       1.0  0.43884  0.68400  0.27020  1.0000
  O  Te4       1.0  0.49156  0.65031  0.23820  1.0000
  H   H28       1.0  0.37218  0.51560  0.21195  1.0000
  Mg  Mg2       1.0  0.50019  0.70843  0.26274  1.0000
  C   C69       1.0  0.56417  0.20599  0.22188  1.0000
  C   C70       1.0  0.61162  0.23683  0.25217  1.0000
  C  Sn5       1.0  0.64334  0.22393  0.27450  1.0000
  C  Sn6       1.0  0.62715  0.17930  0.26623  1.0000
  C   C71       1.0  0.57959  0.14869  0.23572  1.0000
  C   C72       1.0  0.54816  0.16196  0.21362  1.0000
  H   H29       1.0  0.53984  0.21625  0.20466  1.0000
  O  Te5       1.0  0.69064  0.25517  0.30474  1.0000
  O  Te6       1.0  0.65809  0.16551  0.28802  1.0000
  H   H30       1.0  0.51141  0.13807  0.19004  1.0000
  Mg  Mg3       1.0  0.71923  0.22035  0.32626  1.0000
  C   C73       1.0  0.45039  0.81746  0.25959  1.0000
  C   C74       1.0  0.43542  0.84560  0.26577  1.0000
  C  Sn7       1.0  0.39420  0.83117  0.28261  1.0000
  C  Sn8       1.0  0.36756  0.78775  0.29348  1.0000
  C   C75       1.0  0.38286  0.75986  0.28732  1.0000
  C   C76       1.0  0.42414  0.77464  0.27039  1.0000
  H   H31       1.0  0.48235  0.82889  0.24660  1.0000
  O  Te7       1.0  0.37974  0.85971  0.28850  1.0000
  O  Te8       1.0  0.32624  0.77249  0.31044  1.0000
  H   H32       1.0  0.43575  0.75285  0.26574  1.0000
  Mg  Mg4       1.0  0.32099  0.82370  0.31252  1.0000
  C   C77       1.0  0.81437  0.37057  0.22206  1.0000
  C   C78       1.0  0.84612  0.41604  0.25186  1.0000
  C  Sn9       1.0  0.83534  0.44567  0.28985  1.0000
  C  Sn10      1.0  0.79197  0.42937  0.29813  1.0000
  C   C79       1.0  0.76047  0.38382  0.26825  1.0000
  C   C80       1.0  0.77160  0.35446  0.23027  1.0000
  H   H33       1.0  0.82299  0.34785  0.19279  1.0000
  O  Te9       1.0  0.86745  0.49101  0.31921  1.0000
  O  Te10      1.0  0.78033  0.45826  0.33591  1.0000
  H   H34       1.0  0.74703  0.31926  0.20733  1.0000
  Mg  Mg5       1.0  0.83561  0.51719  0.36601  1.0000
  C   C81       1.0  0.18560  0.55063  0.22753  1.0000
  C   C82       1.0  0.15648  0.56490  0.22662  1.0000
  C  Sn11      1.0  0.16998  0.60769  0.22060  1.0000
  C  Sn12      1.0  0.21345  0.63665  0.21534  1.0000
  C   C83       1.0  0.24232  0.62205  0.21615  1.0000
  C   C84       1.0  0.22847  0.57916  0.22226  1.0000
  H   H35       1.0  0.17488  0.51744  0.23215  1.0000
  O  Te11      1.0  0.14048  0.62142  0.21985  1.0000
  O  Te12      1.0  0.22779  0.67959  0.20919  1.0000
  H   H36       1.0  0.25101  0.56811  0.22283  1.0000
  Mg  Mg6       1.0  0.17545  0.68300  0.21062  1.0000
  C   C85       1.0  0.62698  0.44466  0.76231  1.0000
  C   C86       1.0  0.57962  0.42720  0.73374  1.0000
  C  Sn13      1.0  0.54886  0.38246  0.71582  1.0000
  C  Sn14      1.0  0.56596  0.35478  0.72681  1.0000
  C   C87       1.0  0.61343  0.37258  0.75556  1.0000
  C   C88       1.0  0.64388  0.41739  0.77325  1.0000
  H   H37       1.0  0.65056  0.47934  0.77610  1.0000
  O  Te13      1.0  0.50164  0.36554  0.68726  1.0000
  O  Te14      1.0  0.53600  0.30996  0.70944  1.0000
  H   H38       1.0  0.68057  0.43091  0.79549  1.0000
  Mg  Mg7       1.0  0.47455  0.30234  0.67196  1.0000
  C   C89       1.0  0.36338  0.55195  0.73767  1.0000
  C   C90       1.0  0.40571  0.56618  0.72898  1.0000
  C  Sn15      1.0  0.43495  0.60969  0.73087  1.0000
  C  Sn16      1.0  0.42147  0.63945  0.74172  1.0000
  C   C91       1.0  0.37907  0.62491  0.75050  1.0000
  C   C92       1.0  0.35007  0.58129  0.74845  1.0000
  H   H39       1.0  0.34096  0.51821  0.73620  1.0000
  O  Te15      1.0  0.47711  0.62335  0.72202  1.0000
  O  Te16      1.0  0.45003  0.68313  0.74391  1.0000
  H   H40       1.0  0.31732  0.57029  0.75532  1.0000
  Mg  Mg8       1.0  0.50412  0.68612  0.72909  1.0000
  C   C93       1.0  0.63962  0.20830  0.74689  1.0000
  C   C94       1.0  0.62091  0.23417  0.73066  1.0000
  C  Sn17      1.0  0.57801  0.21852  0.73695  1.0000
  C  Sn18      1.0  0.55347  0.17618  0.75999  1.0000
  C   C95       1.0  0.57250  0.15057  0.77623  1.0000
  C   C96       1.0  0.61545  0.16654  0.76969  1.0000
  H   H41       1.0  0.67286  0.22066  0.74193  1.0000
  O  Te17      1.0  0.55982  0.24479  0.72045  1.0000
  O  Te18      1.0  0.51054  0.15975  0.76682  1.0000
  H   H42       1.0  0.62994  0.14652  0.78238  1.0000
  Mg  Mg9       1.0  0.50012  0.20790  0.73804  1.0000
  C   C97       1.0  0.45320  0.81819  0.79275  1.0000
  C   C98       1.0  0.43535  0.84497  0.76647  1.0000
  C  Sn19      1.0  0.38924  0.82915  0.74672  1.0000
  C  Sn20      1.0  0.36056  0.78570  0.75352  1.0000
  C   C99       1.0  0.37876  0.75919  0.78002  1.0000
  C   C100      1.0  0.42494  0.77535  0.79956  1.0000
  H   H43       1.0  0.48894  0.83070  0.80798  1.0000
  O  Te19      1.0  0.37196  0.85634  0.72048  1.0000
  O  Te20      1.0  0.31436  0.76907  0.73425  1.0000
  H   H44       1.0  0.43877  0.75462  0.82004  1.0000
  Mg  Mg10      1.0  0.30675  0.81874  0.70122  1.0000
  C   C101      1.0  0.79524  0.43504  0.79697  1.0000
  C   C102      1.0  0.75964  0.38912  0.74637  1.0000
  C  Sn21      1.0  0.76951  0.35846  0.71214  1.0000
  C  Sn22      1.0  0.81591  0.37416  0.72904  1.0000
  C   C103      1.0  0.85129  0.42017  0.77988  1.0000
  C   C104      1.0  0.84103  0.45055  0.81375  1.0000
  H   H45       1.0  0.78731  0.45855  0.82329  1.0000
  O  Te21      1.0  0.73352  0.31270  0.66164  1.0000
  O  Te22      1.0  0.82675  0.34425  0.69571  1.0000
  H   H46       1.0  0.86861  0.48610  0.85306  1.0000
  Mg  Mg11      1.0  0.76571  0.28508  0.63055  1.0000
  C   C105      1.0  0.20327  0.56903  0.74294  1.0000
  C   C106      1.0  0.23088  0.61104  0.72869  1.0000
  C  Sn23      1.0  0.21563  0.63959  0.71651  1.0000
  C  Sn24      1.0  0.17190  0.62573  0.71872  1.0000
  C   C107      1.0  0.14455  0.58365  0.73316  1.0000
  C   C108      1.0  0.16015  0.55535  0.74521  1.0000
  H   H47       1.0  0.21534  0.54714  0.75238  1.0000
  O  Te23      1.0  0.24364  0.68144  0.70227  1.0000
  O  Te24      1.0  0.15582  0.65361  0.70681  1.0000
  H   H48       1.0  0.13877  0.52284  0.75638  1.0000
  Mg  Mg12      1.0  0.20657  0.70750  0.68950  1.0000
