data_image0
_chemical_formula_structural       B12H48C96N12O12C2Sn2C2HTe2HMgC2Sn2C2HTe2HMgC2Sn2C2HTe2HMgC2Sn2C2HTe2HMgC2Sn2C2HTe2HMgC2Sn2C2HTe2HMg
_chemical_formula_sum              "B12 H60 C120 N12 O12 Sn12 Te12 Mg6"
_cell_length_a       36.467
_cell_length_b       36.6378
_cell_length_c       7.99464
_cell_angle_alpha    91.3127
_cell_angle_beta     118.243
_cell_angle_gamma    120.21

_symmetry_space_group_name_H-M    'P1'
_space_group_IT_number       1

loop_
  _space_group_symop_operation_xyz
  'x, y, z'

loop_
  _atom_site_type_symbol
  _atom_site_label
  _atom_site_symmetry_multiplicity
  _atom_site_fract_x
  _atom_site_fract_y
  _atom_site_fract_z
  _atom_site_occupancy
  B   B1        1.0  0.45141  0.55183  0.25472  1.0000
  B   B2        1.0  0.45409  0.89992  0.28218  1.0000
  B   B3        1.0  0.10159  0.54483  0.22001  1.0000
  B   B4        1.0  0.55249  0.44857  0.23562  1.0000
  B   B5        1.0  0.55486  0.10316  0.24576  1.0000
  B   B6        1.0  0.90169  0.45358  0.26846  1.0000
  B   B7        1.0  0.44540  0.55100  0.75030  1.0000
  B   B8        1.0  0.45635  0.89926  0.77838  1.0000
  B   B9        1.0  0.09646  0.55651  0.72112  1.0000
  B   B10       1.0  0.54333  0.44387  0.73857  1.0000
  B   B11       1.0  0.55064  0.10331  0.75892  1.0000
  B   B12       1.0  0.89685  0.44618  0.77113  1.0000
  H   H1        1.0  0.43227  0.42922  0.24999  1.0000
  H   H2        1.0  0.57166  0.57120  0.24126  1.0000
  H   H3        1.0  0.57289  0.99904  0.25521  1.0000
  H   H4        1.0  0.01319  0.57494  0.28803  1.0000
  H   H5        1.0  0.43676  0.00450  0.27823  1.0000
  H   H6        1.0  0.99075  0.42386  0.20597  1.0000
  H   H7        1.0  0.52001  0.36183  0.24297  1.0000
  H   H8        1.0  0.55808  0.32290  0.24096  1.0000
  H   H9        1.0  0.36602  0.52129  0.24855  1.0000
  H   H10       1.0  0.32760  0.55990  0.25115  1.0000
  H   H11       1.0  0.48392  0.63846  0.24359  1.0000
  H   H12       1.0  0.44437  0.67678  0.23483  1.0000
  H   H13       1.0  0.63827  0.47942  0.24288  1.0000
  H   H14       1.0  0.67756  0.44130  0.24480  1.0000
  H   H15       1.0  0.59025  0.29424  0.25135  1.0000
  H   H16       1.0  0.70694  0.29488  0.24142  1.0000
  H   H17       1.0  0.70324  0.40948  0.22071  1.0000
  H   H18       1.0  0.42018  0.70972  0.28270  1.0000
  H   H19       1.0  0.29820  0.70587  0.25727  1.0000
  H   H20       1.0  0.29459  0.58751  0.21811  1.0000
  H   H21       1.0  0.42061  0.42724  0.73340  1.0000
  H   H22       1.0  0.56869  0.56789  0.75921  1.0000
  H   H23       1.0  0.57583  0.00503  0.76585  1.0000
  H   H24       1.0  0.99276  0.56941  0.75908  1.0000
  H   H25       1.0  0.43120  0.99753  0.77039  1.0000
  H   H26       1.0  0.00029  0.43305  0.73071  1.0000
  H   H27       1.0  0.50994  0.35750  0.71767  1.0000
  H   H28       1.0  0.54823  0.31881  0.71270  1.0000
  H   H29       1.0  0.35505  0.51734  0.73295  1.0000
  H   H30       1.0  0.31590  0.55571  0.72553  1.0000
  H   H31       1.0  0.85090  0.48231  0.82799  1.0000
  H   H32       1.0  0.77099  0.44382  0.81158  1.0000
  H   H33       1.0  0.15163  0.64125  0.70745  1.0000
  H   H34       1.0  0.23089  0.67862  0.71889  1.0000
  H   H35       1.0  0.47639  0.63539  0.74864  1.0000
  H   H36       1.0  0.43793  0.67449  0.74243  1.0000
  H   H37       1.0  0.63450  0.47899  0.76575  1.0000
  H   H38       1.0  0.67385  0.44127  0.76563  1.0000
  H   H39       1.0  0.14959  0.52329  0.72947  1.0000
  H   H40       1.0  0.22957  0.56058  0.74821  1.0000
  H   H41       1.0  0.83268  0.35730  0.71105  1.0000
  H   H42       1.0  0.75114  0.31796  0.68302  1.0000
  H   H43       1.0  0.58205  0.29161  0.73545  1.0000
  H   H44       1.0  0.70168  0.29384  0.74757  1.0000
  H   H45       1.0  0.69777  0.40836  0.72164  1.0000
  H   H46       1.0  0.40779  0.70374  0.73590  1.0000
  H   H47       1.0  0.29865  0.71017  0.78034  1.0000
  H   H48       1.0  0.28779  0.58800  0.73210  1.0000
  C   C1        1.0  0.49983  0.46139  0.24276  1.0000
  C   C2        1.0  0.46330  0.49888  0.25155  1.0000
  C   C3        1.0  0.54313  0.03859  0.25629  1.0000
  C   C4        1.0  0.50666  0.96496  0.27118  1.0000
  C   C5        1.0  0.96850  0.50447  0.26932  1.0000
  C   C6        1.0  0.03960  0.53671  0.24211  1.0000
  C   C7        1.0  0.50429  0.53909  0.24961  1.0000
  C   C8        1.0  0.54077  0.50161  0.24060  1.0000
  C   C9        1.0  0.46663  0.96501  0.27768  1.0000
  C   C10       1.0  0.50255  0.03839  0.25902  1.0000
  C   C11       1.0  0.03580  0.49439  0.22635  1.0000
  C   C12       1.0  0.96388  0.46186  0.24804  1.0000
  C   C13       1.0  0.46200  0.45883  0.24843  1.0000
  C   C14       1.0  0.54405  0.99967  0.26105  1.0000
  C   C15       1.0  0.00899  0.54331  0.26997  1.0000
  C   C16       1.0  0.54208  0.54166  0.24388  1.0000
  C   C17       1.0  0.46562  0.00393  0.27233  1.0000
  C   C18       1.0  0.99522  0.45559  0.22509  1.0000
  C   C19       1.0  0.55425  0.37906  0.24085  1.0000
  C   C20       1.0  0.57607  0.35709  0.23986  1.0000
  C   C21       1.0  0.38309  0.55548  0.24588  1.0000
  C   C22       1.0  0.36120  0.57743  0.24516  1.0000
  C   C23       1.0  0.44961  0.62130  0.24536  1.0000
  C   C24       1.0  0.42726  0.64304  0.24186  1.0000
  C   C25       1.0  0.62096  0.44507  0.24318  1.0000
  C   C26       1.0  0.64299  0.42322  0.24393  1.0000
  C   C27       1.0  0.64483  0.28823  0.24062  1.0000
  C   C28       1.0  0.71144  0.35549  0.23614  1.0000
  C   C29       1.0  0.64355  0.35467  0.23470  1.0000
  C   C30       1.0  0.57577  0.42346  0.23959  1.0000
  C   C31       1.0  0.62076  0.37833  0.23948  1.0000
  C   C32       1.0  0.68906  0.31136  0.23856  1.0000
  C   C33       1.0  0.68742  0.37606  0.23040  1.0000
  C   C34       1.0  0.62298  0.31073  0.24013  1.0000
  C   C35       1.0  0.36153  0.71336  0.26631  1.0000
  C   C36       1.0  0.29126  0.64392  0.24340  1.0000
  C   C37       1.0  0.36028  0.64570  0.25061  1.0000
  C   C38       1.0  0.42820  0.57705  0.24897  1.0000
  C   C39       1.0  0.38288  0.62196  0.24450  1.0000
  C   C40       1.0  0.31556  0.68913  0.25593  1.0000
  C   C41       1.0  0.31389  0.62285  0.23642  1.0000
  C   C42       1.0  0.38400  0.69128  0.26927  1.0000
  C   C43       1.0  0.49110  0.45734  0.73848  1.0000
  C   C44       1.0  0.45597  0.49640  0.74513  1.0000
  C   C45       1.0  0.54125  0.03879  0.76499  1.0000
  C   C46       1.0  0.50709  0.96468  0.77191  1.0000
  C   C47       1.0  0.96127  0.50172  0.76658  1.0000
  C   C48       1.0  0.03239  0.54142  0.73991  1.0000
  C   C49       1.0  0.49791  0.53766  0.75208  1.0000
  C   C50       1.0  0.53330  0.49873  0.74717  1.0000
  C   C51       1.0  0.46568  0.96372  0.77045  1.0000
  C   C52       1.0  0.50003  0.03786  0.76517  1.0000
  C   C53       1.0  0.03275  0.50117  0.72975  1.0000
  C   C54       1.0  0.96094  0.46118  0.75217  1.0000
  C   C55       1.0  0.45141  0.45716  0.73823  1.0000
  C   C56       1.0  0.54579  0.00415  0.76756  1.0000
  C   C57       1.0  0.99406  0.54045  0.75508  1.0000
  C   C58       1.0  0.53778  0.53790  0.75367  1.0000
  C   C59       1.0  0.46117  0.99837  0.76833  1.0000
  C   C60       1.0  0.99928  0.46214  0.73681  1.0000
  C   C61       1.0  0.54564  0.37560  0.72594  1.0000
  C   C62       1.0  0.56772  0.35391  0.72406  1.0000
  C   C63       1.0  0.37317  0.55180  0.73401  1.0000
  C   C64       1.0  0.35092  0.57375  0.72938  1.0000
  C   C65       1.0  0.82898  0.44618  0.79603  1.0000
  C   C66       1.0  0.78331  0.42416  0.78425  1.0000
  C   C67       1.0  0.16896  0.62372  0.71673  1.0000
  C   C68       1.0  0.21416  0.64486  0.72532  1.0000
  C   C69       1.0  0.44141  0.61820  0.74557  1.0000
  C   C70       1.0  0.41926  0.64017  0.74166  1.0000
  C   C71       1.0  0.61560  0.44384  0.75462  1.0000
  C   C72       1.0  0.63783  0.42223  0.75420  1.0000
  C   C73       1.0  0.16772  0.55756  0.72870  1.0000
  C   C74       1.0  0.21310  0.57884  0.73902  1.0000
  C   C75       1.0  0.81890  0.37617  0.73224  1.0000
  C   C76       1.0  0.77287  0.35412  0.71767  1.0000
  C   C77       1.0  0.63807  0.28640  0.73487  1.0000
  C   C78       1.0  0.70550  0.35389  0.73527  1.0000
  C   C79       1.0  0.63726  0.35305  0.73095  1.0000
  C   C80       1.0  0.84804  0.42279  0.77015  1.0000
  C   C81       1.0  0.56879  0.42104  0.73911  1.0000
  C   C82       1.0  0.75385  0.37747  0.74450  1.0000
  C   C83       1.0  0.61420  0.37643  0.73671  1.0000
  C   C84       1.0  0.68299  0.30987  0.73834  1.0000
  C   C85       1.0  0.68168  0.37475  0.72971  1.0000
  C   C86       1.0  0.61577  0.30866  0.73097  1.0000
  C   C87       1.0  0.35630  0.71272  0.75849  1.0000
  C   C88       1.0  0.28635  0.64590  0.74906  1.0000
  C   C89       1.0  0.35172  0.64333  0.74161  1.0000
  C   C90       1.0  0.14472  0.57955  0.71970  1.0000
  C   C91       1.0  0.41928  0.57356  0.74419  1.0000
  C   C92       1.0  0.23786  0.62324  0.73866  1.0000
  C   C93       1.0  0.37365  0.61882  0.73533  1.0000
  C   C94       1.0  0.31252  0.69116  0.76344  1.0000
  C   C95       1.0  0.30704  0.62282  0.74060  1.0000
  C   C96       1.0  0.37505  0.68807  0.74684  1.0000
  N   N1        1.0  0.43154  0.50556  0.25579  1.0000
  N   N2        1.0  0.57484  0.07665  0.24941  1.0000
  N   N3        1.0  0.93248  0.50090  0.28428  1.0000
  N   N4        1.0  0.57234  0.49489  0.23499  1.0000
  N   N5        1.0  0.43523  0.92709  0.28639  1.0000
  N   N6        1.0  0.07209  0.49814  0.21324  1.0000
  N   N7        1.0  0.49601  0.42427  0.73243  1.0000
  N   N8        1.0  0.50265  0.92693  0.77772  1.0000
  N   N9        1.0  0.06928  0.57470  0.73212  1.0000
  N   N10       1.0  0.49266  0.57055  0.75590  1.0000
  N   N11       1.0  0.50473  0.07576  0.76233  1.0000
  N   N12       1.0  0.92321  0.42763  0.75516  1.0000
  O   O1        1.0  0.50759  0.42878  0.23938  1.0000
  O   O2        1.0  0.49861  0.92454  0.27503  1.0000
  O   O3        1.0  0.07970  0.56738  0.23383  1.0000
  O   O4        1.0  0.49654  0.57177  0.25228  1.0000
  O   O5        1.0  0.50999  0.07840  0.25030  1.0000
  O   O6        1.0  0.92269  0.43069  0.24909  1.0000
  O   O7        1.0  0.42414  0.50537  0.74689  1.0000
  O   O8        1.0  0.57232  0.07951  0.76076  1.0000
  O   O9        1.0  0.92201  0.49227  0.78174  1.0000
  O   O10       1.0  0.56518  0.48971  0.74603  1.0000
  O   O11       1.0  0.43453  0.92307  0.77435  1.0000
  O   O12       1.0  0.07254  0.51102  0.71803  1.0000
  C   C97       1.0  0.43873  0.79329  0.77738  1.0000
  C   C98       1.0  0.39511  0.76595  0.77919  1.0000
  C  Sn1       1.0  0.36602  0.78108  0.76898  1.0000
  C  Sn2       1.0  0.38096  0.82440  0.75669  1.0000
  C   C99       1.0  0.42464  0.85148  0.75483  1.0000
  C   C100      1.0  0.45348  0.83601  0.76518  1.0000
  H   H49       1.0  0.46104  0.78131  0.78527  1.0000
  O  Te1       1.0  0.32255  0.75334  0.77103  1.0000
  O  Te2       1.0  0.35257  0.84036  0.74625  1.0000
  H   H50       1.0  0.48724  0.85718  0.76364  1.0000
  Mg  Mg1       1.0  0.29636  0.79010  0.75388  1.0000
  C   C101      1.0  0.21147  0.56432  0.24261  1.0000
  C   C102      1.0  0.23696  0.60668  0.22726  1.0000
  C  Sn3       1.0  0.21902  0.63312  0.21341  1.0000
  C  Sn4       1.0  0.17474  0.61675  0.21504  1.0000
  C   C103      1.0  0.14953  0.57433  0.23060  1.0000
  C   C104      1.0  0.16780  0.54816  0.24431  1.0000
  H   H51       1.0  0.22562  0.54407  0.25333  1.0000
  O  Te3       1.0  0.24494  0.67536  0.19809  1.0000
  O  Te4       1.0  0.15600  0.64248  0.20148  1.0000
  H   H52       1.0  0.14808  0.51537  0.25632  1.0000
  Mg  Mg2       1.0  0.20457  0.69788  0.18317  1.0000
  C   C105      1.0  0.78850  0.35761  0.20635  1.0000
  C   C106      1.0  0.76503  0.37397  0.24567  1.0000
  C  Sn5       1.0  0.78589  0.41977  0.29201  1.0000
  C  Sn6       1.0  0.83109  0.44966  0.29895  1.0000
  C   C107      1.0  0.85426  0.43296  0.25925  1.0000
  C   C108      1.0  0.83306  0.38707  0.21309  1.0000
  H   H53       1.0  0.77209  0.32210  0.17053  1.0000
  O  Te5       1.0  0.76196  0.43555  0.33097  1.0000
  O  Te6       1.0  0.85274  0.49560  0.34481  1.0000
  H   H54       1.0  0.85123  0.37441  0.18253  1.0000
  Mg  Mg3       1.0  0.80606  0.50097  0.38657  1.0000
  C   C109      1.0  0.55256  0.18362  0.76014  1.0000
  C   C110      1.0  0.56583  0.15480  0.74042  1.0000
  C  Sn7       1.0  0.60805  0.17008  0.72966  1.0000
  C  Sn8       1.0  0.63747  0.21506  0.73891  1.0000
  C   C111      1.0  0.62390  0.24364  0.75879  1.0000
  C   C112      1.0  0.58156  0.22800  0.76935  1.0000
  H   H55       1.0  0.51982  0.17152  0.76842  1.0000
  O  Te7       1.0  0.62077  0.14083  0.70990  1.0000
  O  Te8       1.0  0.67987  0.23121  0.72858  1.0000
  H   H56       1.0  0.57132  0.25033  0.78475  1.0000
  Mg  Mg4       1.0  0.68192  0.17851  0.70193  1.0000
  C   C113      1.0  0.36637  0.79488  0.29346  1.0000
  C   C114      1.0  0.37770  0.76505  0.26430  1.0000
  C  Sn9       1.0  0.41858  0.77932  0.24530  1.0000
  C  Sn10      1.0  0.44861  0.82431  0.25580  1.0000
  C   C115      1.0  0.43698  0.85390  0.28515  1.0000
  C   C116      1.0  0.39598  0.83926  0.30391  1.0000
  H   H57       1.0  0.33467  0.78356  0.30809  1.0000
  O  Te9       1.0  0.42936  0.74908  0.21616  1.0000
  O  Te10      1.0  0.48969  0.83946  0.23735  1.0000
  H   H58       1.0  0.38724  0.86237  0.32662  1.0000
  Mg  Mg5       1.0  0.48926  0.78562  0.19942  1.0000
  C   C117      1.0  0.55371  0.18302  0.23180  1.0000
  C   C118      1.0  0.57023  0.15572  0.23635  1.0000
  C  Sn11      1.0  0.61666  0.17294  0.25658  1.0000
  C  Sn12      1.0  0.64703  0.21835  0.27258  1.0000
  C   C119      1.0  0.63018  0.24540  0.26802  1.0000
  C   C120      1.0  0.58365  0.22782  0.24765  1.0000
  H   H59       1.0  0.51772  0.16943  0.21616  1.0000
  O  Te11      1.0  0.63259  0.14519  0.26078  1.0000
  O  Te12      1.0  0.69360  0.23643  0.29301  1.0000
  H   H60       1.0  0.57088  0.24898  0.24427  1.0000
  Mg  Mg6       1.0  0.69894  0.18526  0.29096  1.0000
