data_image0
_chemical_formula_structural       B12H24C60N12O12SnCSn2CSnTe4Mg2SnCSn2CSnTe4Mg2SnCSn2CSnTe4Mg2SnCSn2CSnTe4Mg2SnCSn2CSnTe4Mg2SnCSn2CSnTe4Mg2SnCSn2CSnTe4Mg2SnCSn2CSnTe4Mg2SnCSn2CSnTe4Mg2SnCSn2CSnTe4Mg2SnCSn2CSnTe4Mg2SnCSn2CSnTe4Mg2
_chemical_formula_sum              "B12 H24 C84 N12 O12 Sn48 Te48 Mg24"
_cell_length_a       36.467
_cell_length_b       36.6378
_cell_length_c       7.99464
_cell_angle_alpha    91.3127
_cell_angle_beta     118.243
_cell_angle_gamma    120.21

_symmetry_space_group_name_H-M    'P1'
_space_group_IT_number       1

loop_
  _space_group_symop_operation_xyz
  'x, y, z'

loop_
  _atom_site_type_symbol
  _atom_site_label
  _atom_site_symmetry_multiplicity
  _atom_site_fract_x
  _atom_site_fract_y
  _atom_site_fract_z
  _atom_site_occupancy
  B   B1        1.0  0.45141  0.55183  0.25472  1.0000
  B   B2        1.0  0.45409  0.89992  0.28218  1.0000
  B   B3        1.0  0.10159  0.54483  0.22001  1.0000
  B   B4        1.0  0.55249  0.44857  0.23562  1.0000
  B   B5        1.0  0.55486  0.10316  0.24576  1.0000
  B   B6        1.0  0.90169  0.45358  0.26846  1.0000
  B   B7        1.0  0.44540  0.55100  0.75030  1.0000
  B   B8        1.0  0.45635  0.89926  0.77838  1.0000
  B   B9        1.0  0.09646  0.55651  0.72112  1.0000
  B   B10       1.0  0.54333  0.44387  0.73857  1.0000
  B   B11       1.0  0.55064  0.10331  0.75892  1.0000
  B   B12       1.0  0.89685  0.44618  0.77113  1.0000
  H   H1        1.0  0.43227  0.42922  0.24999  1.0000
  H   H2        1.0  0.57166  0.57120  0.24126  1.0000
  H   H3        1.0  0.57289  0.99904  0.25521  1.0000
  H   H4        1.0  0.01319  0.57494  0.28803  1.0000
  H   H5        1.0  0.43676  0.00450  0.27823  1.0000
  H   H6        1.0  0.99075  0.42386  0.20597  1.0000
  H   H7        1.0  0.59025  0.29424  0.25135  1.0000
  H   H8        1.0  0.70694  0.29488  0.24142  1.0000
  H   H9        1.0  0.70324  0.40948  0.22071  1.0000
  H   H10       1.0  0.42018  0.70972  0.28270  1.0000
  H   H11       1.0  0.29820  0.70587  0.25727  1.0000
  H   H12       1.0  0.29459  0.58751  0.21811  1.0000
  H   H13       1.0  0.42061  0.42724  0.73340  1.0000
  H   H14       1.0  0.56869  0.56789  0.75921  1.0000
  H   H15       1.0  0.57583  0.00503  0.76585  1.0000
  H   H16       1.0  0.99276  0.56941  0.75908  1.0000
  H   H17       1.0  0.43120  0.99753  0.77039  1.0000
  H   H18       1.0  0.00029  0.43305  0.73071  1.0000
  H   H19       1.0  0.58205  0.29161  0.73545  1.0000
  H   H20       1.0  0.70168  0.29384  0.74757  1.0000
  H   H21       1.0  0.69777  0.40836  0.72164  1.0000
  H   H22       1.0  0.40779  0.70374  0.73590  1.0000
  H   H23       1.0  0.29865  0.71017  0.78034  1.0000
  H   H24       1.0  0.28779  0.58800  0.73210  1.0000
  C   C1        1.0  0.49983  0.46139  0.24276  1.0000
  C   C2        1.0  0.46330  0.49888  0.25155  1.0000
  C   C3        1.0  0.54313  0.03859  0.25629  1.0000
  C   C4        1.0  0.50666  0.96496  0.27118  1.0000
  C   C5        1.0  0.96850  0.50447  0.26932  1.0000
  C   C6        1.0  0.03960  0.53671  0.24211  1.0000
  C   C7        1.0  0.50429  0.53909  0.24961  1.0000
  C   C8        1.0  0.54077  0.50161  0.24060  1.0000
  C   C9        1.0  0.46663  0.96501  0.27768  1.0000
  C   C10       1.0  0.50255  0.03839  0.25902  1.0000
  C   C11       1.0  0.03580  0.49439  0.22635  1.0000
  C   C12       1.0  0.96388  0.46186  0.24804  1.0000
  C   C13       1.0  0.46200  0.45883  0.24843  1.0000
  C   C14       1.0  0.54405  0.99967  0.26105  1.0000
  C   C15       1.0  0.00899  0.54331  0.26997  1.0000
  C   C16       1.0  0.54208  0.54166  0.24388  1.0000
  C   C17       1.0  0.46562  0.00393  0.27233  1.0000
  C   C18       1.0  0.99522  0.45559  0.22509  1.0000
  C   C19       1.0  0.64483  0.28823  0.24062  1.0000
  C   C20       1.0  0.71144  0.35549  0.23614  1.0000
  C   C21       1.0  0.64355  0.35467  0.23470  1.0000
  C   C22       1.0  0.68906  0.31136  0.23856  1.0000
  C   C23       1.0  0.68742  0.37606  0.23040  1.0000
  C   C24       1.0  0.62298  0.31073  0.24013  1.0000
  C   C25       1.0  0.36153  0.71336  0.26631  1.0000
  C   C26       1.0  0.29126  0.64392  0.24340  1.0000
  C   C27       1.0  0.36028  0.64570  0.25061  1.0000
  C   C28       1.0  0.31556  0.68913  0.25593  1.0000
  C   C29       1.0  0.31389  0.62285  0.23642  1.0000
  C   C30       1.0  0.38400  0.69128  0.26927  1.0000
  C   C31       1.0  0.49110  0.45734  0.73848  1.0000
  C   C32       1.0  0.45597  0.49640  0.74513  1.0000
  C   C33       1.0  0.54125  0.03879  0.76499  1.0000
  C   C34       1.0  0.50709  0.96468  0.77191  1.0000
  C   C35       1.0  0.96127  0.50172  0.76658  1.0000
  C   C36       1.0  0.03239  0.54142  0.73991  1.0000
  C   C37       1.0  0.49791  0.53766  0.75208  1.0000
  C   C38       1.0  0.53330  0.49873  0.74717  1.0000
  C   C39       1.0  0.46568  0.96372  0.77045  1.0000
  C   C40       1.0  0.50003  0.03786  0.76517  1.0000
  C   C41       1.0  0.03275  0.50117  0.72975  1.0000
  C   C42       1.0  0.96094  0.46118  0.75217  1.0000
  C   C43       1.0  0.45141  0.45716  0.73823  1.0000
  C   C44       1.0  0.54579  0.00415  0.76756  1.0000
  C   C45       1.0  0.99406  0.54045  0.75508  1.0000
  C   C46       1.0  0.53778  0.53790  0.75367  1.0000
  C   C47       1.0  0.46117  0.99837  0.76833  1.0000
  C   C48       1.0  0.99928  0.46214  0.73681  1.0000
  C   C49       1.0  0.63807  0.28640  0.73487  1.0000
  C   C50       1.0  0.70550  0.35389  0.73527  1.0000
  C   C51       1.0  0.63726  0.35305  0.73095  1.0000
  C   C52       1.0  0.68299  0.30987  0.73834  1.0000
  C   C53       1.0  0.68168  0.37475  0.72971  1.0000
  C   C54       1.0  0.61577  0.30866  0.73097  1.0000
  C   C55       1.0  0.35630  0.71272  0.75849  1.0000
  C   C56       1.0  0.28635  0.64590  0.74906  1.0000
  C   C57       1.0  0.35172  0.64333  0.74161  1.0000
  C   C58       1.0  0.31252  0.69116  0.76344  1.0000
  C   C59       1.0  0.30704  0.62282  0.74060  1.0000
  C   C60       1.0  0.37505  0.68807  0.74684  1.0000
  N   N1        1.0  0.43154  0.50556  0.25579  1.0000
  N   N2        1.0  0.57484  0.07665  0.24941  1.0000
  N   N3        1.0  0.93248  0.50090  0.28428  1.0000
  N   N4        1.0  0.57234  0.49489  0.23499  1.0000
  N   N5        1.0  0.43523  0.92709  0.28639  1.0000
  N   N6        1.0  0.07209  0.49814  0.21324  1.0000
  N   N7        1.0  0.49601  0.42427  0.73243  1.0000
  N   N8        1.0  0.50265  0.92693  0.77772  1.0000
  N   N9        1.0  0.06928  0.57470  0.73212  1.0000
  N   N10       1.0  0.49266  0.57055  0.75590  1.0000
  N   N11       1.0  0.50473  0.07576  0.76233  1.0000
  N   N12       1.0  0.92321  0.42763  0.75516  1.0000
  O   O1        1.0  0.50759  0.42878  0.23938  1.0000
  O   O2        1.0  0.49861  0.92454  0.27503  1.0000
  O   O3        1.0  0.07970  0.56738  0.23383  1.0000
  O   O4        1.0  0.49654  0.57177  0.25228  1.0000
  O   O5        1.0  0.50999  0.07840  0.25030  1.0000
  O   O6        1.0  0.92269  0.43069  0.24909  1.0000
  O   O7        1.0  0.42414  0.50537  0.74689  1.0000
  O   O8        1.0  0.57232  0.07951  0.76076  1.0000
  O   O9        1.0  0.92201  0.49227  0.78174  1.0000
  O   O10       1.0  0.56518  0.48971  0.74603  1.0000
  O   O11       1.0  0.43453  0.92307  0.77435  1.0000
  O   O12       1.0  0.07254  0.51102  0.71803  1.0000
  C  Sn1       1.0  0.56495  0.37635  0.30178  1.0000
  C   C61       1.0  0.58076  0.41970  0.29802  1.0000
  C  Sn2       1.0  0.61569  0.44305  0.24582  1.0000
  C  Sn3       1.0  0.63519  0.42264  0.19621  1.0000
  C   C62       1.0  0.61937  0.37931  0.19994  1.0000
  C  Sn4       1.0  0.58445  0.35594  0.25217  1.0000
  O  Te1       1.0  0.52999  0.35363  0.35440  1.0000
  O  Te2       1.0  0.63094  0.48636  0.24319  1.0000
  O  Te3       1.0  0.67017  0.44540  0.14356  1.0000
  O  Te4       1.0  0.56919  0.31265  0.25478  1.0000
  Mg  Mg1       1.0  0.67931  0.50369  0.16162  1.0000
  Mg  Mg2       1.0  0.52081  0.29528  0.33622  1.0000
  C  Sn5       1.0  0.36689  0.55272  0.18531  1.0000
  C   C63       1.0  0.41077  0.56884  0.18572  1.0000
  C  Sn6       1.0  0.44548  0.61484  0.23435  1.0000
  C  Sn7       1.0  0.43617  0.64538  0.28374  1.0000
  C   C64       1.0  0.39232  0.62925  0.28335  1.0000
  C  Sn8       1.0  0.35757  0.58325  0.23469  1.0000
  O  Te5       1.0  0.33271  0.50660  0.13622  1.0000
  O  Te6       1.0  0.48907  0.63016  0.23367  1.0000
  O  Te7       1.0  0.47039  0.69153  0.33284  1.0000
  O  Te8       1.0  0.31401  0.56793  0.23539  1.0000
  Mg  Mg3       1.0  0.52429  0.69606  0.31109  1.0000
  Mg  Mg4       1.0  0.27878  0.50205  0.15810  1.0000
  C  Sn9       1.0  0.54820  0.17729  0.16735  1.0000
  C   C65       1.0  0.56815  0.15224  0.19309  1.0000
  C  Sn10      1.0  0.61977  0.17340  0.26694  1.0000
  C  Sn11      1.0  0.65213  0.22058  0.31622  1.0000
  C   C66       1.0  0.63217  0.24560  0.29051  1.0000
  C  Sn12      1.0  0.58055  0.22447  0.21663  1.0000
  O  Te9       1.0  0.49648  0.15544  0.09331  1.0000
  O  Te10      1.0  0.63884  0.14764  0.29133  1.0000
  O  Te11      1.0  0.70388  0.24242  0.39031  1.0000
  O  Te12      1.0  0.56149  0.25019  0.19227  1.0000
  Mg  Mg5       1.0  0.71192  0.19281  0.39731  1.0000
  Mg  Mg6       1.0  0.48842  0.20507  0.08641  1.0000
  C  Sn13      1.0  0.44411  0.79677  0.31501  1.0000
  C   C67       1.0  0.40095  0.76914  0.31938  1.0000
  C  Sn14      1.0  0.36791  0.78118  0.28549  1.0000
  C  Sn15      1.0  0.37819  0.82166  0.24628  1.0000
  C   C68       1.0  0.42132  0.84926  0.24188  1.0000
  C  Sn16      1.0  0.45439  0.83725  0.27580  1.0000
  O  Te13      1.0  0.47661  0.78406  0.34931  1.0000
  O  Te14      1.0  0.32502  0.75303  0.29069  1.0000
  O  Te15      1.0  0.34564  0.83435  0.21198  1.0000
  O  Te16      1.0  0.49726  0.86537  0.27058  1.0000
  Mg  Mg7       1.0  0.29213  0.78484  0.23457  1.0000
  Mg  Mg8       1.0  0.53015  0.83358  0.32657  1.0000
  C  Sn17      1.0  0.80716  0.37197  0.16080  1.0000
  C   C69       1.0  0.84100  0.41827  0.21154  1.0000
  C  Sn18      1.0  0.83718  0.44822  0.30133  1.0000
  C  Sn19      1.0  0.79876  0.43156  0.34137  1.0000
  C   C70       1.0  0.76494  0.38529  0.29068  1.0000
  C  Sn20      1.0  0.76873  0.35531  0.20085  1.0000
  O  Te17      1.0  0.81168  0.34265  0.07116  1.0000
  O  Te18      1.0  0.87145  0.49437  0.35063  1.0000
  O  Te19      1.0  0.79425  0.46093  0.43108  1.0000
  O  Te20      1.0  0.73450  0.30919  0.15160  1.0000
  Mg  Mg9       1.0  0.84989  0.52088  0.47054  1.0000
  Mg  Mg10      1.0  0.75604  0.28265  0.03178  1.0000
  C  Sn21      1.0  0.17288  0.61683  0.15354  1.0000
  C   C71       1.0  0.14763  0.57404  0.16563  1.0000
  C  Sn22      1.0  0.17241  0.55307  0.23128  1.0000
  C  Sn23      1.0  0.22352  0.57534  0.28611  1.0000
  C   C72       1.0  0.24875  0.61810  0.27404  1.0000
  C  Sn24      1.0  0.22399  0.63909  0.20837  1.0000
  O  Te21      1.0  0.14736  0.63716  0.08751  1.0000
  O  Te22      1.0  0.14637  0.51028  0.24205  1.0000
  O  Te23      1.0  0.24904  0.55497  0.35217  1.0000
  O  Te24      1.0  0.25001  0.68186  0.19763  1.0000
  Mg  Mg11      1.0  0.19743  0.49648  0.34121  1.0000
  Mg  Mg12      1.0  0.19900  0.69570  0.09859  1.0000
  C  Sn25      1.0  0.55541  0.37195  0.78525  1.0000
  C   C73       1.0  0.57277  0.41623  0.79493  1.0000
  C  Sn26      1.0  0.61021  0.44157  0.75674  1.0000
  C  Sn27      1.0  0.63072  0.42223  0.70773  1.0000
  C   C74       1.0  0.61335  0.37798  0.69804  1.0000
  C  Sn28      1.0  0.57591  0.35262  0.73624  1.0000
  O  Te25      1.0  0.51795  0.34724  0.82398  1.0000
  O  Te26      1.0  0.62697  0.48577  0.76739  1.0000
  O  Te27      1.0  0.66821  0.44698  0.66899  1.0000
  O  Te28      1.0  0.55915  0.30844  0.72557  1.0000
  Mg  Mg13      1.0  0.67864  0.50584  0.70200  1.0000
  Mg  Mg14      1.0  0.50747  0.28833  0.79083  1.0000
  C  Sn29      1.0  0.36127  0.57100  0.79116  1.0000
  C   C75       1.0  0.37749  0.61440  0.78707  1.0000
  C  Sn30      1.0  0.41354  0.63784  0.74019  1.0000
  C  Sn31      1.0  0.43378  0.61748  0.69636  1.0000
  C   C76       1.0  0.41756  0.57411  0.70043  1.0000
  C  Sn32      1.0  0.38152  0.55064  0.74733  1.0000
  O  Te29      1.0  0.32519  0.54819  0.83840  1.0000
  O  Te30      1.0  0.42917  0.68119  0.73711  1.0000
  O  Te31      1.0  0.46989  0.64033  0.64910  1.0000
  O  Te32      1.0  0.36588  0.50731  0.75038  1.0000
  Mg  Mg15      1.0  0.47915  0.69865  0.66418  1.0000
  Mg  Mg16      1.0  0.31589  0.48981  0.82319  1.0000
  C  Sn33      1.0  0.57487  0.21236  0.81247  1.0000
  C   C77       1.0  0.61679  0.23973  0.80040  1.0000
  C  Sn34      1.0  0.63635  0.22130  0.74344  1.0000
  C  Sn35      1.0  0.61353  0.17452  0.69746  1.0000
  C   C78       1.0  0.57163  0.14716  0.70950  1.0000
  C  Sn36      1.0  0.55205  0.16557  0.76648  1.0000
  O  Te33      1.0  0.55594  0.23151  0.86972  1.0000
  O  Te34      1.0  0.67830  0.24935  0.73252  1.0000
  O  Te35      1.0  0.63250  0.15538  0.64017  1.0000
  O  Te36      1.0  0.51012  0.13755  0.77738  1.0000
  Mg  Mg17      1.0  0.69025  0.20744  0.64718  1.0000
  Mg  Mg18      1.0  0.49812  0.17942  0.86259  1.0000
  C  Sn37      1.0  0.44245  0.81410  0.72519  1.0000
  C   C79       1.0  0.42635  0.84179  0.71955  1.0000
  C  Sn38      1.0  0.38849  0.83017  0.75495  1.0000
  C  Sn39      1.0  0.36628  0.79005  0.79698  1.0000
  C   C80       1.0  0.38239  0.76239  0.80264  1.0000
  C  Sn40      1.0  0.42025  0.77398  0.76723  1.0000
  O  Te37      1.0  0.48036  0.82637  0.68936  1.0000
  O  Te38      1.0  0.37300  0.85838  0.74843  1.0000
  O  Te39      1.0  0.32834  0.77778  0.83282  1.0000
  O  Te40      1.0  0.43574  0.74579  0.77376  1.0000
  Mg  Mg19      1.0  0.32009  0.82721  0.80753  1.0000
  Mg  Mg20      1.0  0.48866  0.77694  0.71479  1.0000
  C  Sn41      1.0  0.78982  0.35817  0.77852  1.0000
  C   C81       1.0  0.76493  0.37594  0.79308  1.0000
  C  Sn42      1.0  0.77955  0.41858  0.78104  1.0000
  C  Sn43      1.0  0.81987  0.44398  0.75375  1.0000
  C   C82       1.0  0.84473  0.42621  0.73917  1.0000
  C  Sn44      1.0  0.83015  0.38357  0.75123  1.0000
  O  Te41      1.0  0.77457  0.31547  0.79096  1.0000
  O  Te42      1.0  0.75410  0.43564  0.79608  1.0000
  O  Te43      1.0  0.83510  0.48671  0.74132  1.0000
  O  Te44      1.0  0.85556  0.36651  0.73617  1.0000
  Mg  Mg21      1.0  0.78876  0.49541  0.77009  1.0000
  Mg  Mg22      1.0  0.82092  0.30674  0.76203  1.0000
  C  Sn45      1.0  0.18544  0.56439  0.79272  1.0000
  C   C83       1.0  0.15655  0.58044  0.77321  1.0000
  C  Sn46      1.0  0.16539  0.61818  0.71537  1.0000
  C  Sn47      1.0  0.20390  0.64032  0.67608  1.0000
  C   C84       1.0  0.23277  0.62427  0.69556  1.0000
  C  Sn48      1.0  0.22395  0.58653  0.75343  1.0000
  O  Te45      1.0  0.17594  0.52660  0.85072  1.0000
  O  Te46      1.0  0.13603  0.63362  0.69694  1.0000
  O  Te47      1.0  0.21339  0.67814  0.61804  1.0000
  O  Te48      1.0  0.25329  0.57109  0.77182  1.0000
  Mg  Mg23      1.0  0.16333  0.68636  0.61361  1.0000
  Mg  Mg24      1.0  0.22601  0.51834  0.85504  1.0000
