data_image0
_chemical_formula_structural       C12NCNCNC3N2C6O2H19C12NCNCNC3N2C6O2H19C6NCNCNC3N2C6O2H15C18NCNCNC3N2C6O2H23C12NCNCNC3N2C6O2H19C12NCNCNC3N2C6O2H19C2Sn2C2HTe2HMgC2Sn2C2HTe2HMgC2Sn2C2HTe2HMgC2Sn2C2HTe2HMgC2Sn2C2HTe2HMgC2Sn2C2HTe2HMg
_chemical_formula_sum              "C162 N30 O12 H126 Sn12 Te12 Mg6"
_cell_length_a       37.1697
_cell_length_b       37.5879
_cell_length_c       8.05465
_cell_angle_alpha    91.2724
_cell_angle_beta     69.8623
_cell_angle_gamma    120.771

_symmetry_space_group_name_H-M    'P1'
_space_group_IT_number       1

loop_
  _space_group_symop_operation_xyz
  'x, y, z'

loop_
  _atom_site_type_symbol
  _atom_site_label
  _atom_site_symmetry_multiplicity
  _atom_site_fract_x
  _atom_site_fract_y
  _atom_site_fract_z
  _atom_site_occupancy
  C   C1        1.0  0.31578  0.12252  0.87208  1.0000
  C   C2        1.0  0.36015  0.14580  0.86563  1.0000
  C   C3        1.0  0.37750  0.18432  0.92481  1.0000
  C   C4        1.0  0.34579  0.19604  0.99799  1.0000
  C   C5        1.0  0.30012  0.17260  0.00943  1.0000
  C   C6        1.0  0.28394  0.13448  0.94097  1.0000
  C   C7        1.0  0.23841  0.10879  0.93557  1.0000
  C   C8        1.0  0.20878  0.12347  0.97324  1.0000
  C   C9        1.0  0.16704  0.10042  0.95686  1.0000
  C   C10       1.0  0.15311  0.06131  0.90254  1.0000
  C   C11       1.0  0.18111  0.04521  0.87290  1.0000
  C   C12       1.0  0.22280  0.06856  0.88847  1.0000
  N   N1        1.0  0.34980  0.22983  0.08001  1.0000
  C   C13       1.0  0.30833  0.22584  0.14099  1.0000
  N   N2        1.0  0.27790  0.19249  0.09914  1.0000
  C   C14       1.0  0.30114  0.25500  0.25964  1.0000
  N   N3        1.0  0.34587  0.29231  0.24453  1.0000
  C   C15       1.0  0.34784  0.33062  0.18955  1.0000
  C   C16       1.0  0.29829  0.31831  0.25195  1.0000
  C   C17       1.0  0.27349  0.27221  0.22752  1.0000
  N   N4        1.0  0.11285  0.03741  0.87416  1.0000
  N   N5        1.0  0.55423  0.28368  0.93759  1.0000
  C   C18       1.0  0.08608  0.04994  0.85990  1.0000
  C   C19       1.0  0.58091  0.27164  0.95798  1.0000
  C   C20       1.0  0.04800  0.02398  0.82046  1.0000
  C   C21       1.0  0.62002  0.29887  0.98852  1.0000
  C   C22       1.0  0.02249  0.04172  0.80132  1.0000
  C   C23       1.0  0.64631  0.28177  0.00634  1.0000
  O   O1        1.0  0.03591  0.07990  0.81686  1.0000
  O   O2        1.0  0.63348  0.24356  0.99519  1.0000
  H   H1        1.0  0.30613  0.09419  0.81465  1.0000
  H   H2        1.0  0.38249  0.13438  0.80706  1.0000
  H   H3        1.0  0.21898  0.15351  0.01697  1.0000
  H   H4        1.0  0.14523  0.11288  0.98809  1.0000
  H   H5        1.0  0.17011  0.01457  0.83365  1.0000
  H   H6        1.0  0.24332  0.05483  0.86388  1.0000
  H   H7        1.0  0.37631  0.25198  0.10926  1.0000
  H   H8        1.0  0.28336  0.23647  0.39750  1.0000
  H   H9        1.0  0.34799  0.29231  0.36751  1.0000
  H   H10       1.0  0.36516  0.34091  0.04189  1.0000
  H   H11       1.0  0.36820  0.35662  0.24685  1.0000
  H   H12       1.0  0.29381  0.33856  0.17569  1.0000
  H   H13       1.0  0.28568  0.32028  0.39450  1.0000
  H   H14       1.0  0.27349  0.27080  0.09167  1.0000
  H   H15       1.0  0.23788  0.25351  0.32152  1.0000
  H   H16       1.0  0.10148  0.00665  0.84907  1.0000
  H   H17       1.0  0.56742  0.31565  0.94594  1.0000
  H   H18       1.0  0.09433  0.08166  0.87786  1.0000
  H   H19       1.0  0.57246  0.23953  0.94865  1.0000
  C   C24       1.0  0.88628  0.19040  0.74976  1.0000
  C   C25       1.0  0.86046  0.20897  0.78992  1.0000
  C   C26       1.0  0.81514  0.18743  0.91406  1.0000
  C   C27       1.0  0.79809  0.14646  0.99547  1.0000
  C   C28       1.0  0.82355  0.12710  0.95585  1.0000
  C   C29       1.0  0.86885  0.14913  0.82947  1.0000
  C   C30       1.0  0.78672  0.20551  0.95582  1.0000
  C   C31       1.0  0.80249  0.24652  0.99187  1.0000
  C   C32       1.0  0.77617  0.26408  0.02204  1.0000
  C   C33       1.0  0.73295  0.24089  0.01477  1.0000
  C   C34       1.0  0.71594  0.19920  0.98684  1.0000
  C   C35       1.0  0.74235  0.18193  0.95927  1.0000
  N   N6        1.0  0.75698  0.11716  0.13108  1.0000
  C   C36       1.0  0.75950  0.08313  0.16875  1.0000
  N   N7        1.0  0.79836  0.08748  0.06568  1.0000
  C   C37       1.0  0.72205  0.04712  0.31991  1.0000
  N   N8        1.0  0.68187  0.05094  0.39723  1.0000
  C   C38       1.0  0.64418  0.01406  0.36716  1.0000
  C   C39       1.0  0.65383  0.97885  0.36546  1.0000
  C   C40       1.0  0.70560  0.00330  0.26362  1.0000
  N   N9        1.0  0.96687  0.06971  0.76724  1.0000
  N   N10       1.0  0.70585  0.25722  0.02909  1.0000
  C   C41       1.0  0.95572  0.03026  0.75016  1.0000
  C   C42       1.0  0.71550  0.29632  0.04593  1.0000
  C   C43       1.0  0.98198  0.01507  0.76424  1.0000
  C   C44       1.0  0.68751  0.30974  0.03673  1.0000
  C   C45       1.0  0.96634  0.97124  0.74718  1.0000
  C   C46       1.0  0.70190  0.35322  0.05575  1.0000
  O   O3        1.0  0.93023  0.94773  0.72015  1.0000
  O   O4        1.0  0.73804  0.37664  0.08371  1.0000
  H   H20       1.0  0.92074  0.20813  0.64841  1.0000
  H   H21       1.0  0.87535  0.24050  0.71829  1.0000
  H   H22       1.0  0.83590  0.26467  0.99795  1.0000
  H   H23       1.0  0.78943  0.29579  0.05073  1.0000
  H   H24       1.0  0.68228  0.18110  0.98284  1.0000
  H   H25       1.0  0.72934  0.15005  0.93274  1.0000
  H   H26       1.0  0.73030  0.11963  0.20474  1.0000
  H   H27       1.0  0.73581  0.04890  0.42285  1.0000
  H   H28       1.0  0.67419  0.05052  0.53251  1.0000
  H   H29       1.0  0.64473  0.02176  0.23441  1.0000
  H   H30       1.0  0.61139  0.00633  0.46906  1.0000
  H   H31       1.0  0.63544  0.95316  0.30185  1.0000
  H   H32       1.0  0.64427  0.96504  0.50415  1.0000
  H   H33       1.0  0.71482  0.00711  0.11732  1.0000
  H   H34       1.0  0.72175  0.98831  0.29547  1.0000
  H   H35       1.0  0.99756  0.08616  0.78734  1.0000
  H   H36       1.0  0.67481  0.23949  0.01249  1.0000
  H   H37       1.0  0.92517  0.00909  0.72572  1.0000
  H   H38       1.0  0.74636  0.31878  0.06606  1.0000
  C   C47       1.0  0.80441  0.67661  0.97791  1.0000
  C   C48       1.0  0.78230  0.63281  0.02205  1.0000
  C   C49       1.0  0.80130  0.61288  0.07281  1.0000
  C   C50       1.0  0.84312  0.64109  0.08598  1.0000
  C   C51       1.0  0.86638  0.68579  0.04058  1.0000
  C   C52       1.0  0.84767  0.70520  0.97995  1.0000
  N   N11       1.0  0.87143  0.63389  0.13618  1.0000
  C   C53       1.0  0.90860  0.67253  0.12417  1.0000
  N   N12       1.0  0.90728  0.70411  0.06476  1.0000
  C   C54       1.0  0.94464  0.67670  0.18188  1.0000
  N   N13       1.0  0.93659  0.63465  0.23139  1.0000
  C   C55       1.0  0.97408  0.63303  0.09596  1.0000
  C   C56       1.0  0.01536  0.67860  0.03856  1.0000
  C   C57       1.0  0.99396  0.70433  0.03679  1.0000
  N   N14       1.0  0.93868  0.88366  0.75952  1.0000
  N   N15       1.0  0.72443  0.43678  0.08449  1.0000
  C   C58       1.0  0.97810  0.91280  0.77184  1.0000
  C   C59       1.0  0.68658  0.40992  0.05787  1.0000
  C   C60       1.0  0.99334  0.95511  0.76486  1.0000
  C   C61       1.0  0.67409  0.36859  0.04146  1.0000
  C   C62       1.0  0.03521  0.98137  0.79550  1.0000
  C   C63       1.0  0.63324  0.34213  0.00534  1.0000
  O   O5        1.0  0.05887  0.96676  0.80381  1.0000
  O   O6        1.0  0.60968  0.35637  0.99083  1.0000
  H   H39       1.0  0.78795  0.68871  0.93047  1.0000
  H   H40       1.0  0.75045  0.61332  0.00446  1.0000
  H   H41       1.0  0.86365  0.60647  0.20111  1.0000
  H   H42       1.0  0.94204  0.69147  0.30051  1.0000
  H   H43       1.0  0.93792  0.63254  0.35516  1.0000
  H   H44       1.0  0.96505  0.62190  0.97991  1.0000
  H   H45       1.0  0.97910  0.61033  0.15180  1.0000
  H   H46       1.0  0.04212  0.68460  0.90814  1.0000
  H   H47       1.0  0.03041  0.68596  0.14020  1.0000
  H   H48       1.0  0.99319  0.70883  0.90434  1.0000
  H   H49       1.0  0.01220  0.73583  0.06731  1.0000
  H   H50       1.0  0.92189  0.89740  0.73813  1.0000
  H   H51       1.0  0.74194  0.42206  0.08918  1.0000
  H   H52       1.0  0.99874  0.90253  0.79569  1.0000
  H   H53       1.0  0.66548  0.42085  0.04420  1.0000
  C   C64       1.0  0.32212  0.13019  0.39394  1.0000
  C   C65       1.0  0.36697  0.15394  0.38254  1.0000
  C   C66       1.0  0.38527  0.19348  0.43311  1.0000
  C   C67       1.0  0.35369  0.20528  0.50695  1.0000
  C   C68       1.0  0.30761  0.18127  0.52443  1.0000
  C   C69       1.0  0.29060  0.14261  0.46088  1.0000
  C   C70       1.0  0.24498  0.11770  0.45627  1.0000
  C   C71       1.0  0.43243  0.21998  0.41910  1.0000
  C   C72       1.0  0.21496  0.13206  0.50397  1.0000
  C   C73       1.0  0.17364  0.11051  0.48375  1.0000
  C   C74       1.0  0.16054  0.07315  0.41515  1.0000
  C   C75       1.0  0.18869  0.05704  0.37628  1.0000
  C   C76       1.0  0.22990  0.07895  0.39581  1.0000
  C   C77       1.0  0.45429  0.20231  0.46234  1.0000
  C   C78       1.0  0.49752  0.22743  0.46392  1.0000
  C   C79       1.0  0.52073  0.27156  0.41970  1.0000
  C   C80       1.0  0.50044  0.28972  0.36757  1.0000
  C   C81       1.0  0.45703  0.26427  0.36803  1.0000
  N   N16       1.0  0.35829  0.23984  0.58419  1.0000
  C   C82       1.0  0.31679  0.23565  0.64760  1.0000
  N   N17       1.0  0.28572  0.20155  0.61230  1.0000
  C   C83       1.0  0.30941  0.26482  0.76375  1.0000
  N   N18       1.0  0.35380  0.30283  0.74519  1.0000
  C   C84       1.0  0.35639  0.33921  0.66375  1.0000
  C   C85       1.0  0.30714  0.32782  0.72734  1.0000
  C   C86       1.0  0.28058  0.28019  0.72800  1.0000
  N   N19       1.0  0.12093  0.05074  0.38178  1.0000
  N   N20       1.0  0.56277  0.29832  0.43248  1.0000
  C   C87       1.0  0.09426  0.06387  0.37187  1.0000
  C   C88       1.0  0.58931  0.28684  0.45874  1.0000
  C   C89       1.0  0.05703  0.03922  0.32558  1.0000
  C   C90       1.0  0.62800  0.31419  0.49130  1.0000
  C   C91       1.0  0.03081  0.05705  0.31437  1.0000
  C   C92       1.0  0.65324  0.29662  0.51581  1.0000
  O   O7        1.0  0.04260  0.09428  0.34066  1.0000
  O   O8        1.0  0.63879  0.25783  0.51131  1.0000
  H   H54       1.0  0.31181  0.10103  0.34254  1.0000
  H   H55       1.0  0.38883  0.14192  0.32669  1.0000
  H   H56       1.0  0.22459  0.16078  0.55828  1.0000
  H   H57       1.0  0.15161  0.12277  0.52187  1.0000
  H   H58       1.0  0.17827  0.02776  0.32530  1.0000
  H   H59       1.0  0.25077  0.06551  0.36137  1.0000
  H   H60       1.0  0.43588  0.16827  0.50423  1.0000
  H   H61       1.0  0.51229  0.21287  0.50843  1.0000
  H   H62       1.0  0.51912  0.32380  0.32629  1.0000
  H   H63       1.0  0.44212  0.27890  0.32477  1.0000
  H   H64       1.0  0.38527  0.26280  0.60866  1.0000
  H   H65       1.0  0.29210  0.24641  0.90114  1.0000
  H   H66       1.0  0.35446  0.30631  0.87039  1.0000
  H   H67       1.0  0.37127  0.34341  0.51583  1.0000
  H   H68       1.0  0.37886  0.36827  0.70086  1.0000
  H   H69       1.0  0.30242  0.34596  0.64111  1.0000
  H   H70       1.0  0.29641  0.33390  0.86427  1.0000
  H   H71       1.0  0.27780  0.27412  0.59788  1.0000
  H   H72       1.0  0.24588  0.26337  0.83073  1.0000
  H   H73       1.0  0.11028  0.02090  0.34624  1.0000
  H   H74       1.0  0.57533  0.33025  0.43638  1.0000
  H   H75       1.0  0.10183  0.09485  0.40036  1.0000
  H   H76       1.0  0.58090  0.25464  0.45309  1.0000
  C   C93       1.0  0.88468  0.19676  0.27209  1.0000
  C   C94       1.0  0.85890  0.21528  0.30966  1.0000
  C   C95       1.0  0.81278  0.19311  0.42475  1.0000
  C   C96       1.0  0.79484  0.15128  0.49899  1.0000
  C   C97       1.0  0.82051  0.13214  0.46575  1.0000
  C   C98       1.0  0.86678  0.15503  0.34804  1.0000
  C   C99       1.0  0.89515  0.13713  0.31611  1.0000
  C   C100      1.0  0.87941  0.09569  0.28543  1.0000
  C   C101      1.0  0.90521  0.07802  0.26821  1.0000
  C   C102      1.0  0.94752  0.10135  0.28358  1.0000
  C   C103      1.0  0.96423  0.14323  0.30761  1.0000
  C   C104      1.0  0.93845  0.16080  0.32261  1.0000
  N   N21       1.0  0.75242  0.12107  0.62496  1.0000
  C   C105      1.0  0.75389  0.08630  0.66269  1.0000
  N   N22       1.0  0.79394  0.09169  0.57062  1.0000
  C   C106      1.0  0.71415  0.04898  0.80483  1.0000
  N   N23       1.0  0.67048  0.04546  0.83169  1.0000
  C   C107      1.0  0.63487  0.99998  0.85939  1.0000
  C   C108      1.0  0.65605  0.97530  0.88044  1.0000
  C   C109      1.0  0.70669  0.00599  0.76625  1.0000
  N   N24       1.0  0.97366  0.08452  0.28155  1.0000
  N   N25       1.0  0.70960  0.26955  0.54620  1.0000
  C   C110      1.0  0.96449  0.04580  0.25836  1.0000
  C   C111      1.0  0.72199  0.30972  0.55351  1.0000
  C   C112      1.0  0.99102  0.03100  0.27162  1.0000
  C   C113      1.0  0.69505  0.32436  0.54224  1.0000
  C   C114      1.0  0.97608  0.98770  0.24610  1.0000
  C   C115      1.0  0.71119  0.36868  0.55001  1.0000
  O   O9        1.0  0.94021  0.96488  0.21656  1.0000
  O   O10       1.0  0.74854  0.39299  0.56768  1.0000
  H   H77       1.0  0.91989  0.21518  0.17746  1.0000
  H   H78       1.0  0.87462  0.24756  0.24399  1.0000
  H   H79       1.0  0.84663  0.07748  0.27397  1.0000
  H   H80       1.0  0.89192  0.04585  0.24565  1.0000
  H   H81       1.0  0.99694  0.16129  0.31968  1.0000
  H   H82       1.0  0.95110  0.19281  0.34739  1.0000
  H   H83       1.0  0.72402  0.12214  0.66996  1.0000
  H   H84       1.0  0.72033  0.05359  0.93052  1.0000
  H   H85       1.0  0.66127  0.05702  0.94347  1.0000
  H   H86       1.0  0.62579  0.99394  0.74079  1.0000
  H   H87       1.0  0.60390  0.99164  0.97577  1.0000
  H   H88       1.0  0.64169  0.94496  0.83605  1.0000
  H   H89       1.0  0.65073  0.96897  0.02204  1.0000
  H   H90       1.0  0.71359  0.00518  0.62279  1.0000
  H   H91       1.0  0.72948  0.99979  0.79909  1.0000
  H   H92       1.0  0.00311  0.10146  0.30900  1.0000
  H   H93       1.0  0.67771  0.25259  0.53508  1.0000
  H   H94       1.0  0.93483  0.02453  0.22826  1.0000
  H   H95       1.0  0.75407  0.33206  0.56562  1.0000
  C   C116      1.0  0.81192  0.69445  0.46266  1.0000
  C   C117      1.0  0.78952  0.65054  0.50323  1.0000
  C   C118      1.0  0.80788  0.62996  0.55453  1.0000
  C   C119      1.0  0.84932  0.65777  0.57193  1.0000
  C   C120      1.0  0.87360  0.70251  0.52458  1.0000
  C   C121      1.0  0.85548  0.72245  0.46339  1.0000
  C   C122      1.0  0.88011  0.76827  0.40049  1.0000
  C   C123      1.0  0.92277  0.79577  0.41008  1.0000
  C   C124      1.0  0.94620  0.83906  0.35441  1.0000
  C   C125      1.0  0.92784  0.85720  0.28760  1.0000
  C   C126      1.0  0.88587  0.83042  0.27293  1.0000
  C   C127      1.0  0.86281  0.78697  0.32770  1.0000
  N   N26       1.0  0.87667  0.64988  0.62548  1.0000
  C   C128      1.0  0.91497  0.68799  0.60825  1.0000
  N   N27       1.0  0.91474  0.72007  0.54648  1.0000
  C   C129      1.0  0.95163  0.69057  0.65669  1.0000
  N   N28       1.0  0.94296  0.64773  0.69782  1.0000
  C   C130      1.0  0.98444  0.64831  0.58757  1.0000
  C   C131      1.0  0.02341  0.69490  0.53120  1.0000
  C   C132      1.0  0.00012  0.71731  0.50837  1.0000
  N   N29       1.0  0.94933  0.90102  0.24208  1.0000
  N   N30       1.0  0.73391  0.45371  0.56912  1.0000
  C   C133      1.0  0.98877  0.92954  0.25538  1.0000
  C   C134      1.0  0.69578  0.42547  0.54690  1.0000
  C   C135      1.0  0.00342  0.97154  0.25760  1.0000
  C   C136      1.0  0.68319  0.38405  0.53619  1.0000
  C   C137      1.0  0.04505  0.99722  0.28997  1.0000
  C   C138      1.0  0.64177  0.35759  0.50317  1.0000
  O   O11       1.0  0.06933  0.98275  0.29062  1.0000
  O   O12       1.0  0.61884  0.37211  0.48380  1.0000
  H   H96       1.0  0.79536  0.70721  0.42024  1.0000
  H   H97       1.0  0.75792  0.63172  0.48309  1.0000
  H   H98       1.0  0.93700  0.78250  0.46601  1.0000
  H   H99       1.0  0.97820  0.85875  0.37030  1.0000
  H   H100      1.0  0.87159  0.84386  0.21757  1.0000
  H   H101      1.0  0.83101  0.76748  0.30997  1.0000
  H   H102      1.0  0.86925  0.62203  0.68370  1.0000
  H   H103      1.0  0.95090  0.70497  0.77706  1.0000
  H   H104      1.0  0.93587  0.64088  0.83133  1.0000
  H   H105      1.0  0.98063  0.63472  0.46750  1.0000
  H   H106      1.0  0.98947  0.62864  0.66418  1.0000
  H   H107      1.0  0.05225  0.70130  0.40808  1.0000
  H   H108      1.0  0.03613  0.70482  0.63911  1.0000
  H   H109      1.0  0.99886  0.71700  0.37426  1.0000
  H   H110      1.0  0.01700  0.75033  0.52428  1.0000
  H   H111      1.0  0.93260  0.91510  0.22351  1.0000
  H   H112      1.0  0.75262  0.44040  0.57223  1.0000
  H   H113      1.0  0.01001  0.91915  0.27161  1.0000
  H   H114      1.0  0.67393  0.43529  0.53228  1.0000
  C   C139      1.0  0.71793  0.20093  0.48023  1.0000
  C   C140      1.0  0.72787  0.23943  0.53397  1.0000
  C  Sn1       1.0  0.76941  0.26628  0.54959  1.0000
  C  Sn2       1.0  0.80153  0.25429  0.51055  1.0000
  C   C141      1.0  0.79127  0.21572  0.45677  1.0000
  C   C142      1.0  0.74960  0.18909  0.44164  1.0000
  H   H115      1.0  0.68570  0.18033  0.46842  1.0000
  O  Te1       1.0  0.77879  0.30462  0.60350  1.0000
  O  Te2       1.0  0.84331  0.28053  0.52500  1.0000
  H   H116      1.0  0.74192  0.15929  0.39992  1.0000
  Mg  Mg1       1.0  0.84038  0.32961  0.60349  1.0000
  C   C143      1.0  0.80656  0.53445  0.53153  1.0000
  C   C144      1.0  0.76108  0.50175  0.58354  1.0000
  C  Sn3       1.0  0.72723  0.51073  0.62356  1.0000
  C  Sn4       1.0  0.73923  0.55328  0.61112  1.0000
  C   C145      1.0  0.78483  0.58578  0.55884  1.0000
  C   C146      1.0  0.81843  0.57643  0.51915  1.0000
  H   H117      1.0  0.83256  0.52723  0.50072  1.0000
  O  Te3       1.0  0.68196  0.47768  0.67538  1.0000
  O  Te4       1.0  0.70608  0.56315  0.65029  1.0000
  H   H118      1.0  0.85364  0.60176  0.47877  1.0000
  Mg  Mg2       1.0  0.64906  0.50712  0.71505  1.0000
  C   C147      1.0  0.71222  0.50480  0.15921  1.0000
  C   C148      1.0  0.73352  0.48256  0.09998  1.0000
  C  Sn5       1.0  0.78069  0.50320  0.04061  1.0000
  C  Sn6       1.0  0.80694  0.54693  0.04076  1.0000
  C   C149      1.0  0.78530  0.56889  0.10040  1.0000
  C   C150      1.0  0.73808  0.54793  0.15946  1.0000
  H   H119      1.0  0.67569  0.48858  0.20500  1.0000
  O  Te5       1.0  0.70371  0.43582  0.98182  1.0000
  O  Te6       1.0  0.75641  0.52366  0.98220  1.0000
  H   H120      1.0  0.72160  0.56515  0.20542  1.0000
  Mg  Mg3       1.0  0.76901  0.47901  0.91467  1.0000
  C   C151      1.0  0.86315  0.80221  0.81987  1.0000
  C   C152      1.0  0.90577  0.83413  0.81347  1.0000
  C  Sn7       1.0  0.93347  0.82398  0.85405  1.0000
  C  Sn8       1.0  0.91813  0.78104  0.90182  1.0000
  C   C153      1.0  0.87546  0.74934  0.90771  1.0000
  C   C154      1.0  0.84801  0.75985  0.86691  1.0000
  H   H121      1.0  0.84192  0.81034  0.78821  1.0000
  O  Te7       1.0  0.97594  0.85626  0.84706  1.0000
  O  Te8       1.0  0.94514  0.77000  0.94295  1.0000
  H   H122      1.0  0.81504  0.73513  0.87177  1.0000
  Mg  Mg4       1.0  0.00037  0.82532  0.91463  1.0000
  C   C155      1.0  0.96230  0.14091  0.79245  1.0000
  C   C156      1.0  0.94821  0.09906  0.77804  1.0000
  C  Sn9       1.0  0.90675  0.07206  0.76207  1.0000
  C  Sn10      1.0  0.87896  0.08732  0.76047  1.0000
  C   C157      1.0  0.89337  0.12925  0.77484  1.0000
  C   C158      1.0  0.93491  0.15600  0.79082  1.0000
  H   H123      1.0  0.99445  0.16161  0.80472  1.0000
  O  Te9       1.0  0.89319  0.03033  0.74787  1.0000
  O  Te10      1.0  0.83737  0.06102  0.74459  1.0000
  H   H124      1.0  0.94582  0.18840  0.80186  1.0000
  Mg  Mg5       1.0  0.83365  0.00666  0.72903  1.0000
  C   C159      1.0  0.48349  0.27775  0.86656  1.0000
  C   C160      1.0  0.50724  0.26434  0.92060  1.0000
  C  Sn11      1.0  0.48942  0.22132  0.96660  1.0000
  C  Sn12      1.0  0.44703  0.19125  0.95817  1.0000
  C   C161      1.0  0.42354  0.20499  0.90382  1.0000
  C   C162      1.0  0.44168  0.24811  0.85814  1.0000
  H   H125      1.0  0.49753  0.31111  0.83112  1.0000
  O  Te11      1.0  0.61131  0.25315  0.02037  1.0000
  O  Te12      1.0  0.52616  0.19274  0.00335  1.0000
  H   H126      1.0  0.42329  0.25848  0.81620  1.0000
  Mg  Mg6       1.0  0.57193  0.19081  0.06864  1.0000
