data_image0
_chemical_formula_structural       C6N2C4NCNC2H8C12N2C4NCNC2H12C12N2C4NCNC2H12C18N2C4NCNC2H16C12N2C4NCNC2H12C12N2C4NCNC2H12SnCSn2CSnTe4Mg2SnCSn2CSnTe4Mg2SnCSn2CSnTe4Mg2SnCSn2CSnTe4Mg2SnCSn2CSnTe4Mg2SnCSn2CSnTe4Mg2
_chemical_formula_sum              "C126 N24 H72 Sn24 Te24 Mg12"
_cell_length_a       37.4324
_cell_length_b       37.6693
_cell_length_c       8.40204
_cell_angle_alpha    91.3964
_cell_angle_beta     118.517
_cell_angle_gamma    120.46

_symmetry_space_group_name_H-M    'P1'
_space_group_IT_number       1

loop_
  _space_group_symop_operation_xyz
  'x, y, z'

loop_
  _atom_site_type_symbol
  _atom_site_label
  _atom_site_symmetry_multiplicity
  _atom_site_fract_x
  _atom_site_fract_y
  _atom_site_fract_z
  _atom_site_occupancy
  C   C1        1.0  0.31314  0.14103  0.01577  1.0000
  C   C2        1.0  0.35661  0.16085  0.01797  1.0000
  C   C3        1.0  0.38123  0.20302  0.00711  1.0000
  C   C4        1.0  0.35815  0.22426  0.99296  1.0000
  C   C5        1.0  0.31308  0.20299  0.98643  1.0000
  C   C6        1.0  0.28895  0.16095  0.99982  1.0000
  N   N1        1.0  0.10746  0.07655  0.96964  1.0000
  N   N2        1.0  0.55745  0.27049  0.01475  1.0000
  C   C7        1.0  0.08634  0.03870  0.98782  1.0000
  C   C8        1.0  0.04014  0.01836  0.98028  1.0000
  C   C9        1.0  0.58376  0.30832  0.00535  1.0000
  C   C10       1.0  0.62799  0.32184  0.00652  1.0000
  N   N3        1.0  0.37167  0.26504  0.97363  1.0000
  C   C11       1.0  0.33658  0.26835  0.95442  1.0000
  N   N4        1.0  0.30031  0.23214  0.96044  1.0000
  C   C12       1.0  0.01944  0.04121  0.97461  1.0000
  C   C13       1.0  0.64166  0.29309  0.00969  1.0000
  H   H1        1.0  0.29839  0.10927  0.03413  1.0000
  H   H2        1.0  0.37325  0.14331  0.03689  1.0000
  H   H3        1.0  0.10233  0.02002  0.01468  1.0000
  H   H4        1.0  0.57413  0.33175  0.99128  1.0000
  H   H5        1.0  0.33545  0.29631  0.93795  1.0000
  H   H6        1.0  0.26769  0.22568  0.93218  1.0000
  H   H7        1.0  0.03845  0.07458  0.97359  1.0000
  H   H8        1.0  0.61853  0.26079  0.01269  1.0000
  C   C14       1.0  0.86493  0.17098  0.03532  1.0000
  C   C15       1.0  0.84503  0.19425  0.02755  1.0000
  C   C16       1.0  0.79857  0.17587  0.00382  1.0000
  C   C17       1.0  0.77359  0.13134  0.99307  1.0000
  C   C18       1.0  0.79485  0.10827  0.00376  1.0000
  C   C19       1.0  0.84064  0.12657  0.02120  1.0000
  C   C20       1.0  0.86117  0.10242  0.01541  1.0000
  C   C21       1.0  0.84897  0.06414  0.06389  1.0000
  C   C22       1.0  0.86756  0.04114  0.04911  1.0000
  C   C23       1.0  0.90084  0.05605  0.99174  1.0000
  C   C24       1.0  0.91382  0.09461  0.94515  1.0000
  C   C25       1.0  0.89397  0.11664  0.95457  1.0000
  N   N5        1.0  0.91796  0.03088  0.98414  1.0000
  N   N6        1.0  0.73271  0.28433  0.99346  1.0000
  C   C26       1.0  0.95711  0.04706  0.97925  1.0000
  C   C27       1.0  0.97612  0.02173  0.97427  1.0000
  C   C28       1.0  0.69652  0.27504  0.00964  1.0000
  C   C29       1.0  0.68351  0.30569  0.00760  1.0000
  N   N7        1.0  0.72740  0.10348  0.96833  1.0000
  C   C30       1.0  0.72062  0.06556  0.96422  1.0000
  N   N8        1.0  0.75967  0.06620  0.98306  1.0000
  C   C31       1.0  0.95297  0.97868  0.97851  1.0000
  C   C32       1.0  0.71202  0.34769  0.00114  1.0000
  H   H9        1.0  0.90124  0.18827  0.05503  1.0000
  H   H10       1.0  0.86713  0.22848  0.04142  1.0000
  H   H11       1.0  0.82718  0.05327  0.12573  1.0000
  H   H12       1.0  0.85797  0.01182  0.08805  1.0000
  H   H13       1.0  0.93790  0.10648  0.89305  1.0000
  H   H14       1.0  0.90267  0.14478  0.90725  1.0000
  H   H15       1.0  0.97924  0.08099  0.98463  1.0000
  H   H16       1.0  0.67347  0.24415  0.02479  1.0000
  H   H17       1.0  0.68859  0.03645  0.94964  1.0000
  H   H18       1.0  0.76316  0.04123  0.98860  1.0000
  H   H19       1.0  0.92000  0.96445  0.98304  1.0000
  H   H20       1.0  0.74402  0.35677  0.99620  1.0000
  C   C33       1.0  0.84035  0.69344  0.04115  1.0000
  C   C34       1.0  0.81581  0.64987  0.03206  1.0000
  C   C35       1.0  0.82889  0.62244  0.00247  1.0000
  C   C36       1.0  0.87065  0.64332  0.98819  1.0000
  C   C37       1.0  0.89451  0.68763  0.99338  1.0000
  C   C38       1.0  0.88064  0.71465  0.01977  1.0000
  C   C39       1.0  0.80085  0.57656  0.99186  1.0000
  C   C40       1.0  0.75278  0.55563  0.95670  1.0000
  C   C41       1.0  0.72711  0.51352  0.96020  1.0000
  C   C42       1.0  0.74785  0.48985  0.99544  1.0000
  C   C43       1.0  0.79550  0.51026  0.02753  1.0000
  C   C44       1.0  0.82120  0.55244  0.02453  1.0000
  N   N9        1.0  0.96566  0.88857  0.99091  1.0000
  N   N10       1.0  0.71921  0.44807  0.99993  1.0000
  C   C45       1.0  0.94948  0.91161  0.99494  1.0000
  C   C46       1.0  0.97302  0.95556  0.98367  1.0000
  C   C47       1.0  0.72847  0.41972  0.98903  1.0000
  C   C48       1.0  0.69898  0.37660  0.99851  1.0000
  N   N11       1.0  0.89298  0.62583  0.95885  1.0000
  C   C49       1.0  0.92732  0.65705  0.94016  1.0000
  N   N12       1.0  0.93110  0.69543  0.96416  1.0000
  C   C50       1.0  0.01684  0.97578  0.98508  1.0000
  C   C51       1.0  0.65669  0.36338  0.00121  1.0000
  H   H21       1.0  0.82876  0.71229  0.07301  1.0000
  H   H22       1.0  0.78663  0.63726  0.05856  1.0000
  H   H23       1.0  0.73499  0.57242  0.92477  1.0000
  H   H24       1.0  0.69040  0.49776  0.93589  1.0000
  H   H25       1.0  0.81321  0.49336  0.05975  1.0000
  H   H26       1.0  0.85788  0.56767  0.04969  1.0000
  H   H27       1.0  0.91813  0.90023  0.00984  1.0000
  H   H28       1.0  0.75788  0.42584  0.96957  1.0000
  H   H29       1.0  0.95055  0.65403  0.90724  1.0000
  H   H30       1.0  0.94624  0.71911  0.91399  1.0000
  H   H31       1.0  0.03208  0.95739  0.99014  1.0000
  H   H32       1.0  0.64709  0.38632  0.99903  1.0000
  C   C52       1.0  0.30768  0.14372  0.50279  1.0000
  C   C53       1.0  0.35121  0.16274  0.50652  1.0000
  C   C54       1.0  0.37840  0.20571  0.50703  1.0000
  C   C55       1.0  0.35776  0.22862  0.50579  1.0000
  C   C56       1.0  0.31351  0.20883  0.50527  1.0000
  C   C57       1.0  0.28603  0.16540  0.50205  1.0000
  C   C58       1.0  0.23971  0.14307  0.49734  1.0000
  C   C59       1.0  0.42404  0.22381  0.50978  1.0000
  C   C60       1.0  0.43570  0.19582  0.47117  1.0000
  C   C61       1.0  0.47887  0.21193  0.47644  1.0000
  C   C62       1.0  0.51253  0.25698  0.51689  1.0000
  C   C63       1.0  0.50157  0.28538  0.55734  1.0000
  C   C64       1.0  0.45848  0.26920  0.55401  1.0000
  C   C65       1.0  0.21284  0.16072  0.47553  1.0000
  C   C66       1.0  0.16872  0.13804  0.46845  1.0000
  C   C67       1.0  0.14784  0.09571  0.47923  1.0000
  C   C68       1.0  0.17414  0.07750  0.50068  1.0000
  C   C69       1.0  0.21860  0.10065  0.51180  1.0000
  N   N13       1.0  0.10360  0.07604  0.47212  1.0000
  N   N14       1.0  0.55481  0.26929  0.51824  1.0000
  C   C70       1.0  0.07979  0.03596  0.46694  1.0000
  C   C71       1.0  0.03507  0.01580  0.46966  1.0000
  C   C72       1.0  0.58109  0.30646  0.50436  1.0000
  C   C73       1.0  0.62546  0.31972  0.50668  1.0000
  N   N15       1.0  0.37531  0.27131  0.50648  1.0000
  C   C74       1.0  0.34436  0.27781  0.51024  1.0000
  N   N16       1.0  0.30572  0.24124  0.50428  1.0000
  C   C75       1.0  0.01431  0.03842  0.46679  1.0000
  C   C76       1.0  0.64011  0.29153  0.51520  1.0000
  H   H33       1.0  0.28994  0.11020  0.50129  1.0000
  H   H34       1.0  0.36517  0.14326  0.51350  1.0000
  H   H35       1.0  0.41022  0.16063  0.43401  1.0000
  H   H36       1.0  0.48746  0.19013  0.44573  1.0000
  H   H37       1.0  0.52752  0.32064  0.59536  1.0000
  H   H38       1.0  0.45083  0.29160  0.58686  1.0000
  H   H39       1.0  0.22482  0.19214  0.45552  1.0000
  H   H40       1.0  0.14893  0.15250  0.45273  1.0000
  H   H41       1.0  0.16041  0.04524  0.51404  1.0000
  H   H42       1.0  0.23806  0.08561  0.53526  1.0000
  H   H43       1.0  0.09163  0.01475  0.46295  1.0000
  H   H44       1.0  0.57140  0.32986  0.48572  1.0000
  H   H45       1.0  0.34737  0.30805  0.51552  1.0000
  H   H46       1.0  0.28311  0.24146  0.53726  1.0000
  H   H47       1.0  0.03188  0.07115  0.45823  1.0000
  H   H48       1.0  0.61784  0.25953  0.52253  1.0000
  C   C77       1.0  0.85563  0.16658  0.47555  1.0000
  C   C78       1.0  0.83610  0.18999  0.47168  1.0000
  C   C79       1.0  0.79510  0.17450  0.48647  1.0000
  C   C80       1.0  0.77413  0.13222  0.50256  1.0000
  C   C81       1.0  0.79523  0.10919  0.51036  1.0000
  C   C82       1.0  0.83620  0.12497  0.49492  1.0000
  C   C83       1.0  0.77707  0.20131  0.48742  1.0000
  C   C84       1.0  0.80574  0.24610  0.50896  1.0000
  C   C85       1.0  0.78886  0.27161  0.50580  1.0000
  C   C86       1.0  0.74283  0.25409  0.48446  1.0000
  C   C87       1.0  0.71376  0.20935  0.46159  1.0000
  C   C88       1.0  0.73061  0.18376  0.46390  1.0000
  N   N17       1.0  0.91720  0.03005  0.50360  1.0000
  N   N18       1.0  0.72948  0.28280  0.48353  1.0000
  C   C89       1.0  0.95239  0.04394  0.47513  1.0000
  C   C90       1.0  0.97257  0.01937  0.47676  1.0000
  C   C91       1.0  0.69640  0.27465  0.51802  1.0000
  C   C92       1.0  0.68185  0.30431  0.51171  1.0000
  N   N19       1.0  0.73368  0.10747  0.51833  1.0000
  C   C93       1.0  0.73091  0.07190  0.53922  1.0000
  N   N20       1.0  0.76657  0.07063  0.53381  1.0000
  C   C94       1.0  0.95124  0.97717  0.49074  1.0000
  C   C95       1.0  0.70951  0.34592  0.50065  1.0000
  H   H49       1.0  0.88547  0.18024  0.45218  1.0000
  H   H50       1.0  0.85251  0.22099  0.44837  1.0000
  H   H51       1.0  0.84166  0.26128  0.52680  1.0000
  H   H52       1.0  0.81085  0.30585  0.51915  1.0000
  H   H53       1.0  0.67750  0.19444  0.44095  1.0000
  H   H54       1.0  0.70803  0.14955  0.44902  1.0000
  H   H55       1.0  0.96855  0.07455  0.44538  1.0000
  H   H56       1.0  0.67806  0.24584  0.55492  1.0000
  H   H57       1.0  0.70389  0.04567  0.55844  1.0000
  H   H58       1.0  0.77725  0.05099  0.58157  1.0000
  H   H59       1.0  0.91941  0.96322  0.50248  1.0000
  H   H60       1.0  0.74152  0.35509  0.49562  1.0000
  C   C96       1.0  0.83646  0.69158  0.53704  1.0000
  C   C97       1.0  0.81257  0.64817  0.53084  1.0000
  C   C98       1.0  0.82611  0.62096  0.50325  1.0000
  C   C99       1.0  0.86769  0.64185  0.48783  1.0000
  C   C100      1.0  0.89100  0.68599  0.49113  1.0000
  C   C101      1.0  0.87669  0.71267  0.51558  1.0000
  C   C102      1.0  0.89945  0.75779  0.51372  1.0000
  C   C103      1.0  0.94929  0.78562  0.56534  1.0000
  C   C104      1.0  0.96928  0.82777  0.55723  1.0000
  C   C105      1.0  0.94097  0.84473  0.50252  1.0000
  C   C106      1.0  0.89111  0.81721  0.45065  1.0000
  C   C107      1.0  0.87100  0.77486  0.45539  1.0000
  N   N21       1.0  0.96381  0.88706  0.49454  1.0000
  N   N22       1.0  0.71582  0.44578  0.49372  1.0000
  C   C108      1.0  0.94893  0.91063  0.50847  1.0000
  C   C109      1.0  0.97106  0.95411  0.49141  1.0000
  C   C110      1.0  0.72545  0.41759  0.48550  1.0000
  C   C111      1.0  0.69596  0.37452  0.49546  1.0000
  N   N23       1.0  0.89033  0.62469  0.45859  1.0000
  C   C112      1.0  0.92420  0.65595  0.43792  1.0000
  N   N24       1.0  0.92761  0.69419  0.46126  1.0000
  C   C113      1.0  0.01292  0.97362  0.47974  1.0000
  C   C114      1.0  0.65356  0.36100  0.49756  1.0000
  H   H61       1.0  0.82458  0.71042  0.56650  1.0000
  H   H62       1.0  0.78348  0.63555  0.55780  1.0000
  H   H63       1.0  0.97331  0.77466  0.61685  1.0000
  H   H64       1.0  0.00745  0.84876  0.59438  1.0000
  H   H65       1.0  0.86752  0.82866  0.39997  1.0000
  H   H66       1.0  0.83192  0.75390  0.40863  1.0000
  H   H67       1.0  0.91987  0.89986  0.53688  1.0000
  H   H68       1.0  0.75542  0.42384  0.46955  1.0000
  H   H69       1.0  0.94734  0.65303  0.40399  1.0000
  H   H70       1.0  0.94178  0.71758  0.40784  1.0000
  H   H71       1.0  0.02772  0.95506  0.48025  1.0000
  H   H72       1.0  0.64339  0.38360  0.49240  1.0000
  C  Sn1       1.0  0.78226  0.26078  0.91876  1.0000
  C   C115      1.0  0.74401  0.25167  0.94034  1.0000
  C  Sn2       1.0  0.57683  0.13810  0.00839  1.0000
  C  Sn3       1.0  0.59627  0.11310  0.05599  1.0000
  C   C116      1.0  0.63450  0.12222  0.03444  1.0000
  C  Sn4       1.0  0.80169  0.23578  0.96637  1.0000
  O  Te1       1.0  0.80090  0.29452  0.85049  1.0000
  O  Te2       1.0  0.53859  0.12959  0.02868  1.0000
  O  Te3       1.0  0.57759  0.07933  0.12430  1.0000
  O  Te4       1.0  0.83992  0.24429  0.94610  1.0000
  Mg  Mg1       1.0  0.52552  0.08026  0.12732  1.0000
  Mg  Mg2       1.0  0.85304  0.29363  0.84757  1.0000
  C  Sn5       1.0  0.46432  0.20379  0.90989  1.0000
  C   C117      1.0  0.50202  0.24795  0.96029  1.0000
  C  Sn6       1.0  0.35694  0.20135  0.05461  1.0000
  C  Sn7       1.0  0.32142  0.19034  0.09961  1.0000
  C   C118      1.0  0.28376  0.14621  0.04926  1.0000
  C  Sn8       1.0  0.42879  0.19279  0.95490  1.0000
  O  Te5       1.0  0.46215  0.17098  0.81567  1.0000
  O  Te6       1.0  0.39496  0.24526  0.10348  1.0000
  O  Te7       1.0  0.32362  0.22320  0.19391  1.0000
  O  Te8       1.0  0.39081  0.14890  0.90607  1.0000
  Mg  Mg3       1.0  0.38231  0.27818  0.23075  1.0000
  Mg  Mg4       1.0  0.40344  0.11596  0.77889  1.0000
  C  Sn9       1.0  0.22441  0.16156  0.09361  1.0000
  C   C119      1.0  0.24627  0.14371  0.06160  1.0000
  C  Sn10      1.0  0.36538  0.17884  0.95939  1.0000
  C  Sn11      1.0  0.31359  0.15126  0.88756  1.0000
  C   C120      1.0  0.29176  0.16911  0.91956  1.0000
  C  Sn12      1.0  0.17262  0.13398  0.02179  1.0000
  O  Te9       1.0  0.25396  0.20648  0.19616  1.0000
  O  Te10      1.0  0.38808  0.16175  0.92926  1.0000
  O  Te11      1.0  0.28405  0.10631  0.78495  1.0000
  O  Te12      1.0  0.14995  0.15107  0.05190  1.0000
  Mg  Mg5       1.0  0.33211  0.09851  0.78100  1.0000
  Mg  Mg6       1.0  0.20587  0.21432  0.20004  1.0000
  C  Sn13      1.0  0.74853  0.55006  0.51214  1.0000
  C   C121      1.0  0.79507  0.57483  0.53622  1.0000
  C  Sn14      1.0  0.81681  0.55468  0.52391  1.0000
  C  Sn15      1.0  0.79148  0.50881  0.48663  1.0000
  C   C122      1.0  0.74496  0.48406  0.46254  1.0000
  C  Sn16      1.0  0.72320  0.50419  0.47486  1.0000
  O  Te13      1.0  0.72750  0.57088  0.52504  1.0000
  O  Te14      1.0  0.86338  0.58013  0.54857  1.0000
  O  Te15      1.0  0.81255  0.48799  0.47375  1.0000
  O  Te16      1.0  0.67666  0.47876  0.45019  1.0000
  Mg  Mg7       1.0  0.87667  0.53669  0.51780  1.0000
  Mg  Mg8       1.0  0.66332  0.52216  0.48083  1.0000
  C  Sn17      1.0  0.83470  0.04884  0.49621  1.0000
  C   C123      1.0  0.85652  0.09368  0.53210  1.0000
  C  Sn18      1.0  0.90120  0.12107  0.54445  1.0000
  C  Sn19      1.0  0.92454  0.10325  0.52032  1.0000
  C   C124      1.0  0.90271  0.05843  0.48442  1.0000
  C  Sn20      1.0  0.36819  0.03102  0.47207  1.0000
  O  Te17      1.0  0.30018  0.02207  0.48443  1.0000
  O  Te18      1.0  0.92231  0.16580  0.58052  1.0000
  O  Te19      1.0  0.96924  0.13006  0.53214  1.0000
  O  Te20      1.0  0.34707  0.98631  0.43600  1.0000
  Mg  Mg9       1.0  0.98346  0.18888  0.58364  1.0000
  Mg  Mg10      1.0  0.28591  0.96320  0.43275  1.0000
  C  Sn21      1.0  0.11028  0.89418  0.98594  1.0000
  C   C125      1.0  0.08795  0.91626  0.94625  1.0000
  C  Sn22      1.0  0.04774  0.90215  0.96218  1.0000
  C  Sn23      1.0  0.88151  0.78525  0.01909  1.0000
  C   C126      1.0  0.90384  0.76320  0.05877  1.0000
  C  Sn24      1.0  0.94405  0.77728  0.04284  1.0000
  O  Te21      1.0  0.15044  0.90887  0.96908  1.0000
  O  Te22      1.0  0.02602  0.92474  0.92168  1.0000
  O  Te23      1.0  0.84132  0.77058  0.03592  1.0000
  O  Te24      1.0  0.96577  0.75472  0.08333  1.0000
  Mg  Mg11      1.0  0.97221  0.89217  0.96536  1.0000
  Mg  Mg12      1.0  0.01960  0.78727  0.03980  1.0000
