data_image0
_chemical_formula_structural       C6N3CNCNC9H15C6N3CNCNC9H15C6N3CNCNC9H15C6N3CNCNC9H15C6N3CNCNC9H15C6N3CNCNC9H15C2Sn2C2HTe2HMgC2Sn2C2HTe2HMgC2Sn2C2HTe2HMgC2Sn2C2HTe2HMgC2Sn2C2HTe2HMgC2Sn2C2HTe2HMgC2Sn2C2HTe2HMgC2Sn2C2HTe2HMgC2Sn2C2HTe2HMgC2Sn2C2HTe2HMgC2Sn2C2HTe2HMgC2Sn2C2HTe2HMg
_chemical_formula_sum              "C150 N30 H114 Sn24 Te24 Mg12"
_cell_length_a       37.3021
_cell_length_b       37.3375
_cell_length_c       7.97114
_cell_angle_alpha    89.7753
_cell_angle_beta     88.9401
_cell_angle_gamma    120.249

_symmetry_space_group_name_H-M    'P1'
_space_group_IT_number       1

loop_
  _space_group_symop_operation_xyz
  'x, y, z'

loop_
  _atom_site_type_symbol
  _atom_site_label
  _atom_site_symmetry_multiplicity
  _atom_site_fract_x
  _atom_site_fract_y
  _atom_site_fract_z
  _atom_site_occupancy
  C   C1        1.0  0.31110  0.12791  0.36654  1.0000
  C   C2        1.0  0.35416  0.14757  0.38870  1.0000
  C   C3        1.0  0.37761  0.18850  0.44473  1.0000
  C   C4        1.0  0.35442  0.20774  0.48064  1.0000
  C   C5        1.0  0.31087  0.18838  0.46009  1.0000
  C   C6        1.0  0.28805  0.14752  0.39974  1.0000
  N   N1        1.0  0.11274  0.07335  0.34366  1.0000
  N   N2        1.0  0.55199  0.26111  0.53218  1.0000
  N   N3        1.0  0.36549  0.24563  0.55227  1.0000
  C   C7        1.0  0.32971  0.24757  0.57411  1.0000
  N   N4        1.0  0.29663  0.21415  0.51896  1.0000
  C   C8        1.0  0.32904  0.28239  0.66309  1.0000
  N   N5        1.0  0.36716  0.32352  0.62774  1.0000
  C   C9        1.0  0.35342  0.35372  0.58930  1.0000
  C   C10       1.0  0.30785  0.33328  0.64858  1.0000
  C   C11       1.0  0.29173  0.28720  0.61795  1.0000
  C   C12       1.0  0.08713  0.03400  0.33722  1.0000
  C   C13       1.0  0.57807  0.30025  0.54390  1.0000
  C   C14       1.0  0.04221  0.01694  0.33639  1.0000
  C   C15       1.0  0.62289  0.31636  0.54352  1.0000
  C   C16       1.0  0.02500  0.04297  0.33792  1.0000
  C   C17       1.0  0.65037  0.35914  0.54667  1.0000
  H   H1        1.0  0.29493  0.09659  0.31799  1.0000
  H   H2        1.0  0.37033  0.13089  0.35841  1.0000
  H   H3        1.0  0.39452  0.26813  0.58152  1.0000
  H   H4        1.0  0.32683  0.27517  0.79851  1.0000
  H   H5        1.0  0.38416  0.33268  0.73394  1.0000
  H   H6        1.0  0.35598  0.35987  0.45309  1.0000
  H   H7        1.0  0.37368  0.38333  0.64983  1.0000
  H   H8        1.0  0.29042  0.34523  0.58211  1.0000
  H   H9        1.0  0.30604  0.33852  0.78317  1.0000
  H   H10       1.0  0.28390  0.27934  0.48606  1.0000
  H   H11       1.0  0.26403  0.26608  0.69336  1.0000
  H   H12       1.0  0.09751  0.01117  0.32964  1.0000
  H   H13       1.0  0.56803  0.32332  0.55348  1.0000
  H   H14       1.0  0.04591  0.07639  0.34050  1.0000
  H   H15       1.0  0.63911  0.38092  0.55420  1.0000
  C   C18       1.0  0.87278  0.18414  0.36948  1.0000
  C   C19       1.0  0.85287  0.20727  0.39051  1.0000
  C   C20       1.0  0.81140  0.18937  0.44736  1.0000
  C   C21       1.0  0.79180  0.14691  0.48727  1.0000
  C   C22       1.0  0.81143  0.12305  0.46602  1.0000
  C   C23       1.0  0.85260  0.14136  0.40308  1.0000
  N   N6        1.0  0.92551  0.03968  0.34895  1.0000
  N   N7        1.0  0.73702  0.29003  0.50539  1.0000
  N   N8        1.0  0.75374  0.11985  0.56420  1.0000
  C   C24       1.0  0.75227  0.08248  0.58861  1.0000
  N   N9        1.0  0.78585  0.08305  0.52925  1.0000
  C   C25       1.0  0.71851  0.04757  0.68956  1.0000
  N   N10       1.0  0.67814  0.04671  0.68377  1.0000
  C   C26       1.0  0.64719  0.00549  0.62027  1.0000
  C   C27       1.0  0.66374  0.97623  0.66125  1.0000
  C   C28       1.0  0.71066  0.00464  0.63362  1.0000
  C   C29       1.0  0.96497  0.05383  0.33920  1.0000
  C   C30       1.0  0.69781  0.27634  0.52387  1.0000
  C   C31       1.0  0.98203  0.02618  0.33645  1.0000
  C   C32       1.0  0.68164  0.30481  0.52956  1.0000
  C   C33       1.0  0.95578  0.98281  0.33154  1.0000
  C   C34       1.0  0.63884  0.28924  0.53535  1.0000
  H   H16       1.0  0.90468  0.19963  0.32186  1.0000
  H   H17       1.0  0.86966  0.24020  0.35849  1.0000
  H   H18       1.0  0.73078  0.12551  0.59878  1.0000
  H   H19       1.0  0.72912  0.05261  0.81995  1.0000
  H   H20       1.0  0.66988  0.04954  0.80368  1.0000
  H   H21       1.0  0.64512  0.00764  0.48311  1.0000
  H   H22       1.0  0.61634  0.99574  0.67467  1.0000
  H   H23       1.0  0.65103  0.94869  0.58193  1.0000
  H   H24       1.0  0.65628  0.96554  0.79263  1.0000
  H   H25       1.0  0.71946  0.00605  0.50062  1.0000
  H   H26       1.0  0.72958  0.99515  0.70385  1.0000
  H   H27       1.0  0.98785  0.08724  0.33180  1.0000
  H   H28       1.0  0.67476  0.24312  0.53975  1.0000
  H   H29       1.0  0.92241  0.97041  0.32793  1.0000
  H   H30       1.0  0.61694  0.25602  0.53194  1.0000
  C   C35       1.0  0.81945  0.68707  0.35381  1.0000
  C   C36       1.0  0.79669  0.64416  0.38374  1.0000
  C   C37       1.0  0.81476  0.62168  0.44481  1.0000
  C   C38       1.0  0.85725  0.64574  0.47783  1.0000
  C   C39       1.0  0.88083  0.68931  0.44876  1.0000
  C   C40       1.0  0.86208  0.71096  0.38365  1.0000
  N   N11       1.0  0.95927  0.88674  0.32706  1.0000
  N   N12       1.0  0.71034  0.44649  0.52692  1.0000
  N   N13       1.0  0.88470  0.63604  0.55220  1.0000
  C   C41       1.0  0.92194  0.67260  0.56854  1.0000
  N   N14       1.0  0.92098  0.70493  0.50596  1.0000
  C   C42       1.0  0.95673  0.67460  0.66610  1.0000
  N   N15       1.0  0.95627  0.63446  0.66742  1.0000
  C   C43       1.0  0.99613  0.64291  0.58974  1.0000
  C   C44       1.0  0.02720  0.68876  0.62401  1.0000
  C   C45       1.0  0.00033  0.70883  0.60263  1.0000
  C   C46       1.0  0.94480  0.91166  0.32610  1.0000
  C   C47       1.0  0.72284  0.42001  0.53399  1.0000
  C   C48       1.0  0.97238  0.95660  0.33048  1.0000
  C   C49       1.0  0.69366  0.37531  0.53814  1.0000
  C   C50       1.0  0.01579  0.97401  0.33377  1.0000
  C   C51       1.0  0.70895  0.34803  0.52979  1.0000
  H   H31       1.0  0.80392  0.70245  0.30115  1.0000
  H   H32       1.0  0.76386  0.62711  0.35524  1.0000
  H   H33       1.0  0.87931  0.60800  0.59377  1.0000
  H   H34       1.0  0.95154  0.68144  0.79549  1.0000
  H   H35       1.0  0.95501  0.62566  0.79011  1.0000
  H   H36       1.0  0.99257  0.63811  0.45309  1.0000
  H   H37       1.0  0.00513  0.62123  0.63959  1.0000
  H   H38       1.0  0.05488  0.70238  0.54099  1.0000
  H   H39       1.0  0.03787  0.69201  0.75358  1.0000
  H   H40       1.0  0.99913  0.71644  0.47054  1.0000
  H   H41       1.0  0.01120  0.73757  0.67274  1.0000
  H   H42       1.0  0.91134  0.90067  0.32179  1.0000
  H   H43       1.0  0.75595  0.42941  0.53596  1.0000
  H   H44       1.0  0.02815  0.95309  0.33366  1.0000
  H   H45       1.0  0.74217  0.35942  0.52224  1.0000
  C   C52       1.0  0.31130  0.12804  0.86580  1.0000
  C   C53       1.0  0.35418  0.14778  0.89046  1.0000
  C   C54       1.0  0.37730  0.18858  0.94838  1.0000
  C   C55       1.0  0.35408  0.20790  0.98335  1.0000
  C   C56       1.0  0.31063  0.18840  0.95890  1.0000
  C   C57       1.0  0.28823  0.14765  0.89759  1.0000
  N   N16       1.0  0.11327  0.07359  0.83736  1.0000
  N   N17       1.0  0.55171  0.25966  0.02684  1.0000
  N   N18       1.0  0.36445  0.24549  0.05662  1.0000
  C   C58       1.0  0.32835  0.24694  0.07597  1.0000
  N   N19       1.0  0.29575  0.21376  0.01636  1.0000
  C   C59       1.0  0.32651  0.28000  0.17425  1.0000
  N   N20       1.0  0.36677  0.31993  0.17102  1.0000
  C   C60       1.0  0.35839  0.35123  0.09667  1.0000
  C   C61       1.0  0.31246  0.33609  0.13744  1.0000
  C   C62       1.0  0.29254  0.28914  0.11522  1.0000
  C   C63       1.0  0.08765  0.03423  0.83441  1.0000
  C   C64       1.0  0.57736  0.29881  0.04149  1.0000
  C   C65       1.0  0.04279  0.01733  0.83251  1.0000
  C   C66       1.0  0.62229  0.31584  0.04026  1.0000
  C   C67       1.0  0.02589  0.04366  0.83277  1.0000
  C   C68       1.0  0.64877  0.35878  0.04404  1.0000
  H   H46       1.0  0.29536  0.09676  0.81676  1.0000
  H   H47       1.0  0.37059  0.13136  0.86006  1.0000
  H   H48       1.0  0.39262  0.26786  0.09575  1.0000
  H   H49       1.0  0.31921  0.26817  0.30443  1.0000
  H   H50       1.0  0.37553  0.32761  0.29254  1.0000
  H   H51       1.0  0.36329  0.35238  0.95933  1.0000
  H   H52       1.0  0.38015  0.38210  0.14383  1.0000
  H   H53       1.0  0.29897  0.34998  0.05687  1.0000
  H   H54       1.0  0.30882  0.34327  0.26802  1.0000
  H   H55       1.0  0.28582  0.28086  0.98305  1.0000
  H   H56       1.0  0.26332  0.27078  0.18646  1.0000
  H   H57       1.0  0.09809  0.01138  0.83161  1.0000
  H   H58       1.0  0.56683  0.32146  0.05404  1.0000
  H   H59       1.0  0.04716  0.07702  0.83565  1.0000
  H   H60       1.0  0.63635  0.37963  0.05070  1.0000
  C   C69       1.0  0.87266  0.18405  0.86841  1.0000
  C   C70       1.0  0.85295  0.20740  0.88923  1.0000
  C   C71       1.0  0.81169  0.19003  0.94824  1.0000
  C   C72       1.0  0.79206  0.14762  0.98932  1.0000
  C   C73       1.0  0.81150  0.12350  0.96913  1.0000
  C   C74       1.0  0.85259  0.14141  0.90520  1.0000
  N   N21       1.0  0.92638  0.04046  0.84162  1.0000
  N   N22       1.0  0.73868  0.29225  0.00654  1.0000
  N   N23       1.0  0.75380  0.12070  0.06484  1.0000
  C   C75       1.0  0.75179  0.08306  0.08859  1.0000
  N   N24       1.0  0.78547  0.08348  0.03125  1.0000
  C   C76       1.0  0.71726  0.04785  0.18557  1.0000
  N   N25       1.0  0.67631  0.04549  0.16749  1.0000
  C   C77       1.0  0.64609  0.00256  0.11663  1.0000
  C   C78       1.0  0.66462  0.97568  0.16797  1.0000
  C   C79       1.0  0.71117  0.00525  0.13598  1.0000
  C   C80       1.0  0.96588  0.05481  0.83223  1.0000
  C   C81       1.0  0.69929  0.27850  0.01740  1.0000
  C   C82       1.0  0.98297  0.02714  0.82990  1.0000
  C   C83       1.0  0.68243  0.30640  0.02598  1.0000
  C   C84       1.0  0.95654  0.98378  0.82595  1.0000
  C   C85       1.0  0.63941  0.28975  0.03173  1.0000
  H   H61       1.0  0.90433  0.19921  0.81797  1.0000
  H   H62       1.0  0.86965  0.24007  0.85354  1.0000
  H   H63       1.0  0.73090  0.12674  0.09573  1.0000
  H   H64       1.0  0.72603  0.05324  0.31833  1.0000
  H   H65       1.0  0.66731  0.05042  0.28265  1.0000
  H   H66       1.0  0.64265  0.00173  0.97948  1.0000
  H   H67       1.0  0.61547  0.99268  0.17360  1.0000
  H   H68       1.0  0.65249  0.94689  0.09684  1.0000
  H   H69       1.0  0.65797  0.96718  0.30165  1.0000
  H   H70       1.0  0.71946  0.00571  0.00284  1.0000
  H   H71       1.0  0.73135  0.99763  0.20746  1.0000
  H   H72       1.0  0.98864  0.08826  0.82549  1.0000
  H   H73       1.0  0.67611  0.24516  0.02315  1.0000
  H   H74       1.0  0.92320  0.97165  0.82302  1.0000
  H   H75       1.0  0.61831  0.25635  0.02934  1.0000
  C   C86       1.0  0.81579  0.68840  0.86227  1.0000
  C   C87       1.0  0.79237  0.64538  0.89071  1.0000
  C   C88       1.0  0.80998  0.62210  0.94751  1.0000
  C   C89       1.0  0.85273  0.64542  0.97674  1.0000
  C   C90       1.0  0.87690  0.68895  0.94928  1.0000
  C   C91       1.0  0.85865  0.71152  0.88910  1.0000
  N   N26       1.0  0.95884  0.88716  0.83007  1.0000
  N   N27       1.0  0.70673  0.44676  0.03149  1.0000
  N   N28       1.0  0.87990  0.63473  0.04681  1.0000
  C   C92       1.0  0.91780  0.67075  0.06168  1.0000
  N   N29       1.0  0.91718  0.70358  0.00296  1.0000
  C   C93       1.0  0.95360  0.67210  0.14936  1.0000
  N   N30       1.0  0.95832  0.63519  0.11550  1.0000
  C   C94       1.0  0.00308  0.65095  0.07720  1.0000
  C   C95       1.0  0.02657  0.69584  0.13759  1.0000
  C   C96       1.0  0.99575  0.71050  0.10189  1.0000
  C   C97       1.0  0.94486  0.91243  0.82469  1.0000
  C   C98       1.0  0.72024  0.42106  0.03657  1.0000
  C   C99       1.0  0.97284  0.95734  0.82621  1.0000
  C   C100      1.0  0.69221  0.37612  0.03777  1.0000
  C   C101      1.0  0.01619  0.97444  0.82980  1.0000
  C   C102      1.0  0.70870  0.34981  0.02890  1.0000
  H   H76       1.0  0.80047  0.70445  0.81428  1.0000
  H   H77       1.0  0.75936  0.62912  0.86496  1.0000
  H   H78       1.0  0.87318  0.60587  0.08239  1.0000
  H   H79       1.0  0.94766  0.67325  0.28479  1.0000
  H   H80       1.0  0.95009  0.61731  0.22197  1.0000
  H   H81       1.0  0.00774  0.65067  0.94060  1.0000
  H   H82       1.0  0.01304  0.63072  0.13435  1.0000
  H   H83       1.0  0.05679  0.71469  0.07325  1.0000
  H   H84       1.0  0.03196  0.69664  0.27293  1.0000
  H   H85       1.0  0.99655  0.71820  0.96828  1.0000
  H   H86       1.0  0.00093  0.73774  0.17285  1.0000
  H   H87       1.0  0.91150  0.90182  0.81844  1.0000
  H   H88       1.0  0.75359  0.43153  0.03900  1.0000
  H   H89       1.0  0.02833  0.95333  0.83052  1.0000
  H   H90       1.0  0.74213  0.36232  0.02412  1.0000
  C   C103      1.0  0.21587  0.14751  0.27935  1.0000
  C   C104      1.0  0.23906  0.13389  0.36658  1.0000
  C  Sn1       1.0  0.21931  0.09518  0.44770  1.0000
  C  Sn2       1.0  0.17553  0.06970  0.44111  1.0000
  C   C105      1.0  0.15261  0.08360  0.35341  1.0000
  C   C106      1.0  0.17269  0.12239  0.27273  1.0000
  H   H91       1.0  0.23141  0.17752  0.21684  1.0000
  O  Te1       1.0  0.24295  0.08206  0.53434  1.0000
  O  Te2       1.0  0.15500  0.03087  0.52102  1.0000
  H   H92       1.0  0.15473  0.13291  0.20511  1.0000
  Mg  Mg1       1.0  0.20076  0.02668  0.62322  1.0000
  C   C107      1.0  0.44830  0.18672  0.57080  1.0000
  C   C108      1.0  0.42599  0.20379  0.50148  1.0000
  C  Sn3       1.0  0.44687  0.24336  0.42777  1.0000
  C  Sn4       1.0  0.49091  0.26619  0.42352  1.0000
  C   C109      1.0  0.51295  0.24883  0.49311  1.0000
  C   C110      1.0  0.49174  0.20921  0.56661  1.0000
  H   H93       1.0  0.43190  0.15605  0.62759  1.0000
  O  Te3       1.0  0.42410  0.25996  0.35916  1.0000
  O  Te4       1.0  0.51257  0.30580  0.35057  1.0000
  H   H94       1.0  0.50902  0.19599  0.62017  1.0000
  Mg  Mg2       1.0  0.46769  0.31512  0.27373  1.0000
  C   C111      1.0  0.92086  0.12826  0.46231  1.0000
  C   C112      1.0  0.88430  0.12212  0.39066  1.0000
  C  Sn5       1.0  0.85880  0.08562  0.30513  1.0000
  C  Sn6       1.0  0.87017  0.05475  0.29134  1.0000
  C   C113      1.0  0.90678  0.06117  0.36356  1.0000
  C   C114      1.0  0.93209  0.09781  0.44882  1.0000
  H   H95       1.0  0.94043  0.15660  0.52836  1.0000
  O  Te5       1.0  0.82239  0.08000  0.23423  1.0000
  O  Te6       1.0  0.84524  0.01797  0.20661  1.0000
  H   H96       1.0  0.96037  0.10254  0.50437  1.0000
  Mg  Mg3       1.0  0.79865  0.02468  0.13114  1.0000
  C   C115      1.0  0.73188  0.21473  0.39857  1.0000
  C   C116      1.0  0.74543  0.25210  0.48196  1.0000
  C  Sn7       1.0  0.78417  0.27188  0.55709  1.0000
  C  Sn8       1.0  0.80974  0.25385  0.54833  1.0000
  C   C117      1.0  0.79591  0.21648  0.46451  1.0000
  C   C118      1.0  0.75710  0.19694  0.38981  1.0000
  H   H97       1.0  0.70186  0.19963  0.34070  1.0000
  O  Te7       1.0  0.79722  0.30919  0.63996  1.0000
  O  Te8       1.0  0.84860  0.27297  0.62226  1.0000
  H   H98       1.0  0.74662  0.16802  0.32516  1.0000
  Mg  Mg4       1.0  0.85267  0.32343  0.72106  1.0000
  C   C119      1.0  0.88302  0.81435  0.42432  1.0000
  C   C120      1.0  0.92339  0.83969  0.36071  1.0000
  C  Sn9       1.0  0.94471  0.82216  0.28310  1.0000
  C  Sn10      1.0  0.92515  0.77845  0.26905  1.0000
  C   C121      1.0  0.88474  0.75337  0.33298  1.0000
  C   C122      1.0  0.86370  0.77123  0.41045  1.0000
  H   H99       1.0  0.86673  0.82816  0.48418  1.0000
  O  Te9       1.0  0.98504  0.84793  0.22030  1.0000
  O  Te10      1.0  0.94573  0.76012  0.19203  1.0000
  H   H100      1.0  0.83243  0.75161  0.45959  1.0000
  Mg  Mg5       1.0  0.00032  0.80829  0.12602  1.0000
  C   C123      1.0  0.74015  0.54967  0.56480  1.0000
  C   C124      1.0  0.78085  0.57277  0.50148  1.0000
  C  Sn11      1.0  0.80055  0.55280  0.43095  1.0000
  C  Sn12      1.0  0.77901  0.50888  0.42381  1.0000
  C   C125      1.0  0.73829  0.48604  0.48738  1.0000
  C   C126      1.0  0.71888  0.50634  0.55774  1.0000
  H   H101      1.0  0.72512  0.56537  0.61915  1.0000
  O  Te11      1.0  0.84123  0.57636  0.36834  1.0000
  O  Te12      1.0  0.79795  0.48813  0.35393  1.0000
  H   H102      1.0  0.68735  0.48845  0.60665  1.0000
  Mg  Mg6       1.0  0.85379  0.53385  0.28520  1.0000
  C   C127      1.0  0.21636  0.14717  0.77164  1.0000
  C   C128      1.0  0.23945  0.13398  0.86217  1.0000
  C  Sn13      1.0  0.21963  0.09560  0.94586  1.0000
  C  Sn14      1.0  0.17587  0.07001  0.93851  1.0000
  C   C129      1.0  0.15305  0.08348  0.84751  1.0000
  C   C130      1.0  0.17320  0.12194  0.76428  1.0000
  H   H103      1.0  0.23194  0.17692  0.70716  1.0000
  O  Te13      1.0  0.24904  0.08670  0.03578  1.0000
  O  Te14      1.0  0.16114  0.03529  0.02094  1.0000
  H   H104      1.0  0.15531  0.13213  0.69411  1.0000
  Mg  Mg7       1.0  0.20677  0.03164  0.12722  1.0000
  C   C131      1.0  0.44798  0.18496  0.06183  1.0000
  C   C132      1.0  0.42562  0.20289  0.00117  1.0000
  C  Sn15      1.0  0.44059  0.23939  0.93413  1.0000
  C  Sn16      1.0  0.48462  0.26205  0.92783  1.0000
  C   C133      1.0  0.50671  0.24383  0.98873  1.0000
  C   C134      1.0  0.49142  0.20729  0.05560  1.0000
  H   H105      1.0  0.43162  0.15376  0.11348  1.0000
  O  Te15      1.0  0.41776  0.25684  0.87413  1.0000
  O  Te16      1.0  0.50623  0.30236  0.86143  1.0000
  H   H106      1.0  0.50874  0.19341  0.10246  1.0000
  Mg  Mg8       1.0  0.46130  0.31272  0.79533  1.0000
  C   C135      1.0  0.86147  0.05464  0.78508  1.0000
  C   C136      1.0  0.90100  0.06367  0.83259  1.0000
  C  Sn17      1.0  0.92681  0.10027  0.91692  1.0000
  C  Sn18      1.0  0.91268  0.12829  0.95425  1.0000
  C   C137      1.0  0.87307  0.11897  0.90630  1.0000
  C   C138      1.0  0.84750  0.08226  0.82191  1.0000
  H   H107      1.0  0.84168  0.02623  0.71987  1.0000
  O  Te17      1.0  0.96623  0.10881  0.96342  1.0000
  O  Te18      1.0  0.94370  0.16888  0.03846  1.0000
  H   H108      1.0  0.81688  0.07527  0.78524  1.0000
  Mg  Mg9       1.0  0.99492  0.16674  0.07586  1.0000
  C   C139      1.0  0.74205  0.20231  0.90071  1.0000
  C   C140      1.0  0.78178  0.21152  0.94613  1.0000
  C  Sn19      1.0  0.81398  0.25247  0.02596  1.0000
  C  Sn20      1.0  0.80019  0.28087  0.06084  1.0000
  C   C141      1.0  0.76038  0.27136  0.01500  1.0000
  C   C142      1.0  0.72842  0.23030  0.93512  1.0000
  H   H109      1.0  0.72186  0.17346  0.83899  1.0000
  O  Te19      1.0  0.85358  0.26119  0.07044  1.0000
  O  Te20      1.0  0.82586  0.31823  0.14055  1.0000
  H   H110      1.0  0.69766  0.22316  0.90006  1.0000
  Mg  Mg10      1.0  0.87715  0.31614  0.17667  1.0000
  C   C143      1.0  0.88266  0.81590  0.93634  1.0000
  C   C144      1.0  0.92263  0.84050  0.86754  1.0000
  C  Sn21      1.0  0.94262  0.82215  0.78563  1.0000
  C  Sn22      1.0  0.92215  0.77837  0.77251  1.0000
  C   C145      1.0  0.88216  0.75404  0.84166  1.0000
  C   C146      1.0  0.86244  0.77271  0.92340  1.0000
  H   H111      1.0  0.86740  0.83035  0.99951  1.0000
  O  Te21      1.0  0.98256  0.84718  0.71766  1.0000
  O  Te22      1.0  0.94141  0.75922  0.69126  1.0000
  H   H112      1.0  0.83148  0.75367  0.97656  1.0000
  Mg  Mg11      1.0  0.99593  0.80658  0.61893  1.0000
  C   C147      1.0  0.78281  0.51622  0.91161  1.0000
  C   C148      1.0  0.75136  0.49690  0.00240  1.0000
  C  Sn23      1.0  0.73240  0.51671  0.08075  1.0000
  C  Sn24      1.0  0.75120  0.56046  0.06769  1.0000
  C   C149      1.0  0.78264  0.57951  0.97647  1.0000
  C   C150      1.0  0.80136  0.55937  0.89862  1.0000
  H   H113      1.0  0.79729  0.50064  0.85130  1.0000
  O  Te23      1.0  0.69514  0.49315  0.17101  1.0000
  O  Te24      1.0  0.73290  0.58105  0.14470  1.0000
  H   H114      1.0  0.83024  0.57727  0.82825  1.0000
  Mg  Mg12      1.0  0.68216  0.53540  0.25381  1.0000
