data_image0
_chemical_formula_structural       C6NCNCNC3N2C6O2H15C6NCNCNC3N2C6O2H15C6NCNCNC3N2C6O2H15C6NCNCNC3N2C6O2H15C6NCNCNC3N2C6O2H15C6NCNCNC3N2C6O2H15SnCSn2CSnTe4Mg2SnCSn2CSnTe4Mg2SnCSn2CSnTe4Mg2SnCSn2CSnTe4Mg2SnCSn2CSnTe4Mg2SnCSn2CSnTe4Mg2SnCSn2CSnTe4Mg2SnCSn2CSnTe4Mg2SnCSn2CSnTe4Mg2SnCSn2CSnTe4Mg2SnCSn2CSnTe4Mg2SnCSn2CSnTe4Mg2
_chemical_formula_sum              "C126 N30 O12 H90 Sn48 Te48 Mg24"
_cell_length_a       37.1697
_cell_length_b       37.5879
_cell_length_c       8.05465
_cell_angle_alpha    91.2724
_cell_angle_beta     69.8623
_cell_angle_gamma    120.771

_symmetry_space_group_name_H-M    'P1'
_space_group_IT_number       1

loop_
  _space_group_symop_operation_xyz
  'x, y, z'

loop_
  _atom_site_type_symbol
  _atom_site_label
  _atom_site_symmetry_multiplicity
  _atom_site_fract_x
  _atom_site_fract_y
  _atom_site_fract_z
  _atom_site_occupancy
  C   C1        1.0  0.31578  0.12252  0.87208  1.0000
  C   C2        1.0  0.36015  0.14580  0.86563  1.0000
  C   C3        1.0  0.37750  0.18432  0.92481  1.0000
  C   C4        1.0  0.34579  0.19604  0.99799  1.0000
  C   C5        1.0  0.30012  0.17260  0.00943  1.0000
  C   C6        1.0  0.28394  0.13448  0.94097  1.0000
  N   N1        1.0  0.34980  0.22983  0.08001  1.0000
  C   C7        1.0  0.30833  0.22584  0.14099  1.0000
  N   N2        1.0  0.27790  0.19249  0.09914  1.0000
  C   C8        1.0  0.30114  0.25500  0.25964  1.0000
  N   N3        1.0  0.34587  0.29231  0.24453  1.0000
  C   C9        1.0  0.34784  0.33062  0.18955  1.0000
  C   C10       1.0  0.29829  0.31831  0.25195  1.0000
  C   C11       1.0  0.27349  0.27221  0.22752  1.0000
  N   N4        1.0  0.11285  0.03741  0.87416  1.0000
  N   N5        1.0  0.55423  0.28368  0.93759  1.0000
  C   C12       1.0  0.08608  0.04994  0.85990  1.0000
  C   C13       1.0  0.58091  0.27164  0.95798  1.0000
  C   C14       1.0  0.04800  0.02398  0.82046  1.0000
  C   C15       1.0  0.62002  0.29887  0.98852  1.0000
  C   C16       1.0  0.02249  0.04172  0.80132  1.0000
  C   C17       1.0  0.64631  0.28177  0.00634  1.0000
  O   O1        1.0  0.03591  0.07990  0.81686  1.0000
  O   O2        1.0  0.63348  0.24356  0.99519  1.0000
  H   H1        1.0  0.30613  0.09419  0.81465  1.0000
  H   H2        1.0  0.38249  0.13438  0.80706  1.0000
  H   H3        1.0  0.37631  0.25198  0.10926  1.0000
  H   H4        1.0  0.28336  0.23647  0.39750  1.0000
  H   H5        1.0  0.34799  0.29231  0.36751  1.0000
  H   H6        1.0  0.36516  0.34091  0.04189  1.0000
  H   H7        1.0  0.36820  0.35662  0.24685  1.0000
  H   H8        1.0  0.29381  0.33856  0.17569  1.0000
  H   H9        1.0  0.28568  0.32028  0.39450  1.0000
  H   H10       1.0  0.27349  0.27080  0.09167  1.0000
  H   H11       1.0  0.23788  0.25351  0.32152  1.0000
  H   H12       1.0  0.10148  0.00665  0.84907  1.0000
  H   H13       1.0  0.56742  0.31565  0.94594  1.0000
  H   H14       1.0  0.09433  0.08166  0.87786  1.0000
  H   H15       1.0  0.57246  0.23953  0.94865  1.0000
  C   C18       1.0  0.88628  0.19040  0.74976  1.0000
  C   C19       1.0  0.86046  0.20897  0.78992  1.0000
  C   C20       1.0  0.81514  0.18743  0.91406  1.0000
  C   C21       1.0  0.79809  0.14646  0.99547  1.0000
  C   C22       1.0  0.82355  0.12710  0.95585  1.0000
  C   C23       1.0  0.86885  0.14913  0.82947  1.0000
  N   N6        1.0  0.75698  0.11716  0.13108  1.0000
  C   C24       1.0  0.75950  0.08313  0.16875  1.0000
  N   N7        1.0  0.79836  0.08748  0.06568  1.0000
  C   C25       1.0  0.72205  0.04712  0.31991  1.0000
  N   N8        1.0  0.68187  0.05094  0.39723  1.0000
  C   C26       1.0  0.64418  0.01406  0.36716  1.0000
  C   C27       1.0  0.65383  0.97885  0.36546  1.0000
  C   C28       1.0  0.70560  0.00330  0.26362  1.0000
  N   N9        1.0  0.96687  0.06971  0.76724  1.0000
  N   N10       1.0  0.70585  0.25722  0.02909  1.0000
  C   C29       1.0  0.95572  0.03026  0.75016  1.0000
  C   C30       1.0  0.71550  0.29632  0.04593  1.0000
  C   C31       1.0  0.98198  0.01507  0.76424  1.0000
  C   C32       1.0  0.68751  0.30974  0.03673  1.0000
  C   C33       1.0  0.96634  0.97124  0.74718  1.0000
  C   C34       1.0  0.70190  0.35322  0.05575  1.0000
  O   O3        1.0  0.93023  0.94773  0.72015  1.0000
  O   O4        1.0  0.73804  0.37664  0.08371  1.0000
  H   H16       1.0  0.92074  0.20813  0.64841  1.0000
  H   H17       1.0  0.87535  0.24050  0.71829  1.0000
  H   H18       1.0  0.73030  0.11963  0.20474  1.0000
  H   H19       1.0  0.73581  0.04890  0.42285  1.0000
  H   H20       1.0  0.67419  0.05052  0.53251  1.0000
  H   H21       1.0  0.64473  0.02176  0.23441  1.0000
  H   H22       1.0  0.61139  0.00633  0.46906  1.0000
  H   H23       1.0  0.63544  0.95316  0.30185  1.0000
  H   H24       1.0  0.64427  0.96504  0.50415  1.0000
  H   H25       1.0  0.71482  0.00711  0.11732  1.0000
  H   H26       1.0  0.72175  0.98831  0.29547  1.0000
  H   H27       1.0  0.99756  0.08616  0.78734  1.0000
  H   H28       1.0  0.67481  0.23949  0.01249  1.0000
  H   H29       1.0  0.92517  0.00909  0.72572  1.0000
  H   H30       1.0  0.74636  0.31878  0.06606  1.0000
  C   C35       1.0  0.80441  0.67661  0.97791  1.0000
  C   C36       1.0  0.78230  0.63281  0.02205  1.0000
  C   C37       1.0  0.80130  0.61288  0.07281  1.0000
  C   C38       1.0  0.84312  0.64109  0.08598  1.0000
  C   C39       1.0  0.86638  0.68579  0.04058  1.0000
  C   C40       1.0  0.84767  0.70520  0.97995  1.0000
  N   N11       1.0  0.87143  0.63389  0.13618  1.0000
  C   C41       1.0  0.90860  0.67253  0.12417  1.0000
  N   N12       1.0  0.90728  0.70411  0.06476  1.0000
  C   C42       1.0  0.94464  0.67670  0.18188  1.0000
  N   N13       1.0  0.93659  0.63465  0.23139  1.0000
  C   C43       1.0  0.97408  0.63303  0.09596  1.0000
  C   C44       1.0  0.01536  0.67860  0.03856  1.0000
  C   C45       1.0  0.99396  0.70433  0.03679  1.0000
  N   N14       1.0  0.93868  0.88366  0.75952  1.0000
  N   N15       1.0  0.72443  0.43678  0.08449  1.0000
  C   C46       1.0  0.97810  0.91280  0.77184  1.0000
  C   C47       1.0  0.68658  0.40992  0.05787  1.0000
  C   C48       1.0  0.99334  0.95511  0.76486  1.0000
  C   C49       1.0  0.67409  0.36859  0.04146  1.0000
  C   C50       1.0  0.03521  0.98137  0.79550  1.0000
  C   C51       1.0  0.63324  0.34213  0.00534  1.0000
  O   O5        1.0  0.05887  0.96676  0.80381  1.0000
  O   O6        1.0  0.60968  0.35637  0.99083  1.0000
  H   H31       1.0  0.78795  0.68871  0.93047  1.0000
  H   H32       1.0  0.75045  0.61332  0.00446  1.0000
  H   H33       1.0  0.86365  0.60647  0.20111  1.0000
  H   H34       1.0  0.94204  0.69147  0.30051  1.0000
  H   H35       1.0  0.93792  0.63254  0.35516  1.0000
  H   H36       1.0  0.96505  0.62190  0.97991  1.0000
  H   H37       1.0  0.97910  0.61033  0.15180  1.0000
  H   H38       1.0  0.04212  0.68460  0.90814  1.0000
  H   H39       1.0  0.03041  0.68596  0.14020  1.0000
  H   H40       1.0  0.99319  0.70883  0.90434  1.0000
  H   H41       1.0  0.01220  0.73583  0.06731  1.0000
  H   H42       1.0  0.92189  0.89740  0.73813  1.0000
  H   H43       1.0  0.74194  0.42206  0.08918  1.0000
  H   H44       1.0  0.99874  0.90253  0.79569  1.0000
  H   H45       1.0  0.66548  0.42085  0.04420  1.0000
  C   C52       1.0  0.32212  0.13019  0.39394  1.0000
  C   C53       1.0  0.36697  0.15394  0.38254  1.0000
  C   C54       1.0  0.38527  0.19348  0.43311  1.0000
  C   C55       1.0  0.35369  0.20528  0.50695  1.0000
  C   C56       1.0  0.30761  0.18127  0.52443  1.0000
  C   C57       1.0  0.29060  0.14261  0.46088  1.0000
  N   N16       1.0  0.35829  0.23984  0.58419  1.0000
  C   C58       1.0  0.31679  0.23565  0.64760  1.0000
  N   N17       1.0  0.28572  0.20155  0.61230  1.0000
  C   C59       1.0  0.30941  0.26482  0.76375  1.0000
  N   N18       1.0  0.35380  0.30283  0.74519  1.0000
  C   C60       1.0  0.35639  0.33921  0.66375  1.0000
  C   C61       1.0  0.30714  0.32782  0.72734  1.0000
  C   C62       1.0  0.28058  0.28019  0.72800  1.0000
  N   N19       1.0  0.12093  0.05074  0.38178  1.0000
  N   N20       1.0  0.56277  0.29832  0.43248  1.0000
  C   C63       1.0  0.09426  0.06387  0.37187  1.0000
  C   C64       1.0  0.58931  0.28684  0.45874  1.0000
  C   C65       1.0  0.05703  0.03922  0.32558  1.0000
  C   C66       1.0  0.62800  0.31419  0.49130  1.0000
  C   C67       1.0  0.03081  0.05705  0.31437  1.0000
  C   C68       1.0  0.65324  0.29662  0.51581  1.0000
  O   O7        1.0  0.04260  0.09428  0.34066  1.0000
  O   O8        1.0  0.63879  0.25783  0.51131  1.0000
  H   H46       1.0  0.31181  0.10103  0.34254  1.0000
  H   H47       1.0  0.38883  0.14192  0.32669  1.0000
  H   H48       1.0  0.38527  0.26280  0.60866  1.0000
  H   H49       1.0  0.29210  0.24641  0.90114  1.0000
  H   H50       1.0  0.35446  0.30631  0.87039  1.0000
  H   H51       1.0  0.37127  0.34341  0.51583  1.0000
  H   H52       1.0  0.37886  0.36827  0.70086  1.0000
  H   H53       1.0  0.30242  0.34596  0.64111  1.0000
  H   H54       1.0  0.29641  0.33390  0.86427  1.0000
  H   H55       1.0  0.27780  0.27412  0.59788  1.0000
  H   H56       1.0  0.24588  0.26337  0.83073  1.0000
  H   H57       1.0  0.11028  0.02090  0.34624  1.0000
  H   H58       1.0  0.57533  0.33025  0.43638  1.0000
  H   H59       1.0  0.10183  0.09485  0.40036  1.0000
  H   H60       1.0  0.58090  0.25464  0.45309  1.0000
  C   C69       1.0  0.88468  0.19676  0.27209  1.0000
  C   C70       1.0  0.85890  0.21528  0.30966  1.0000
  C   C71       1.0  0.81278  0.19311  0.42475  1.0000
  C   C72       1.0  0.79484  0.15128  0.49899  1.0000
  C   C73       1.0  0.82051  0.13214  0.46575  1.0000
  C   C74       1.0  0.86678  0.15503  0.34804  1.0000
  N   N21       1.0  0.75242  0.12107  0.62496  1.0000
  C   C75       1.0  0.75389  0.08630  0.66269  1.0000
  N   N22       1.0  0.79394  0.09169  0.57062  1.0000
  C   C76       1.0  0.71415  0.04898  0.80483  1.0000
  N   N23       1.0  0.67048  0.04546  0.83169  1.0000
  C   C77       1.0  0.63487  0.99998  0.85939  1.0000
  C   C78       1.0  0.65605  0.97530  0.88044  1.0000
  C   C79       1.0  0.70669  0.00599  0.76625  1.0000
  N   N24       1.0  0.97366  0.08452  0.28155  1.0000
  N   N25       1.0  0.70960  0.26955  0.54620  1.0000
  C   C80       1.0  0.96449  0.04580  0.25836  1.0000
  C   C81       1.0  0.72199  0.30972  0.55351  1.0000
  C   C82       1.0  0.99102  0.03100  0.27162  1.0000
  C   C83       1.0  0.69505  0.32436  0.54224  1.0000
  C   C84       1.0  0.97608  0.98770  0.24610  1.0000
  C   C85       1.0  0.71119  0.36868  0.55001  1.0000
  O   O9        1.0  0.94021  0.96488  0.21656  1.0000
  O   O10       1.0  0.74854  0.39299  0.56768  1.0000
  H   H61       1.0  0.91989  0.21518  0.17746  1.0000
  H   H62       1.0  0.87462  0.24756  0.24399  1.0000
  H   H63       1.0  0.72402  0.12214  0.66996  1.0000
  H   H64       1.0  0.72033  0.05359  0.93052  1.0000
  H   H65       1.0  0.66127  0.05702  0.94347  1.0000
  H   H66       1.0  0.62579  0.99394  0.74079  1.0000
  H   H67       1.0  0.60390  0.99164  0.97577  1.0000
  H   H68       1.0  0.64169  0.94496  0.83605  1.0000
  H   H69       1.0  0.65073  0.96897  0.02204  1.0000
  H   H70       1.0  0.71359  0.00518  0.62279  1.0000
  H   H71       1.0  0.72948  0.99979  0.79909  1.0000
  H   H72       1.0  0.00311  0.10146  0.30900  1.0000
  H   H73       1.0  0.67771  0.25259  0.53508  1.0000
  H   H74       1.0  0.93483  0.02453  0.22826  1.0000
  H   H75       1.0  0.75407  0.33206  0.56562  1.0000
  C   C86       1.0  0.81192  0.69445  0.46266  1.0000
  C   C87       1.0  0.78952  0.65054  0.50323  1.0000
  C   C88       1.0  0.80788  0.62996  0.55453  1.0000
  C   C89       1.0  0.84932  0.65777  0.57193  1.0000
  C   C90       1.0  0.87360  0.70251  0.52458  1.0000
  C   C91       1.0  0.85548  0.72245  0.46339  1.0000
  N   N26       1.0  0.87667  0.64988  0.62548  1.0000
  C   C92       1.0  0.91497  0.68799  0.60825  1.0000
  N   N27       1.0  0.91474  0.72007  0.54648  1.0000
  C   C93       1.0  0.95163  0.69057  0.65669  1.0000
  N   N28       1.0  0.94296  0.64773  0.69782  1.0000
  C   C94       1.0  0.98444  0.64831  0.58757  1.0000
  C   C95       1.0  0.02341  0.69490  0.53120  1.0000
  C   C96       1.0  0.00012  0.71731  0.50837  1.0000
  N   N29       1.0  0.94933  0.90102  0.24208  1.0000
  N   N30       1.0  0.73391  0.45371  0.56912  1.0000
  C   C97       1.0  0.98877  0.92954  0.25538  1.0000
  C   C98       1.0  0.69578  0.42547  0.54690  1.0000
  C   C99       1.0  0.00342  0.97154  0.25760  1.0000
  C   C100      1.0  0.68319  0.38405  0.53619  1.0000
  C   C101      1.0  0.04505  0.99722  0.28997  1.0000
  C   C102      1.0  0.64177  0.35759  0.50317  1.0000
  O   O11       1.0  0.06933  0.98275  0.29062  1.0000
  O   O12       1.0  0.61884  0.37211  0.48380  1.0000
  H   H76       1.0  0.79536  0.70721  0.42024  1.0000
  H   H77       1.0  0.75792  0.63172  0.48309  1.0000
  H   H78       1.0  0.86925  0.62203  0.68370  1.0000
  H   H79       1.0  0.95090  0.70497  0.77706  1.0000
  H   H80       1.0  0.93587  0.64088  0.83133  1.0000
  H   H81       1.0  0.98063  0.63472  0.46750  1.0000
  H   H82       1.0  0.98947  0.62864  0.66418  1.0000
  H   H83       1.0  0.05225  0.70130  0.40808  1.0000
  H   H84       1.0  0.03613  0.70482  0.63911  1.0000
  H   H85       1.0  0.99886  0.71700  0.37426  1.0000
  H   H86       1.0  0.01700  0.75033  0.52428  1.0000
  H   H87       1.0  0.93260  0.91510  0.22351  1.0000
  H   H88       1.0  0.75262  0.44040  0.57223  1.0000
  H   H89       1.0  0.01001  0.91915  0.27161  1.0000
  H   H90       1.0  0.67393  0.43529  0.53228  1.0000
  C  Sn1       1.0  0.22058  0.06727  0.82901  1.0000
  C   C103      1.0  0.23980  0.10607  0.88367  1.0000
  C  Sn2       1.0  0.21314  0.12226  0.96854  1.0000
  C  Sn3       1.0  0.16629  0.09918  0.99955  1.0000
  C   C104      1.0  0.14710  0.06040  0.94494  1.0000
  C  Sn4       1.0  0.17373  0.04419  0.86002  1.0000
  O  Te1       1.0  0.24787  0.05169  0.74441  1.0000
  O  Te2       1.0  0.33084  0.20581  0.02191  1.0000
  O  Te3       1.0  0.23673  0.15948  0.08422  1.0000
  O  Te4       1.0  0.15377  0.00535  0.80670  1.0000
  Mg  Mg1       1.0  0.27958  0.21381  0.13219  1.0000
  Mg  Mg2       1.0  0.20499  0.99730  0.69650  1.0000
  C  Sn5       1.0  0.46417  0.26146  0.82146  1.0000
  C   C105      1.0  0.43464  0.21762  0.86173  1.0000
  C  Sn6       1.0  0.44196  0.19235  0.95310  1.0000
  C  Sn7       1.0  0.57728  0.25597  0.00542  1.0000
  C   C106      1.0  0.50905  0.25510  0.96518  1.0000
  C  Sn8       1.0  0.50176  0.28040  0.87378  1.0000
  O  Te5       1.0  0.45619  0.28611  0.73002  1.0000
  O  Te6       1.0  0.41199  0.14859  0.99181  1.0000
  O  Te7       1.0  0.58524  0.23128  0.09693  1.0000
  O  Te8       1.0  0.53171  0.32413  0.83511  1.0000
  Mg  Mg3       1.0  0.53487  0.17309  0.11901  1.0000
  Mg  Mg4       1.0  0.50656  0.34433  0.70800  1.0000
  C  Sn9       1.0  0.95345  0.13334  0.84921  1.0000
  C   C107      1.0  0.94068  0.09274  0.81614  1.0000
  C  Sn10      1.0  0.90603  0.07064  0.75262  1.0000
  C  Sn11      1.0  0.88368  0.08952  0.72139  1.0000
  C   C108      1.0  0.89645  0.13010  0.75442  1.0000
  C  Sn12      1.0  0.93110  0.15222  0.81798  1.0000
  O  Te9       1.0  0.98819  0.15486  0.91267  1.0000
  O  Te10      1.0  0.89385  0.03008  0.72061  1.0000
  O  Te11      1.0  0.84892  0.06796  0.65788  1.0000
  O  Te12      1.0  0.94329  0.19276  0.84995  1.0000
  Mg  Mg5       1.0  0.84451  0.01348  0.63446  1.0000
  Mg  Mg6       1.0  0.99264  0.20940  0.93601  1.0000
  C  Sn13      1.0  0.69180  0.22283  0.96364  1.0000
  C   C109      1.0  0.64761  0.20393  0.97022  1.0000
  C  Sn14      1.0  0.62058  0.16026  0.98713  1.0000
  C  Sn15      1.0  0.63807  0.13493  0.99780  1.0000
  C   C110      1.0  0.68223  0.15382  0.99126  1.0000
  C  Sn16      1.0  0.70929  0.19750  0.97432  1.0000
  O  Te13      1.0  0.71821  0.26655  0.94671  1.0000
  O  Te14      1.0  0.57652  0.14209  0.99336  1.0000
  O  Te15      1.0  0.70934  0.13585  0.01474  1.0000
  O  Te16      1.0  0.75333  0.21567  0.96812  1.0000
  Mg  Mg7       1.0  0.65141  0.12584  0.01740  1.0000
  Mg  Mg8       1.0  0.77618  0.27658  0.94418  1.0000
  C  Sn17      1.0  0.85783  0.77725  0.80560  1.0000
  C   C111      1.0  0.87268  0.75407  0.86202  1.0000
  C  Sn18      1.0  0.91069  0.77431  0.90737  1.0000
  C  Sn19      1.0  0.93433  0.81865  0.89620  1.0000
  C   C112      1.0  0.91947  0.84181  0.83984  1.0000
  C  Sn20      1.0  0.88147  0.82159  0.79443  1.0000
  O  Te17      1.0  0.81974  0.75635  0.76094  1.0000
  O  Te18      1.0  0.92490  0.75047  0.96335  1.0000
  O  Te19      1.0  0.97244  0.83954  0.94092  1.0000
  O  Te20      1.0  0.86725  0.84540  0.73851  1.0000
  Mg  Mg9       1.0  0.07634  0.83801  0.00986  1.0000
  Mg  Mg10      1.0  0.81352  0.80257  0.69205  1.0000
  C  Sn21      1.0  0.70996  0.49764  0.99133  1.0000
  C   C113      1.0  0.78580  0.56431  0.04028  1.0000
  C  Sn22      1.0  0.73903  0.54269  0.14045  1.0000
  C  Sn23      1.0  0.71360  0.49815  0.19290  1.0000
  C   C114      1.0  0.73548  0.47619  0.14398  1.0000
  C  Sn24      1.0  0.78225  0.49778  0.04378  1.0000
  O  Te21      1.0  0.75675  0.51991  0.89117  1.0000
  O  Te22      1.0  0.71791  0.56536  0.18774  1.0000
  O  Te23      1.0  0.66678  0.47589  0.29313  1.0000
  O  Te24      1.0  0.70565  0.43046  0.99652  1.0000
  Mg  Mg11      1.0  0.65343  0.52085  0.32499  1.0000
  Mg  Mg12      1.0  0.77012  0.47494  0.85936  1.0000
  C  Sn25      1.0  0.19938  0.12297  0.55492  1.0000
  C   C115      1.0  0.23240  0.11285  0.51334  1.0000
  C  Sn26      1.0  0.23151  0.08322  0.40432  1.0000
  C  Sn27      1.0  0.19692  0.06332  0.33531  1.0000
  C   C116      1.0  0.16393  0.07345  0.37686  1.0000
  C  Sn28      1.0  0.16478  0.10307  0.48591  1.0000
  O  Te25      1.0  0.20093  0.15269  0.66416  1.0000
  O  Te26      1.0  0.26489  0.07360  0.36466  1.0000
  O  Te27      1.0  0.19539  0.03358  0.22599  1.0000
  O  Te28      1.0  0.13144  0.11270  0.52554  1.0000
  Mg  Mg13      1.0  0.24837  0.03107  0.20994  1.0000
  Mg  Mg14      1.0  0.14794  0.15524  0.68017  1.0000
  C  Sn29      1.0  0.49380  0.21887  0.41553  1.0000
  C   C117      1.0  0.52178  0.26286  0.37581  1.0000
  C  Sn30      1.0  0.50404  0.28744  0.36707  1.0000
  C  Sn31      1.0  0.45735  0.26763  0.39879  1.0000
  C   C118      1.0  0.42941  0.22366  0.43851  1.0000
  C  Sn32      1.0  0.44712  0.19906  0.44726  1.0000
  O  Te29      1.0  0.51226  0.19492  0.42359  1.0000
  O  Te30      1.0  0.53267  0.33136  0.32706  1.0000
  O  Te31      1.0  0.43891  0.29162  0.39070  1.0000
  O  Te32      1.0  0.41851  0.15516  0.48726  1.0000
  Mg  Mg15      1.0  0.49160  0.35036  0.33144  1.0000
  Mg  Mg16      1.0  0.45954  0.13613  0.48301  1.0000
  C  Sn33      1.0  0.95227  0.16391  0.26699  1.0000
  C   C119      1.0  0.90910  0.14518  0.26263  1.0000
  C  Sn34      1.0  0.88190  0.10144  0.28216  1.0000
  C  Sn35      1.0  0.89816  0.07588  0.30667  1.0000
  C   C120      1.0  0.94129  0.09462  0.31105  1.0000
  C  Sn36      1.0  0.96853  0.13836  0.29151  1.0000
  O  Te33      1.0  0.97889  0.20771  0.24720  1.0000
  O  Te34      1.0  0.83887  0.08344  0.27727  1.0000
  O  Te35      1.0  0.87150  0.03206  0.32646  1.0000
  O  Te36      1.0  0.01153  0.15636  0.29641  1.0000
  Mg  Mg17      1.0  0.81528  0.02234  0.31050  1.0000
  Mg  Mg18      1.0  0.03514  0.21745  0.26330  1.0000
  C  Sn37      1.0  0.71379  0.19839  0.54058  1.0000
  C   C121      1.0  0.72652  0.23883  0.57597  1.0000
  C  Sn38      1.0  0.77189  0.26905  0.54328  1.0000
  C  Sn39      1.0  0.80525  0.25865  0.47365  1.0000
  C   C122      1.0  0.79251  0.21824  0.43827  1.0000
  C  Sn40      1.0  0.74714  0.18799  0.47095  1.0000
  O  Te37      1.0  0.66823  0.16868  0.57428  1.0000
  O  Te38      1.0  0.78380  0.30926  0.57978  1.0000
  O  Te39      1.0  0.85083  0.28841  0.43997  1.0000
  O  Te40      1.0  0.73524  0.14781  0.43446  1.0000
  Mg  Mg19      1.0  0.85025  0.33889  0.51139  1.0000
  Mg  Mg20      1.0  0.66881  0.11816  0.50271  1.0000
  C  Sn41      1.0  0.92360  0.80630  0.45203  1.0000
  C   C123      1.0  0.88246  0.77519  0.44313  1.0000
  C  Sn42      1.0  0.86464  0.78465  0.33637  1.0000
  C  Sn43      1.0  0.88845  0.82607  0.23633  1.0000
  C   C124      1.0  0.92956  0.85716  0.24523  1.0000
  C  Sn44      1.0  0.94741  0.84773  0.35198  1.0000
  O  Te41      1.0  0.94078  0.79614  0.55963  1.0000
  O  Te42      1.0  0.82345  0.75302  0.32968  1.0000
  O  Te43      1.0  0.87123  0.83622  0.12868  1.0000
  O  Te44      1.0  0.98858  0.87933  0.35868  1.0000
  Mg  Mg21      1.0  0.81392  0.78233  0.16361  1.0000
  Mg  Mg22      1.0  0.99815  0.85005  0.52462  1.0000
  C  Sn45      1.0  0.73148  0.54436  0.66608  1.0000
  C   C125      1.0  0.77670  0.57618  0.62771  1.0000
  C  Sn46      1.0  0.81144  0.56881  0.54546  1.0000
  C  Sn47      1.0  0.80076  0.52883  0.50051  1.0000
  C   C126      1.0  0.75556  0.49705  0.53884  1.0000
  C  Sn48      1.0  0.72080  0.50438  0.62113  1.0000
  O  Te45      1.0  0.69730  0.55242  0.74836  1.0000
  O  Te46      1.0  0.85640  0.60110  0.50848  1.0000
  O  Te47      1.0  0.83499  0.52079  0.41817  1.0000
  O  Te48      1.0  0.67587  0.47212  0.65807  1.0000
  Mg  Mg23      1.0  0.89103  0.57482  0.39492  1.0000
  Mg  Mg24      1.0  0.64121  0.49838  0.77154  1.0000
