data_image0
_chemical_formula_structural       C12N3CNCNC9H19C12N3CNCNC9H19C12N3CNCNC9H19C12N3CNCNC9H19C18N3CNCNC9H23C6N3CNCNC9H15SnCSn2CSnTe4Mg2SnCSn2CSnTe4Mg2SnCSn2CSnTe4Mg2SnCSn2CSnTe4Mg2SnCSn2CSnTe4Mg2SnCSn2CSnTe4Mg2
_chemical_formula_sum              "C150 N30 H114 Sn24 Te24 Mg12"
_cell_length_a       37.3021
_cell_length_b       37.3375
_cell_length_c       7.97114
_cell_angle_alpha    89.7753
_cell_angle_beta     88.9401
_cell_angle_gamma    120.249

_symmetry_space_group_name_H-M    'P1'
_space_group_IT_number       1

loop_
  _space_group_symop_operation_xyz
  'x, y, z'

loop_
  _atom_site_type_symbol
  _atom_site_label
  _atom_site_symmetry_multiplicity
  _atom_site_fract_x
  _atom_site_fract_y
  _atom_site_fract_z
  _atom_site_occupancy
  C   C1        1.0  0.31110  0.12791  0.36654  1.0000
  C   C2        1.0  0.35416  0.14757  0.38870  1.0000
  C   C3        1.0  0.37761  0.18850  0.44473  1.0000
  C   C4        1.0  0.35442  0.20774  0.48064  1.0000
  C   C5        1.0  0.31087  0.18838  0.46009  1.0000
  C   C6        1.0  0.28805  0.14752  0.39974  1.0000
  C   C7        1.0  0.24274  0.12680  0.37955  1.0000
  C   C8        1.0  0.22492  0.14737  0.29822  1.0000
  C   C9        1.0  0.18214  0.12882  0.28582  1.0000
  C   C10       1.0  0.15552  0.08893  0.35365  1.0000
  C   C11       1.0  0.17323  0.06811  0.43438  1.0000
  C   C12       1.0  0.21618  0.08678  0.44632  1.0000
  N   N1        1.0  0.11274  0.07335  0.34366  1.0000
  N   N2        1.0  0.55199  0.26111  0.53218  1.0000
  N   N3        1.0  0.36549  0.24563  0.55227  1.0000
  C   C13       1.0  0.32971  0.24757  0.57411  1.0000
  N   N4        1.0  0.29663  0.21415  0.51896  1.0000
  C   C14       1.0  0.32904  0.28239  0.66309  1.0000
  N   N5        1.0  0.36716  0.32352  0.62774  1.0000
  C   C15       1.0  0.35342  0.35372  0.58930  1.0000
  C   C16       1.0  0.30785  0.33328  0.64858  1.0000
  C   C17       1.0  0.29173  0.28720  0.61795  1.0000
  C   C18       1.0  0.08713  0.03400  0.33722  1.0000
  C   C19       1.0  0.57807  0.30025  0.54390  1.0000
  C   C20       1.0  0.04221  0.01694  0.33639  1.0000
  C   C21       1.0  0.62289  0.31636  0.54352  1.0000
  C   C22       1.0  0.02500  0.04297  0.33792  1.0000
  C   C23       1.0  0.65037  0.35914  0.54667  1.0000
  H   H1        1.0  0.29493  0.09659  0.31799  1.0000
  H   H2        1.0  0.37033  0.13089  0.35841  1.0000
  H   H3        1.0  0.24506  0.17766  0.24055  1.0000
  H   H4        1.0  0.16842  0.14452  0.22080  1.0000
  H   H5        1.0  0.15313  0.03828  0.49581  1.0000
  H   H6        1.0  0.22932  0.07115  0.51592  1.0000
  H   H7        1.0  0.39452  0.26813  0.58152  1.0000
  H   H8        1.0  0.32683  0.27517  0.79851  1.0000
  H   H9        1.0  0.38416  0.33268  0.73394  1.0000
  H   H10       1.0  0.35598  0.35987  0.45309  1.0000
  H   H11       1.0  0.37368  0.38333  0.64983  1.0000
  H   H12       1.0  0.29042  0.34523  0.58211  1.0000
  H   H13       1.0  0.30604  0.33852  0.78317  1.0000
  H   H14       1.0  0.28390  0.27934  0.48606  1.0000
  H   H15       1.0  0.26403  0.26608  0.69336  1.0000
  H   H16       1.0  0.09751  0.01117  0.32964  1.0000
  H   H17       1.0  0.56803  0.32332  0.55348  1.0000
  H   H18       1.0  0.04591  0.07639  0.34050  1.0000
  H   H19       1.0  0.63911  0.38092  0.55420  1.0000
  C   C24       1.0  0.87278  0.18414  0.36948  1.0000
  C   C25       1.0  0.85287  0.20727  0.39051  1.0000
  C   C26       1.0  0.81140  0.18937  0.44736  1.0000
  C   C27       1.0  0.79180  0.14691  0.48727  1.0000
  C   C28       1.0  0.81143  0.12305  0.46602  1.0000
  C   C29       1.0  0.85260  0.14136  0.40308  1.0000
  C   C30       1.0  0.79070  0.21385  0.46736  1.0000
  C   C31       1.0  0.81108  0.25291  0.54322  1.0000
  C   C32       1.0  0.79270  0.27724  0.55456  1.0000
  C   C33       1.0  0.75267  0.26306  0.49335  1.0000
  C   C34       1.0  0.73200  0.22401  0.41690  1.0000
  C   C35       1.0  0.75081  0.19996  0.40488  1.0000
  N   N6        1.0  0.92551  0.03968  0.34895  1.0000
  N   N7        1.0  0.73702  0.29003  0.50539  1.0000
  N   N8        1.0  0.75374  0.11985  0.56420  1.0000
  C   C36       1.0  0.75227  0.08248  0.58861  1.0000
  N   N9        1.0  0.78585  0.08305  0.52925  1.0000
  C   C37       1.0  0.71851  0.04757  0.68956  1.0000
  N   N10       1.0  0.67814  0.04671  0.68377  1.0000
  C   C38       1.0  0.64719  0.00549  0.62027  1.0000
  C   C39       1.0  0.66374  0.97623  0.66125  1.0000
  C   C40       1.0  0.71066  0.00464  0.63362  1.0000
  C   C41       1.0  0.96497  0.05383  0.33920  1.0000
  C   C42       1.0  0.69781  0.27634  0.52387  1.0000
  C   C43       1.0  0.98203  0.02618  0.33645  1.0000
  C   C44       1.0  0.68164  0.30481  0.52956  1.0000
  C   C45       1.0  0.95578  0.98281  0.33154  1.0000
  C   C46       1.0  0.63884  0.28924  0.53535  1.0000
  H   H20       1.0  0.90468  0.19963  0.32186  1.0000
  H   H21       1.0  0.86966  0.24020  0.35849  1.0000
  H   H22       1.0  0.84158  0.26381  0.59504  1.0000
  H   H23       1.0  0.80845  0.30737  0.61383  1.0000
  H   H24       1.0  0.70207  0.21356  0.36018  1.0000
  H   H25       1.0  0.73525  0.17066  0.33896  1.0000
  H   H26       1.0  0.73078  0.12551  0.59878  1.0000
  H   H27       1.0  0.72912  0.05261  0.81995  1.0000
  H   H28       1.0  0.66988  0.04954  0.80368  1.0000
  H   H29       1.0  0.64512  0.00764  0.48311  1.0000
  H   H30       1.0  0.61634  0.99574  0.67467  1.0000
  H   H31       1.0  0.65103  0.94869  0.58193  1.0000
  H   H32       1.0  0.65628  0.96554  0.79263  1.0000
  H   H33       1.0  0.71946  0.00605  0.50062  1.0000
  H   H34       1.0  0.72958  0.99515  0.70385  1.0000
  H   H35       1.0  0.98785  0.08724  0.33180  1.0000
  H   H36       1.0  0.67476  0.24312  0.53975  1.0000
  H   H37       1.0  0.92241  0.97041  0.32793  1.0000
  H   H38       1.0  0.61694  0.25602  0.53194  1.0000
  C   C47       1.0  0.81945  0.68707  0.35381  1.0000
  C   C48       1.0  0.79669  0.64416  0.38374  1.0000
  C   C49       1.0  0.81476  0.62168  0.44481  1.0000
  C   C50       1.0  0.85725  0.64574  0.47783  1.0000
  C   C51       1.0  0.88083  0.68931  0.44876  1.0000
  C   C52       1.0  0.86208  0.71096  0.38365  1.0000
  C   C53       1.0  0.78997  0.57651  0.47373  1.0000
  C   C54       1.0  0.75059  0.55872  0.55331  1.0000
  C   C55       1.0  0.72537  0.51601  0.57059  1.0000
  C   C56       1.0  0.73863  0.48908  0.51071  1.0000
  C   C57       1.0  0.77820  0.50658  0.43230  1.0000
  C   C58       1.0  0.80334  0.54948  0.41544  1.0000
  N   N11       1.0  0.95927  0.88674  0.32706  1.0000
  N   N12       1.0  0.71034  0.44649  0.52692  1.0000
  N   N13       1.0  0.88470  0.63604  0.55220  1.0000
  C   C59       1.0  0.92194  0.67260  0.56854  1.0000
  N   N14       1.0  0.92098  0.70493  0.50596  1.0000
  C   C60       1.0  0.95673  0.67460  0.66610  1.0000
  N   N15       1.0  0.95627  0.63446  0.66742  1.0000
  C   C61       1.0  0.99613  0.64291  0.58974  1.0000
  C   C62       1.0  0.02720  0.68876  0.62401  1.0000
  C   C63       1.0  0.00033  0.70883  0.60263  1.0000
  C   C64       1.0  0.94480  0.91166  0.32610  1.0000
  C   C65       1.0  0.72284  0.42001  0.53399  1.0000
  C   C66       1.0  0.97238  0.95660  0.33048  1.0000
  C   C67       1.0  0.69366  0.37531  0.53814  1.0000
  C   C68       1.0  0.01579  0.97401  0.33377  1.0000
  C   C69       1.0  0.70895  0.34803  0.52979  1.0000
  H   H39       1.0  0.80392  0.70245  0.30115  1.0000
  H   H40       1.0  0.76386  0.62711  0.35524  1.0000
  H   H41       1.0  0.74019  0.57908  0.60356  1.0000
  H   H42       1.0  0.69509  0.50239  0.63329  1.0000
  H   H43       1.0  0.78846  0.48644  0.37815  1.0000
  H   H44       1.0  0.83316  0.56230  0.34908  1.0000
  H   H45       1.0  0.87931  0.60800  0.59377  1.0000
  H   H46       1.0  0.95154  0.68144  0.79549  1.0000
  H   H47       1.0  0.95501  0.62566  0.79011  1.0000
  H   H48       1.0  0.99257  0.63811  0.45309  1.0000
  H   H49       1.0  0.00513  0.62123  0.63959  1.0000
  H   H50       1.0  0.05488  0.70238  0.54099  1.0000
  H   H51       1.0  0.03787  0.69201  0.75358  1.0000
  H   H52       1.0  0.99913  0.71644  0.47054  1.0000
  H   H53       1.0  0.01120  0.73757  0.67274  1.0000
  H   H54       1.0  0.91134  0.90067  0.32179  1.0000
  H   H55       1.0  0.75595  0.42941  0.53596  1.0000
  H   H56       1.0  0.02815  0.95309  0.33366  1.0000
  H   H57       1.0  0.74217  0.35942  0.52224  1.0000
  C   C70       1.0  0.31130  0.12804  0.86580  1.0000
  C   C71       1.0  0.35418  0.14778  0.89046  1.0000
  C   C72       1.0  0.37730  0.18858  0.94838  1.0000
  C   C73       1.0  0.35408  0.20790  0.98335  1.0000
  C   C74       1.0  0.31063  0.18840  0.95890  1.0000
  C   C75       1.0  0.28823  0.14765  0.89759  1.0000
  C   C76       1.0  0.24303  0.12686  0.87579  1.0000
  C   C77       1.0  0.22538  0.14713  0.79125  1.0000
  C   C78       1.0  0.18265  0.12851  0.77779  1.0000
  C   C79       1.0  0.15598  0.08901  0.84848  1.0000
  C   C80       1.0  0.17354  0.06843  0.93217  1.0000
  C   C81       1.0  0.21645  0.08716  0.94509  1.0000
  N   N16       1.0  0.11327  0.07359  0.83736  1.0000
  N   N17       1.0  0.55171  0.25966  0.02684  1.0000
  N   N18       1.0  0.36445  0.24549  0.05662  1.0000
  C   C82       1.0  0.32835  0.24694  0.07597  1.0000
  N   N19       1.0  0.29575  0.21376  0.01636  1.0000
  C   C83       1.0  0.32651  0.28000  0.17425  1.0000
  N   N20       1.0  0.36677  0.31993  0.17102  1.0000
  C   C84       1.0  0.35839  0.35123  0.09667  1.0000
  C   C85       1.0  0.31246  0.33609  0.13744  1.0000
  C   C86       1.0  0.29254  0.28914  0.11522  1.0000
  C   C87       1.0  0.08765  0.03423  0.83441  1.0000
  C   C88       1.0  0.57736  0.29881  0.04149  1.0000
  C   C89       1.0  0.04279  0.01733  0.83251  1.0000
  C   C90       1.0  0.62229  0.31584  0.04026  1.0000
  C   C91       1.0  0.02589  0.04366  0.83277  1.0000
  C   C92       1.0  0.64877  0.35878  0.04404  1.0000
  H   H58       1.0  0.29536  0.09676  0.81676  1.0000
  H   H59       1.0  0.37059  0.13136  0.86006  1.0000
  H   H60       1.0  0.24560  0.17721  0.73222  1.0000
  H   H61       1.0  0.16889  0.14376  0.70998  1.0000
  H   H62       1.0  0.15345  0.03880  0.99508  1.0000
  H   H63       1.0  0.22958  0.07192  0.01731  1.0000
  H   H64       1.0  0.39262  0.26786  0.09575  1.0000
  H   H65       1.0  0.31921  0.26817  0.30443  1.0000
  H   H66       1.0  0.37553  0.32761  0.29254  1.0000
  H   H67       1.0  0.36329  0.35238  0.95933  1.0000
  H   H68       1.0  0.38015  0.38210  0.14383  1.0000
  H   H69       1.0  0.29897  0.34998  0.05687  1.0000
  H   H70       1.0  0.30882  0.34327  0.26802  1.0000
  H   H71       1.0  0.28582  0.28086  0.98305  1.0000
  H   H72       1.0  0.26332  0.27078  0.18646  1.0000
  H   H73       1.0  0.09809  0.01138  0.83161  1.0000
  H   H74       1.0  0.56683  0.32146  0.05404  1.0000
  H   H75       1.0  0.04716  0.07702  0.83565  1.0000
  H   H76       1.0  0.63635  0.37963  0.05070  1.0000
  C   C93       1.0  0.87266  0.18405  0.86841  1.0000
  C   C94       1.0  0.85295  0.20740  0.88923  1.0000
  C   C95       1.0  0.81169  0.19003  0.94824  1.0000
  C   C96       1.0  0.79206  0.14762  0.98932  1.0000
  C   C97       1.0  0.81150  0.12350  0.96913  1.0000
  C   C98       1.0  0.85259  0.14141  0.90520  1.0000
  C   C99       1.0  0.87294  0.11656  0.88401  1.0000
  C   C100      1.0  0.79140  0.21498  0.96788  1.0000
  C   C101      1.0  0.85248  0.07797  0.80433  1.0000
  C   C102      1.0  0.87094  0.05375  0.79037  1.0000
  C   C103      1.0  0.91055  0.06730  0.85475  1.0000
  C   C104      1.0  0.93101  0.10583  0.93511  1.0000
  C   C105      1.0  0.91252  0.13012  0.94832  1.0000
  C   C106      1.0  0.81213  0.25409  0.04350  1.0000
  C   C107      1.0  0.79408  0.27878  0.05443  1.0000
  C   C108      1.0  0.75412  0.26502  0.99303  1.0000
  C   C109      1.0  0.73319  0.22588  0.91710  1.0000
  C   C110      1.0  0.75153  0.20141  0.90581  1.0000
  N   N21       1.0  0.92638  0.04046  0.84162  1.0000
  N   N22       1.0  0.73868  0.29225  0.00654  1.0000
  N   N23       1.0  0.75380  0.12070  0.06484  1.0000
  C   C111      1.0  0.75179  0.08306  0.08859  1.0000
  N   N24       1.0  0.78547  0.08348  0.03125  1.0000
  C   C112      1.0  0.71726  0.04785  0.18557  1.0000
  N   N25       1.0  0.67631  0.04549  0.16749  1.0000
  C   C113      1.0  0.64609  0.00256  0.11663  1.0000
  C   C114      1.0  0.66462  0.97568  0.16797  1.0000
  C   C115      1.0  0.71117  0.00525  0.13598  1.0000
  C   C116      1.0  0.96588  0.05481  0.83223  1.0000
  C   C117      1.0  0.69929  0.27850  0.01740  1.0000
  C   C118      1.0  0.98297  0.02714  0.82990  1.0000
  C   C119      1.0  0.68243  0.30640  0.02598  1.0000
  C   C120      1.0  0.95654  0.98378  0.82595  1.0000
  C   C121      1.0  0.63941  0.28975  0.03173  1.0000
  H   H77       1.0  0.90433  0.19921  0.81797  1.0000
  H   H78       1.0  0.86965  0.24007  0.85354  1.0000
  H   H79       1.0  0.82233  0.06758  0.75007  1.0000
  H   H80       1.0  0.85536  0.02412  0.72733  1.0000
  H   H81       1.0  0.96051  0.11558  0.99421  1.0000
  H   H82       1.0  0.92792  0.15907  0.01652  1.0000
  H   H83       1.0  0.84251  0.26466  0.09617  1.0000
  H   H84       1.0  0.81004  0.30890  0.11377  1.0000
  H   H85       1.0  0.70333  0.21550  0.85986  1.0000
  H   H86       1.0  0.73564  0.17200  0.84063  1.0000
  H   H87       1.0  0.73090  0.12674  0.09573  1.0000
  H   H88       1.0  0.72603  0.05324  0.31833  1.0000
  H   H89       1.0  0.66731  0.05042  0.28265  1.0000
  H   H90       1.0  0.64265  0.00173  0.97948  1.0000
  H   H91       1.0  0.61547  0.99268  0.17360  1.0000
  H   H92       1.0  0.65249  0.94689  0.09684  1.0000
  H   H93       1.0  0.65797  0.96718  0.30165  1.0000
  H   H94       1.0  0.71946  0.00571  0.00284  1.0000
  H   H95       1.0  0.73135  0.99763  0.20746  1.0000
  H   H96       1.0  0.98864  0.08826  0.82549  1.0000
  H   H97       1.0  0.67611  0.24516  0.02315  1.0000
  H   H98       1.0  0.92320  0.97165  0.82302  1.0000
  H   H99       1.0  0.61831  0.25635  0.02934  1.0000
  C   C122      1.0  0.81579  0.68840  0.86227  1.0000
  C   C123      1.0  0.79237  0.64538  0.89071  1.0000
  C   C124      1.0  0.80998  0.62210  0.94751  1.0000
  C   C125      1.0  0.85273  0.64542  0.97674  1.0000
  C   C126      1.0  0.87690  0.68895  0.94928  1.0000
  C   C127      1.0  0.85865  0.71152  0.88910  1.0000
  N   N26       1.0  0.95884  0.88716  0.83007  1.0000
  N   N27       1.0  0.70673  0.44676  0.03149  1.0000
  N   N28       1.0  0.87990  0.63473  0.04681  1.0000
  C   C128      1.0  0.91780  0.67075  0.06168  1.0000
  N   N29       1.0  0.91718  0.70358  0.00296  1.0000
  C   C129      1.0  0.95360  0.67210  0.14936  1.0000
  N   N30       1.0  0.95832  0.63519  0.11550  1.0000
  C   C130      1.0  0.00308  0.65095  0.07720  1.0000
  C   C131      1.0  0.02657  0.69584  0.13759  1.0000
  C   C132      1.0  0.99575  0.71050  0.10189  1.0000
  C   C133      1.0  0.94486  0.91243  0.82469  1.0000
  C   C134      1.0  0.72024  0.42106  0.03657  1.0000
  C   C135      1.0  0.97284  0.95734  0.82621  1.0000
  C   C136      1.0  0.69221  0.37612  0.03777  1.0000
  C   C137      1.0  0.01619  0.97444  0.82980  1.0000
  C   C138      1.0  0.70870  0.34981  0.02890  1.0000
  H   H100      1.0  0.80047  0.70445  0.81428  1.0000
  H   H101      1.0  0.75936  0.62912  0.86496  1.0000
  H   H102      1.0  0.87318  0.60587  0.08239  1.0000
  H   H103      1.0  0.94766  0.67325  0.28479  1.0000
  H   H104      1.0  0.95009  0.61731  0.22197  1.0000
  H   H105      1.0  0.00774  0.65067  0.94060  1.0000
  H   H106      1.0  0.01304  0.63072  0.13435  1.0000
  H   H107      1.0  0.05679  0.71469  0.07325  1.0000
  H   H108      1.0  0.03196  0.69664  0.27293  1.0000
  H   H109      1.0  0.99655  0.71820  0.96828  1.0000
  H   H110      1.0  0.00093  0.73774  0.17285  1.0000
  H   H111      1.0  0.91150  0.90182  0.81844  1.0000
  H   H112      1.0  0.75359  0.43153  0.03900  1.0000
  H   H113      1.0  0.02833  0.95333  0.83052  1.0000
  H   H114      1.0  0.74213  0.36232  0.02412  1.0000
  C  Sn1       1.0  0.78943  0.54027  0.86783  1.0000
  C   C139      1.0  0.78199  0.57090  0.93041  1.0000
  C  Sn2       1.0  0.75718  0.56488  0.05429  1.0000
  C  Sn3       1.0  0.73347  0.52360  0.11701  1.0000
  C   C140      1.0  0.74092  0.49301  0.05446  1.0000
  C  Sn4       1.0  0.76572  0.49900  0.93055  1.0000
  O  Te1       1.0  0.82025  0.55078  0.74401  1.0000
  O  Te2       1.0  0.75029  0.59603  0.11486  1.0000
  O  Te3       1.0  0.70263  0.51312  0.24092  1.0000
  O  Te4       1.0  0.77262  0.46788  0.87001  1.0000
  Mg  Mg1       1.0  0.70487  0.56639  0.28360  1.0000
  Mg  Mg2       1.0  0.81805  0.49749  0.70135  1.0000
  C  Sn5       1.0  0.86626  0.79139  0.89735  1.0000
  C   C141      1.0  0.87568  0.76202  0.83582  1.0000
  C  Sn6       1.0  0.91625  0.77386  0.78511  1.0000
  C  Sn7       1.0  0.94809  0.81594  0.79623  1.0000
  C   C142      1.0  0.93866  0.84528  0.85775  1.0000
  C  Sn8       1.0  0.89809  0.83347  0.90846  1.0000
  O  Te5       1.0  0.82548  0.77885  0.94733  1.0000
  O  Te6       1.0  0.92491  0.74393  0.72397  1.0000
  O  Te7       1.0  0.98889  0.82846  0.74617  1.0000
  O  Te8       1.0  0.88943  0.86337  0.96960  1.0000
  Mg  Mg3       1.0  0.98523  0.77625  0.67148  1.0000
  Mg  Mg4       1.0  0.83499  0.83487  0.02220  1.0000
  C  Sn9       1.0  0.86737  0.78985  0.38441  1.0000
  C   C143      1.0  0.87811  0.76119  0.32568  1.0000
  C  Sn10      1.0  0.91924  0.77397  0.28064  1.0000
  C  Sn11      1.0  0.95029  0.81627  0.29469  1.0000
  C   C144      1.0  0.93955  0.84490  0.35341  1.0000
  C  Sn12      1.0  0.89842  0.83214  0.39846  1.0000
  O  Te9       1.0  0.82605  0.77638  0.42873  1.0000
  O  Te10      1.0  0.92922  0.74476  0.22220  1.0000
  O  Te11      1.0  0.99163  0.82972  0.25030  1.0000
  O  Te12      1.0  0.88844  0.86133  0.45689  1.0000
  Mg  Mg5       1.0  0.98982  0.77823  0.17746  1.0000
  Mg  Mg6       1.0  0.82785  0.82789  0.50175  1.0000
  C  Sn13      1.0  0.48315  0.27061  0.97223  1.0000
  C   C145      1.0  0.51057  0.25653  0.04172  1.0000
  C  Sn14      1.0  0.49086  0.21370  0.06880  1.0000
  C  Sn15      1.0  0.44872  0.18819  0.02542  1.0000
  C   C146      1.0  0.42133  0.20227  0.95595  1.0000
  C  Sn16      1.0  0.44101  0.24510  0.92885  1.0000
  O  Te13      1.0  0.50348  0.31350  0.94626  1.0000
  O  Te14      1.0  0.51306  0.19655  0.13848  1.0000
  O  Te15      1.0  0.42841  0.14527  0.05146  1.0000
  O  Te16      1.0  0.41884  0.26224  0.85918  1.0000
  Mg  Mg7       1.0  0.47179  0.13651  0.14969  1.0000
  Mg  Mg8       1.0  0.46008  0.32228  0.84785  1.0000
  C  Sn17      1.0  0.44704  0.19438  0.61181  1.0000
  C   C147      1.0  0.42572  0.21046  0.52655  1.0000
  C  Sn18      1.0  0.44699  0.24431  0.41651  1.0000
  C  Sn19      1.0  0.49049  0.26244  0.39106  1.0000
  C   C148      1.0  0.51178  0.24636  0.47626  1.0000
  C  Sn20      1.0  0.49053  0.21251  0.58635  1.0000
  O  Te17      1.0  0.42514  0.16052  0.72121  1.0000
  O  Te18      1.0  0.42501  0.25985  0.33275  1.0000
  O  Te19      1.0  0.51238  0.29632  0.28155  1.0000
  O  Te20      1.0  0.51249  0.19697  0.67007  1.0000
  Mg  Mg9       1.0  0.46865  0.30638  0.19642  1.0000
  Mg  Mg10      1.0  0.46888  0.15043  0.80634  1.0000
  C  Sn21      1.0  0.84813  0.06488  0.34138  1.0000
  C   C149      1.0  0.86436  0.10417  0.41124  1.0000
  C  Sn22      1.0  0.90647  0.12751  0.44770  1.0000
  C  Sn23      1.0  0.93293  0.11126  0.41352  1.0000
  C   C150      1.0  0.91671  0.07199  0.34367  1.0000
  C  Sn24      1.0  0.87459  0.04862  0.30720  1.0000
  O  Te21      1.0  0.80594  0.04209  0.30594  1.0000
  O  Te22      1.0  0.92197  0.16671  0.51756  1.0000
  O  Te23      1.0  0.97515  0.13409  0.44902  1.0000
  O  Te24      1.0  0.85909  0.00945  0.23735  1.0000
  Mg  Mg11      1.0  0.98163  0.18591  0.54354  1.0000
  Mg  Mg12      1.0  0.30368  0.99023  0.21124  1.0000
