data_image0
_chemical_formula_structural       C6N2C4NCNC2H8C6N2C4NCNC2H8C6N2C4NCNC2H8C6N2C4NCNC2H8C6N2C4NCNC2H8C6N2C4NCNC2H8C2Sn2C2HTe2HMgC2Sn2C2HTe2HMgC2Sn2C2HTe2HMgC2Sn2C2HTe2HMgC2Sn2C2HTe2HMgC2Sn2C2HTe2HMgC2Sn2C2HTe2HMgC2Sn2C2HTe2HMgC2Sn2C2HTe2HMgC2Sn2C2HTe2HMgC2Sn2C2HTe2HMgC2Sn2C2HTe2HMg
_chemical_formula_sum              "C126 N24 H72 Sn24 Te24 Mg12"
_cell_length_a       37.4324
_cell_length_b       37.6693
_cell_length_c       8.40204
_cell_angle_alpha    91.3964
_cell_angle_beta     118.517
_cell_angle_gamma    120.46

_symmetry_space_group_name_H-M    'P1'
_space_group_IT_number       1

loop_
  _space_group_symop_operation_xyz
  'x, y, z'

loop_
  _atom_site_type_symbol
  _atom_site_label
  _atom_site_symmetry_multiplicity
  _atom_site_fract_x
  _atom_site_fract_y
  _atom_site_fract_z
  _atom_site_occupancy
  C   C1        1.0  0.31314  0.14103  0.01577  1.0000
  C   C2        1.0  0.35661  0.16085  0.01797  1.0000
  C   C3        1.0  0.38123  0.20302  0.00711  1.0000
  C   C4        1.0  0.35815  0.22426  0.99296  1.0000
  C   C5        1.0  0.31308  0.20299  0.98643  1.0000
  C   C6        1.0  0.28895  0.16095  0.99982  1.0000
  N   N1        1.0  0.10746  0.07655  0.96964  1.0000
  N   N2        1.0  0.55745  0.27049  0.01475  1.0000
  C   C7        1.0  0.08634  0.03870  0.98782  1.0000
  C   C8        1.0  0.04014  0.01836  0.98028  1.0000
  C   C9        1.0  0.58376  0.30832  0.00535  1.0000
  C   C10       1.0  0.62799  0.32184  0.00652  1.0000
  N   N3        1.0  0.37167  0.26504  0.97363  1.0000
  C   C11       1.0  0.33658  0.26835  0.95442  1.0000
  N   N4        1.0  0.30031  0.23214  0.96044  1.0000
  C   C12       1.0  0.01944  0.04121  0.97461  1.0000
  C   C13       1.0  0.64166  0.29309  0.00969  1.0000
  H   H1        1.0  0.29839  0.10927  0.03413  1.0000
  H   H2        1.0  0.37325  0.14331  0.03689  1.0000
  H   H3        1.0  0.10233  0.02002  0.01468  1.0000
  H   H4        1.0  0.57413  0.33175  0.99128  1.0000
  H   H5        1.0  0.33545  0.29631  0.93795  1.0000
  H   H6        1.0  0.26769  0.22568  0.93218  1.0000
  H   H7        1.0  0.03845  0.07458  0.97359  1.0000
  H   H8        1.0  0.61853  0.26079  0.01269  1.0000
  C   C14       1.0  0.86493  0.17098  0.03532  1.0000
  C   C15       1.0  0.84503  0.19425  0.02755  1.0000
  C   C16       1.0  0.79857  0.17587  0.00382  1.0000
  C   C17       1.0  0.77359  0.13134  0.99307  1.0000
  C   C18       1.0  0.79485  0.10827  0.00376  1.0000
  C   C19       1.0  0.84064  0.12657  0.02120  1.0000
  N   N5        1.0  0.91796  0.03088  0.98414  1.0000
  N   N6        1.0  0.73271  0.28433  0.99346  1.0000
  C   C20       1.0  0.95711  0.04706  0.97925  1.0000
  C   C21       1.0  0.97612  0.02173  0.97427  1.0000
  C   C22       1.0  0.69652  0.27504  0.00964  1.0000
  C   C23       1.0  0.68351  0.30569  0.00760  1.0000
  N   N7        1.0  0.72740  0.10348  0.96833  1.0000
  C   C24       1.0  0.72062  0.06556  0.96422  1.0000
  N   N8        1.0  0.75967  0.06620  0.98306  1.0000
  C   C25       1.0  0.95297  0.97868  0.97851  1.0000
  C   C26       1.0  0.71202  0.34769  0.00114  1.0000
  H   H9        1.0  0.90124  0.18827  0.05503  1.0000
  H   H10       1.0  0.86713  0.22848  0.04142  1.0000
  H   H11       1.0  0.97924  0.08099  0.98463  1.0000
  H   H12       1.0  0.67347  0.24415  0.02479  1.0000
  H   H13       1.0  0.68859  0.03645  0.94964  1.0000
  H   H14       1.0  0.76316  0.04123  0.98860  1.0000
  H   H15       1.0  0.92000  0.96445  0.98304  1.0000
  H   H16       1.0  0.74402  0.35677  0.99620  1.0000
  C   C27       1.0  0.84035  0.69344  0.04115  1.0000
  C   C28       1.0  0.81581  0.64987  0.03206  1.0000
  C   C29       1.0  0.82889  0.62244  0.00247  1.0000
  C   C30       1.0  0.87065  0.64332  0.98819  1.0000
  C   C31       1.0  0.89451  0.68763  0.99338  1.0000
  C   C32       1.0  0.88064  0.71465  0.01977  1.0000
  N   N9        1.0  0.96566  0.88857  0.99091  1.0000
  N   N10       1.0  0.71921  0.44807  0.99993  1.0000
  C   C33       1.0  0.94948  0.91161  0.99494  1.0000
  C   C34       1.0  0.97302  0.95556  0.98367  1.0000
  C   C35       1.0  0.72847  0.41972  0.98903  1.0000
  C   C36       1.0  0.69898  0.37660  0.99851  1.0000
  N   N11       1.0  0.89298  0.62583  0.95885  1.0000
  C   C37       1.0  0.92732  0.65705  0.94016  1.0000
  N   N12       1.0  0.93110  0.69543  0.96416  1.0000
  C   C38       1.0  0.01684  0.97578  0.98508  1.0000
  C   C39       1.0  0.65669  0.36338  0.00121  1.0000
  H   H17       1.0  0.82876  0.71229  0.07301  1.0000
  H   H18       1.0  0.78663  0.63726  0.05856  1.0000
  H   H19       1.0  0.91813  0.90023  0.00984  1.0000
  H   H20       1.0  0.75788  0.42584  0.96957  1.0000
  H   H21       1.0  0.95055  0.65403  0.90724  1.0000
  H   H22       1.0  0.94624  0.71911  0.91399  1.0000
  H   H23       1.0  0.03208  0.95739  0.99014  1.0000
  H   H24       1.0  0.64709  0.38632  0.99903  1.0000
  C   C40       1.0  0.30768  0.14372  0.50279  1.0000
  C   C41       1.0  0.35121  0.16274  0.50652  1.0000
  C   C42       1.0  0.37840  0.20571  0.50703  1.0000
  C   C43       1.0  0.35776  0.22862  0.50579  1.0000
  C   C44       1.0  0.31351  0.20883  0.50527  1.0000
  C   C45       1.0  0.28603  0.16540  0.50205  1.0000
  N   N13       1.0  0.10360  0.07604  0.47212  1.0000
  N   N14       1.0  0.55481  0.26929  0.51824  1.0000
  C   C46       1.0  0.07979  0.03596  0.46694  1.0000
  C   C47       1.0  0.03507  0.01580  0.46966  1.0000
  C   C48       1.0  0.58109  0.30646  0.50436  1.0000
  C   C49       1.0  0.62546  0.31972  0.50668  1.0000
  N   N15       1.0  0.37531  0.27131  0.50648  1.0000
  C   C50       1.0  0.34436  0.27781  0.51024  1.0000
  N   N16       1.0  0.30572  0.24124  0.50428  1.0000
  C   C51       1.0  0.01431  0.03842  0.46679  1.0000
  C   C52       1.0  0.64011  0.29153  0.51520  1.0000
  H   H25       1.0  0.28994  0.11020  0.50129  1.0000
  H   H26       1.0  0.36517  0.14326  0.51350  1.0000
  H   H27       1.0  0.09163  0.01475  0.46295  1.0000
  H   H28       1.0  0.57140  0.32986  0.48572  1.0000
  H   H29       1.0  0.34737  0.30805  0.51552  1.0000
  H   H30       1.0  0.28311  0.24146  0.53726  1.0000
  H   H31       1.0  0.03188  0.07115  0.45823  1.0000
  H   H32       1.0  0.61784  0.25953  0.52253  1.0000
  C   C53       1.0  0.85563  0.16658  0.47555  1.0000
  C   C54       1.0  0.83610  0.18999  0.47168  1.0000
  C   C55       1.0  0.79510  0.17450  0.48647  1.0000
  C   C56       1.0  0.77413  0.13222  0.50256  1.0000
  C   C57       1.0  0.79523  0.10919  0.51036  1.0000
  C   C58       1.0  0.83620  0.12497  0.49492  1.0000
  N   N17       1.0  0.91720  0.03005  0.50360  1.0000
  N   N18       1.0  0.72948  0.28280  0.48353  1.0000
  C   C59       1.0  0.95239  0.04394  0.47513  1.0000
  C   C60       1.0  0.97257  0.01937  0.47676  1.0000
  C   C61       1.0  0.69640  0.27465  0.51802  1.0000
  C   C62       1.0  0.68185  0.30431  0.51171  1.0000
  N   N19       1.0  0.73368  0.10747  0.51833  1.0000
  C   C63       1.0  0.73091  0.07190  0.53922  1.0000
  N   N20       1.0  0.76657  0.07063  0.53381  1.0000
  C   C64       1.0  0.95124  0.97717  0.49074  1.0000
  C   C65       1.0  0.70951  0.34592  0.50065  1.0000
  H   H33       1.0  0.88547  0.18024  0.45218  1.0000
  H   H34       1.0  0.85251  0.22099  0.44837  1.0000
  H   H35       1.0  0.96855  0.07455  0.44538  1.0000
  H   H36       1.0  0.67806  0.24584  0.55492  1.0000
  H   H37       1.0  0.70389  0.04567  0.55844  1.0000
  H   H38       1.0  0.77725  0.05099  0.58157  1.0000
  H   H39       1.0  0.91941  0.96322  0.50248  1.0000
  H   H40       1.0  0.74152  0.35509  0.49562  1.0000
  C   C66       1.0  0.83646  0.69158  0.53704  1.0000
  C   C67       1.0  0.81257  0.64817  0.53084  1.0000
  C   C68       1.0  0.82611  0.62096  0.50325  1.0000
  C   C69       1.0  0.86769  0.64185  0.48783  1.0000
  C   C70       1.0  0.89100  0.68599  0.49113  1.0000
  C   C71       1.0  0.87669  0.71267  0.51558  1.0000
  N   N21       1.0  0.96381  0.88706  0.49454  1.0000
  N   N22       1.0  0.71582  0.44578  0.49372  1.0000
  C   C72       1.0  0.94893  0.91063  0.50847  1.0000
  C   C73       1.0  0.97106  0.95411  0.49141  1.0000
  C   C74       1.0  0.72545  0.41759  0.48550  1.0000
  C   C75       1.0  0.69596  0.37452  0.49546  1.0000
  N   N23       1.0  0.89033  0.62469  0.45859  1.0000
  C   C76       1.0  0.92420  0.65595  0.43792  1.0000
  N   N24       1.0  0.92761  0.69419  0.46126  1.0000
  C   C77       1.0  0.01292  0.97362  0.47974  1.0000
  C   C78       1.0  0.65356  0.36100  0.49756  1.0000
  H   H41       1.0  0.82458  0.71042  0.56650  1.0000
  H   H42       1.0  0.78348  0.63555  0.55780  1.0000
  H   H43       1.0  0.91987  0.89986  0.53688  1.0000
  H   H44       1.0  0.75542  0.42384  0.46955  1.0000
  H   H45       1.0  0.94734  0.65303  0.40399  1.0000
  H   H46       1.0  0.94178  0.71758  0.40784  1.0000
  H   H47       1.0  0.02772  0.95506  0.48025  1.0000
  H   H48       1.0  0.64339  0.38360  0.49240  1.0000
  C   C79       1.0  0.49466  0.28653  0.05830  1.0000
  C   C80       1.0  0.51454  0.26549  0.03459  1.0000
  C  Sn1       1.0  0.63585  0.29985  0.98556  1.0000
  C  Sn2       1.0  0.58843  0.27493  0.95984  1.0000
  C   C81       1.0  0.56885  0.29628  0.98375  1.0000
  C   C82       1.0  0.44788  0.26197  0.03288  1.0000
  H   H49       1.0  0.51553  0.32185  0.09620  1.0000
  O  Te1       1.0  0.65626  0.27936  0.96250  1.0000
  O  Te2       1.0  0.56099  0.22930  0.91075  1.0000
  H   H50       1.0  0.43247  0.27825  0.05110  1.0000
  Mg  Mg1       1.0  0.60460  0.21641  0.89530  1.0000
  C   C83       1.0  0.68652  0.07074  0.92888  1.0000
  C   C84       1.0  0.15689  0.08817  0.98262  1.0000
  C  Sn3       1.0  0.03280  0.05357  0.04188  1.0000
  C  Sn4       1.0  0.07698  0.08192  0.04724  1.0000
  C   C85       1.0  0.24411  0.14411  0.99306  1.0000
  C   C86       1.0  0.21994  0.09867  0.93405  1.0000
  H   H51       1.0  0.66781  0.03558  0.88312  1.0000
  O  Te3       1.0  0.01284  0.07044  0.09516  1.0000
  O  Te4       1.0  0.10157  0.12738  0.10582  1.0000
  H   H52       1.0  0.23502  0.08518  0.89232  1.0000
  Mg  Mg2       1.0  0.05988  0.13465  0.16468  1.0000
  C   C87       1.0  0.80309  0.25391  0.97154  1.0000
  C   C88       1.0  0.63990  0.13375  0.00061  1.0000
  C  Sn5       1.0  0.59991  0.11199  0.02116  1.0000
  C  Sn6       1.0  0.57477  0.13089  0.01232  1.0000
  C   C89       1.0  0.73823  0.25107  0.98304  1.0000
  C   C90       1.0  0.77830  0.27257  0.96272  1.0000
  H   H53       1.0  0.83408  0.27054  0.95571  1.0000
  O  Te5       1.0  0.58519  0.07186  0.05019  1.0000
  O  Te6       1.0  0.53468  0.10983  0.03233  1.0000
  H   H54       1.0  0.79007  0.30368  0.94009  1.0000
  Mg  Mg3       1.0  0.52851  0.05577  0.06943  1.0000
  C   C91       1.0  0.90324  0.11653  0.94882  1.0000
  C   C92       1.0  0.86731  0.10502  0.98859  1.0000
  C  Sn7       1.0  0.21165  0.98847  0.04365  1.0000
  C  Sn8       1.0  0.23019  0.96301  0.05912  1.0000
  C   C93       1.0  0.26616  0.97482  0.01916  1.0000
  C   C94       1.0  0.92156  0.09145  0.96412  1.0000
  H   H55       1.0  0.91687  0.14491  0.90634  1.0000
  O  Te7       1.0  0.17574  0.97743  0.08278  1.0000
  O  Te8       1.0  0.21302  0.92630  0.11393  1.0000
  H   H56       1.0  0.94940  0.10037  0.93346  1.0000
  Mg  Mg4       1.0  0.16393  0.92447  0.15218  1.0000
  C   C95       1.0  0.72790  0.52380  0.95819  1.0000
  C   C96       1.0  0.74095  0.49459  0.97876  1.0000
  C  Sn9       1.0  0.63901  0.42770  0.01294  1.0000
  C  Sn10      1.0  0.67250  0.47086  0.02675  1.0000
  C   C97       1.0  0.65911  0.49984  0.00610  1.0000
  C   C98       1.0  0.76092  0.56637  0.97187  1.0000
  H   H57       1.0  0.69221  0.51341  0.93181  1.0000
  O  Te9       1.0  0.65145  0.39810  0.03307  1.0000
  O  Te10      1.0  0.71873  0.48479  0.06090  1.0000
  H   H58       1.0  0.75084  0.58900  0.95607  1.0000
  Mg  Mg5       1.0  0.71873  0.43246  0.07806  1.0000
  C   C99       1.0  0.87554  0.78776  0.97860  1.0000
  C   C100      1.0  0.89454  0.76323  0.99668  1.0000
  C  Sn11      1.0  0.79357  0.70222  0.02760  1.0000
  C  Sn12      1.0  0.82198  0.74658  0.04064  1.0000
  C   C101      1.0  0.80266  0.77085  0.02249  1.0000
  C   C102      1.0  0.90355  0.83152  0.99152  1.0000
  H   H59       1.0  0.83914  0.77283  0.95474  1.0000
  O  Te11      1.0  0.81199  0.67724  0.04527  1.0000
  O  Te12      1.0  0.86906  0.76636  0.07155  1.0000
  H   H60       1.0  0.88886  0.85053  0.97765  1.0000
  Mg  Mg6       1.0  0.87807  0.71881  0.08621  1.0000
  C   C103      1.0  0.46774  0.20237  0.47304  1.0000
  C   C104      1.0  0.50369  0.24527  0.50097  1.0000
  C  Sn13      1.0  0.50066  0.27934  0.54357  1.0000
  C  Sn14      1.0  0.46087  0.27019  0.55845  1.0000
  C   C105      1.0  0.42510  0.22717  0.53040  1.0000
  C   C106      1.0  0.42848  0.19332  0.48777  1.0000
  H   H61       1.0  0.47036  0.17618  0.44016  1.0000
  O  Te13      1.0  0.53689  0.32201  0.57097  1.0000
  O  Te14      1.0  0.45695  0.30363  0.60095  1.0000
  H   H62       1.0  0.40066  0.16011  0.46628  1.0000
  Mg  Mg7       1.0  0.51545  0.35646  0.62599  1.0000
  C   C107      1.0  0.18436  0.07767  0.50192  1.0000
  C   C108      1.0  0.15417  0.09038  0.48909  1.0000
  C  Sn15      1.0  0.16549  0.13090  0.47062  1.0000
  C  Sn16      1.0  0.20785  0.15915  0.46488  1.0000
  C   C109      1.0  0.23780  0.14612  0.47768  1.0000
  C   C110      1.0  0.22613  0.10550  0.49619  1.0000
  H   H63       1.0  0.17532  0.04624  0.51614  1.0000
  O  Te15      1.0  0.13494  0.14310  0.45806  1.0000
  O  Te16      1.0  0.22001  0.19982  0.44643  1.0000
  H   H64       1.0  0.24949  0.09566  0.50599  1.0000
  Mg  Mg8       1.0  0.16695  0.20178  0.43451  1.0000
  C   C111      1.0  0.72125  0.18483  0.46443  1.0000
  C   C112      1.0  0.76386  0.19571  0.47213  1.0000
  C  Sn17      1.0  0.79833  0.23842  0.49269  1.0000
  C  Sn18      1.0  0.78989  0.27077  0.50579  1.0000
  C   C113      1.0  0.74717  0.25956  0.49807  1.0000
  C   C114      1.0  0.71292  0.21672  0.47741  1.0000
  H   H65       1.0  0.69476  0.15170  0.44855  1.0000
  O  Te17      1.0  0.84069  0.24873  0.50007  1.0000
  O  Te18      1.0  0.82375  0.31371  0.52646  1.0000
  H   H66       1.0  0.67995  0.20832  0.47158  1.0000
  Mg  Mg9       1.0  0.87591  0.31175  0.52930  1.0000
  C   C115      1.0  0.91890  0.12398  0.56617  1.0000
  C   C116      1.0  0.86948  0.10690  0.50236  1.0000
  C  Sn19      1.0  0.83392  0.06165  0.44353  1.0000
  C  Sn20      1.0  0.35836  0.03305  0.44890  1.0000
  C   C117      1.0  0.89776  0.05046  0.51310  1.0000
  C   C118      1.0  0.93304  0.09579  0.57158  1.0000
  H   H67       1.0  0.94620  0.15905  0.61152  1.0000
  O  Te19      1.0  0.78470  0.04513  0.38012  1.0000
  O  Te20      1.0  0.32359  0.98769  0.39100  1.0000
  H   H68       1.0  0.97130  0.10901  0.62110  1.0000
  Mg  Mg10      1.0  0.26105  0.98093  0.31594  1.0000
  C   C119      1.0  0.80337  0.51745  0.52450  1.0000
  C   C120      1.0  0.75799  0.49282  0.50944  1.0000
  C  Sn21      1.0  0.72954  0.50898  0.47227  1.0000
  C  Sn22      1.0  0.74692  0.55059  0.44977  1.0000
  C   C121      1.0  0.79235  0.57496  0.46496  1.0000
  C   C122      1.0  0.82053  0.55848  0.50225  1.0000
  H   H69       1.0  0.82516  0.50469  0.55325  1.0000
  O  Te21      1.0  0.68430  0.48395  0.45775  1.0000
  O  Te22      1.0  0.71922  0.56752  0.41246  1.0000
  H   H70       1.0  0.85564  0.57755  0.51377  1.0000
  Mg  Mg11      1.0  0.65995  0.52110  0.40543  1.0000
  C   C123      1.0  0.95961  0.79562  0.56643  1.0000
  C   C124      1.0  0.91348  0.76535  0.53967  1.0000
  C  Sn23      1.0  0.87769  0.77393  0.47764  1.0000
  C  Sn24      1.0  0.88837  0.81358  0.44179  1.0000
  C   C125      1.0  0.93462  0.84365  0.46885  1.0000
  C   C126      1.0  0.97017  0.83474  0.53103  1.0000
  H   H71       1.0  0.98711  0.78872  0.61443  1.0000
  O  Te23      1.0  0.83180  0.74333  0.45170  1.0000
  O  Te24      1.0  0.85327  0.82298  0.37961  1.0000
  H   H72       1.0  0.00587  0.85817  0.55161  1.0000
  Mg  Mg12      1.0  0.79610  0.77100  0.36518  1.0000
