data_image0
_chemical_formula_structural       C12NCNCNC3N2C6O2H19C12NCNCNC3N2C6O2H19C12NCNCNC3N2C6O2H19C12NCNCNC3N2C6O2H19C12NCNCNC3N2C6O2H19C12NCNCNC3N2C6O2H19SnCSn2CSnTe4Mg2SnCSn2CSnTe4Mg2SnCSn2CSnTe4Mg2SnCSn2CSnTe4Mg2SnCSn2CSnTe4Mg2SnCSn2CSnTe4Mg2
_chemical_formula_sum              "C150 N30 O12 H114 Sn24 Te24 Mg12"
_cell_length_a       37.1697
_cell_length_b       37.5879
_cell_length_c       8.05465
_cell_angle_alpha    91.2724
_cell_angle_beta     69.8623
_cell_angle_gamma    120.771

_symmetry_space_group_name_H-M    'P1'
_space_group_IT_number       1

loop_
  _space_group_symop_operation_xyz
  'x, y, z'

loop_
  _atom_site_type_symbol
  _atom_site_label
  _atom_site_symmetry_multiplicity
  _atom_site_fract_x
  _atom_site_fract_y
  _atom_site_fract_z
  _atom_site_occupancy
  C   C1        1.0  0.31578  0.12252  0.87208  1.0000
  C   C2        1.0  0.36015  0.14580  0.86563  1.0000
  C   C3        1.0  0.37750  0.18432  0.92481  1.0000
  C   C4        1.0  0.34579  0.19604  0.99799  1.0000
  C   C5        1.0  0.30012  0.17260  0.00943  1.0000
  C   C6        1.0  0.28394  0.13448  0.94097  1.0000
  C   C7        1.0  0.42408  0.20965  0.91780  1.0000
  C   C8        1.0  0.44516  0.19040  0.95523  1.0000
  C   C9        1.0  0.48830  0.21399  0.95885  1.0000
  C   C10       1.0  0.51216  0.25828  0.92388  1.0000
  C   C11       1.0  0.49244  0.27804  0.87903  1.0000
  C   C12       1.0  0.44922  0.25407  0.87658  1.0000
  N   N1        1.0  0.34980  0.22983  0.08001  1.0000
  C   C13       1.0  0.30833  0.22584  0.14099  1.0000
  N   N2        1.0  0.27790  0.19249  0.09914  1.0000
  C   C14       1.0  0.30114  0.25500  0.25964  1.0000
  N   N3        1.0  0.34587  0.29231  0.24453  1.0000
  C   C15       1.0  0.34784  0.33062  0.18955  1.0000
  C   C16       1.0  0.29829  0.31831  0.25195  1.0000
  C   C17       1.0  0.27349  0.27221  0.22752  1.0000
  N   N4        1.0  0.11285  0.03741  0.87416  1.0000
  N   N5        1.0  0.55423  0.28368  0.93759  1.0000
  C   C18       1.0  0.08608  0.04994  0.85990  1.0000
  C   C19       1.0  0.58091  0.27164  0.95798  1.0000
  C   C20       1.0  0.04800  0.02398  0.82046  1.0000
  C   C21       1.0  0.62002  0.29887  0.98852  1.0000
  C   C22       1.0  0.02249  0.04172  0.80132  1.0000
  C   C23       1.0  0.64631  0.28177  0.00634  1.0000
  O   O1        1.0  0.03591  0.07990  0.81686  1.0000
  O   O2        1.0  0.63348  0.24356  0.99519  1.0000
  H   H1        1.0  0.30613  0.09419  0.81465  1.0000
  H   H2        1.0  0.38249  0.13438  0.80706  1.0000
  H   H3        1.0  0.42643  0.15617  0.98857  1.0000
  H   H4        1.0  0.50265  0.19803  0.99618  1.0000
  H   H5        1.0  0.51150  0.31232  0.84549  1.0000
  H   H6        1.0  0.43506  0.27009  0.83768  1.0000
  H   H7        1.0  0.37631  0.25198  0.10926  1.0000
  H   H8        1.0  0.28336  0.23647  0.39750  1.0000
  H   H9        1.0  0.34799  0.29231  0.36751  1.0000
  H   H10       1.0  0.36516  0.34091  0.04189  1.0000
  H   H11       1.0  0.36820  0.35662  0.24685  1.0000
  H   H12       1.0  0.29381  0.33856  0.17569  1.0000
  H   H13       1.0  0.28568  0.32028  0.39450  1.0000
  H   H14       1.0  0.27349  0.27080  0.09167  1.0000
  H   H15       1.0  0.23788  0.25351  0.32152  1.0000
  H   H16       1.0  0.10148  0.00665  0.84907  1.0000
  H   H17       1.0  0.56742  0.31565  0.94594  1.0000
  H   H18       1.0  0.09433  0.08166  0.87786  1.0000
  H   H19       1.0  0.57246  0.23953  0.94865  1.0000
  C   C24       1.0  0.88628  0.19040  0.74976  1.0000
  C   C25       1.0  0.86046  0.20897  0.78992  1.0000
  C   C26       1.0  0.81514  0.18743  0.91406  1.0000
  C   C27       1.0  0.79809  0.14646  0.99547  1.0000
  C   C28       1.0  0.82355  0.12710  0.95585  1.0000
  C   C29       1.0  0.86885  0.14913  0.82947  1.0000
  C   C30       1.0  0.78672  0.20551  0.95582  1.0000
  C   C31       1.0  0.80249  0.24652  0.99187  1.0000
  C   C32       1.0  0.77617  0.26408  0.02204  1.0000
  C   C33       1.0  0.73295  0.24089  0.01477  1.0000
  C   C34       1.0  0.71594  0.19920  0.98684  1.0000
  C   C35       1.0  0.74235  0.18193  0.95927  1.0000
  N   N6        1.0  0.75698  0.11716  0.13108  1.0000
  C   C36       1.0  0.75950  0.08313  0.16875  1.0000
  N   N7        1.0  0.79836  0.08748  0.06568  1.0000
  C   C37       1.0  0.72205  0.04712  0.31991  1.0000
  N   N8        1.0  0.68187  0.05094  0.39723  1.0000
  C   C38       1.0  0.64418  0.01406  0.36716  1.0000
  C   C39       1.0  0.65383  0.97885  0.36546  1.0000
  C   C40       1.0  0.70560  0.00330  0.26362  1.0000
  N   N9        1.0  0.96687  0.06971  0.76724  1.0000
  N   N10       1.0  0.70585  0.25722  0.02909  1.0000
  C   C41       1.0  0.95572  0.03026  0.75016  1.0000
  C   C42       1.0  0.71550  0.29632  0.04593  1.0000
  C   C43       1.0  0.98198  0.01507  0.76424  1.0000
  C   C44       1.0  0.68751  0.30974  0.03673  1.0000
  C   C45       1.0  0.96634  0.97124  0.74718  1.0000
  C   C46       1.0  0.70190  0.35322  0.05575  1.0000
  O   O3        1.0  0.93023  0.94773  0.72015  1.0000
  O   O4        1.0  0.73804  0.37664  0.08371  1.0000
  H   H20       1.0  0.92074  0.20813  0.64841  1.0000
  H   H21       1.0  0.87535  0.24050  0.71829  1.0000
  H   H22       1.0  0.83590  0.26467  0.99795  1.0000
  H   H23       1.0  0.78943  0.29579  0.05073  1.0000
  H   H24       1.0  0.68228  0.18110  0.98284  1.0000
  H   H25       1.0  0.72934  0.15005  0.93274  1.0000
  H   H26       1.0  0.73030  0.11963  0.20474  1.0000
  H   H27       1.0  0.73581  0.04890  0.42285  1.0000
  H   H28       1.0  0.67419  0.05052  0.53251  1.0000
  H   H29       1.0  0.64473  0.02176  0.23441  1.0000
  H   H30       1.0  0.61139  0.00633  0.46906  1.0000
  H   H31       1.0  0.63544  0.95316  0.30185  1.0000
  H   H32       1.0  0.64427  0.96504  0.50415  1.0000
  H   H33       1.0  0.71482  0.00711  0.11732  1.0000
  H   H34       1.0  0.72175  0.98831  0.29547  1.0000
  H   H35       1.0  0.99756  0.08616  0.78734  1.0000
  H   H36       1.0  0.67481  0.23949  0.01249  1.0000
  H   H37       1.0  0.92517  0.00909  0.72572  1.0000
  H   H38       1.0  0.74636  0.31878  0.06606  1.0000
  C   C47       1.0  0.80441  0.67661  0.97791  1.0000
  C   C48       1.0  0.78230  0.63281  0.02205  1.0000
  C   C49       1.0  0.80130  0.61288  0.07281  1.0000
  C   C50       1.0  0.84312  0.64109  0.08598  1.0000
  C   C51       1.0  0.86638  0.68579  0.04058  1.0000
  C   C52       1.0  0.84767  0.70520  0.97995  1.0000
  C   C53       1.0  0.87130  0.75103  0.91903  1.0000
  C   C54       1.0  0.91648  0.77870  0.90380  1.0000
  C   C55       1.0  0.93920  0.82195  0.84867  1.0000
  C   C56       1.0  0.91772  0.83993  0.80574  1.0000
  C   C57       1.0  0.87323  0.81296  0.81451  1.0000
  C   C58       1.0  0.85066  0.76959  0.87067  1.0000
  N   N11       1.0  0.87143  0.63389  0.13618  1.0000
  C   C59       1.0  0.90860  0.67253  0.12417  1.0000
  N   N12       1.0  0.90728  0.70411  0.06476  1.0000
  C   C60       1.0  0.94464  0.67670  0.18188  1.0000
  N   N13       1.0  0.93659  0.63465  0.23139  1.0000
  C   C61       1.0  0.97408  0.63303  0.09596  1.0000
  C   C62       1.0  0.01536  0.67860  0.03856  1.0000
  C   C63       1.0  0.99396  0.70433  0.03679  1.0000
  N   N14       1.0  0.93868  0.88366  0.75952  1.0000
  N   N15       1.0  0.72443  0.43678  0.08449  1.0000
  C   C64       1.0  0.97810  0.91280  0.77184  1.0000
  C   C65       1.0  0.68658  0.40992  0.05787  1.0000
  C   C66       1.0  0.99334  0.95511  0.76486  1.0000
  C   C67       1.0  0.67409  0.36859  0.04146  1.0000
  C   C68       1.0  0.03521  0.98137  0.79550  1.0000
  C   C69       1.0  0.63324  0.34213  0.00534  1.0000
  O   O5        1.0  0.05887  0.96676  0.80381  1.0000
  O   O6        1.0  0.60968  0.35637  0.99083  1.0000
  H   H39       1.0  0.78795  0.68871  0.93047  1.0000
  H   H40       1.0  0.75045  0.61332  0.00446  1.0000
  H   H41       1.0  0.93346  0.76568  0.94025  1.0000
  H   H42       1.0  0.97358  0.84162  0.84354  1.0000
  H   H43       1.0  0.85653  0.82634  0.77708  1.0000
  H   H44       1.0  0.81629  0.75014  0.87529  1.0000
  H   H45       1.0  0.86365  0.60647  0.20111  1.0000
  H   H46       1.0  0.94204  0.69147  0.30051  1.0000
  H   H47       1.0  0.93792  0.63254  0.35516  1.0000
  H   H48       1.0  0.96505  0.62190  0.97991  1.0000
  H   H49       1.0  0.97910  0.61033  0.15180  1.0000
  H   H50       1.0  0.04212  0.68460  0.90814  1.0000
  H   H51       1.0  0.03041  0.68596  0.14020  1.0000
  H   H52       1.0  0.99319  0.70883  0.90434  1.0000
  H   H53       1.0  0.01220  0.73583  0.06731  1.0000
  H   H54       1.0  0.92189  0.89740  0.73813  1.0000
  H   H55       1.0  0.74194  0.42206  0.08918  1.0000
  H   H56       1.0  0.99874  0.90253  0.79569  1.0000
  H   H57       1.0  0.66548  0.42085  0.04420  1.0000
  C   C70       1.0  0.32212  0.13019  0.39394  1.0000
  C   C71       1.0  0.36697  0.15394  0.38254  1.0000
  C   C72       1.0  0.38527  0.19348  0.43311  1.0000
  C   C73       1.0  0.35369  0.20528  0.50695  1.0000
  C   C74       1.0  0.30761  0.18127  0.52443  1.0000
  C   C75       1.0  0.29060  0.14261  0.46088  1.0000
  C   C76       1.0  0.43243  0.21998  0.41910  1.0000
  C   C77       1.0  0.45429  0.20231  0.46234  1.0000
  C   C78       1.0  0.49752  0.22743  0.46392  1.0000
  C   C79       1.0  0.52073  0.27156  0.41970  1.0000
  C   C80       1.0  0.50044  0.28972  0.36757  1.0000
  C   C81       1.0  0.45703  0.26427  0.36803  1.0000
  N   N16       1.0  0.35829  0.23984  0.58419  1.0000
  C   C82       1.0  0.31679  0.23565  0.64760  1.0000
  N   N17       1.0  0.28572  0.20155  0.61230  1.0000
  C   C83       1.0  0.30941  0.26482  0.76375  1.0000
  N   N18       1.0  0.35380  0.30283  0.74519  1.0000
  C   C84       1.0  0.35639  0.33921  0.66375  1.0000
  C   C85       1.0  0.30714  0.32782  0.72734  1.0000
  C   C86       1.0  0.28058  0.28019  0.72800  1.0000
  N   N19       1.0  0.12093  0.05074  0.38178  1.0000
  N   N20       1.0  0.56277  0.29832  0.43248  1.0000
  C   C87       1.0  0.09426  0.06387  0.37187  1.0000
  C   C88       1.0  0.58931  0.28684  0.45874  1.0000
  C   C89       1.0  0.05703  0.03922  0.32558  1.0000
  C   C90       1.0  0.62800  0.31419  0.49130  1.0000
  C   C91       1.0  0.03081  0.05705  0.31437  1.0000
  C   C92       1.0  0.65324  0.29662  0.51581  1.0000
  O   O7        1.0  0.04260  0.09428  0.34066  1.0000
  O   O8        1.0  0.63879  0.25783  0.51131  1.0000
  H   H58       1.0  0.31181  0.10103  0.34254  1.0000
  H   H59       1.0  0.38883  0.14192  0.32669  1.0000
  H   H60       1.0  0.43588  0.16827  0.50423  1.0000
  H   H61       1.0  0.51229  0.21287  0.50843  1.0000
  H   H62       1.0  0.51912  0.32380  0.32629  1.0000
  H   H63       1.0  0.44212  0.27890  0.32477  1.0000
  H   H64       1.0  0.38527  0.26280  0.60866  1.0000
  H   H65       1.0  0.29210  0.24641  0.90114  1.0000
  H   H66       1.0  0.35446  0.30631  0.87039  1.0000
  H   H67       1.0  0.37127  0.34341  0.51583  1.0000
  H   H68       1.0  0.37886  0.36827  0.70086  1.0000
  H   H69       1.0  0.30242  0.34596  0.64111  1.0000
  H   H70       1.0  0.29641  0.33390  0.86427  1.0000
  H   H71       1.0  0.27780  0.27412  0.59788  1.0000
  H   H72       1.0  0.24588  0.26337  0.83073  1.0000
  H   H73       1.0  0.11028  0.02090  0.34624  1.0000
  H   H74       1.0  0.57533  0.33025  0.43638  1.0000
  H   H75       1.0  0.10183  0.09485  0.40036  1.0000
  H   H76       1.0  0.58090  0.25464  0.45309  1.0000
  C   C93       1.0  0.88468  0.19676  0.27209  1.0000
  C   C94       1.0  0.85890  0.21528  0.30966  1.0000
  C   C95       1.0  0.81278  0.19311  0.42475  1.0000
  C   C96       1.0  0.79484  0.15128  0.49899  1.0000
  C   C97       1.0  0.82051  0.13214  0.46575  1.0000
  C   C98       1.0  0.86678  0.15503  0.34804  1.0000
  C   C99       1.0  0.78556  0.21241  0.46627  1.0000
  C   C100      1.0  0.80276  0.25324  0.50597  1.0000
  C   C101      1.0  0.77810  0.27250  0.53700  1.0000
  C   C102      1.0  0.73498  0.25123  0.52891  1.0000
  C   C103      1.0  0.71666  0.20984  0.49570  1.0000
  C   C104      1.0  0.74162  0.19097  0.46544  1.0000
  N   N21       1.0  0.75242  0.12107  0.62496  1.0000
  C   C105      1.0  0.75389  0.08630  0.66269  1.0000
  N   N22       1.0  0.79394  0.09169  0.57062  1.0000
  C   C106      1.0  0.71415  0.04898  0.80483  1.0000
  N   N23       1.0  0.67048  0.04546  0.83169  1.0000
  C   C107      1.0  0.63487  0.99998  0.85939  1.0000
  C   C108      1.0  0.65605  0.97530  0.88044  1.0000
  C   C109      1.0  0.70669  0.00599  0.76625  1.0000
  N   N24       1.0  0.97366  0.08452  0.28155  1.0000
  N   N25       1.0  0.70960  0.26955  0.54620  1.0000
  C   C110      1.0  0.96449  0.04580  0.25836  1.0000
  C   C111      1.0  0.72199  0.30972  0.55351  1.0000
  C   C112      1.0  0.99102  0.03100  0.27162  1.0000
  C   C113      1.0  0.69505  0.32436  0.54224  1.0000
  C   C114      1.0  0.97608  0.98770  0.24610  1.0000
  C   C115      1.0  0.71119  0.36868  0.55001  1.0000
  O   O9        1.0  0.94021  0.96488  0.21656  1.0000
  O   O10       1.0  0.74854  0.39299  0.56768  1.0000
  H   H77       1.0  0.91989  0.21518  0.17746  1.0000
  H   H78       1.0  0.87462  0.24756  0.24399  1.0000
  H   H79       1.0  0.83593  0.26984  0.51441  1.0000
  H   H80       1.0  0.79235  0.30408  0.56713  1.0000
  H   H81       1.0  0.68339  0.19322  0.48786  1.0000
  H   H82       1.0  0.72758  0.15956  0.43286  1.0000
  H   H83       1.0  0.72402  0.12214  0.66996  1.0000
  H   H84       1.0  0.72033  0.05359  0.93052  1.0000
  H   H85       1.0  0.66127  0.05702  0.94347  1.0000
  H   H86       1.0  0.62579  0.99394  0.74079  1.0000
  H   H87       1.0  0.60390  0.99164  0.97577  1.0000
  H   H88       1.0  0.64169  0.94496  0.83605  1.0000
  H   H89       1.0  0.65073  0.96897  0.02204  1.0000
  H   H90       1.0  0.71359  0.00518  0.62279  1.0000
  H   H91       1.0  0.72948  0.99979  0.79909  1.0000
  H   H92       1.0  0.00311  0.10146  0.30900  1.0000
  H   H93       1.0  0.67771  0.25259  0.53508  1.0000
  H   H94       1.0  0.93483  0.02453  0.22826  1.0000
  H   H95       1.0  0.75407  0.33206  0.56562  1.0000
  C   C116      1.0  0.81192  0.69445  0.46266  1.0000
  C   C117      1.0  0.78952  0.65054  0.50323  1.0000
  C   C118      1.0  0.80788  0.62996  0.55453  1.0000
  C   C119      1.0  0.84932  0.65777  0.57193  1.0000
  C   C120      1.0  0.87360  0.70251  0.52458  1.0000
  C   C121      1.0  0.85548  0.72245  0.46339  1.0000
  C   C122      1.0  0.88011  0.76827  0.40049  1.0000
  C   C123      1.0  0.92277  0.79577  0.41008  1.0000
  C   C124      1.0  0.94620  0.83906  0.35441  1.0000
  C   C125      1.0  0.92784  0.85720  0.28760  1.0000
  C   C126      1.0  0.88587  0.83042  0.27293  1.0000
  C   C127      1.0  0.86281  0.78697  0.32770  1.0000
  N   N26       1.0  0.87667  0.64988  0.62548  1.0000
  C   C128      1.0  0.91497  0.68799  0.60825  1.0000
  N   N27       1.0  0.91474  0.72007  0.54648  1.0000
  C   C129      1.0  0.95163  0.69057  0.65669  1.0000
  N   N28       1.0  0.94296  0.64773  0.69782  1.0000
  C   C130      1.0  0.98444  0.64831  0.58757  1.0000
  C   C131      1.0  0.02341  0.69490  0.53120  1.0000
  C   C132      1.0  0.00012  0.71731  0.50837  1.0000
  N   N29       1.0  0.94933  0.90102  0.24208  1.0000
  N   N30       1.0  0.73391  0.45371  0.56912  1.0000
  C   C133      1.0  0.98877  0.92954  0.25538  1.0000
  C   C134      1.0  0.69578  0.42547  0.54690  1.0000
  C   C135      1.0  0.00342  0.97154  0.25760  1.0000
  C   C136      1.0  0.68319  0.38405  0.53619  1.0000
  C   C137      1.0  0.04505  0.99722  0.28997  1.0000
  C   C138      1.0  0.64177  0.35759  0.50317  1.0000
  O   O11       1.0  0.06933  0.98275  0.29062  1.0000
  O   O12       1.0  0.61884  0.37211  0.48380  1.0000
  H   H96       1.0  0.79536  0.70721  0.42024  1.0000
  H   H97       1.0  0.75792  0.63172  0.48309  1.0000
  H   H98       1.0  0.93700  0.78250  0.46601  1.0000
  H   H99       1.0  0.97820  0.85875  0.37030  1.0000
  H   H100      1.0  0.87159  0.84386  0.21757  1.0000
  H   H101      1.0  0.83101  0.76748  0.30997  1.0000
  H   H102      1.0  0.86925  0.62203  0.68370  1.0000
  H   H103      1.0  0.95090  0.70497  0.77706  1.0000
  H   H104      1.0  0.93587  0.64088  0.83133  1.0000
  H   H105      1.0  0.98063  0.63472  0.46750  1.0000
  H   H106      1.0  0.98947  0.62864  0.66418  1.0000
  H   H107      1.0  0.05225  0.70130  0.40808  1.0000
  H   H108      1.0  0.03613  0.70482  0.63911  1.0000
  H   H109      1.0  0.99886  0.71700  0.37426  1.0000
  H   H110      1.0  0.01700  0.75033  0.52428  1.0000
  H   H111      1.0  0.93260  0.91510  0.22351  1.0000
  H   H112      1.0  0.75262  0.44040  0.57223  1.0000
  H   H113      1.0  0.01001  0.91915  0.27161  1.0000
  H   H114      1.0  0.67393  0.43529  0.53228  1.0000
  C  Sn1       1.0  0.18441  0.04218  0.92561  1.0000
  C   C139      1.0  0.15271  0.05339  0.94903  1.0000
  C  Sn2       1.0  0.16491  0.09512  0.95457  1.0000
  C  Sn3       1.0  0.20974  0.12631  0.93621  1.0000
  C   C140      1.0  0.24141  0.11509  0.91278  1.0000
  C  Sn4       1.0  0.22924  0.07336  0.90725  1.0000
  O  Te1       1.0  0.17147  0.00027  0.92047  1.0000
  O  Te2       1.0  0.13262  0.10557  0.97818  1.0000
  O  Te3       1.0  0.22266  0.16824  0.94138  1.0000
  O  Te4       1.0  0.26150  0.06291  0.88363  1.0000
  Mg  Mg1       1.0  0.16658  0.16691  0.97616  1.0000
  Mg  Mg2       1.0  0.22759  0.00158  0.88553  1.0000
  C  Sn5       1.0  0.80074  0.53161  0.59245  1.0000
  C   C141      1.0  0.75571  0.49993  0.62676  1.0000
  C  Sn6       1.0  0.72518  0.51027  0.61799  1.0000
  C  Sn7       1.0  0.73997  0.55316  0.57391  1.0000
  C   C142      1.0  0.78499  0.58481  0.53960  1.0000
  C  Sn8       1.0  0.81554  0.57450  0.54836  1.0000
  O  Te5       1.0  0.83068  0.52055  0.60196  1.0000
  O  Te6       1.0  0.68031  0.47805  0.65290  1.0000
  O  Te7       1.0  0.70999  0.56420  0.56442  1.0000
  O  Te8       1.0  0.86038  0.60670  0.51345  1.0000
  Mg  Mg3       1.0  0.65231  0.50902  0.62311  1.0000
  Mg  Mg4       1.0  0.88841  0.57576  0.54311  1.0000
  C  Sn9       1.0  0.90344  0.08351  0.21599  1.0000
  C   C143      1.0  0.94558  0.10151  0.22960  1.0000
  C  Sn10      1.0  0.96236  0.13781  0.30330  1.0000
  C  Sn11      1.0  0.93649  0.15650  0.36478  1.0000
  C   C144      1.0  0.89438  0.13850  0.35118  1.0000
  C  Sn12      1.0  0.87757  0.10220  0.27747  1.0000
  O  Te9       1.0  0.88732  0.04722  0.14186  1.0000
  O  Te10      1.0  0.00458  0.15523  0.31545  1.0000
  O  Te11      1.0  0.95265  0.19282  0.43894  1.0000
  O  Te12      1.0  0.83538  0.08478  0.26534  1.0000
  Mg  Mg5       1.0  0.01202  0.20480  0.42671  1.0000
  Mg  Mg6       1.0  0.82790  0.03521  0.15419  1.0000
  C  Sn13      1.0  0.19181  0.05291  0.42733  1.0000
  C   C145      1.0  0.15989  0.06421  0.45988  1.0000
  C  Sn14      1.0  0.17155  0.10526  0.48074  1.0000
  C  Sn15      1.0  0.21605  0.13566  0.46871  1.0000
  C   C146      1.0  0.24794  0.12436  0.43614  1.0000
  C  Sn16      1.0  0.23631  0.08331  0.41529  1.0000
  O  Te13      1.0  0.17941  0.01169  0.40690  1.0000
  O  Te14      1.0  0.13905  0.11580  0.51325  1.0000
  O  Te15      1.0  0.22843  0.17691  0.48918  1.0000
  O  Te16      1.0  0.26878  0.07276  0.38277  1.0000
  Mg  Mg7       1.0  0.17225  0.17602  0.53146  1.0000
  Mg  Mg8       1.0  0.23562  0.01256  0.36445  1.0000
  C  Sn17      1.0  0.71636  0.50655  0.09876  1.0000
  C   C147      1.0  0.73807  0.48433  0.05637  1.0000
  C  Sn18      1.0  0.78259  0.50287  0.04514  1.0000
  C  Sn19      1.0  0.80588  0.54448  0.07705  1.0000
  C   C148      1.0  0.78416  0.56668  0.11943  1.0000
  C  Sn20      1.0  0.73965  0.54816  0.13066  1.0000
  O  Te17      1.0  0.67185  0.48740  0.10927  1.0000
  O  Te18      1.0  0.80359  0.48004  0.00250  1.0000
  O  Te19      1.0  0.85042  0.56363  0.06650  1.0000
  O  Te20      1.0  0.71864  0.57097  0.17331  1.0000
  Mg  Mg9       1.0  0.86454  0.51974  0.00414  1.0000
  Mg  Mg10      1.0  0.65769  0.53130  0.17180  1.0000
  C  Sn21      1.0  0.95242  0.15353  0.74831  1.0000
  C   C149      1.0  0.90963  0.13721  0.74328  1.0000
  C  Sn22      1.0  0.88029  0.09377  0.76292  1.0000
  C  Sn23      1.0  0.89401  0.06605  0.78823  1.0000
  C   C150      1.0  0.93677  0.08236  0.79328  1.0000
  C  Sn24      1.0  0.96613  0.12580  0.77362  1.0000
  O  Te21      1.0  0.98119  0.19707  0.72839  1.0000
  O  Te22      1.0  0.83768  0.07820  0.75737  1.0000
  O  Te23      1.0  0.86519  0.02248  0.80815  1.0000
  O  Te24      1.0  0.00872  0.14137  0.77920  1.0000
  Mg  Mg11      1.0  0.81055  0.01647  0.79108  1.0000
  Mg  Mg12      1.0  0.03587  0.20309  0.74560  1.0000
