data_image0
_chemical_formula_structural       C6N2C4NCNC2H8C6N2C4NCNC2H8C6N2C4NCNC2H8C6N2C4NCNC2H8C6N2C4NCNC2H8C6N2C4NCNC2H8SnCSn2CSnTe4Mg2SnCSn2CSnTe4Mg2SnCSn2CSnTe4Mg2SnCSn2CSnTe4Mg2SnCSn2CSnTe4Mg2SnCSn2CSnTe4Mg2SnCSn2CSnTe4Mg2SnCSn2CSnTe4Mg2SnCSn2CSnTe4Mg2SnCSn2CSnTe4Mg2SnCSn2CSnTe4Mg2SnCSn2CSnTe4Mg2
_chemical_formula_sum              "C102 N24 H48 Sn48 Te48 Mg24"
_cell_length_a       37.4324
_cell_length_b       37.6693
_cell_length_c       8.40204
_cell_angle_alpha    91.3964
_cell_angle_beta     118.517
_cell_angle_gamma    120.46

_symmetry_space_group_name_H-M    'P1'
_space_group_IT_number       1

loop_
  _space_group_symop_operation_xyz
  'x, y, z'

loop_
  _atom_site_type_symbol
  _atom_site_label
  _atom_site_symmetry_multiplicity
  _atom_site_fract_x
  _atom_site_fract_y
  _atom_site_fract_z
  _atom_site_occupancy
  C   C1        1.0  0.31314  0.14103  0.01577  1.0000
  C   C2        1.0  0.35661  0.16085  0.01797  1.0000
  C   C3        1.0  0.38123  0.20302  0.00711  1.0000
  C   C4        1.0  0.35815  0.22426  0.99296  1.0000
  C   C5        1.0  0.31308  0.20299  0.98643  1.0000
  C   C6        1.0  0.28895  0.16095  0.99982  1.0000
  N   N1        1.0  0.10746  0.07655  0.96964  1.0000
  N   N2        1.0  0.55745  0.27049  0.01475  1.0000
  C   C7        1.0  0.08634  0.03870  0.98782  1.0000
  C   C8        1.0  0.04014  0.01836  0.98028  1.0000
  C   C9        1.0  0.58376  0.30832  0.00535  1.0000
  C   C10       1.0  0.62799  0.32184  0.00652  1.0000
  N   N3        1.0  0.37167  0.26504  0.97363  1.0000
  C   C11       1.0  0.33658  0.26835  0.95442  1.0000
  N   N4        1.0  0.30031  0.23214  0.96044  1.0000
  C   C12       1.0  0.01944  0.04121  0.97461  1.0000
  C   C13       1.0  0.64166  0.29309  0.00969  1.0000
  H   H1        1.0  0.29839  0.10927  0.03413  1.0000
  H   H2        1.0  0.37325  0.14331  0.03689  1.0000
  H   H3        1.0  0.10233  0.02002  0.01468  1.0000
  H   H4        1.0  0.57413  0.33175  0.99128  1.0000
  H   H5        1.0  0.33545  0.29631  0.93795  1.0000
  H   H6        1.0  0.26769  0.22568  0.93218  1.0000
  H   H7        1.0  0.03845  0.07458  0.97359  1.0000
  H   H8        1.0  0.61853  0.26079  0.01269  1.0000
  C   C14       1.0  0.86493  0.17098  0.03532  1.0000
  C   C15       1.0  0.84503  0.19425  0.02755  1.0000
  C   C16       1.0  0.79857  0.17587  0.00382  1.0000
  C   C17       1.0  0.77359  0.13134  0.99307  1.0000
  C   C18       1.0  0.79485  0.10827  0.00376  1.0000
  C   C19       1.0  0.84064  0.12657  0.02120  1.0000
  N   N5        1.0  0.91796  0.03088  0.98414  1.0000
  N   N6        1.0  0.73271  0.28433  0.99346  1.0000
  C   C20       1.0  0.95711  0.04706  0.97925  1.0000
  C   C21       1.0  0.97612  0.02173  0.97427  1.0000
  C   C22       1.0  0.69652  0.27504  0.00964  1.0000
  C   C23       1.0  0.68351  0.30569  0.00760  1.0000
  N   N7        1.0  0.72740  0.10348  0.96833  1.0000
  C   C24       1.0  0.72062  0.06556  0.96422  1.0000
  N   N8        1.0  0.75967  0.06620  0.98306  1.0000
  C   C25       1.0  0.95297  0.97868  0.97851  1.0000
  C   C26       1.0  0.71202  0.34769  0.00114  1.0000
  H   H9        1.0  0.90124  0.18827  0.05503  1.0000
  H   H10       1.0  0.86713  0.22848  0.04142  1.0000
  H   H11       1.0  0.97924  0.08099  0.98463  1.0000
  H   H12       1.0  0.67347  0.24415  0.02479  1.0000
  H   H13       1.0  0.68859  0.03645  0.94964  1.0000
  H   H14       1.0  0.76316  0.04123  0.98860  1.0000
  H   H15       1.0  0.92000  0.96445  0.98304  1.0000
  H   H16       1.0  0.74402  0.35677  0.99620  1.0000
  C   C27       1.0  0.84035  0.69344  0.04115  1.0000
  C   C28       1.0  0.81581  0.64987  0.03206  1.0000
  C   C29       1.0  0.82889  0.62244  0.00247  1.0000
  C   C30       1.0  0.87065  0.64332  0.98819  1.0000
  C   C31       1.0  0.89451  0.68763  0.99338  1.0000
  C   C32       1.0  0.88064  0.71465  0.01977  1.0000
  N   N9        1.0  0.96566  0.88857  0.99091  1.0000
  N   N10       1.0  0.71921  0.44807  0.99993  1.0000
  C   C33       1.0  0.94948  0.91161  0.99494  1.0000
  C   C34       1.0  0.97302  0.95556  0.98367  1.0000
  C   C35       1.0  0.72847  0.41972  0.98903  1.0000
  C   C36       1.0  0.69898  0.37660  0.99851  1.0000
  N   N11       1.0  0.89298  0.62583  0.95885  1.0000
  C   C37       1.0  0.92732  0.65705  0.94016  1.0000
  N   N12       1.0  0.93110  0.69543  0.96416  1.0000
  C   C38       1.0  0.01684  0.97578  0.98508  1.0000
  C   C39       1.0  0.65669  0.36338  0.00121  1.0000
  H   H17       1.0  0.82876  0.71229  0.07301  1.0000
  H   H18       1.0  0.78663  0.63726  0.05856  1.0000
  H   H19       1.0  0.91813  0.90023  0.00984  1.0000
  H   H20       1.0  0.75788  0.42584  0.96957  1.0000
  H   H21       1.0  0.95055  0.65403  0.90724  1.0000
  H   H22       1.0  0.94624  0.71911  0.91399  1.0000
  H   H23       1.0  0.03208  0.95739  0.99014  1.0000
  H   H24       1.0  0.64709  0.38632  0.99903  1.0000
  C   C40       1.0  0.30768  0.14372  0.50279  1.0000
  C   C41       1.0  0.35121  0.16274  0.50652  1.0000
  C   C42       1.0  0.37840  0.20571  0.50703  1.0000
  C   C43       1.0  0.35776  0.22862  0.50579  1.0000
  C   C44       1.0  0.31351  0.20883  0.50527  1.0000
  C   C45       1.0  0.28603  0.16540  0.50205  1.0000
  N   N13       1.0  0.10360  0.07604  0.47212  1.0000
  N   N14       1.0  0.55481  0.26929  0.51824  1.0000
  C   C46       1.0  0.07979  0.03596  0.46694  1.0000
  C   C47       1.0  0.03507  0.01580  0.46966  1.0000
  C   C48       1.0  0.58109  0.30646  0.50436  1.0000
  C   C49       1.0  0.62546  0.31972  0.50668  1.0000
  N   N15       1.0  0.37531  0.27131  0.50648  1.0000
  C   C50       1.0  0.34436  0.27781  0.51024  1.0000
  N   N16       1.0  0.30572  0.24124  0.50428  1.0000
  C   C51       1.0  0.01431  0.03842  0.46679  1.0000
  C   C52       1.0  0.64011  0.29153  0.51520  1.0000
  H   H25       1.0  0.28994  0.11020  0.50129  1.0000
  H   H26       1.0  0.36517  0.14326  0.51350  1.0000
  H   H27       1.0  0.09163  0.01475  0.46295  1.0000
  H   H28       1.0  0.57140  0.32986  0.48572  1.0000
  H   H29       1.0  0.34737  0.30805  0.51552  1.0000
  H   H30       1.0  0.28311  0.24146  0.53726  1.0000
  H   H31       1.0  0.03188  0.07115  0.45823  1.0000
  H   H32       1.0  0.61784  0.25953  0.52253  1.0000
  C   C53       1.0  0.85563  0.16658  0.47555  1.0000
  C   C54       1.0  0.83610  0.18999  0.47168  1.0000
  C   C55       1.0  0.79510  0.17450  0.48647  1.0000
  C   C56       1.0  0.77413  0.13222  0.50256  1.0000
  C   C57       1.0  0.79523  0.10919  0.51036  1.0000
  C   C58       1.0  0.83620  0.12497  0.49492  1.0000
  N   N17       1.0  0.91720  0.03005  0.50360  1.0000
  N   N18       1.0  0.72948  0.28280  0.48353  1.0000
  C   C59       1.0  0.95239  0.04394  0.47513  1.0000
  C   C60       1.0  0.97257  0.01937  0.47676  1.0000
  C   C61       1.0  0.69640  0.27465  0.51802  1.0000
  C   C62       1.0  0.68185  0.30431  0.51171  1.0000
  N   N19       1.0  0.73368  0.10747  0.51833  1.0000
  C   C63       1.0  0.73091  0.07190  0.53922  1.0000
  N   N20       1.0  0.76657  0.07063  0.53381  1.0000
  C   C64       1.0  0.95124  0.97717  0.49074  1.0000
  C   C65       1.0  0.70951  0.34592  0.50065  1.0000
  H   H33       1.0  0.88547  0.18024  0.45218  1.0000
  H   H34       1.0  0.85251  0.22099  0.44837  1.0000
  H   H35       1.0  0.96855  0.07455  0.44538  1.0000
  H   H36       1.0  0.67806  0.24584  0.55492  1.0000
  H   H37       1.0  0.70389  0.04567  0.55844  1.0000
  H   H38       1.0  0.77725  0.05099  0.58157  1.0000
  H   H39       1.0  0.91941  0.96322  0.50248  1.0000
  H   H40       1.0  0.74152  0.35509  0.49562  1.0000
  C   C66       1.0  0.83646  0.69158  0.53704  1.0000
  C   C67       1.0  0.81257  0.64817  0.53084  1.0000
  C   C68       1.0  0.82611  0.62096  0.50325  1.0000
  C   C69       1.0  0.86769  0.64185  0.48783  1.0000
  C   C70       1.0  0.89100  0.68599  0.49113  1.0000
  C   C71       1.0  0.87669  0.71267  0.51558  1.0000
  N   N21       1.0  0.96381  0.88706  0.49454  1.0000
  N   N22       1.0  0.71582  0.44578  0.49372  1.0000
  C   C72       1.0  0.94893  0.91063  0.50847  1.0000
  C   C73       1.0  0.97106  0.95411  0.49141  1.0000
  C   C74       1.0  0.72545  0.41759  0.48550  1.0000
  C   C75       1.0  0.69596  0.37452  0.49546  1.0000
  N   N23       1.0  0.89033  0.62469  0.45859  1.0000
  C   C76       1.0  0.92420  0.65595  0.43792  1.0000
  N   N24       1.0  0.92761  0.69419  0.46126  1.0000
  C   C77       1.0  0.01292  0.97362  0.47974  1.0000
  C   C78       1.0  0.65356  0.36100  0.49756  1.0000
  H   H41       1.0  0.82458  0.71042  0.56650  1.0000
  H   H42       1.0  0.78348  0.63555  0.55780  1.0000
  H   H43       1.0  0.91987  0.89986  0.53688  1.0000
  H   H44       1.0  0.75542  0.42384  0.46955  1.0000
  H   H45       1.0  0.94734  0.65303  0.40399  1.0000
  H   H46       1.0  0.94178  0.71758  0.40784  1.0000
  H   H47       1.0  0.02772  0.95506  0.48025  1.0000
  H   H48       1.0  0.64339  0.38360  0.49240  1.0000
  C  Sn1       1.0  0.46264  0.27263  0.00190  1.0000
  C   C79       1.0  0.57464  0.30877  0.96441  1.0000
  C  Sn2       1.0  0.58510  0.27796  0.96851  1.0000
  C  Sn3       1.0  0.48455  0.21127  0.01109  1.0000
  C   C80       1.0  0.52047  0.25507  0.04859  1.0000
  C  Sn4       1.0  0.51004  0.28591  0.04448  1.0000
  O  Te1       1.0  0.59932  0.38284  0.99703  1.0000
  O  Te2       1.0  0.54856  0.23433  0.93048  1.0000
  O  Te3       1.0  0.49580  0.18099  0.01593  1.0000
  O  Te4       1.0  0.54656  0.32951  0.08252  1.0000
  Mg  Mg1       1.0  0.58170  0.20534  0.95431  1.0000
  Mg  Mg2       1.0  0.51346  0.35854  0.05883  1.0000
  C  Sn5       1.0  0.33305  0.22746  0.97614  1.0000
  C   C81       1.0  0.29807  0.18229  0.92249  1.0000
  C  Sn6       1.0  0.31165  0.15384  0.92504  1.0000
  C  Sn7       1.0  0.36124  0.17089  0.98252  1.0000
  C   C82       1.0  0.24824  0.13606  0.03616  1.0000
  C  Sn8       1.0  0.23468  0.16454  0.03362  1.0000
  O  Te5       1.0  0.31864  0.25530  0.97252  1.0000
  O  Te6       1.0  0.27602  0.10880  0.87072  1.0000
  O  Te7       1.0  0.37563  0.14300  0.98610  1.0000
  O  Te8       1.0  0.27028  0.20955  0.08793  1.0000
  Mg  Mg3       1.0  0.31369  0.08416  0.89947  1.0000
  Mg  Mg4       1.0  0.23267  0.23422  0.05934  1.0000
  C  Sn9       1.0  0.78226  0.26078  0.91876  1.0000
  C   C83       1.0  0.74401  0.25167  0.94034  1.0000
  C  Sn10      1.0  0.57683  0.13810  0.00839  1.0000
  C  Sn11      1.0  0.59627  0.11310  0.05599  1.0000
  C   C84       1.0  0.63450  0.12222  0.03444  1.0000
  C  Sn12      1.0  0.80169  0.23578  0.96637  1.0000
  O  Te9       1.0  0.80090  0.29452  0.85049  1.0000
  O  Te10      1.0  0.53859  0.12959  0.02868  1.0000
  O  Te11      1.0  0.57759  0.07933  0.12430  1.0000
  O  Te12      1.0  0.83992  0.24429  0.94610  1.0000
  Mg  Mg5       1.0  0.52552  0.08026  0.12732  1.0000
  Mg  Mg6       1.0  0.85304  0.29363  0.84757  1.0000
  C  Sn13      1.0  0.92334  0.10921  0.99703  1.0000
  C   C85       1.0  0.27806  0.99165  0.04220  1.0000
  C  Sn14      1.0  0.23857  0.96523  0.06174  1.0000
  C  Sn15      1.0  0.20583  0.97659  0.03548  1.0000
  C   C86       1.0  0.85111  0.09412  0.99030  1.0000
  C  Sn16      1.0  0.89061  0.12057  0.97076  1.0000
  O  Te13      1.0  0.96307  0.13514  0.97817  1.0000
  O  Te14      1.0  0.23187  0.92782  0.10703  1.0000
  O  Te15      1.0  0.16608  0.95061  0.05437  1.0000
  O  Te16      1.0  0.89731  0.15795  0.92547  1.0000
  Mg  Mg7       1.0  0.17235  0.90292  0.11735  1.0000
  Mg  Mg8       1.0  0.95679  0.18286  0.91501  1.0000
  C  Sn17      1.0  0.81030  0.52432  0.08652  1.0000
  C   C87       1.0  0.76267  0.49883  0.05320  1.0000
  C  Sn18      1.0  0.87730  0.59001  0.96486  1.0000
  C  Sn19      1.0  0.89186  0.62748  0.90854  1.0000
  C   C88       1.0  0.93945  0.65294  0.94184  1.0000
  C  Sn20      1.0  0.82486  0.56179  0.03020  1.0000
  O  Te17      1.0  0.84300  0.51249  0.17503  1.0000
  O  Te18      1.0  0.82990  0.56402  0.93312  1.0000
  O  Te19      1.0  0.85911  0.63929  0.81997  1.0000
  O  Te20      1.0  0.87223  0.58774  0.06191  1.0000
  Mg  Mg9       1.0  0.79861  0.59355  0.80756  1.0000
  Mg  Mg10      1.0  0.90354  0.55824  0.18737  1.0000
  C  Sn21      1.0  0.96467  0.80108  0.10478  1.0000
  C   C89       1.0  0.91897  0.77099  0.08151  1.0000
  C  Sn22      1.0  0.02795  0.85573  0.99225  1.0000
  C  Sn23      1.0  0.03477  0.89131  0.92471  1.0000
  C   C90       1.0  0.08044  0.92137  0.94796  1.0000
  C  Sn24      1.0  0.97149  0.83665  0.03724  1.0000
  O  Te21      1.0  0.00311  0.79566  0.19443  1.0000
  O  Te22      1.0  0.98261  0.82524  0.97068  1.0000
  O  Te23      1.0  0.99627  0.89670  0.83501  1.0000
  O  Te24      1.0  0.01680  0.86712  0.05878  1.0000
  Mg  Mg11      1.0  0.94144  0.84660  0.83903  1.0000
  Mg  Mg12      1.0  0.05799  0.84577  0.19031  1.0000
  C  Sn25      1.0  0.45164  0.19803  0.52609  1.0000
  C   C91       1.0  0.43407  0.22091  0.55520  1.0000
  C  Sn26      1.0  0.45426  0.26367  0.55238  1.0000
  C  Sn27      1.0  0.49279  0.28399  0.51967  1.0000
  C   C92       1.0  0.51034  0.26111  0.49056  1.0000
  C  Sn28      1.0  0.49017  0.21835  0.49338  1.0000
  O  Te25      1.0  0.43090  0.15531  0.52950  1.0000
  O  Te26      1.0  0.43609  0.28589  0.58191  1.0000
  O  Te27      1.0  0.51352  0.32675  0.51629  1.0000
  O  Te28      1.0  0.50831  0.19613  0.46384  1.0000
  Mg  Mg13      1.0  0.47628  0.34352  0.56397  1.0000
  Mg  Mg14      1.0  0.46814  0.13849  0.48166  1.0000
  C  Sn29      1.0  0.21188  0.16395  0.53219  1.0000
  C   C93       1.0  0.24120  0.15028  0.54363  1.0000
  C  Sn30      1.0  0.22258  0.10609  0.51074  1.0000
  C  Sn31      1.0  0.17363  0.07489  0.46535  1.0000
  C   C94       1.0  0.14434  0.08856  0.45390  1.0000
  C  Sn32      1.0  0.16293  0.13276  0.48680  1.0000
  O  Te29      1.0  0.23125  0.20830  0.56561  1.0000
  O  Te30      1.0  0.25260  0.09321  0.52306  1.0000
  O  Te31      1.0  0.66442  0.03051  0.43193  1.0000
  O  Te32      1.0  0.13294  0.14563  0.47447  1.0000
  Mg  Mg15      1.0  0.71965  0.02906  0.46531  1.0000
  Mg  Mg16      1.0  0.17598  0.20977  0.53209  1.0000
  C  Sn33      1.0  0.71693  0.18309  0.40302  1.0000
  C   C95       1.0  0.76233  0.19605  0.43099  1.0000
  C  Sn34      1.0  0.80179  0.24063  0.50274  1.0000
  C  Sn35      1.0  0.79577  0.27295  0.54759  1.0000
  C   C96       1.0  0.75040  0.25999  0.51966  1.0000
  C  Sn36      1.0  0.71091  0.21541  0.44788  1.0000
  O  Te33      1.0  0.67799  0.13833  0.33114  1.0000
  O  Te34      1.0  0.84681  0.25278  0.52941  1.0000
  O  Te35      1.0  0.83476  0.31774  0.61951  1.0000
  O  Te36      1.0  0.66592  0.20326  0.42123  1.0000
  Mg  Mg17      1.0  0.88889  0.31787  0.63102  1.0000
  Mg  Mg18      1.0  0.62382  0.13818  0.31974  1.0000
  C  Sn37      1.0  0.91016  0.12013  0.50104  1.0000
  C   C97       1.0  0.86203  0.10263  0.45556  1.0000
  C  Sn38      1.0  0.83209  0.05994  0.44860  1.0000
  C  Sn39      1.0  0.36080  0.03420  0.48804  1.0000
  C   C98       1.0  0.89876  0.05170  0.53352  1.0000
  C  Sn40      1.0  0.92873  0.09439  0.54048  1.0000
  O  Te37      1.0  0.93944  0.16289  0.50718  1.0000
  O  Te38      1.0  0.78408  0.04316  0.40273  1.0000
  O  Te39      1.0  0.33147  0.99141  0.48186  1.0000
  O  Te40      1.0  0.97671  0.11117  0.58635  1.0000
  Mg  Mg19      1.0  0.26859  0.98317  0.41260  1.0000
  Mg  Mg20      1.0  0.00238  0.17116  0.57662  1.0000
  C  Sn41      1.0  0.72016  0.51548  0.39658  1.0000
  C   C99       1.0  0.73632  0.48854  0.43563  1.0000
  C  Sn42      1.0  0.78696  0.50618  0.52081  1.0000
  C  Sn43      1.0  0.82219  0.55170  0.56806  1.0000
  C   C100      1.0  0.80603  0.57862  0.52905  1.0000
  C  Sn44      1.0  0.75539  0.56101  0.44383  1.0000
  O  Te41      1.0  0.66935  0.49715  0.31136  1.0000
  O  Te42      1.0  0.80222  0.47858  0.55840  1.0000
  O  Te43      1.0  0.87303  0.57003  0.65334  1.0000
  O  Te44      1.0  0.74013  0.58858  0.40628  1.0000
  Mg  Mg21      1.0  0.87548  0.51902  0.67632  1.0000
  Mg  Mg22      1.0  0.66688  0.54818  0.28846  1.0000
  C  Sn45      1.0  0.96170  0.80005  0.62264  1.0000
  C   C101      1.0  0.91343  0.76849  0.57575  1.0000
  C  Sn46      1.0  0.87438  0.77247  0.46614  1.0000
  C  Sn47      1.0  0.88376  0.80875  0.40194  1.0000
  C   C102      1.0  0.93200  0.84027  0.44879  1.0000
  C  Sn48      1.0  0.97108  0.83632  0.55843  1.0000
  O  Te45      1.0  0.00017  0.79540  0.73236  1.0000
  O  Te46      1.0  0.82644  0.74051  0.42114  1.0000
  O  Te47      1.0  0.84523  0.81337  0.29214  1.0000
  O  Te48      1.0  0.01899  0.86825  0.60340  1.0000
  Mg  Mg23      1.0  0.78633  0.76130  0.26791  1.0000
  Mg  Mg24      1.0  0.05912  0.84748  0.75653  1.0000
