data_image0
_chemical_formula_structural       C6NCNCNC3N2C6O2H15C6NCNCNC3N2C6O2H15C6NCNCNC3N2C6O2H15C6NCNCNC3N2C6O2H15C6NCNCNC3N2C6O2H15C6NCNCNC3N2C6O2H15C2Sn2C2HTe2HMgC2Sn2C2HTe2HMgC2Sn2C2HTe2HMgC2Sn2C2HTe2HMgC2Sn2C2HTe2HMgC2Sn2C2HTe2HMgC2Sn2C2HTe2HMgC2Sn2C2HTe2HMgC2Sn2C2HTe2HMgC2Sn2C2HTe2HMgC2Sn2C2HTe2HMgC2Sn2C2HTe2HMg
_chemical_formula_sum              "C150 N30 O12 H114 Sn24 Te24 Mg12"
_cell_length_a       37.1697
_cell_length_b       37.5879
_cell_length_c       8.05465
_cell_angle_alpha    91.2724
_cell_angle_beta     69.8623
_cell_angle_gamma    120.771

_symmetry_space_group_name_H-M    'P1'
_space_group_IT_number       1

loop_
  _space_group_symop_operation_xyz
  'x, y, z'

loop_
  _atom_site_type_symbol
  _atom_site_label
  _atom_site_symmetry_multiplicity
  _atom_site_fract_x
  _atom_site_fract_y
  _atom_site_fract_z
  _atom_site_occupancy
  C   C1        1.0  0.31578  0.12252  0.87208  1.0000
  C   C2        1.0  0.36015  0.14580  0.86563  1.0000
  C   C3        1.0  0.37750  0.18432  0.92481  1.0000
  C   C4        1.0  0.34579  0.19604  0.99799  1.0000
  C   C5        1.0  0.30012  0.17260  0.00943  1.0000
  C   C6        1.0  0.28394  0.13448  0.94097  1.0000
  N   N1        1.0  0.34980  0.22983  0.08001  1.0000
  C   C7        1.0  0.30833  0.22584  0.14099  1.0000
  N   N2        1.0  0.27790  0.19249  0.09914  1.0000
  C   C8        1.0  0.30114  0.25500  0.25964  1.0000
  N   N3        1.0  0.34587  0.29231  0.24453  1.0000
  C   C9        1.0  0.34784  0.33062  0.18955  1.0000
  C   C10       1.0  0.29829  0.31831  0.25195  1.0000
  C   C11       1.0  0.27349  0.27221  0.22752  1.0000
  N   N4        1.0  0.11285  0.03741  0.87416  1.0000
  N   N5        1.0  0.55423  0.28368  0.93759  1.0000
  C   C12       1.0  0.08608  0.04994  0.85990  1.0000
  C   C13       1.0  0.58091  0.27164  0.95798  1.0000
  C   C14       1.0  0.04800  0.02398  0.82046  1.0000
  C   C15       1.0  0.62002  0.29887  0.98852  1.0000
  C   C16       1.0  0.02249  0.04172  0.80132  1.0000
  C   C17       1.0  0.64631  0.28177  0.00634  1.0000
  O   O1        1.0  0.03591  0.07990  0.81686  1.0000
  O   O2        1.0  0.63348  0.24356  0.99519  1.0000
  H   H1        1.0  0.30613  0.09419  0.81465  1.0000
  H   H2        1.0  0.38249  0.13438  0.80706  1.0000
  H   H3        1.0  0.37631  0.25198  0.10926  1.0000
  H   H4        1.0  0.28336  0.23647  0.39750  1.0000
  H   H5        1.0  0.34799  0.29231  0.36751  1.0000
  H   H6        1.0  0.36516  0.34091  0.04189  1.0000
  H   H7        1.0  0.36820  0.35662  0.24685  1.0000
  H   H8        1.0  0.29381  0.33856  0.17569  1.0000
  H   H9        1.0  0.28568  0.32028  0.39450  1.0000
  H   H10       1.0  0.27349  0.27080  0.09167  1.0000
  H   H11       1.0  0.23788  0.25351  0.32152  1.0000
  H   H12       1.0  0.10148  0.00665  0.84907  1.0000
  H   H13       1.0  0.56742  0.31565  0.94594  1.0000
  H   H14       1.0  0.09433  0.08166  0.87786  1.0000
  H   H15       1.0  0.57246  0.23953  0.94865  1.0000
  C   C18       1.0  0.88628  0.19040  0.74976  1.0000
  C   C19       1.0  0.86046  0.20897  0.78992  1.0000
  C   C20       1.0  0.81514  0.18743  0.91406  1.0000
  C   C21       1.0  0.79809  0.14646  0.99547  1.0000
  C   C22       1.0  0.82355  0.12710  0.95585  1.0000
  C   C23       1.0  0.86885  0.14913  0.82947  1.0000
  N   N6        1.0  0.75698  0.11716  0.13108  1.0000
  C   C24       1.0  0.75950  0.08313  0.16875  1.0000
  N   N7        1.0  0.79836  0.08748  0.06568  1.0000
  C   C25       1.0  0.72205  0.04712  0.31991  1.0000
  N   N8        1.0  0.68187  0.05094  0.39723  1.0000
  C   C26       1.0  0.64418  0.01406  0.36716  1.0000
  C   C27       1.0  0.65383  0.97885  0.36546  1.0000
  C   C28       1.0  0.70560  0.00330  0.26362  1.0000
  N   N9        1.0  0.96687  0.06971  0.76724  1.0000
  N   N10       1.0  0.70585  0.25722  0.02909  1.0000
  C   C29       1.0  0.95572  0.03026  0.75016  1.0000
  C   C30       1.0  0.71550  0.29632  0.04593  1.0000
  C   C31       1.0  0.98198  0.01507  0.76424  1.0000
  C   C32       1.0  0.68751  0.30974  0.03673  1.0000
  C   C33       1.0  0.96634  0.97124  0.74718  1.0000
  C   C34       1.0  0.70190  0.35322  0.05575  1.0000
  O   O3        1.0  0.93023  0.94773  0.72015  1.0000
  O   O4        1.0  0.73804  0.37664  0.08371  1.0000
  H   H16       1.0  0.92074  0.20813  0.64841  1.0000
  H   H17       1.0  0.87535  0.24050  0.71829  1.0000
  H   H18       1.0  0.73030  0.11963  0.20474  1.0000
  H   H19       1.0  0.73581  0.04890  0.42285  1.0000
  H   H20       1.0  0.67419  0.05052  0.53251  1.0000
  H   H21       1.0  0.64473  0.02176  0.23441  1.0000
  H   H22       1.0  0.61139  0.00633  0.46906  1.0000
  H   H23       1.0  0.63544  0.95316  0.30185  1.0000
  H   H24       1.0  0.64427  0.96504  0.50415  1.0000
  H   H25       1.0  0.71482  0.00711  0.11732  1.0000
  H   H26       1.0  0.72175  0.98831  0.29547  1.0000
  H   H27       1.0  0.99756  0.08616  0.78734  1.0000
  H   H28       1.0  0.67481  0.23949  0.01249  1.0000
  H   H29       1.0  0.92517  0.00909  0.72572  1.0000
  H   H30       1.0  0.74636  0.31878  0.06606  1.0000
  C   C35       1.0  0.80441  0.67661  0.97791  1.0000
  C   C36       1.0  0.78230  0.63281  0.02205  1.0000
  C   C37       1.0  0.80130  0.61288  0.07281  1.0000
  C   C38       1.0  0.84312  0.64109  0.08598  1.0000
  C   C39       1.0  0.86638  0.68579  0.04058  1.0000
  C   C40       1.0  0.84767  0.70520  0.97995  1.0000
  N   N11       1.0  0.87143  0.63389  0.13618  1.0000
  C   C41       1.0  0.90860  0.67253  0.12417  1.0000
  N   N12       1.0  0.90728  0.70411  0.06476  1.0000
  C   C42       1.0  0.94464  0.67670  0.18188  1.0000
  N   N13       1.0  0.93659  0.63465  0.23139  1.0000
  C   C43       1.0  0.97408  0.63303  0.09596  1.0000
  C   C44       1.0  0.01536  0.67860  0.03856  1.0000
  C   C45       1.0  0.99396  0.70433  0.03679  1.0000
  N   N14       1.0  0.93868  0.88366  0.75952  1.0000
  N   N15       1.0  0.72443  0.43678  0.08449  1.0000
  C   C46       1.0  0.97810  0.91280  0.77184  1.0000
  C   C47       1.0  0.68658  0.40992  0.05787  1.0000
  C   C48       1.0  0.99334  0.95511  0.76486  1.0000
  C   C49       1.0  0.67409  0.36859  0.04146  1.0000
  C   C50       1.0  0.03521  0.98137  0.79550  1.0000
  C   C51       1.0  0.63324  0.34213  0.00534  1.0000
  O   O5        1.0  0.05887  0.96676  0.80381  1.0000
  O   O6        1.0  0.60968  0.35637  0.99083  1.0000
  H   H31       1.0  0.78795  0.68871  0.93047  1.0000
  H   H32       1.0  0.75045  0.61332  0.00446  1.0000
  H   H33       1.0  0.86365  0.60647  0.20111  1.0000
  H   H34       1.0  0.94204  0.69147  0.30051  1.0000
  H   H35       1.0  0.93792  0.63254  0.35516  1.0000
  H   H36       1.0  0.96505  0.62190  0.97991  1.0000
  H   H37       1.0  0.97910  0.61033  0.15180  1.0000
  H   H38       1.0  0.04212  0.68460  0.90814  1.0000
  H   H39       1.0  0.03041  0.68596  0.14020  1.0000
  H   H40       1.0  0.99319  0.70883  0.90434  1.0000
  H   H41       1.0  0.01220  0.73583  0.06731  1.0000
  H   H42       1.0  0.92189  0.89740  0.73813  1.0000
  H   H43       1.0  0.74194  0.42206  0.08918  1.0000
  H   H44       1.0  0.99874  0.90253  0.79569  1.0000
  H   H45       1.0  0.66548  0.42085  0.04420  1.0000
  C   C52       1.0  0.32212  0.13019  0.39394  1.0000
  C   C53       1.0  0.36697  0.15394  0.38254  1.0000
  C   C54       1.0  0.38527  0.19348  0.43311  1.0000
  C   C55       1.0  0.35369  0.20528  0.50695  1.0000
  C   C56       1.0  0.30761  0.18127  0.52443  1.0000
  C   C57       1.0  0.29060  0.14261  0.46088  1.0000
  N   N16       1.0  0.35829  0.23984  0.58419  1.0000
  C   C58       1.0  0.31679  0.23565  0.64760  1.0000
  N   N17       1.0  0.28572  0.20155  0.61230  1.0000
  C   C59       1.0  0.30941  0.26482  0.76375  1.0000
  N   N18       1.0  0.35380  0.30283  0.74519  1.0000
  C   C60       1.0  0.35639  0.33921  0.66375  1.0000
  C   C61       1.0  0.30714  0.32782  0.72734  1.0000
  C   C62       1.0  0.28058  0.28019  0.72800  1.0000
  N   N19       1.0  0.12093  0.05074  0.38178  1.0000
  N   N20       1.0  0.56277  0.29832  0.43248  1.0000
  C   C63       1.0  0.09426  0.06387  0.37187  1.0000
  C   C64       1.0  0.58931  0.28684  0.45874  1.0000
  C   C65       1.0  0.05703  0.03922  0.32558  1.0000
  C   C66       1.0  0.62800  0.31419  0.49130  1.0000
  C   C67       1.0  0.03081  0.05705  0.31437  1.0000
  C   C68       1.0  0.65324  0.29662  0.51581  1.0000
  O   O7        1.0  0.04260  0.09428  0.34066  1.0000
  O   O8        1.0  0.63879  0.25783  0.51131  1.0000
  H   H46       1.0  0.31181  0.10103  0.34254  1.0000
  H   H47       1.0  0.38883  0.14192  0.32669  1.0000
  H   H48       1.0  0.38527  0.26280  0.60866  1.0000
  H   H49       1.0  0.29210  0.24641  0.90114  1.0000
  H   H50       1.0  0.35446  0.30631  0.87039  1.0000
  H   H51       1.0  0.37127  0.34341  0.51583  1.0000
  H   H52       1.0  0.37886  0.36827  0.70086  1.0000
  H   H53       1.0  0.30242  0.34596  0.64111  1.0000
  H   H54       1.0  0.29641  0.33390  0.86427  1.0000
  H   H55       1.0  0.27780  0.27412  0.59788  1.0000
  H   H56       1.0  0.24588  0.26337  0.83073  1.0000
  H   H57       1.0  0.11028  0.02090  0.34624  1.0000
  H   H58       1.0  0.57533  0.33025  0.43638  1.0000
  H   H59       1.0  0.10183  0.09485  0.40036  1.0000
  H   H60       1.0  0.58090  0.25464  0.45309  1.0000
  C   C69       1.0  0.88468  0.19676  0.27209  1.0000
  C   C70       1.0  0.85890  0.21528  0.30966  1.0000
  C   C71       1.0  0.81278  0.19311  0.42475  1.0000
  C   C72       1.0  0.79484  0.15128  0.49899  1.0000
  C   C73       1.0  0.82051  0.13214  0.46575  1.0000
  C   C74       1.0  0.86678  0.15503  0.34804  1.0000
  N   N21       1.0  0.75242  0.12107  0.62496  1.0000
  C   C75       1.0  0.75389  0.08630  0.66269  1.0000
  N   N22       1.0  0.79394  0.09169  0.57062  1.0000
  C   C76       1.0  0.71415  0.04898  0.80483  1.0000
  N   N23       1.0  0.67048  0.04546  0.83169  1.0000
  C   C77       1.0  0.63487  0.99998  0.85939  1.0000
  C   C78       1.0  0.65605  0.97530  0.88044  1.0000
  C   C79       1.0  0.70669  0.00599  0.76625  1.0000
  N   N24       1.0  0.97366  0.08452  0.28155  1.0000
  N   N25       1.0  0.70960  0.26955  0.54620  1.0000
  C   C80       1.0  0.96449  0.04580  0.25836  1.0000
  C   C81       1.0  0.72199  0.30972  0.55351  1.0000
  C   C82       1.0  0.99102  0.03100  0.27162  1.0000
  C   C83       1.0  0.69505  0.32436  0.54224  1.0000
  C   C84       1.0  0.97608  0.98770  0.24610  1.0000
  C   C85       1.0  0.71119  0.36868  0.55001  1.0000
  O   O9        1.0  0.94021  0.96488  0.21656  1.0000
  O   O10       1.0  0.74854  0.39299  0.56768  1.0000
  H   H61       1.0  0.91989  0.21518  0.17746  1.0000
  H   H62       1.0  0.87462  0.24756  0.24399  1.0000
  H   H63       1.0  0.72402  0.12214  0.66996  1.0000
  H   H64       1.0  0.72033  0.05359  0.93052  1.0000
  H   H65       1.0  0.66127  0.05702  0.94347  1.0000
  H   H66       1.0  0.62579  0.99394  0.74079  1.0000
  H   H67       1.0  0.60390  0.99164  0.97577  1.0000
  H   H68       1.0  0.64169  0.94496  0.83605  1.0000
  H   H69       1.0  0.65073  0.96897  0.02204  1.0000
  H   H70       1.0  0.71359  0.00518  0.62279  1.0000
  H   H71       1.0  0.72948  0.99979  0.79909  1.0000
  H   H72       1.0  0.00311  0.10146  0.30900  1.0000
  H   H73       1.0  0.67771  0.25259  0.53508  1.0000
  H   H74       1.0  0.93483  0.02453  0.22826  1.0000
  H   H75       1.0  0.75407  0.33206  0.56562  1.0000
  C   C86       1.0  0.81192  0.69445  0.46266  1.0000
  C   C87       1.0  0.78952  0.65054  0.50323  1.0000
  C   C88       1.0  0.80788  0.62996  0.55453  1.0000
  C   C89       1.0  0.84932  0.65777  0.57193  1.0000
  C   C90       1.0  0.87360  0.70251  0.52458  1.0000
  C   C91       1.0  0.85548  0.72245  0.46339  1.0000
  N   N26       1.0  0.87667  0.64988  0.62548  1.0000
  C   C92       1.0  0.91497  0.68799  0.60825  1.0000
  N   N27       1.0  0.91474  0.72007  0.54648  1.0000
  C   C93       1.0  0.95163  0.69057  0.65669  1.0000
  N   N28       1.0  0.94296  0.64773  0.69782  1.0000
  C   C94       1.0  0.98444  0.64831  0.58757  1.0000
  C   C95       1.0  0.02341  0.69490  0.53120  1.0000
  C   C96       1.0  0.00012  0.71731  0.50837  1.0000
  N   N29       1.0  0.94933  0.90102  0.24208  1.0000
  N   N30       1.0  0.73391  0.45371  0.56912  1.0000
  C   C97       1.0  0.98877  0.92954  0.25538  1.0000
  C   C98       1.0  0.69578  0.42547  0.54690  1.0000
  C   C99       1.0  0.00342  0.97154  0.25760  1.0000
  C   C100      1.0  0.68319  0.38405  0.53619  1.0000
  C   C101      1.0  0.04505  0.99722  0.28997  1.0000
  C   C102      1.0  0.64177  0.35759  0.50317  1.0000
  O   O11       1.0  0.06933  0.98275  0.29062  1.0000
  O   O12       1.0  0.61884  0.37211  0.48380  1.0000
  H   H76       1.0  0.79536  0.70721  0.42024  1.0000
  H   H77       1.0  0.75792  0.63172  0.48309  1.0000
  H   H78       1.0  0.86925  0.62203  0.68370  1.0000
  H   H79       1.0  0.95090  0.70497  0.77706  1.0000
  H   H80       1.0  0.93587  0.64088  0.83133  1.0000
  H   H81       1.0  0.98063  0.63472  0.46750  1.0000
  H   H82       1.0  0.98947  0.62864  0.66418  1.0000
  H   H83       1.0  0.05225  0.70130  0.40808  1.0000
  H   H84       1.0  0.03613  0.70482  0.63911  1.0000
  H   H85       1.0  0.99886  0.71700  0.37426  1.0000
  H   H86       1.0  0.01700  0.75033  0.52428  1.0000
  H   H87       1.0  0.93260  0.91510  0.22351  1.0000
  H   H88       1.0  0.75262  0.44040  0.57223  1.0000
  H   H89       1.0  0.01001  0.91915  0.27161  1.0000
  H   H90       1.0  0.67393  0.43529  0.53228  1.0000
  C   C103      1.0  0.19864  0.12312  0.97182  1.0000
  C   C104      1.0  0.22991  0.11182  0.95708  1.0000
  C  Sn1       1.0  0.22284  0.07373  0.90591  1.0000
  C  Sn2       1.0  0.18371  0.04652  0.86886  1.0000
  C   C105      1.0  0.15266  0.05813  0.88387  1.0000
  C   C106      1.0  0.16005  0.09631  0.93523  1.0000
  H   H91       1.0  0.30210  0.19735  0.01146  1.0000
  O  Te1       1.0  0.25441  0.06292  0.89191  1.0000
  O  Te2       1.0  0.17582  0.00827  0.81739  1.0000
  H   H92       1.0  0.13586  0.10506  0.94652  1.0000
  Mg  Mg1       1.0  0.22869  0.00746  0.81715  1.0000
  C   C107      1.0  0.48349  0.27775  0.86656  1.0000
  C   C108      1.0  0.50724  0.26434  0.92060  1.0000
  C  Sn3       1.0  0.48942  0.22132  0.96660  1.0000
  C  Sn4       1.0  0.44703  0.19125  0.95817  1.0000
  C   C109      1.0  0.42354  0.20499  0.90382  1.0000
  C   C110      1.0  0.44168  0.24811  0.85814  1.0000
  H   H93       1.0  0.49753  0.31111  0.83112  1.0000
  O  Te3       1.0  0.61131  0.25315  0.02037  1.0000
  O  Te4       1.0  0.52616  0.19274  0.00335  1.0000
  H   H94       1.0  0.42329  0.25848  0.81620  1.0000
  Mg  Mg2       1.0  0.57193  0.19081  0.06864  1.0000
  C   C111      1.0  0.96230  0.14091  0.79245  1.0000
  C   C112      1.0  0.94821  0.09906  0.77804  1.0000
  C  Sn5       1.0  0.90675  0.07206  0.76207  1.0000
  C  Sn6       1.0  0.87896  0.08732  0.76047  1.0000
  C   C113      1.0  0.89337  0.12925  0.77484  1.0000
  C   C114      1.0  0.93491  0.15600  0.79082  1.0000
  H   H95       1.0  0.99445  0.16161  0.80472  1.0000
  O  Te5       1.0  0.89319  0.03033  0.74787  1.0000
  O  Te6       1.0  0.83737  0.06102  0.74459  1.0000
  H   H96       1.0  0.94582  0.18840  0.80186  1.0000
  Mg  Mg3       1.0  0.83365  0.00666  0.72903  1.0000
  C   C115      1.0  0.80177  0.25609  0.99703  1.0000
  C   C116      1.0  0.79039  0.21515  0.97476  1.0000
  C  Sn7       1.0  0.74849  0.18621  0.96603  1.0000
  C  Sn8       1.0  0.71750  0.19858  0.97984  1.0000
  C   C117      1.0  0.82695  0.28430  0.00197  1.0000
  C   C118      1.0  0.86895  0.31300  0.01060  1.0000
  H   H97       1.0  0.93201  0.32299  0.00361  1.0000
  O  Te7       1.0  0.73765  0.14543  0.94381  1.0000
  O  Te8       1.0  0.67540  0.17029  0.97148  1.0000
  H   H98       1.0  0.87777  0.34471  0.02772  1.0000
  Mg  Mg4       1.0  0.67616  0.11825  0.94015  1.0000
  C   C119      1.0  0.93876  0.81279  0.86882  1.0000
  C   C120      1.0  0.92549  0.83644  0.80401  1.0000
  C  Sn9       1.0  0.88208  0.81683  0.80158  1.0000
  C  Sn10      1.0  0.85145  0.77272  0.86535  1.0000
  C   C121      1.0  0.86503  0.74933  0.93004  1.0000
  C   C122      1.0  0.90856  0.76928  0.93181  1.0000
  H   H99       1.0  0.97243  0.82822  0.87029  1.0000
  O  Te9       1.0  0.86938  0.84093  0.73631  1.0000
  O  Te10      1.0  0.80785  0.75232  0.86450  1.0000
  H   H100      1.0  0.91882  0.75096  0.98211  1.0000
  Mg  Mg5       1.0  0.80633  0.79875  0.76245  1.0000
  C   C123      1.0  0.72304  0.52846  0.14929  1.0000
  C   C124      1.0  0.76810  0.55997  0.11555  1.0000
  C  Sn11      1.0  0.80182  0.55062  0.06158  1.0000
  C  Sn12      1.0  0.79011  0.50893  0.04108  1.0000
  C   C125      1.0  0.74494  0.47763  0.07503  1.0000
  C   C126      1.0  0.71147  0.48733  0.12903  1.0000
  H   H101      1.0  0.69715  0.53596  0.19097  1.0000
  O  Te11      1.0  0.84667  0.58248  0.02850  1.0000
  O  Te12      1.0  0.72542  0.45404  0.98723  1.0000
  H   H102      1.0  0.67659  0.46293  0.15502  1.0000
  Mg  Mg6       1.0  0.78184  0.50833  0.95806  1.0000
  C   C127      1.0  0.18136  0.11914  0.50182  1.0000
  C   C128      1.0  0.16318  0.08331  0.42651  1.0000
  C  Sn13      1.0  0.18564  0.06195  0.37219  1.0000
  C  Sn14      1.0  0.22705  0.07680  0.39387  1.0000
  C   C129      1.0  0.24494  0.11266  0.46947  1.0000
  C   C130      1.0  0.22219  0.13380  0.52332  1.0000
  H   H103      1.0  0.16375  0.13549  0.54357  1.0000
  O  Te13      1.0  0.16702  0.02622  0.29714  1.0000
  O  Te14      1.0  0.25020  0.05604  0.34079  1.0000
  H   H104      1.0  0.23626  0.16152  0.58173  1.0000
  Mg  Mg7       1.0  0.21120  0.00874  0.24545  1.0000
  C   C131      1.0  0.46434  0.20300  0.46655  1.0000
  C   C132      1.0  0.43716  0.21490  0.43268  1.0000
  C  Sn15      1.0  0.45406  0.25744  0.37958  1.0000
  C  Sn16      1.0  0.49902  0.28857  0.36009  1.0000
  C   C133      1.0  0.52595  0.27633  0.39418  1.0000
  C   C134      1.0  0.50870  0.23368  0.44729  1.0000
  H   H105      1.0  0.45100  0.16999  0.50755  1.0000
  O  Te15      1.0  0.42644  0.26879  0.34635  1.0000
  O  Te16      1.0  0.51677  0.33131  0.30714  1.0000
  H   H106      1.0  0.52976  0.22447  0.47339  1.0000
  Mg  Mg8       1.0  0.46594  0.33106  0.27736  1.0000
  C   C135      1.0  0.96364  0.15289  0.30976  1.0000
  C   C136      1.0  0.95216  0.11160  0.29518  1.0000
  C  Sn17      1.0  0.91114  0.08255  0.27986  1.0000
  C  Sn18      1.0  0.88114  0.09516  0.27911  1.0000
  C   C137      1.0  0.89296  0.13654  0.29364  1.0000
  C   C138      1.0  0.93408  0.16536  0.30896  1.0000
  H   H107      1.0  0.99547  0.17519  0.32152  1.0000
  O  Te17      1.0  0.90018  0.04142  0.26548  1.0000
  O  Te18      1.0  0.83995  0.06676  0.26389  1.0000
  H   H108      1.0  0.94298  0.19733  0.32013  1.0000
  Mg  Mg9       1.0  0.84015  0.01422  0.24776  1.0000
  C   C139      1.0  0.80254  0.26305  0.51163  1.0000
  C   C140      1.0  0.78953  0.22192  0.48657  1.0000
  C  Sn19      1.0  0.74762  0.19475  0.47437  1.0000
  C  Sn20      1.0  0.71828  0.20912  0.48750  1.0000
  C   C141      1.0  0.73163  0.25034  0.51243  1.0000
  C   C142      1.0  0.77363  0.27725  0.52452  1.0000
  H   H109      1.0  0.83505  0.28389  0.52088  1.0000
  O  Te19      1.0  0.73514  0.15375  0.44940  1.0000
  O  Te20      1.0  0.67622  0.18264  0.47569  1.0000
  H   H110      1.0  0.78371  0.30911  0.54380  1.0000
  Mg  Mg10      1.0  0.67439  0.12950  0.44150  1.0000
  C   C143      1.0  0.94499  0.82984  0.37833  1.0000
  C   C144      1.0  0.93527  0.85369  0.29174  1.0000
  C  Sn21      1.0  0.89507  0.83415  0.26141  1.0000
  C  Sn22      1.0  0.86409  0.78992  0.31903  1.0000
  C   C145      1.0  0.87411  0.76635  0.40566  1.0000
  C   C146      1.0  0.91444  0.78621  0.43527  1.0000
  H   H111      1.0  0.97618  0.84521  0.40134  1.0000
  O  Te21      1.0  0.88590  0.85845  0.17464  1.0000
  O  Te22      1.0  0.82366  0.76959  0.29049  1.0000
  H   H112      1.0  0.92194  0.76775  0.50243  1.0000
  Mg  Mg11      1.0  0.82634  0.81629  0.16640  1.0000
  C   C147      1.0  0.81575  0.55729  0.54159  1.0000
  C   C148      1.0  0.79557  0.58057  0.55454  1.0000
  C  Sn23      1.0  0.74907  0.56005  0.59402  1.0000
  C  Sn24      1.0  0.72236  0.51539  0.62101  1.0000
  C   C149      1.0  0.74287  0.49238  0.60789  1.0000
  C   C150      1.0  0.78943  0.51324  0.56826  1.0000
  H   H113      1.0  0.85178  0.57342  0.51103  1.0000
  O  Te23      1.0  0.72945  0.58379  0.60640  1.0000
  O  Te24      1.0  0.67581  0.49407  0.66070  1.0000
  H   H114      1.0  0.80504  0.49521  0.55836  1.0000
  Mg  Mg12      1.0  0.66469  0.54032  0.66336  1.0000
