data_image0
_chemical_formula_structural       CN2C4N4H4C2N2C4N4H4CSnCSn2CSnTe4Mg2SnCSn2CSnTe4Mg2SnCSn2CSnTe4Mg2SnCSn2CSnTe4Mg2SnCSn2CSnTe4Mg2SnCSn2CSnTe4Mg2SnCSn2CSnTe4Mg2SnCSn2CSnTe4Mg2SnCSn2CSnTe4Mg2SnCSn2CSnTe4Mg2SnCSn2CSnTe4Mg2SnCSn2CSnTe4Mg2SnCSn2CSnTe4Mg2SnCSn2CSnTe4Mg2SnCSn2CSnTe4Mg2SnCSn2CSnTe4Mg2SnCSn2CSnTe4Mg2SnCSn2CSnTe4Mg2SnCSn2CSnTe4Mg2SnCSn2CSnTe4Mg2
_chemical_formula_sum              "C52 N12 H8 Sn80 Te80 Mg40"
_cell_length_a       22.8811
_cell_length_b       21.3327
_cell_length_c       10.0959
_cell_angle_alpha    61.8615
_cell_angle_beta     85.2022
_cell_angle_gamma    86.0194

_symmetry_space_group_name_H-M    'P1'
_space_group_IT_number       1

loop_
  _space_group_symop_operation_xyz
  'x, y, z'

loop_
  _atom_site_type_symbol
  _atom_site_label
  _atom_site_symmetry_multiplicity
  _atom_site_fract_x
  _atom_site_fract_y
  _atom_site_fract_z
  _atom_site_occupancy
  C   C1        1.0  0.02256  0.98805  0.41337  1.0000
  N   N1        1.0  0.27957  0.47811  0.37127  1.0000
  N   N2        1.0  0.70928  0.50042  0.44978  1.0000
  C   C2        1.0  0.14516  0.72558  0.30543  1.0000
  C   C3        1.0  0.18014  0.24244  0.36286  1.0000
  C   C4        1.0  0.81385  0.74614  0.39940  1.0000
  C   C5        1.0  0.84858  0.26104  0.49728  1.0000
  N   N3        1.0  0.15561  0.75578  0.38594  1.0000
  N   N4        1.0  0.82464  0.20157  0.53235  1.0000
  N   N5        1.0  0.84355  0.74539  0.50391  1.0000
  N   N6        1.0  0.12479  0.23787  0.35339  1.0000
  H   H1        1.0  0.11146  0.74568  0.22211  1.0000
  H   H2        1.0  0.21201  0.20157  0.36169  1.0000
  H   H3        1.0  0.80743  0.79399  0.29146  1.0000
  H   H4        1.0  0.89379  0.27168  0.44759  1.0000
  C   C6        1.0  0.96262  0.98679  0.44361  1.0000
  C   C7        1.0  0.02257  0.99181  0.91876  1.0000
  N   N7        1.0  0.28110  0.49114  0.83474  1.0000
  N   N8        1.0  0.70923  0.50552  0.94401  1.0000
  C   C8        1.0  0.14342  0.72674  0.82410  1.0000
  C   C9        1.0  0.18713  0.24688  0.84935  1.0000
  C   C10       1.0  0.80807  0.74912  0.91642  1.0000
  C   C11       1.0  0.84219  0.26344  0.98180  1.0000
  N   N9        1.0  0.16289  0.76997  0.86594  1.0000
  N   N10       1.0  0.81823  0.20420  0.01457  1.0000
  N   N11       1.0  0.85161  0.74524  0.99454  1.0000
  N   N12       1.0  0.13141  0.24010  0.85120  1.0000
  H   H5        1.0  0.09843  0.73089  0.78926  1.0000
  H   H6        1.0  0.21918  0.20759  0.84185  1.0000
  H   H7        1.0  0.78668  0.80007  0.84079  1.0000
  H   H8        1.0  0.88846  0.27269  0.94057  1.0000
  C   C12       1.0  0.96246  0.98932  0.94468  1.0000
  C  Sn1       1.0  0.08921  0.05966  0.52564  1.0000
  C   C13       1.0  0.05128  0.05346  0.43121  1.0000
  C  Sn2       1.0  0.04446  0.10885  0.28585  1.0000
  C  Sn3       1.0  0.07625  0.17174  0.23375  1.0000
  C   C14       1.0  0.11416  0.17792  0.32813  1.0000
  C  Sn4       1.0  0.12100  0.12255  0.47353  1.0000
  O  Te1       1.0  0.09535  0.00361  0.67052  1.0000
  O  Te2       1.0  0.00626  0.10142  0.19354  1.0000
  O  Te3       1.0  0.07008  0.22781  0.08873  1.0000
  O  Te4       1.0  0.15917  0.12995  0.56580  1.0000
  Mg  Mg1       1.0  0.01281  0.19248  0.00521  1.0000
  Mg  Mg2       1.0  0.15269  0.03892  0.75411  1.0000
  C  Sn5       1.0  0.19672  0.91270  0.40846  1.0000
  C   C15       1.0  0.14086  0.94026  0.35920  1.0000
  C  Sn6       1.0  0.03826  0.90078  0.32836  1.0000
  C  Sn7       1.0  0.05658  0.83230  0.34725  1.0000
  C   C16       1.0  0.11241  0.80477  0.39651  1.0000
  C  Sn8       1.0  0.15032  0.84423  0.42735  1.0000
  O  Te5       1.0  0.23386  0.95311  0.43863  1.0000
  O  Te6       1.0  0.98262  0.92946  0.27919  1.0000
  O  Te7       1.0  0.01938  0.79190  0.31704  1.0000
  O  Te8       1.0  0.20592  0.81557  0.47652  1.0000
  Mg  Mg3       1.0  0.94786  0.85393  0.25274  1.0000
  Mg  Mg4       1.0  0.30543  0.89104  0.50308  1.0000
  C  Sn9       1.0  0.83255  0.08208  0.48988  1.0000
  C   C17       1.0  0.84986  0.12545  0.54773  1.0000
  C  Sn10      1.0  0.90929  0.13171  0.56006  1.0000
  C  Sn11      1.0  0.95231  0.09388  0.51350  1.0000
  C   C18       1.0  0.93499  0.05056  0.45567  1.0000
  C  Sn12      1.0  0.87558  0.04425  0.44333  1.0000
  O  Te9       1.0  0.77290  0.07662  0.47858  1.0000
  O  Te10      1.0  0.92552  0.17537  0.61829  1.0000
  O  Te11      1.0  0.01200  0.09938  0.52486  1.0000
  O  Te12      1.0  0.85933  0.00063  0.38511  1.0000
  Mg  Mg5       1.0  0.01225  0.16553  0.61133  1.0000
  Mg  Mg6       1.0  0.77262  0.01046  0.39195  1.0000
  C  Sn13      1.0  0.93255  0.92911  0.36897  1.0000
  C   C19       1.0  0.97334  0.92959  0.46405  1.0000
  C  Sn14      1.0  0.93430  0.86593  0.56932  1.0000
  C  Sn15      1.0  0.91891  0.80042  0.57972  1.0000
  C   C20       1.0  0.87815  0.79996  0.48467  1.0000
  C  Sn16      1.0  0.85245  0.86360  0.37937  1.0000
  O  Te13      1.0  0.90744  0.99339  0.26456  1.0000
  O  Te14      1.0  0.03967  0.86776  0.66319  1.0000
  O  Te15      1.0  0.94407  0.73611  0.68425  1.0000
  O  Te16      1.0  0.81183  0.86179  0.28553  1.0000
  Mg  Mg7       1.0  0.99720  0.76614  0.78727  1.0000
  Mg  Mg8       1.0  0.78957  0.96338  0.16136  1.0000
  C  Sn17      1.0  0.41245  0.56214  0.31567  1.0000
  C   C21       1.0  0.45341  0.50875  0.39762  1.0000
  C  Sn18      1.0  0.43944  0.43720  0.46225  1.0000
  C  Sn19      1.0  0.38335  0.41862  0.44455  1.0000
  C   C22       1.0  0.34243  0.47199  0.36262  1.0000
  C  Sn20      1.0  0.35636  0.54356  0.29796  1.0000
  O  Te17      1.0  0.42737  0.63333  0.25203  1.0000
  O  Te18      1.0  0.48111  0.38477  0.54372  1.0000
  O  Te19      1.0  0.36846  0.34737  0.50828  1.0000
  O  Te20      1.0  0.31473  0.59597  0.21652  1.0000
  Mg  Mg9       1.0  0.44010  0.29525  0.60907  1.0000
  Mg  Mg10      1.0  0.35570  0.68550  0.15106  1.0000
  C  Sn21      1.0  0.59357  0.54845  0.45986  1.0000
  C   C23       1.0  0.63853  0.50028  0.46172  1.0000
  C  Sn22      1.0  0.63018  0.45283  0.40637  1.0000
  C  Sn23      1.0  0.57575  0.45358  0.34785  1.0000
  C   C24       1.0  0.53083  0.50173  0.34598  1.0000
  C  Sn24      1.0  0.53914  0.54919  0.40133  1.0000
  O  Te21      1.0  0.60289  0.59540  0.51577  1.0000
  O  Te22      1.0  0.67577  0.40515  0.40947  1.0000
  O  Te23      1.0  0.56645  0.40657  0.29192  1.0000
  O  Te24      1.0  0.49359  0.59685  0.39823  1.0000
  Mg  Mg11      1.0  0.64188  0.35167  0.32036  1.0000
  Mg  Mg12      1.0  0.52744  0.65038  0.48724  1.0000
  C  Sn25      1.0  0.24428  0.63119  0.40609  1.0000
  C   C25       1.0  0.19985  0.66764  0.30786  1.0000
  C  Sn26      1.0  0.17216  0.63507  0.23931  1.0000
  C  Sn27      1.0  0.18920  0.56457  0.26964  1.0000
  C   C26       1.0  0.23359  0.52815  0.36783  1.0000
  C  Sn28      1.0  0.26132  0.56069  0.43642  1.0000
  O  Te25      1.0  0.27136  0.66479  0.47337  1.0000
  O  Te26      1.0  0.12787  0.67259  0.14148  1.0000
  O  Te27      1.0  0.16208  0.53099  0.20226  1.0000
  O  Te28      1.0  0.30557  0.52320  0.53422  1.0000
  Mg  Mg13      1.0  0.10408  0.60400  0.07735  1.0000
  Mg  Mg14      1.0  0.32937  0.59172  0.59847  1.0000
  C  Sn29      1.0  0.27762  0.31208  0.37728  1.0000
  C   C27       1.0  0.21913  0.29215  0.40944  1.0000
  C  Sn30      1.0  0.17498  0.33940  0.41597  1.0000
  C  Sn31      1.0  0.18957  0.40802  0.38972  1.0000
  C   C28       1.0  0.24802  0.42792  0.35755  1.0000
  C  Sn32      1.0  0.29222  0.38070  0.35103  1.0000
  O  Te29      1.0  0.32105  0.26398  0.37131  1.0000
  O  Te30      1.0  0.11682  0.31826  0.44837  1.0000
  O  Te31      1.0  0.14609  0.45612  0.39571  1.0000
  O  Te32      1.0  0.35034  0.40181  0.31862  1.0000
  Mg  Mg15      1.0  0.07327  0.40267  0.44394  1.0000
  Mg  Mg16      1.0  0.39392  0.31746  0.32294  1.0000
  C  Sn33      1.0  0.80520  0.59620  0.53306  1.0000
  C   C29       1.0  0.80113  0.66642  0.41869  1.0000
  C  Sn34      1.0  0.75872  0.68703  0.31269  1.0000
  C  Sn35      1.0  0.71953  0.63640  0.32121  1.0000
  C   C30       1.0  0.72361  0.56623  0.43553  1.0000
  C  Sn36      1.0  0.76602  0.54558  0.54158  1.0000
  O  Te33      1.0  0.84794  0.57679  0.63783  1.0000
  O  Te34      1.0  0.75551  0.75753  0.19935  1.0000
  O  Te35      1.0  0.67677  0.65587  0.21630  1.0000
  O  Te36      1.0  0.76923  0.47513  0.65488  1.0000
  Mg  Mg17      1.0  0.68979  0.75820  0.08292  1.0000
  Mg  Mg18      1.0  0.83491  0.47440  0.77140  1.0000
  C  Sn37      1.0  0.80595  0.43973  0.36976  1.0000
  C   C31       1.0  0.75146  0.44074  0.44257  1.0000
  C  Sn38      1.0  0.73094  0.37909  0.56652  1.0000
  C  Sn39      1.0  0.76561  0.31509  0.61885  1.0000
  C   C32       1.0  0.82006  0.31410  0.54608  1.0000
  C  Sn40      1.0  0.84062  0.37573  0.42210  1.0000
  O  Te37      1.0  0.82560  0.50199  0.24607  1.0000
  O  Te38      1.0  0.67631  0.38141  0.63743  1.0000
  O  Te39      1.0  0.74591  0.25281  0.74265  1.0000
  O  Te40      1.0  0.89521  0.37344  0.35122  1.0000
  Mg  Mg19      1.0  0.66859  0.28275  0.80158  1.0000
  Mg  Mg20      1.0  0.90299  0.47206  0.18712  1.0000
  C  Sn41      1.0  0.05157  0.17522  0.76985  1.0000
  C   C33       1.0  0.08916  0.18136  0.86505  1.0000
  C  Sn42      1.0  0.11624  0.12083  0.97638  1.0000
  C  Sn43      1.0  0.10557  0.05274  0.99286  1.0000
  C   C34       1.0  0.06802  0.04663  0.89768  1.0000
  C  Sn44      1.0  0.04090  0.10713  0.78633  1.0000
  O  Te41      1.0  0.02497  0.23645  0.65932  1.0000
  O  Te42      1.0  0.17619  0.34982  0.07024  1.0000
  O  Te43      1.0  0.15478  0.21300  0.10350  1.0000
  O  Te44      1.0  0.00355  0.09968  0.69249  1.0000
  Mg  Mg21      1.0  0.20216  0.25060  0.20392  1.0000
  Mg  Mg22      1.0  0.97758  0.19886  0.55873  1.0000
  C  Sn45      1.0  0.13419  0.87420  0.76308  1.0000
  C   C35       1.0  0.18883  0.84468  0.81911  1.0000
  C  Sn46      1.0  0.21110  0.85640  0.92995  1.0000
  C  Sn47      1.0  0.17805  0.89847  0.98603  1.0000
  C   C36       1.0  0.12343  0.92796  0.93003  1.0000
  C  Sn48      1.0  0.10113  0.91628  0.81917  1.0000
  O  Te45      1.0  0.11278  0.86178  0.65230  1.0000
  O  Te46      1.0  0.26585  0.82635  0.98418  1.0000
  O  Te47      1.0  0.22207  0.13239  0.09690  1.0000
  O  Te48      1.0  0.04642  0.94629  0.76496  1.0000
  Mg  Mg23      1.0  0.29885  0.08001  0.13514  1.0000
  Mg  Mg24      1.0  0.03593  0.91415  0.61407  1.0000
  C  Sn49      1.0  0.92818  0.13985  0.00861  1.0000
  C   C37       1.0  0.84691  0.93813  0.97640  1.0000
  C  Sn50      1.0  0.81137  0.89453  0.95137  1.0000
  C  Sn51      1.0  0.83499  0.82977  0.95878  1.0000
  C   C38       1.0  0.89365  0.81001  0.99100  1.0000
  C  Sn52      1.0  0.95180  0.07509  0.01602  1.0000
  O  Te49      1.0  0.96291  0.18426  0.03324  1.0000
  O  Te50      1.0  0.75282  0.91545  0.91931  1.0000
  O  Te51      1.0  0.73549  0.78536  0.93411  1.0000
  O  Te52      1.0  0.01031  0.05419  0.04809  1.0000
  Mg  Mg25      1.0  0.72308  0.83692  0.89430  1.0000
  Mg  Mg26      1.0  0.04008  0.13267  0.07320  1.0000
  C  Sn53      1.0  0.90457  0.81401  0.12107  1.0000
  C   C39       1.0  0.86932  0.81129  0.01746  1.0000
  C  Sn54      1.0  0.84537  0.64587  0.87110  1.0000
  C  Sn55      1.0  0.87996  0.70593  0.82734  1.0000
  C   C40       1.0  0.91519  0.70863  0.93091  1.0000
  C  Sn56      1.0  0.93916  0.87407  0.07732  1.0000
  O  Te53      1.0  0.90528  0.75731  0.26679  1.0000
  O  Te54      1.0  0.80977  0.64195  0.76952  1.0000
  O  Te55      1.0  0.87922  0.76265  0.68149  1.0000
  O  Te56      1.0  0.97474  0.87796  0.17885  1.0000
  Mg  Mg27      1.0  0.82373  0.73254  0.58380  1.0000
  Mg  Mg28      1.0  0.96084  0.78740  0.36456  1.0000
  C  Sn57      1.0  0.42803  0.54004  0.71397  1.0000
  C   C41       1.0  0.45744  0.51629  0.84604  1.0000
  C  Sn58      1.0  0.42966  0.47263  0.98559  1.0000
  C  Sn59      1.0  0.37126  0.45224  0.99329  1.0000
  C   C42       1.0  0.34189  0.47599  0.86127  1.0000
  C  Sn60      1.0  0.36964  0.51966  0.72167  1.0000
  O  Te57      1.0  0.45667  0.58365  0.57569  1.0000
  O  Te58      1.0  0.48252  0.67108  0.11608  1.0000
  O  Te59      1.0  0.36520  0.63011  0.13172  1.0000
  O  Te60      1.0  0.33938  0.54271  0.59123  1.0000
  Mg  Mg29      1.0  0.42480  0.61237  0.27787  1.0000
  Mg  Mg30      1.0  0.39707  0.60138  0.42939  1.0000
  C  Sn61      1.0  0.55808  0.54502  0.96678  1.0000
  C   C43       1.0  0.53240  0.52350  0.87463  1.0000
  C  Sn62      1.0  0.56574  0.48611  0.81082  1.0000
  C  Sn63      1.0  0.62599  0.46984  0.83978  1.0000
  C   C44       1.0  0.65163  0.49134  0.93190  1.0000
  C  Sn64      1.0  0.61832  0.52875  0.99575  1.0000
  O  Te61      1.0  0.54648  0.80385  0.02940  1.0000
  O  Te62      1.0  0.53910  0.46518  0.71902  1.0000
  O  Te63      1.0  0.66014  0.43248  0.77707  1.0000
  O  Te64      1.0  0.66749  0.77118  0.08751  1.0000
  Mg  Mg31      1.0  0.60395  0.41543  0.65966  1.0000
  Mg  Mg32      1.0  0.60269  0.82089  0.14700  1.0000
  C  Sn65      1.0  0.18562  0.58833  0.73286  1.0000
  C   C45       1.0  0.24223  0.56541  0.78191  1.0000
  C  Sn66      1.0  0.26728  0.59022  0.86917  1.0000
  C  Sn67      1.0  0.23506  0.63894  0.90831  1.0000
  C   C46       1.0  0.17849  0.66182  0.85930  1.0000
  C  Sn68      1.0  0.15340  0.63704  0.77201  1.0000
  O  Te65      1.0  0.16144  0.56282  0.64574  1.0000
  O  Te66      1.0  0.32395  0.56656  0.91684  1.0000
  O  Te67      1.0  0.25929  0.66444  0.99550  1.0000
  O  Te68      1.0  0.09676  0.66067  0.72437  1.0000
  Mg  Mg33      1.0  0.36048  0.83806  0.03345  1.0000
  Mg  Mg34      1.0  0.08275  0.61069  0.60782  1.0000
  C  Sn69      1.0  0.28424  0.32621  0.83667  1.0000
  C   C47       1.0  0.22840  0.29883  0.88923  1.0000
  C  Sn70      1.0  0.18293  0.34024  0.91304  1.0000
  C  Sn71      1.0  0.19349  0.41051  0.88361  1.0000
  C   C48       1.0  0.24929  0.43785  0.83106  1.0000
  C  Sn72      1.0  0.29479  0.39647  0.80725  1.0000
  O  Te69      1.0  0.32903  0.28386  0.81367  1.0000
  O  Te70      1.0  0.12748  0.31170  0.96568  1.0000
  O  Te71      1.0  0.14863  0.45285  0.90667  1.0000
  O  Te72      1.0  0.35021  0.42498  0.75462  1.0000
  Mg  Mg35      1.0  0.08062  0.39022  0.97943  1.0000
  Mg  Mg36      1.0  0.39709  0.34653  0.74075  1.0000
  C  Sn73      1.0  0.72530  0.65115  0.80093  1.0000
  C   C49       1.0  0.74003  0.57953  0.89291  1.0000
  C  Sn74      1.0  0.79659  0.78111  0.01617  1.0000
  C  Sn75      1.0  0.81624  0.83386  0.04824  1.0000
  C   C50       1.0  0.77894  0.68392  0.95632  1.0000
  C  Sn76      1.0  0.74495  0.70391  0.83300  1.0000
  O  Te73      1.0  0.69127  0.66986  0.67830  1.0000
  O  Te74      1.0  0.81077  0.70917  0.10647  1.0000
  O  Te75      1.0  0.85030  0.81509  0.17099  1.0000
  O  Te76      1.0  0.73076  0.77579  0.74276  1.0000
  Mg  Mg37      1.0  0.85814  0.71022  0.26075  1.0000
  Mg  Mg38      1.0  0.68338  0.77480  0.58850  1.0000
  C  Sn77      1.0  0.72758  0.35746  0.08371  1.0000
  C   C51       1.0  0.74567  0.42756  0.01896  1.0000
  C  Sn78      1.0  0.77376  0.22663  0.92343  1.0000
  C  Sn79      1.0  0.80703  0.17611  0.89187  1.0000
  C   C52       1.0  0.78894  0.10607  0.95657  1.0000
  C  Sn80      1.0  0.76084  0.30695  0.05215  1.0000
  O  Te77      1.0  0.67678  0.33807  0.17888  1.0000
  O  Te78      1.0  0.79098  0.29700  0.86007  1.0000
  O  Te79      1.0  0.85786  0.19557  0.79661  1.0000
  O  Te80      1.0  0.74362  0.23663  0.11547  1.0000
  Mg  Mg39      1.0  0.86338  0.29770  0.73746  1.0000
  Mg  Mg40      1.0  0.67121  0.23588  0.23802  1.0000
