data_image0
_chemical_formula_structural       CN2C4N4H4C2N2C4N4H4C3Sn2C2HTe2HMgC2Sn2C2HTe2HMgC2Sn2C2HTe2HMgC2Sn2C2HTe2HMgC2Sn2C2HTe2HMgC2Sn2C2HTe2HMgC2Sn2C2HTe2HMgC2Sn2C2HTe2HMgC2Sn2C2HTe2HMgC2Sn2C2HTe2HMgC2Sn2C2HTe2HMgC2Sn2C2HTe2HMgC2Sn2C2HTe2HMgC2Sn2C2HTe2HMgC2Sn2C2HTe2HMgC2Sn2C2HTe2HMgC2Sn2C2HTe2HMgC2Sn2C2HTe2HMgC2Sn2C2HTe2HMgC2Sn2C2HTe2HMg
_chemical_formula_sum              "C92 N12 H48 Sn40 Te40 Mg20"
_cell_length_a       22.8811
_cell_length_b       21.3327
_cell_length_c       10.0959
_cell_angle_alpha    61.8615
_cell_angle_beta     85.2022
_cell_angle_gamma    86.0194

_symmetry_space_group_name_H-M    'P1'
_space_group_IT_number       1

loop_
  _space_group_symop_operation_xyz
  'x, y, z'

loop_
  _atom_site_type_symbol
  _atom_site_label
  _atom_site_symmetry_multiplicity
  _atom_site_fract_x
  _atom_site_fract_y
  _atom_site_fract_z
  _atom_site_occupancy
  C   C1        1.0  0.02256  0.98805  0.41337  1.0000
  N   N1        1.0  0.27957  0.47811  0.37127  1.0000
  N   N2        1.0  0.70928  0.50042  0.44978  1.0000
  C   C2        1.0  0.14516  0.72558  0.30543  1.0000
  C   C3        1.0  0.18014  0.24244  0.36286  1.0000
  C   C4        1.0  0.81385  0.74614  0.39940  1.0000
  C   C5        1.0  0.84858  0.26104  0.49728  1.0000
  N   N3        1.0  0.15561  0.75578  0.38594  1.0000
  N   N4        1.0  0.82464  0.20157  0.53235  1.0000
  N   N5        1.0  0.84355  0.74539  0.50391  1.0000
  N   N6        1.0  0.12479  0.23787  0.35339  1.0000
  H   H1        1.0  0.11146  0.74568  0.22211  1.0000
  H   H2        1.0  0.21201  0.20157  0.36169  1.0000
  H   H3        1.0  0.80743  0.79399  0.29146  1.0000
  H   H4        1.0  0.89379  0.27168  0.44759  1.0000
  C   C6        1.0  0.96262  0.98679  0.44361  1.0000
  C   C7        1.0  0.02257  0.99181  0.91876  1.0000
  N   N7        1.0  0.28110  0.49114  0.83474  1.0000
  N   N8        1.0  0.70923  0.50552  0.94401  1.0000
  C   C8        1.0  0.14342  0.72674  0.82410  1.0000
  C   C9        1.0  0.18713  0.24688  0.84935  1.0000
  C   C10       1.0  0.80807  0.74912  0.91642  1.0000
  C   C11       1.0  0.84219  0.26344  0.98180  1.0000
  N   N9        1.0  0.16289  0.76997  0.86594  1.0000
  N   N10       1.0  0.81823  0.20420  0.01457  1.0000
  N   N11       1.0  0.85161  0.74524  0.99454  1.0000
  N   N12       1.0  0.13141  0.24010  0.85120  1.0000
  H   H5        1.0  0.09843  0.73089  0.78926  1.0000
  H   H6        1.0  0.21918  0.20759  0.84185  1.0000
  H   H7        1.0  0.78668  0.80007  0.84079  1.0000
  H   H8        1.0  0.88846  0.27269  0.94057  1.0000
  C   C12       1.0  0.96246  0.98932  0.94468  1.0000
  C   C13       1.0  0.05853  0.17046  0.23937  1.0000
  C   C14       1.0  0.09273  0.17873  0.33812  1.0000
  C  Sn1       1.0  0.11156  0.11931  0.46730  1.0000
  C  Sn2       1.0  0.09580  0.05041  0.49786  1.0000
  C   C15       1.0  0.06161  0.04270  0.39830  1.0000
  C   C16       1.0  0.04299  0.10252  0.26939  1.0000
  H   H9        1.0  0.04416  0.21674  0.13958  1.0000
  O  Te1       1.0  0.14568  0.12853  0.56480  1.0000
  O  Te2       1.0  0.11404  0.99011  0.62611  1.0000
  H   H10       1.0  0.01655  0.09610  0.19290  1.0000
  Mg  Mg1       1.0  0.15987  0.03003  0.72494  1.0000
  C   C17       1.0  0.05228  0.84740  0.31435  1.0000
  C   C18       1.0  0.10943  0.82169  0.35422  1.0000
  C  Sn3       1.0  0.14229  0.85083  0.42101  1.0000
  C  Sn4       1.0  0.18208  0.90674  0.44831  1.0000
  C   C19       1.0  0.12485  0.93206  0.40811  1.0000
  C   C20       1.0  0.02764  0.90253  0.34128  1.0000
  H   H11       1.0  0.02713  0.82453  0.26272  1.0000
  O  Te3       1.0  0.19933  0.82453  0.46009  1.0000
  O  Te4       1.0  0.21394  0.93682  0.51497  1.0000
  H   H12       1.0  0.98339  0.92242  0.31052  1.0000
  Mg  Mg2       1.0  0.28998  0.88285  0.54812  1.0000
  C   C21       1.0  0.83583  0.09659  0.44005  1.0000
  C   C22       1.0  0.85010  0.13537  0.51158  1.0000
  C  Sn5       1.0  0.90624  0.12840  0.56287  1.0000
  C  Sn6       1.0  0.94878  0.08173  0.54195  1.0000
  C   C23       1.0  0.93408  0.04321  0.47015  1.0000
  C   C24       1.0  0.87778  0.05056  0.41932  1.0000
  H   H13       1.0  0.79228  0.10230  0.40064  1.0000
  O  Te5       1.0  0.91976  0.16752  0.63415  1.0000
  O  Te6       1.0  0.00522  0.07378  0.59205  1.0000
  H   H14       1.0  0.86675  0.02056  0.36385  1.0000
  Mg  Mg3       1.0  0.00260  0.13850  0.68274  1.0000
  C   C25       1.0  0.94478  0.92658  0.33409  1.0000
  C   C26       1.0  0.98099  0.92995  0.43522  1.0000
  C  Sn7       1.0  0.93064  0.86841  0.56595  1.0000
  C  Sn8       1.0  0.90829  0.80235  0.59567  1.0000
  C   C27       1.0  0.87213  0.79953  0.49374  1.0000
  C   C28       1.0  0.85802  0.86144  0.36328  1.0000
  H   H15       1.0  0.93389  0.97447  0.23311  1.0000
  O  Te7       1.0  0.03158  0.87273  0.66582  1.0000
  O  Te8       1.0  0.92197  0.74002  0.72545  1.0000
  H   H16       1.0  0.83001  0.85881  0.28496  1.0000
  Mg  Mg4       1.0  0.97301  0.77311  0.82734  1.0000
  C   C29       1.0  0.41453  0.56152  0.27135  1.0000
  C   C30       1.0  0.45518  0.51098  0.36351  1.0000
  C  Sn9       1.0  0.43824  0.44168  0.46179  1.0000
  C  Sn10      1.0  0.37949  0.42278  0.46763  1.0000
  C   C31       1.0  0.33915  0.47372  0.37490  1.0000
  C   C32       1.0  0.35657  0.54292  0.27701  1.0000
  H   H17       1.0  0.42800  0.61505  0.19555  1.0000
  O  Te9       1.0  0.47942  0.39185  0.55312  1.0000
  O  Te10      1.0  0.36139  0.35389  0.56479  1.0000
  H   H18       1.0  0.32509  0.58203  0.20560  1.0000
  Mg  Mg5       1.0  0.43363  0.30480  0.66706  1.0000
  C   C33       1.0  0.61480  0.43718  0.39776  1.0000
  C   C34       1.0  0.64597  0.49012  0.40237  1.0000
  C  Sn11      1.0  0.61620  0.54884  0.40573  1.0000
  C  Sn12      1.0  0.55408  0.55451  0.40448  1.0000
  C   C35       1.0  0.52330  0.50124  0.39997  1.0000
  C   C36       1.0  0.55353  0.44272  0.39659  1.0000
  H   H19       1.0  0.63819  0.39188  0.39523  1.0000
  O  Te11      1.0  0.64802  0.60126  0.41026  1.0000
  O  Te12      1.0  0.52322  0.61262  0.40782  1.0000
  H   H20       1.0  0.52938  0.40172  0.39312  1.0000
  Mg  Mg6       1.0  0.58617  0.67033  0.41352  1.0000
  C   C37       1.0  0.25250  0.58651  0.45174  1.0000
  C   C38       1.0  0.24475  0.54297  0.38626  1.0000
  C  Sn13      1.0  0.20406  0.56273  0.27641  1.0000
  C  Sn14      1.0  0.17057  0.62731  0.23149  1.0000
  C   C39       1.0  0.17868  0.67053  0.29760  1.0000
  C   C40       1.0  0.21951  0.65023  0.40746  1.0000
  H   H21       1.0  0.28411  0.57083  0.53668  1.0000
  O  Te13      1.0  0.19685  0.51859  0.21218  1.0000
  O  Te14      1.0  0.12962  0.64835  0.12191  1.0000
  H   H22       1.0  0.22553  0.68398  0.45807  1.0000
  Mg  Mg7       1.0  0.13560  0.57022  0.06741  1.0000
  C   C41       1.0  0.18162  0.39462  0.42030  1.0000
  C   C42       1.0  0.24046  0.41275  0.39844  1.0000
  C  Sn15      1.0  0.28305  0.37496  0.35452  1.0000
  C  Sn16      1.0  0.26629  0.31800  0.33212  1.0000
  C   C43       1.0  0.20730  0.30031  0.35418  1.0000
  C   C44       1.0  0.16505  0.33846  0.39817  1.0000
  H   H23       1.0  0.14891  0.42416  0.45426  1.0000
  O  Te15      1.0  0.34164  0.39376  0.33322  1.0000
  O  Te16      1.0  0.30795  0.27936  0.28817  1.0000
  H   H24       1.0  0.11949  0.32444  0.41500  1.0000
  Mg  Mg8       1.0  0.38229  0.32518  0.27332  1.0000
  C   C45       1.0  0.72934  0.64885  0.28719  1.0000
  C   C46       1.0  0.73395  0.57796  0.39817  1.0000
  C  Sn17      1.0  0.76472  0.55969  0.52599  1.0000
  C  Sn18      1.0  0.79130  0.61350  0.54271  1.0000
  C   C47       1.0  0.78639  0.68427  0.43110  1.0000
  C   C48       1.0  0.75552  0.70197  0.30363  1.0000
  H   H25       1.0  0.70543  0.66256  0.18860  1.0000
  O  Te17      1.0  0.76892  0.48860  0.63575  1.0000
  O  Te18      1.0  0.82228  0.59672  0.66936  1.0000
  H   H26       1.0  0.75192  0.75686  0.21777  1.0000
  Mg  Mg9       1.0  0.81579  0.49227  0.78810  1.0000
  C   C49       1.0  0.74927  0.31853  0.60629  1.0000
  C   C50       1.0  0.80189  0.31628  0.52746  1.0000
  C  Sn19      1.0  0.83000  0.37912  0.42950  1.0000
  C  Sn20      1.0  0.80487  0.44537  0.41036  1.0000
  C   C51       1.0  0.75224  0.44705  0.48982  1.0000
  C   C52       1.0  0.72446  0.38384  0.58752  1.0000
  H   H27       1.0  0.72779  0.26963  0.68195  1.0000
  O  Te19      1.0  0.88253  0.37592  0.35158  1.0000
  O  Te20      1.0  0.83206  0.50898  0.31321  1.0000
  H   H28       1.0  0.68375  0.38560  0.64861  1.0000
  Mg  Mg10      1.0  0.90300  0.47709  0.23197  1.0000
  C   C53       1.0  0.10517  0.05821  0.01733  1.0000
  C   C54       1.0  0.04051  0.83067  0.93169  1.0000
  C  Sn21      1.0  0.02426  0.88957  0.79840  1.0000
  C  Sn22      1.0  0.05073  0.95566  0.75022  1.0000
  C   C55       1.0  0.09283  0.96112  0.83664  1.0000
  C   C56       1.0  0.10875  0.90185  0.96987  1.0000
  H   H29       1.0  0.11752  0.01234  0.12037  1.0000
  O  Te21      1.0  0.98212  0.88263  0.71422  1.0000
  O  Te22      1.0  0.03532  0.01537  0.61743  1.0000
  H   H30       1.0  0.16393  0.12802  0.03610  1.0000
  Mg  Mg11      1.0  0.97571  0.97927  0.54143  1.0000
  C   C57       1.0  0.10582  0.89038  0.80119  1.0000
  C   C58       1.0  0.11665  0.92576  0.88265  1.0000
  C  Sn23      1.0  0.16921  0.91269  0.95398  1.0000
  C  Sn24      1.0  0.21165  0.86327  0.94333  1.0000
  C   C59       1.0  0.20041  0.82818  0.86148  1.0000
  C   C60       1.0  0.14766  0.84165  0.79058  1.0000
  H   H31       1.0  0.06501  0.90082  0.74626  1.0000
  O  Te23      1.0  0.20189  0.16999  0.03496  1.0000
  O  Te24      1.0  0.28713  0.07073  0.01348  1.0000
  H   H32       1.0  0.07458  0.81428  0.72744  1.0000
  Mg  Mg12      1.0  0.28064  0.13281  0.11091  1.0000
  C   C61       1.0  0.85074  0.06542  0.93068  1.0000
  C   C62       1.0  0.91020  0.04726  0.95464  1.0000
  C  Sn25      1.0  0.96500  0.30083  0.01653  1.0000
  C  Sn26      1.0  0.93706  0.35199  0.05506  1.0000
  C   C63       1.0  0.87755  0.36976  0.03074  1.0000
  C   C64       1.0  0.82315  0.11586  0.96871  1.0000
  H   H33       1.0  0.82610  0.04034  0.88276  1.0000
  O  Te25      1.0  0.02437  0.28208  0.03967  1.0000
  O  Te26      1.0  0.96823  0.38483  0.11713  1.0000
  H   H34       1.0  0.77711  0.12990  0.95025  1.0000
  Mg  Mg13      1.0  0.04822  0.34155  0.12723  1.0000
  C   C65       1.0  0.93413  0.84048  0.10468  1.0000
  C   C66       1.0  0.91297  0.68875  0.98781  1.0000
  C  Sn27      1.0  0.88050  0.70915  0.86175  1.0000
  C  Sn28      1.0  0.84602  0.65863  0.85286  1.0000
  C   C67       1.0  0.84487  0.58896  0.97042  1.0000
  C   C68       1.0  0.90011  0.79063  0.09603  1.0000
  H   H35       1.0  0.95938  0.82513  0.20191  1.0000
  O  Te27      1.0  0.88242  0.77908  0.74597  1.0000
  O  Te28      1.0  0.81313  0.67760  0.72818  1.0000
  H   H36       1.0  0.89898  0.73661  0.18654  1.0000
  Mg  Mg14      1.0  0.83003  0.77931  0.59917  1.0000
  C   C69       1.0  0.40999  0.46755  0.01922  1.0000
  C   C70       1.0  0.43358  0.26512  0.90915  1.0000
  C  Sn29      1.0  0.42218  0.29054  0.75820  1.0000
  C  Sn30      1.0  0.36342  0.29694  0.71703  1.0000
  C   C71       1.0  0.31755  0.27775  0.82798  1.0000
  C   C72       1.0  0.32946  0.25235  0.97870  1.0000
  H   H37       1.0  0.41919  0.44793  0.13583  1.0000
  O  Te29      1.0  0.46881  0.30935  0.64967  1.0000
  O  Te30      1.0  0.35078  0.32222  0.56698  1.0000
  H   H38       1.0  0.31627  0.45913  0.06389  1.0000
  Mg  Mg15      1.0  0.42929  0.34104  0.46006  1.0000
  C   C73       1.0  0.58661  0.48222  0.78767  1.0000
  C   C74       1.0  0.53786  0.49285  0.86876  1.0000
  C  Sn31      1.0  0.54516  0.51460  0.97681  1.0000
  C  Sn32      1.0  0.62495  0.74741  0.00391  1.0000
  C   C75       1.0  0.65087  0.51518  0.92211  1.0000
  C   C76       1.0  0.64306  0.49338  0.81429  1.0000
  H   H39       1.0  0.58057  0.46540  0.70418  1.0000
  O  Te31      1.0  0.51855  0.74646  0.05685  1.0000
  O  Te32      1.0  0.63351  0.76919  0.11121  1.0000
  H   H40       1.0  0.68081  0.48521  0.75145  1.0000
  Mg  Mg16      1.0  0.55274  0.77622  0.19149  1.0000
  C   C77       1.0  0.17486  0.57432  0.77518  1.0000
  C   C78       1.0  0.23347  0.55469  0.80885  1.0000
  C  Sn33      1.0  0.26553  0.59166  0.85986  1.0000
  C  Sn34      1.0  0.23828  0.64931  0.87742  1.0000
  C   C79       1.0  0.17962  0.66850  0.84353  1.0000
  C   C80       1.0  0.14796  0.63115  0.79252  1.0000
  H   H41       1.0  0.15035  0.54540  0.73578  1.0000
  O  Te33      1.0  0.32404  0.57137  0.89293  1.0000
  O  Te34      1.0  0.26930  0.68716  0.92826  1.0000
  H   H42       1.0  0.10257  0.64633  0.76655  1.0000
  Mg  Mg17      1.0  0.34801  0.63934  0.95868  1.0000
  C   C81       1.0  0.17613  0.36213  0.92356  1.0000
  C   C82       1.0  0.20051  0.31936  0.86118  1.0000
  C  Sn35      1.0  0.25776  0.32960  0.79656  1.0000
  C  Sn36      1.0  0.29114  0.38370  0.79457  1.0000
  C   C83       1.0  0.26637  0.42617  0.85737  1.0000
  C   C84       1.0  0.20903  0.41548  0.92170  1.0000
  H   H43       1.0  0.13178  0.35383  0.97341  1.0000
  O  Te35      1.0  0.28143  0.28641  0.73468  1.0000
  O  Te36      1.0  0.34847  0.39507  0.73076  1.0000
  H   H44       1.0  0.19018  0.44857  0.97008  1.0000
  Mg  Mg18      1.0  0.36140  0.32250  0.66061  1.0000
  C   C85       1.0  0.72600  0.68645  0.82071  1.0000
  C   C86       1.0  0.76879  0.68973  0.90804  1.0000
  C  Sn37      1.0  0.81896  0.84892  0.01262  1.0000
  C  Sn38      1.0  0.80335  0.78216  0.02981  1.0000
  C   C87       1.0  0.73795  0.55794  0.94183  1.0000
  C   C88       1.0  0.71059  0.62063  0.83755  1.0000
  H   H45       1.0  0.70486  0.73495  0.73997  1.0000
  O  Te37      1.0  0.86160  0.85315  0.09900  1.0000
  O  Te38      1.0  0.83025  0.71905  0.13345  1.0000
  H   H46       1.0  0.67749  0.61807  0.76989  1.0000
  Mg  Mg19      1.0  0.88580  0.75234  0.22521  1.0000
  C   C89       1.0  0.71887  0.35803  0.04455  1.0000
  C   C90       1.0  0.71509  0.20543  0.99462  1.0000
  C  Sn39      1.0  0.77227  0.22335  0.93325  1.0000
  C  Sn40      1.0  0.81125  0.17119  0.92176  1.0000
  C   C91       1.0  0.79200  0.10241  0.97194  1.0000
  C   C92       1.0  0.75727  0.30656  0.03321  1.0000
  H   H47       1.0  0.67452  0.34460  0.09188  1.0000
  O  Te39      1.0  0.79034  0.29244  0.88396  1.0000
  O  Te40      1.0  0.86862  0.18767  0.86084  1.0000
  H   H48       1.0  0.74272  0.25321  0.07177  1.0000
  Mg  Mg20      1.0  0.87275  0.28912  0.80923  1.0000
