data_image0
_chemical_formula_structural       C13NC8NC14N4H24CHC2H2C2H2C2H2C4H2C7N2C10N4H12C4HC5H2SnCSn2CSnTe4Mg2SnCSn2CSnTe4Mg2SnCSn2CSnTe4Mg2SnCSn2CSnTe4Mg2SnCSn2CSnTe4Mg2SnCSn2CSnTe4Mg2SnCSn2CSnTe4Mg2SnCSn2CSnTe4Mg2SnCSn2CSnTe4Mg2SnCSn2CSnTe4Mg2
_chemical_formula_sum              "C92 N12 H48 Sn40 Te40 Mg20"
_cell_length_a       22.8811
_cell_length_b       21.3327
_cell_length_c       10.0959
_cell_angle_alpha    61.8615
_cell_angle_beta     85.2022
_cell_angle_gamma    86.0194

_symmetry_space_group_name_H-M    'P1'
_space_group_IT_number       1

loop_
  _space_group_symop_operation_xyz
  'x, y, z'

loop_
  _atom_site_type_symbol
  _atom_site_label
  _atom_site_symmetry_multiplicity
  _atom_site_fract_x
  _atom_site_fract_y
  _atom_site_fract_z
  _atom_site_occupancy
  C   C1        1.0  0.02256  0.98805  0.41337  1.0000
  C   C2        1.0  0.34115  0.48256  0.37403  1.0000
  C   C3        1.0  0.37610  0.42305  0.46498  1.0000
  C   C4        1.0  0.43635  0.42844  0.46501  1.0000
  C   C5        1.0  0.46407  0.49368  0.37865  1.0000
  C   C6        1.0  0.42856  0.55326  0.28985  1.0000
  C   C7        1.0  0.36851  0.54772  0.28546  1.0000
  C   C8        1.0  0.56761  0.44545  0.38452  1.0000
  C   C9        1.0  0.52760  0.49844  0.38538  1.0000
  C   C10       1.0  0.55087  0.55471  0.39758  1.0000
  C   C11       1.0  0.61010  0.55562  0.41875  1.0000
  C   C12       1.0  0.64964  0.50117  0.42201  1.0000
  C   C13       1.0  0.62733  0.44747  0.39821  1.0000
  N   N1        1.0  0.27957  0.47811  0.37127  1.0000
  C   C14       1.0  0.24365  0.53856  0.35505  1.0000
  C   C15       1.0  0.25411  0.57111  0.44341  1.0000
  C   C16       1.0  0.22309  0.63241  0.42530  1.0000
  C   C17       1.0  0.17895  0.66214  0.32128  1.0000
  C   C18       1.0  0.16792  0.62869  0.23483  1.0000
  C   C19       1.0  0.20010  0.56789  0.25014  1.0000
  C   C20       1.0  0.72782  0.62910  0.30769  1.0000
  C   C21       1.0  0.73494  0.56273  0.43476  1.0000
  N   N2        1.0  0.70928  0.50042  0.44978  1.0000
  C   C22       1.0  0.76860  0.55657  0.55096  1.0000
  C   C23       1.0  0.79414  0.61569  0.54174  1.0000
  C   C24       1.0  0.78728  0.68274  0.41490  1.0000
  C   C25       1.0  0.75398  0.68812  0.29853  1.0000
  C   C26       1.0  0.72860  0.37035  0.58033  1.0000
  C   C27       1.0  0.74702  0.43972  0.48115  1.0000
  C   C28       1.0  0.80345  0.44836  0.40930  1.0000
  C   C29       1.0  0.83750  0.38913  0.42338  1.0000
  C   C30       1.0  0.81626  0.32000  0.50785  1.0000
  C   C31       1.0  0.76230  0.31148  0.59179  1.0000
  C   C32       1.0  0.14516  0.72558  0.30543  1.0000
  C   C33       1.0  0.18014  0.24244  0.36286  1.0000
  C   C34       1.0  0.81385  0.74614  0.39940  1.0000
  C   C35       1.0  0.84858  0.26104  0.49728  1.0000
  N   N3        1.0  0.15561  0.75578  0.38594  1.0000
  N   N4        1.0  0.82464  0.20157  0.53235  1.0000
  N   N5        1.0  0.84355  0.74539  0.50391  1.0000
  N   N6        1.0  0.12479  0.23787  0.35339  1.0000
  H   H1        1.0  0.35553  0.37269  0.53674  1.0000
  H   H2        1.0  0.46234  0.38186  0.53797  1.0000
  H   H3        1.0  0.44863  0.60429  0.21981  1.0000
  H   H4        1.0  0.34216  0.59399  0.21323  1.0000
  H   H5        1.0  0.55176  0.40309  0.36712  1.0000
  H   H6        1.0  0.52146  0.59711  0.39758  1.0000
  H   H7        1.0  0.62575  0.59795  0.43607  1.0000
  H   H8        1.0  0.65689  0.40709  0.39057  1.0000
  H   H9        1.0  0.28672  0.54708  0.52707  1.0000
  H   H10       1.0  0.23108  0.65810  0.49260  1.0000
  H   H11       1.0  0.13489  0.65203  0.15161  1.0000
  H   H12       1.0  0.19245  0.54408  0.17900  1.0000
  H   H13       1.0  0.70281  0.63391  0.21619  1.0000
  H   H14       1.0  0.77419  0.50472  0.64837  1.0000
  H   H15       1.0  0.81932  0.61173  0.63234  1.0000
  H   H16       1.0  0.74972  0.73926  0.19837  1.0000
  H   H17       1.0  0.68695  0.36341  0.64512  1.0000
  H   H18       1.0  0.81934  0.50165  0.33933  1.0000
  H   H19       1.0  0.88016  0.39635  0.36232  1.0000
  H   H20       1.0  0.74752  0.25787  0.66499  1.0000
  H   H21       1.0  0.11146  0.74568  0.22211  1.0000
  H   H22       1.0  0.21201  0.20157  0.36169  1.0000
  H   H23       1.0  0.80743  0.79399  0.29146  1.0000
  H   H24       1.0  0.89379  0.27168  0.44759  1.0000
  C   C36       1.0  0.96262  0.98679  0.44361  1.0000
  H   H25       1.0  0.96588  0.85290  0.16965  1.0000
  C   C37       1.0  0.07307  0.18132  0.75398  1.0000
  C   C38       1.0  0.04755  0.12030  0.77181  1.0000
  H   H26       1.0  0.06507  0.23212  0.65550  1.0000
  H   H27       1.0  0.01975  0.12397  0.68630  1.0000
  C   C39       1.0  0.86562  0.05685  0.93112  1.0000
  C   C40       1.0  0.83076  0.10835  0.95047  1.0000
  H   H28       1.0  0.84587  0.02664  0.88620  1.0000
  H   H29       1.0  0.78536  0.11836  0.91946  1.0000
  C   C41       1.0  0.91134  0.80073  0.09134  1.0000
  C   C42       1.0  0.93804  0.85957  0.08165  1.0000
  H   H30       1.0  0.91795  0.74824  0.18621  1.0000
  H   H31       1.0  0.99023  0.07110  0.07239  1.0000
  C   C43       1.0  0.05572  0.05405  0.89936  1.0000
  C   C44       1.0  0.09384  0.05046  0.00513  1.0000
  C   C45       1.0  0.12135  0.11086  0.98575  1.0000
  C   C46       1.0  0.11028  0.17758  0.86186  1.0000
  H   H32       1.0  0.09964  0.00108  0.10845  1.0000
  H   H33       1.0  0.14863  0.10767  0.07206  1.0000
  C   C47       1.0  0.02257  0.99181  0.91876  1.0000
  C   C48       1.0  0.34366  0.49145  0.84507  1.0000
  C   C49       1.0  0.36561  0.46737  0.98676  1.0000
  C   C50       1.0  0.42521  0.47050  0.00114  1.0000
  C   C51       1.0  0.46466  0.49624  0.87351  1.0000
  C   C52       1.0  0.44218  0.51842  0.73211  1.0000
  C   C53       1.0  0.38221  0.51724  0.71711  1.0000
  N   N7        1.0  0.28110  0.49114  0.83474  1.0000
  N   N8        1.0  0.70923  0.50552  0.94401  1.0000
  C   C54       1.0  0.71885  0.37710  0.03615  1.0000
  C   C55       1.0  0.74421  0.44457  0.96582  1.0000
  C   C56       1.0  0.80365  0.44961  0.91403  1.0000
  C   C57       1.0  0.83549  0.38955  0.92534  1.0000
  C   C58       1.0  0.80940  0.32301  0.98719  1.0000
  C   C59       1.0  0.75076  0.31766  0.04557  1.0000
  C   C60       1.0  0.14342  0.72674  0.82410  1.0000
  C   C61       1.0  0.18713  0.24688  0.84935  1.0000
  C   C62       1.0  0.80807  0.74912  0.91642  1.0000
  C   C63       1.0  0.84219  0.26344  0.98180  1.0000
  N   N9        1.0  0.16289  0.76997  0.86594  1.0000
  N   N10       1.0  0.81823  0.20420  0.01457  1.0000
  N   N11       1.0  0.85161  0.74524  0.99454  1.0000
  N   N12       1.0  0.13141  0.24010  0.85120  1.0000
  H   H34       1.0  0.33482  0.44763  0.08446  1.0000
  H   H35       1.0  0.44138  0.45252  0.11223  1.0000
  H   H36       1.0  0.47189  0.53825  0.63208  1.0000
  H   H37       1.0  0.36593  0.53626  0.60590  1.0000
  H   H38       1.0  0.67352  0.37284  0.08029  1.0000
  H   H39       1.0  0.82403  0.50094  0.86151  1.0000
  H   H40       1.0  0.88093  0.39439  0.88082  1.0000
  H   H41       1.0  0.73112  0.26580  0.09705  1.0000
  H   H42       1.0  0.09843  0.73089  0.78926  1.0000
  H   H43       1.0  0.21918  0.20759  0.84185  1.0000
  H   H44       1.0  0.78668  0.80007  0.84079  1.0000
  H   H45       1.0  0.88846  0.27269  0.94057  1.0000
  C   C64       1.0  0.92526  0.04412  0.96640  1.0000
  C   C65       1.0  0.85402  0.15050  0.00491  1.0000
  C   C66       1.0  0.91212  0.13516  0.05013  1.0000
  C   C67       1.0  0.94639  0.08317  0.03195  1.0000
  H   H46       1.0  0.92929  0.16289  0.10472  1.0000
  C   C68       1.0  0.96246  0.98932  0.94468  1.0000
  C   C69       1.0  0.93039  0.92741  0.95888  1.0000
  C   C70       1.0  0.89328  0.93436  0.84795  1.0000
  C   C71       1.0  0.86642  0.87594  0.85679  1.0000
  C   C72       1.0  0.87500  0.80763  0.97887  1.0000
  H   H47       1.0  0.88788  0.98558  0.74903  1.0000
  H   H48       1.0  0.84105  0.88337  0.76379  1.0000
  C  Sn1       1.0  0.13419  0.87420  0.76308  1.0000
  C   C73       1.0  0.18883  0.84468  0.81911  1.0000
  C  Sn2       1.0  0.21110  0.85640  0.92995  1.0000
  C  Sn3       1.0  0.17805  0.89847  0.98603  1.0000
  C   C74       1.0  0.12343  0.92796  0.93003  1.0000
  C  Sn4       1.0  0.10113  0.91628  0.81917  1.0000
  O  Te1       1.0  0.11278  0.86178  0.65230  1.0000
  O  Te2       1.0  0.26585  0.82635  0.98418  1.0000
  O  Te3       1.0  0.22207  0.13239  0.09690  1.0000
  O  Te4       1.0  0.04642  0.94629  0.76496  1.0000
  Mg  Mg1       1.0  0.29885  0.08001  0.13514  1.0000
  Mg  Mg2       1.0  0.03593  0.91415  0.61407  1.0000
  C  Sn5       1.0  0.71644  0.68353  0.86420  1.0000
  C   C75       1.0  0.76345  0.68563  0.94177  1.0000
  C  Sn6       1.0  0.82295  0.84721  0.01326  1.0000
  C  Sn7       1.0  0.81270  0.78386  0.00702  1.0000
  C   C76       1.0  0.74315  0.56028  0.92946  1.0000
  C  Sn8       1.0  0.70619  0.62019  0.85795  1.0000
  O  Te5       1.0  0.68008  0.74409  0.79354  1.0000
  O  Te6       1.0  0.86965  0.85058  0.09017  1.0000
  O  Te7       1.0  0.84910  0.72329  0.07776  1.0000
  O  Te8       1.0  0.65952  0.61684  0.78107  1.0000
  Mg  Mg3       1.0  0.90697  0.75417  0.16844  1.0000
  Mg  Mg4       1.0  0.62219  0.71323  0.70269  1.0000
  C  Sn9       1.0  0.03114  0.86719  0.36101  1.0000
  C   C77       1.0  0.11326  0.91135  0.41680  1.0000
  C  Sn10      1.0  0.17203  0.91188  0.44410  1.0000
  C  Sn11      1.0  0.14958  0.86738  0.41493  1.0000
  C   C78       1.0  0.13217  0.82327  0.35915  1.0000
  C  Sn12      1.0  0.07341  0.82270  0.33185  1.0000
  O  Te9       1.0  0.97215  0.86752  0.33455  1.0000
  O  Te10      1.0  0.18836  0.95646  0.49993  1.0000
  O  Te11      1.0  0.20860  0.86708  0.44145  1.0000
  O  Te12      1.0  0.05707  0.77816  0.27602  1.0000
  Mg  Mg5       1.0  0.27401  0.93713  0.51776  1.0000
  Mg  Mg6       1.0  0.97144  0.79748  0.25808  1.0000
  C  Sn13      1.0  0.19773  0.38291  0.95543  1.0000
  C   C79       1.0  0.25326  0.41093  0.90073  1.0000
  C  Sn14      1.0  0.28831  0.39067  0.80630  1.0000
  C  Sn15      1.0  0.26741  0.34141  0.76561  1.0000
  C   C80       1.0  0.21191  0.31343  0.82027  1.0000
  C  Sn16      1.0  0.17684  0.33365  0.91473  1.0000
  O  Te13      1.0  0.18601  0.62543  0.04967  1.0000
  O  Te14      1.0  0.34367  0.41939  0.75307  1.0000
  O  Te15      1.0  0.30175  0.32041  0.67129  1.0000
  O  Te16      1.0  0.12150  0.30497  0.96793  1.0000
  Mg  Mg7       1.0  0.37405  0.37433  0.62763  1.0000
  Mg  Mg8       1.0  0.11364  0.57154  0.09331  1.0000
  C  Sn17      1.0  0.18979  0.38031  0.46447  1.0000
  C   C81       1.0  0.24782  0.40180  0.42695  1.0000
  C  Sn18      1.0  0.28557  0.37636  0.34563  1.0000
  C  Sn19      1.0  0.26489  0.32847  0.30079  1.0000
  C   C82       1.0  0.20689  0.30702  0.33828  1.0000
  C  Sn20      1.0  0.16911  0.33242  0.41963  1.0000
  O  Te17      1.0  0.15282  0.40642  0.54581  1.0000
  O  Te18      1.0  0.34340  0.39859  0.30949  1.0000
  O  Te19      1.0  0.30192  0.30236  0.21939  1.0000
  O  Te20      1.0  0.11131  0.31023  0.45575  1.0000
  Mg  Mg9       1.0  0.37696  0.34826  0.19706  1.0000
  Mg  Mg10      1.0  0.07771  0.36055  0.56810  1.0000
  C  Sn21      1.0  0.13087  0.08900  0.46764  1.0000
  C   C83       1.0  0.12219  0.15918  0.35631  1.0000
  C  Sn22      1.0  0.07510  0.17777  0.26373  1.0000
  C  Sn23      1.0  0.03584  0.12513  0.28286  1.0000
  C   C84       1.0  0.04453  0.05500  0.39414  1.0000
  C  Sn24      1.0  0.09161  0.03636  0.48677  1.0000
  O  Te21      1.0  0.17823  0.07161  0.55892  1.0000
  O  Te22      1.0  0.06733  0.24828  0.15318  1.0000
  O  Te23      1.0  0.98845  0.14257  0.19146  1.0000
  O  Te24      1.0  0.09938  0.96590  0.59728  1.0000
  Mg  Mg11      1.0  0.99628  0.24576  0.05675  1.0000
  Mg  Mg12      1.0  0.17039  0.96836  0.69382  1.0000
  C  Sn25      1.0  0.93255  0.92911  0.36897  1.0000
  C   C85       1.0  0.97334  0.92959  0.46405  1.0000
  C  Sn26      1.0  0.93430  0.86593  0.56932  1.0000
  C  Sn27      1.0  0.91891  0.80042  0.57972  1.0000
  C   C86       1.0  0.87815  0.79996  0.48467  1.0000
  C  Sn28      1.0  0.85245  0.86360  0.37937  1.0000
  O  Te25      1.0  0.90744  0.99339  0.26456  1.0000
  O  Te26      1.0  0.03967  0.86776  0.66319  1.0000
  O  Te27      1.0  0.94407  0.73611  0.68425  1.0000
  O  Te28      1.0  0.81183  0.86179  0.28553  1.0000
  Mg  Mg13      1.0  0.99720  0.76614  0.78727  1.0000
  Mg  Mg14      1.0  0.78957  0.96338  0.16136  1.0000
  C  Sn29      1.0  0.61891  0.50421  0.77419  1.0000
  C   C87       1.0  0.64458  0.52198  0.87233  1.0000
  C  Sn30      1.0  0.61123  0.52391  0.99281  1.0000
  C  Sn31      1.0  0.57354  0.72922  0.01575  1.0000
  C   C88       1.0  0.52533  0.48994  0.91766  1.0000
  C  Sn32      1.0  0.55865  0.48800  0.79712  1.0000
  O  Te29      1.0  0.65309  0.50261  0.65449  1.0000
  O  Te30      1.0  0.66044  0.76336  0.08940  1.0000
  O  Te31      1.0  0.53937  0.73084  0.13557  1.0000
  O  Te32      1.0  0.53205  0.47007  0.70059  1.0000
  Mg  Mg15      1.0  0.59557  0.75826  0.23643  1.0000
  Mg  Mg16      1.0  0.59688  0.47512  0.55358  1.0000
  C  Sn33      1.0  0.83255  0.08208  0.48988  1.0000
  C   C89       1.0  0.84986  0.12545  0.54773  1.0000
  C  Sn34      1.0  0.90929  0.13171  0.56006  1.0000
  C  Sn35      1.0  0.95231  0.09388  0.51350  1.0000
  C   C90       1.0  0.93499  0.05056  0.45567  1.0000
  C  Sn36      1.0  0.87558  0.04425  0.44333  1.0000
  O  Te33      1.0  0.77290  0.07662  0.47858  1.0000
  O  Te34      1.0  0.92552  0.17537  0.61829  1.0000
  O  Te35      1.0  0.01200  0.09938  0.52486  1.0000
  O  Te36      1.0  0.85933  0.00063  0.38511  1.0000
  Mg  Mg17      1.0  0.01225  0.16553  0.61133  1.0000
  Mg  Mg18      1.0  0.77262  0.01046  0.39195  1.0000
  C  Sn37      1.0  0.25405  0.65557  0.83279  1.0000
  C   C91       1.0  0.19636  0.67636  0.79096  1.0000
  C  Sn38      1.0  0.16025  0.62980  0.77721  1.0000
  C  Sn39      1.0  0.18226  0.56101  0.80596  1.0000
  C   C92       1.0  0.23991  0.54024  0.84779  1.0000
  C  Sn40      1.0  0.27605  0.58677  0.86155  1.0000
  O  Te37      1.0  0.28936  0.70298  0.84586  1.0000
  O  Te38      1.0  0.10273  0.65180  0.73518  1.0000
  O  Te39      1.0  0.14689  0.51359  0.79286  1.0000
  O  Te40      1.0  0.33354  0.56480  0.90357  1.0000
  Mg  Mg19      1.0  0.07163  0.56810  0.73254  1.0000
  Mg  Mg20      1.0  0.36466  0.64844  0.90633  1.0000
