data_image0
_chemical_formula_structural       C6OBOC6OBOC6OBOH6C6OBOC6OBOC6OBOH6C6OBOC6OBOC6OBOH6C6OBOC6OBOC6OBOH6C3NSNHC3HC2S2C4H2C2S2C4H2C2S2C4H2C2S2C4H2C6OBOC6OBOC6OBOH6C6OBOC6OBOC6OBOH6C6OBOC6OBOC6OBOH6C6OBOC6OBOC6OBOH6C3NSNHC3HC2S2C4H2C2S2C4H2C2S2C4H2C2S2C4H2SnCSn2CSnTe4Mg2SnCSn2CSnTe4Mg2
_chemical_formula_sum              "C208 O48 B24 H68 N4 S18 Sn8 Te8 Mg4"
_cell_length_a       32.9812
_cell_length_b       54.2532
_cell_length_c       7.85488
_cell_angle_alpha    118.95
_cell_angle_beta     74.6592
_cell_angle_gamma    90.427

_symmetry_space_group_name_H-M    'P1'
_space_group_IT_number       1

loop_
  _space_group_symop_operation_xyz
  'x, y, z'

loop_
  _atom_site_type_symbol
  _atom_site_label
  _atom_site_symmetry_multiplicity
  _atom_site_fract_x
  _atom_site_fract_y
  _atom_site_fract_z
  _atom_site_occupancy
  C   C1        1.0  0.49564  0.51409  0.21964  1.0000
  C   C2        1.0  0.53843  0.51330  0.22735  1.0000
  C   C3        1.0  0.56068  0.53649  0.24371  1.0000
  C   C4        1.0  0.54027  0.55914  0.25124  1.0000
  C   C5        1.0  0.49819  0.56012  0.24629  1.0000
  C   C6        1.0  0.47550  0.53815  0.23089  1.0000
  O   O1        1.0  0.48542  0.58588  0.26518  1.0000
  B   B1        1.0  0.52123  0.60032  0.27984  1.0000
  O   O2        1.0  0.55541  0.58387  0.26916  1.0000
  C   C7        1.0  0.47244  0.49048  0.20584  1.0000
  C   C8        1.0  0.49193  0.46723  0.20802  1.0000
  C   C9        1.0  0.43031  0.49068  0.19182  1.0000
  C   C10       1.0  0.40886  0.46863  0.18660  1.0000
  C   C11       1.0  0.42783  0.44604  0.19077  1.0000
  C   C12       1.0  0.46868  0.44472  0.20022  1.0000
  O   O3        1.0  0.39942  0.42682  0.18269  1.0000
  B   B2        1.0  0.36254  0.43837  0.17238  1.0000
  O   O4        1.0  0.36800  0.46419  0.17337  1.0000
  C   C13       1.0  0.55898  0.48889  0.22003  1.0000
  C   C14       1.0  0.53565  0.46637  0.21525  1.0000
  C   C15       1.0  0.55539  0.44303  0.21369  1.0000
  C   C16       1.0  0.59678  0.44274  0.21685  1.0000
  C   C17       1.0  0.61983  0.46465  0.21923  1.0000
  C   C18       1.0  0.60199  0.48758  0.22028  1.0000
  O   O5        1.0  0.66059  0.45888  0.21927  1.0000
  B   B3        1.0  0.66188  0.43262  0.21477  1.0000
  O   O6        1.0  0.62244  0.42254  0.21608  1.0000
  H   H1        1.0  0.59285  0.53708  0.25406  1.0000
  H   H2        1.0  0.44291  0.53962  0.22843  1.0000
  H   H3        1.0  0.41500  0.50748  0.18310  1.0000
  H   H4        1.0  0.48220  0.42675  0.20210  1.0000
  H   H5        1.0  0.53860  0.42565  0.21088  1.0000
  H   H6        1.0  0.62096  0.50399  0.22049  1.0000
  C   C19       1.0  0.49646  0.80230  0.41671  1.0000
  C   C20       1.0  0.53986  0.80257  0.41697  1.0000
  C   C21       1.0  0.56160  0.77969  0.41247  1.0000
  C   C22       1.0  0.53994  0.75785  0.40969  1.0000
  C   C23       1.0  0.49761  0.75749  0.40805  1.0000
  C   C24       1.0  0.47535  0.77920  0.41268  1.0000
  O   O7        1.0  0.48415  0.73299  0.40313  1.0000
  B   B4        1.0  0.51968  0.71850  0.40082  1.0000
  O   O8        1.0  0.55408  0.73384  0.40831  1.0000
  C   C25       1.0  0.47398  0.82565  0.41998  1.0000
  C   C26       1.0  0.49562  0.84867  0.42156  1.0000
  C   C27       1.0  0.43105  0.82543  0.41777  1.0000
  C   C28       1.0  0.41144  0.84774  0.41845  1.0000
  C   C29       1.0  0.43271  0.87027  0.42077  1.0000
  C   C30       1.0  0.47416  0.87123  0.42212  1.0000
  O   O9        1.0  0.40584  0.88970  0.42084  1.0000
  B   B5        1.0  0.36775  0.87806  0.41415  1.0000
  O   O10       1.0  0.37035  0.85224  0.41544  1.0000
  C   C31       1.0  0.56170  0.82634  0.42156  1.0000
  C   C32       1.0  0.53983  0.84893  0.42150  1.0000
  C   C33       1.0  0.56107  0.87190  0.42294  1.0000
  C   C34       1.0  0.60228  0.87197  0.42845  1.0000
  C   C35       1.0  0.62374  0.84998  0.42999  1.0000
  C   C36       1.0  0.60449  0.82726  0.42735  1.0000
  O   O11       1.0  0.66463  0.85557  0.43575  1.0000
  B   B6        1.0  0.66724  0.88153  0.43577  1.0000
  O   O12       1.0  0.62882  0.89205  0.43268  1.0000
  H   H7        1.0  0.59444  0.77915  0.41265  1.0000
  H   H8        1.0  0.44239  0.77843  0.41450  1.0000
  H   H9        1.0  0.41379  0.80816  0.41336  1.0000
  H   H10       1.0  0.48962  0.88880  0.41983  1.0000
  H   H11       1.0  0.54572  0.88924  0.42029  1.0000
  H   H12       1.0  0.62201  0.81072  0.43031  1.0000
  C   C37       1.0  0.03586  0.28733  0.21451  1.0000
  C   C38       1.0  0.99133  0.28802  0.23652  1.0000
  C   C39       1.0  0.96998  0.26633  0.25765  1.0000
  C   C40       1.0  0.99329  0.24474  0.25047  1.0000
  C   C41       1.0  0.03728  0.24335  0.21756  1.0000
  C   C42       1.0  0.05890  0.26414  0.20077  1.0000
  O   O13       1.0  0.05269  0.21937  0.21351  1.0000
  B   B7        1.0  0.01669  0.20661  0.25073  1.0000
  O   O14       1.0  0.97969  0.22215  0.27442  1.0000
  C   C43       1.0  0.05762  0.31043  0.20635  1.0000
  C   C44       1.0  0.03486  0.33321  0.21176  1.0000
  C   C45       1.0  0.10132  0.31064  0.19651  1.0000
  C   C46       1.0  0.12055  0.33289  0.19049  1.0000
  C   C47       1.0  0.09835  0.35505  0.19385  1.0000
  C   C48       1.0  0.05620  0.35561  0.20269  1.0000
  O   O15       1.0  0.12532  0.37441  0.18555  1.0000
  B   B8        1.0  0.16466  0.36346  0.17817  1.0000
  O   O16       1.0  0.16223  0.33777  0.18177  1.0000
  C   C49       1.0  0.96825  0.31101  0.23766  1.0000
  C   C50       1.0  0.98987  0.33335  0.22550  1.0000
  C   C51       1.0  0.96761  0.35569  0.22628  1.0000
  C   C52       1.0  0.92556  0.35491  0.23452  1.0000
  C   C53       1.0  0.90454  0.33274  0.24094  1.0000
  C   C54       1.0  0.92477  0.31093  0.24397  1.0000
  O   O17       1.0  0.86316  0.33673  0.23896  1.0000
  B   B9        1.0  0.85983  0.36218  0.23245  1.0000
  O   O18       1.0  0.89803  0.37384  0.23310  1.0000
  H   H13       1.0  0.93594  0.26687  0.28403  1.0000
  H   H14       1.0  0.09277  0.26258  0.18042  1.0000
  H   H15       1.0  0.11951  0.29400  0.19566  1.0000
  H   H16       1.0  0.04017  0.37294  0.20226  1.0000
  H   H17       1.0  0.98287  0.37285  0.21557  1.0000
  H   H18       1.0  0.90776  0.29387  0.24631  1.0000
  C   C55       1.0  0.04476  0.02435  0.36717  1.0000
  C   C56       1.0  0.00057  0.02480  0.38444  1.0000
  C   C57       1.0  0.97777  0.04771  0.39360  1.0000
  C   C58       1.0  0.99963  0.06823  0.37434  1.0000
  C   C59       1.0  0.04346  0.06704  0.34586  1.0000
  C   C60       1.0  0.06642  0.04583  0.34415  1.0000
  O   O19       1.0  0.05718  0.08972  0.32220  1.0000
  B   B10       1.0  0.02035  0.10466  0.33791  1.0000
  O   O20       1.0  0.98429  0.09189  0.37438  1.0000
  C   C61       1.0  0.06722  0.00180  0.37260  1.0000
  C   C62       1.0  0.04567  0.97936  0.38323  1.0000
  C   C63       1.0  0.11029  0.00244  0.37365  1.0000
  C   C64       1.0  0.13024  0.98099  0.38111  1.0000
  C   C65       1.0  0.10960  0.95836  0.38221  1.0000
  C   C66       1.0  0.06801  0.95710  0.38357  1.0000
  O   O21       1.0  0.13715  0.93971  0.38673  1.0000
  B   B11       1.0  0.17502  0.95186  0.39065  1.0000
  O   O22       1.0  0.17116  0.97749  0.38840  1.0000
  C   C67       1.0  0.97876  0.00182  0.39275  1.0000
  C   C68       1.0  0.00087  0.97940  0.39373  1.0000
  C   C69       1.0  0.97894  0.95735  0.40596  1.0000
  C   C70       1.0  0.93701  0.95796  0.41085  1.0000
  C   C71       1.0  0.91573  0.97969  0.40579  1.0000
  C   C72       1.0  0.93553  0.00146  0.39570  1.0000
  O   O23       1.0  0.87433  0.97494  0.40897  1.0000
  B   B12       1.0  0.87090  0.94969  0.41725  1.0000
  O   O24       1.0  0.90934  0.93885  0.41880  1.0000
  H   H19       1.0  0.94401  0.04928  0.41170  1.0000
  H   H20       1.0  0.10037  0.04543  0.32106  1.0000
  H   H21       1.0  0.12735  0.01949  0.37121  1.0000
  H   H22       1.0  0.05286  0.93961  0.38916  1.0000
  H   H23       1.0  0.99446  0.94033  0.41158  1.0000
  H   H24       1.0  0.91809  0.01748  0.38726  1.0000
  C   C73       1.0  0.52020  0.68892  0.38186  1.0000
  C   C74       1.0  0.48764  0.67281  0.33250  1.0000
  C   C75       1.0  0.55581  0.64652  0.36220  1.0000
  N   N1        1.0  0.59115  0.63713  0.38340  1.0000
  S   S1        1.0  0.61907  0.66328  0.44325  1.0000
  N   N2        1.0  0.58949  0.68732  0.44574  1.0000
  H   H25       1.0  0.46074  0.68219  0.31673  1.0000
  C   C76       1.0  0.55495  0.67542  0.39779  1.0000
  C   C77       1.0  0.48839  0.64474  0.29971  1.0000
  C   C78       1.0  0.52180  0.63068  0.31164  1.0000
  H   H26       1.0  0.46170  0.63357  0.26192  1.0000
  C   C79       1.0  0.82017  0.37600  0.22955  1.0000
  C   C80       1.0  0.70093  0.41771  0.21349  1.0000
  S   S2        1.0  0.82015  0.40894  0.23885  1.0000
  S   S3        1.0  0.70120  0.38454  0.19918  1.0000
  C   C81       1.0  0.76866  0.40919  0.22620  1.0000
  C   C82       1.0  0.75249  0.38436  0.21467  1.0000
  C   C83       1.0  0.78180  0.36566  0.21647  1.0000
  C   C84       1.0  0.73927  0.42812  0.22762  1.0000
  H   H27       1.0  0.77594  0.34546  0.20841  1.0000
  H   H28       1.0  0.74499  0.44838  0.23678  1.0000
  C   C85       1.0  0.20448  0.37780  0.16951  1.0000
  C   C86       1.0  0.32275  0.42384  0.16408  1.0000
  S   S4        1.0  0.25206  0.36247  0.15955  1.0000
  S   S5        1.0  0.27532  0.43894  0.17078  1.0000
  C   C87       1.0  0.27772  0.39038  0.15888  1.0000
  C   C88       1.0  0.24986  0.41069  0.16537  1.0000
  C   C89       1.0  0.20847  0.40337  0.16955  1.0000
  C   C90       1.0  0.31889  0.39783  0.15786  1.0000
  H   H29       1.0  0.18226  0.41581  0.17335  1.0000
  H   H30       1.0  0.34501  0.38526  0.15340  1.0000
  C   C91       1.0  0.83059  0.93601  0.42317  1.0000
  C   C92       1.0  0.70718  0.89572  0.43448  1.0000
  S   S6        1.0  0.82941  0.90372  0.42183  1.0000
  S   S7        1.0  0.70822  0.92809  0.43634  1.0000
  C   C93       1.0  0.77655  0.90391  0.43037  1.0000
  C   C94       1.0  0.76080  0.92838  0.43400  1.0000
  C   C95       1.0  0.79153  0.94655  0.43002  1.0000
  C   C96       1.0  0.74604  0.88551  0.43156  1.0000
  H   H31       1.0  0.78620  0.96646  0.43258  1.0000
  H   H32       1.0  0.75131  0.86569  0.43024  1.0000
  C   C97       1.0  0.21405  0.93838  0.39868  1.0000
  C   C98       1.0  0.32901  0.89247  0.41032  1.0000
  S   S8        1.0  0.25990  0.95448  0.42132  1.0000
  S   S9        1.0  0.28304  0.87665  0.39043  1.0000
  C   C99       1.0  0.28527  0.92595  0.41247  1.0000
  C   C100      1.0  0.25817  0.90503  0.39641  1.0000
  C   C101      1.0  0.21803  0.91215  0.38820  1.0000
  C   C102      1.0  0.32546  0.91872  0.42018  1.0000
  H   H33       1.0  0.19264  0.89913  0.37472  1.0000
  H   H34       1.0  0.35123  0.93145  0.43125  1.0000
  C   C103      1.0  0.46959  0.51993  0.71945  1.0000
  C   C104      1.0  0.51242  0.51968  0.72730  1.0000
  C   C105      1.0  0.53394  0.54315  0.74573  1.0000
  C   C106      1.0  0.51271  0.56554  0.75436  1.0000
  C   C107      1.0  0.47092  0.56580  0.74535  1.0000
  C   C108      1.0  0.44883  0.54359  0.72876  1.0000
  O   O25       1.0  0.45792  0.59106  0.75853  1.0000
  B   B13       1.0  0.49303  0.60597  0.77629  1.0000
  O   O26       1.0  0.52712  0.59040  0.77302  1.0000
  C   C109      1.0  0.44708  0.49609  0.70606  1.0000
  C   C110      1.0  0.46754  0.47298  0.70622  1.0000
  C   C111      1.0  0.40469  0.49593  0.69552  1.0000
  C   C112      1.0  0.38430  0.47347  0.68885  1.0000
  C   C113      1.0  0.40430  0.45093  0.68995  1.0000
  C   C114      1.0  0.44522  0.45013  0.69849  1.0000
  O   O27       1.0  0.37676  0.43126  0.68150  1.0000
  B   B14       1.0  0.33933  0.44259  0.67547  1.0000
  O   O28       1.0  0.34340  0.46866  0.67893  1.0000
  C   C115      1.0  0.53377  0.49553  0.71912  1.0000
  C   C116      1.0  0.51125  0.47268  0.71324  1.0000
  C   C117      1.0  0.53152  0.44966  0.71283  1.0000
  C   C118      1.0  0.57297  0.44994  0.71582  1.0000
  C   C119      1.0  0.59525  0.47212  0.71854  1.0000
  C   C120      1.0  0.57671  0.49486  0.72030  1.0000
  O   O29       1.0  0.63619  0.46687  0.71943  1.0000
  B   B15       1.0  0.63800  0.44084  0.71832  1.0000
  O   O30       1.0  0.59919  0.43003  0.71464  1.0000
  H   H35       1.0  0.56621  0.54401  0.75468  1.0000
  H   H36       1.0  0.41647  0.54445  0.72242  1.0000
  H   H37       1.0  0.38839  0.51282  0.69122  1.0000
  H   H38       1.0  0.45947  0.43231  0.69980  1.0000
  H   H39       1.0  0.51531  0.43218  0.71223  1.0000
  H   H40       1.0  0.59500  0.51166  0.72325  1.0000
  C   C121      1.0  0.45948  0.80832  0.92116  1.0000
  C   C122      1.0  0.50264  0.80886  0.92412  1.0000
  C   C123      1.0  0.52468  0.78606  0.91896  1.0000
  C   C124      1.0  0.50354  0.76394  0.91315  1.0000
  C   C125      1.0  0.46109  0.76340  0.91310  1.0000
  C   C126      1.0  0.43859  0.78506  0.91718  1.0000
  O   O31       1.0  0.44858  0.73835  0.90376  1.0000
  B   B16       1.0  0.48503  0.72380  0.89536  1.0000
  O   O32       1.0  0.51899  0.73946  0.90194  1.0000
  C   C127      1.0  0.43742  0.83154  0.92066  1.0000
  C   C128      1.0  0.45916  0.85445  0.92035  1.0000
  C   C129      1.0  0.39458  0.83126  0.91615  1.0000
  C   C130      1.0  0.37530  0.85318  0.91106  1.0000
  C   C131      1.0  0.39639  0.87585  0.91456  1.0000
  C   C132      1.0  0.43762  0.87697  0.91966  1.0000
  O   O33       1.0  0.36930  0.89503  0.91238  1.0000
  B   B17       1.0  0.33104  0.88331  0.90714  1.0000
  O   O34       1.0  0.33450  0.85730  0.90484  1.0000
  C   C133      1.0  0.52445  0.83251  0.92836  1.0000
  C   C134      1.0  0.50325  0.85482  0.92281  1.0000
  C   C135      1.0  0.52531  0.87734  0.92044  1.0000
  C   C136      1.0  0.56650  0.87709  0.92706  1.0000
  C   C137      1.0  0.58699  0.85540  0.93542  1.0000
  C   C138      1.0  0.56697  0.83322  0.93710  1.0000
  O   O35       1.0  0.62793  0.86054  0.94270  1.0000
  B   B18       1.0  0.63175  0.88605  0.93810  1.0000
  O   O36       1.0  0.59409  0.89654  0.92753  1.0000
  H   H41       1.0  0.55749  0.78547  0.91916  1.0000
  H   H42       1.0  0.40583  0.78395  0.91558  1.0000
  H   H43       1.0  0.37691  0.81435  0.91675  1.0000
  H   H44       1.0  0.45305  0.89471  0.92067  1.0000
  H   H45       1.0  0.51061  0.89444  0.91288  1.0000
  H   H46       1.0  0.58381  0.81700  0.94597  1.0000
  C   C139      1.0  0.00993  0.29610  0.73218  1.0000
  C   C140      1.0  0.96583  0.29654  0.74696  1.0000
  C   C141      1.0  0.94415  0.27489  0.76634  1.0000
  C   C142      1.0  0.96670  0.25384  0.76763  1.0000
  C   C143      1.0  0.01034  0.25282  0.74437  1.0000
  C   C144      1.0  0.03241  0.27336  0.72629  1.0000
  O   O37       1.0  0.02502  0.22922  0.74686  1.0000
  B   B19       1.0  0.98884  0.21639  0.77974  1.0000
  O   O38       1.0  0.95243  0.23129  0.79122  1.0000
  C   C145      1.0  0.03199  0.31893  0.72265  1.0000
  C   C146      1.0  0.01004  0.34141  0.72184  1.0000
  C   C147      1.0  0.07547  0.31894  0.71582  1.0000
  C   C148      1.0  0.09554  0.34037  0.70151  1.0000
  C   C149      1.0  0.07426  0.36224  0.69794  1.0000
  C   C150      1.0  0.03207  0.36335  0.70833  1.0000
  O   O39       1.0  0.10216  0.38093  0.68440  1.0000
  B   B20       1.0  0.14078  0.36980  0.68235  1.0000
  O   O40       1.0  0.13734  0.34468  0.69206  1.0000
  C   C151      1.0  0.94342  0.31933  0.74369  1.0000
  C   C152      1.0  0.96526  0.34161  0.73245  1.0000
  C   C153      1.0  0.94331  0.36398  0.73202  1.0000
  C   C154      1.0  0.90158  0.36309  0.73579  1.0000
  C   C155      1.0  0.88038  0.34084  0.74029  1.0000
  C   C156      1.0  0.90014  0.31917  0.74647  1.0000
  O   O41       1.0  0.83927  0.34484  0.73686  1.0000
  B   B21       1.0  0.83583  0.37057  0.73533  1.0000
  O   O42       1.0  0.87430  0.38196  0.73199  1.0000
  H   H47       1.0  0.91047  0.27480  0.78271  1.0000
  H   H48       1.0  0.06604  0.27201  0.71144  1.0000
  H   H49       1.0  0.09289  0.30287  0.72379  1.0000
  H   H50       1.0  0.01670  0.38058  0.70440  1.0000
  H   H51       1.0  0.95874  0.38131  0.72502  1.0000
  H   H52       1.0  0.88271  0.30240  0.75158  1.0000
  C   C157      1.0  0.00727  0.03234  0.88271  1.0000
  C   C158      1.0  0.96270  0.03383  0.90561  1.0000
  C   C159      1.0  0.94061  0.05751  0.92059  1.0000
  C   C160      1.0  0.96333  0.07787  0.90229  1.0000
  C   C161      1.0  0.00737  0.07557  0.86782  1.0000
  C   C162      1.0  0.02965  0.05363  0.86112  1.0000
  O   O43       1.0  0.02228  0.09784  0.84292  1.0000
  B   B22       1.0  0.98605  0.11424  0.86829  1.0000
  O   O44       1.0  0.94920  0.10224  0.90711  1.0000
  C   C163      1.0  0.02954  0.00894  0.88044  1.0000
  C   C164      1.0  0.00703  0.98697  0.89356  1.0000
  C   C165      1.0  0.07313  0.00826  0.87161  1.0000
  C   C166      1.0  0.09252  0.98612  0.87397  1.0000
  C   C167      1.0  0.07066  0.96436  0.88247  1.0000
  C   C168      1.0  0.02847  0.96427  0.89220  1.0000
  O   O45       1.0  0.09758  0.94502  0.88363  1.0000
  B   B23       1.0  0.13629  0.95608  0.88188  1.0000
  O   O46       1.0  0.13381  0.98144  0.87397  1.0000
  C   C169      1.0  0.94007  0.01089  0.91223  1.0000
  C   C170      1.0  0.96195  0.98792  0.90840  1.0000
  C   C171      1.0  0.93977  0.96577  0.91685  1.0000
  C   C172      1.0  0.89782  0.96671  0.92258  1.0000
  C   C173      1.0  0.87647  0.98889  0.92265  1.0000
  C   C174      1.0  0.89659  0.01094  0.91740  1.0000
  O   O47       1.0  0.83485  0.98413  0.92644  1.0000
  B   B24       1.0  0.83177  0.95841  0.92943  1.0000
  O   O48       1.0  0.87048  0.94740  0.92708  1.0000
  H   H53       1.0  0.90667  0.05965  0.94311  1.0000
  H   H54       1.0  0.06370  0.05264  0.83547  1.0000
  H   H55       1.0  0.09105  0.02482  0.86612  1.0000
  H   H56       1.0  0.01242  0.94737  0.90350  1.0000
  H   H57       1.0  0.95503  0.94816  0.91699  1.0000
  H   H58       1.0  0.87931  0.02770  0.91566  1.0000
  C   C175      1.0  0.48755  0.69386  0.87102  1.0000
  C   C176      1.0  0.45561  0.67708  0.82384  1.0000
  C   C177      1.0  0.52600  0.65232  0.85054  1.0000
  N   N3        1.0  0.56187  0.64366  0.87149  1.0000
  S   S10       1.0  0.58793  0.67064  0.93717  1.0000
  N   N4        1.0  0.55697  0.69409  0.93858  1.0000
  H   H59       1.0  0.42780  0.68588  0.81042  1.0000
  C   C178      1.0  0.52336  0.68121  0.88663  1.0000
  C   C179      1.0  0.45790  0.64905  0.79221  1.0000
  C   C180      1.0  0.49248  0.63590  0.80294  1.0000
  H   H60       1.0  0.43168  0.63720  0.75644  1.0000
  C   C181      1.0  0.79613  0.38447  0.73435  1.0000
  C   C182      1.0  0.67722  0.42625  0.71771  1.0000
  S   S11       1.0  0.79613  0.41746  0.74574  1.0000
  S   S12       1.0  0.67698  0.39336  0.70862  1.0000
  C   C183      1.0  0.74494  0.41762  0.73003  1.0000
  C   C184      1.0  0.72857  0.39291  0.72005  1.0000
  C   C185      1.0  0.75780  0.37405  0.72038  1.0000
  C   C186      1.0  0.71579  0.43637  0.72834  1.0000
  H   H61       1.0  0.75179  0.35394  0.71338  1.0000
  H   H62       1.0  0.72192  0.45643  0.73452  1.0000
  C   C187      1.0  0.18075  0.38366  0.67464  1.0000
  C   C188      1.0  0.29963  0.42830  0.66978  1.0000
  S   S13       1.0  0.22751  0.36810  0.66872  1.0000
  S   S14       1.0  0.25301  0.44391  0.67430  1.0000
  C   C189      1.0  0.25366  0.39580  0.67015  1.0000
  C   C190      1.0  0.22659  0.41624  0.67372  1.0000
  C   C191      1.0  0.18519  0.40929  0.67619  1.0000
  C   C192      1.0  0.29499  0.40279  0.66940  1.0000
  H   H63       1.0  0.15932  0.42204  0.68065  1.0000
  H   H64       1.0  0.32052  0.39035  0.67014  1.0000
  C   C193      1.0  0.79182  0.94422  0.93543  1.0000
  C   C194      1.0  0.67120  0.90078  0.94287  1.0000
  S   S15       1.0  0.79242  0.91215  0.93822  1.0000
  S   S16       1.0  0.67052  0.93297  0.94207  1.0000
  C   C195      1.0  0.74011  0.91047  0.93759  1.0000
  C   C196      1.0  0.72308  0.93430  0.93759  1.0000
  C   C197      1.0  0.75251  0.95333  0.93534  1.0000
  C   C198      1.0  0.71065  0.89151  0.94059  1.0000
  H   H65       1.0  0.74600  0.97273  0.93300  1.0000
  H   H66       1.0  0.71736  0.87190  0.93999  1.0000
  C   C199      1.0  0.17555  0.94183  0.88520  1.0000
  C   C200      1.0  0.29180  0.89713  0.90138  1.0000
  S   S17       1.0  0.22139  0.95798  0.90468  1.0000
  S   S18       1.0  0.24604  0.88076  0.87993  1.0000
  C   C201      1.0  0.24684  0.93002  0.90181  1.0000
  C   C202      1.0  0.22010  0.90896  0.88686  1.0000
  C   C203      1.0  0.17972  0.91578  0.87810  1.0000
  C   C204      1.0  0.28719  0.92328  0.91074  1.0000
  H   H67       1.0  0.15423  0.90285  0.86851  1.0000
  H   H68       1.0  0.31235  0.93649  0.92328  1.0000
  C  Sn1       1.0  0.97639  0.17015  0.39781  1.0000
  C   C205      1.0  0.01066  0.18225  0.33571  1.0000
  C  Sn2       1.0  0.05159  0.16696  0.24125  1.0000
  C  Sn3       1.0  0.05840  0.13899  0.20805  1.0000
  C   C206      1.0  0.02414  0.12691  0.27009  1.0000
  C  Sn4       1.0  0.98320  0.14219  0.36460  1.0000
  O  Te1       1.0  0.93575  0.18583  0.49193  1.0000
  O  Te2       1.0  0.08535  0.17950  0.18057  1.0000
  O  Te3       1.0  0.09908  0.12332  0.11384  1.0000
  O  Te4       1.0  0.94945  0.12966  0.42523  1.0000
  Mg  Mg1       1.0  0.13484  0.14960  0.05842  1.0000
  Mg  Mg2       1.0  0.89995  0.15953  0.54729  1.0000
  C  Sn5       1.0  0.94645  0.15734  0.82313  1.0000
  C   C207      1.0  0.98078  0.13976  0.79880  1.0000
  C  Sn6       1.0  0.02067  0.14873  0.79387  1.0000
  C  Sn7       1.0  0.02638  0.17583  0.81381  1.0000
  C   C208      1.0  0.99207  0.19340  0.83816  1.0000
  C  Sn8       1.0  0.95216  0.18445  0.84307  1.0000
  O  Te5       1.0  0.90685  0.14794  0.82763  1.0000
  O  Te6       1.0  0.05452  0.13077  0.76932  1.0000
  O  Te7       1.0  0.06603  0.18522  0.80929  1.0000
  O  Te8       1.0  0.91833  0.20239  0.86763  1.0000
  Mg  Mg3       1.0  0.10234  0.15311  0.77276  1.0000
  Mg  Mg4       1.0  0.87049  0.18008  0.86432  1.0000
