data_image0
_chemical_formula_structural       C24O4B4O4C24O4B4O4C24O4B4O4H24C5HCHC12N4S2NSNH4C24O4B4O4C24O4B4O4C24O4B4O4H24C12H3C8H4C4H7C12N4S2NSNH4C2Sn2C2HTe2HMgC2Sn2C2HTe2HMgC2Sn2C2HTe2HMg
_chemical_formula_sum              "C210 O48 B24 H78 N12 S6 Sn6 Te6 Mg3"
_cell_length_a       30.3219
_cell_length_b       52.1717
_cell_length_c       8.0153
_cell_angle_alpha    90.2352
_cell_angle_beta     125.183
_cell_angle_gamma    90.1235

_symmetry_space_group_name_H-M    'P1'
_space_group_IT_number       1

loop_
  _space_group_symop_operation_xyz
  'x, y, z'

loop_
  _atom_site_type_symbol
  _atom_site_label
  _atom_site_symmetry_multiplicity
  _atom_site_fract_x
  _atom_site_fract_y
  _atom_site_fract_z
  _atom_site_occupancy
  C   C1        1.0  0.52265  0.80913  0.23099  1.0000
  C   C2        1.0  0.54891  0.83235  0.23977  1.0000
  C   C3        1.0  0.59730  0.83150  0.25053  1.0000
  C   C4        1.0  0.61661  0.80802  0.24525  1.0000
  C   C5        1.0  0.58987  0.78527  0.22983  1.0000
  C   C6        1.0  0.54392  0.78520  0.22543  1.0000
  C   C7        1.0  0.03596  0.30807  0.24560  1.0000
  C   C8        1.0  0.06308  0.33141  0.26162  1.0000
  C   C9        1.0  0.11272  0.33039  0.28166  1.0000
  C   C10       1.0  0.13210  0.30689  0.27611  1.0000
  C   C11       1.0  0.10437  0.28407  0.25074  1.0000
  C   C12       1.0  0.05719  0.28413  0.23823  1.0000
  C   C13       1.0  0.53352  0.19276  0.23421  1.0000
  C   C14       1.0  0.55887  0.16935  0.24089  1.0000
  C   C15       1.0  0.60744  0.16999  0.25282  1.0000
  C   C16       1.0  0.62822  0.19333  0.25222  1.0000
  C   C17       1.0  0.60280  0.21631  0.24088  1.0000
  C   C18       1.0  0.55633  0.21659  0.23364  1.0000
  C   C19       1.0  0.02665  0.69254  0.25031  1.0000
  C   C20       1.0  0.05250  0.66924  0.25841  1.0000
  C   C21       1.0  0.10048  0.66997  0.26646  1.0000
  C   C22       1.0  0.12009  0.69335  0.25994  1.0000
  C   C23       1.0  0.09414  0.71621  0.24652  1.0000
  C   C24       1.0  0.04842  0.71637  0.24425  1.0000
  O   O1        1.0  0.61663  0.76469  0.21922  1.0000
  O   O2        1.0  0.13150  0.26366  0.23848  1.0000
  O   O3        1.0  0.63143  0.23666  0.23677  1.0000
  O   O4        1.0  0.12128  0.73661  0.23395  1.0000
  B   B1        1.0  0.66074  0.77537  0.23073  1.0000
  B   B2        1.0  0.17682  0.27472  0.25901  1.0000
  B   B3        1.0  0.67527  0.22554  0.24797  1.0000
  B   B4        1.0  0.16486  0.72554  0.24252  1.0000
  O   O5        1.0  0.66179  0.80227  0.24940  1.0000
  O   O6        1.0  0.17803  0.30141  0.28536  1.0000
  O   O7        1.0  0.67390  0.19866  0.25842  1.0000
  O   O8        1.0  0.16470  0.69874  0.25971  1.0000
  C   C25       1.0  0.47389  0.81008  0.22617  1.0000
  C   C26       1.0  0.45084  0.83419  0.22092  1.0000
  C   C27       1.0  0.44958  0.78695  0.22869  1.0000
  C   C28       1.0  0.40390  0.78847  0.22536  1.0000
  C   C29       1.0  0.38052  0.81205  0.21549  1.0000
  C   C30       1.0  0.40294  0.83486  0.21387  1.0000
  C   C31       1.0  0.98642  0.30889  0.23592  1.0000
  C   C32       1.0  0.96441  0.33298  0.23873  1.0000
  C   C33       1.0  0.96064  0.28578  0.22919  1.0000
  C   C34       1.0  0.91492  0.28728  0.22573  1.0000
  C   C35       1.0  0.89297  0.31086  0.22545  1.0000
  C   C36       1.0  0.91667  0.33367  0.23260  1.0000
  C   C37       1.0  0.48418  0.19204  0.22620  1.0000
  C   C38       1.0  0.46128  0.16801  0.22563  1.0000
  C   C39       1.0  0.45896  0.21519  0.22143  1.0000
  C   C40       1.0  0.41317  0.21375  0.21773  1.0000
  C   C41       1.0  0.39029  0.19021  0.21381  1.0000
  C   C42       1.0  0.41329  0.16737  0.21798  1.0000
  C   C43       1.0  0.97794  0.69163  0.24672  1.0000
  C   C44       1.0  0.95562  0.66739  0.24628  1.0000
  C   C45       1.0  0.95279  0.71468  0.24518  1.0000
  C   C46       1.0  0.90702  0.71294  0.24207  1.0000
  C   C47       1.0  0.88511  0.68916  0.23923  1.0000
  C   C48       1.0  0.90848  0.66650  0.24339  1.0000
  O   O9        1.0  0.33517  0.80778  0.21387  1.0000
  O   O10       1.0  0.84726  0.30667  0.22118  1.0000
  O   O11       1.0  0.34445  0.19451  0.20834  1.0000
  O   O12       1.0  0.83964  0.69281  0.23618  1.0000
  B   B5        1.0  0.33246  0.78101  0.22790  1.0000
  B   B6        1.0  0.84292  0.27992  0.22606  1.0000
  B   B7        1.0  0.34113  0.22129  0.21642  1.0000
  B   B8        1.0  0.83431  0.71938  0.23881  1.0000
  O   O13       1.0  0.37475  0.76882  0.23417  1.0000
  O   O14       1.0  0.88433  0.26758  0.22643  1.0000
  O   O15       1.0  0.38314  0.23355  0.22015  1.0000
  O   O16       1.0  0.87596  0.73231  0.24345  1.0000
  C   C49       1.0  0.52574  0.85693  0.23620  1.0000
  C   C50       1.0  0.47668  0.85795  0.22309  1.0000
  C   C51       1.0  0.45364  0.88216  0.21319  1.0000
  C   C52       1.0  0.47980  0.90402  0.21789  1.0000
  C   C53       1.0  0.52791  0.90281  0.23184  1.0000
  C   C54       1.0  0.55136  0.87997  0.24067  1.0000
  C   C55       1.0  0.03951  0.35609  0.25650  1.0000
  C   C56       1.0  0.04030  0.40222  0.25189  1.0000
  C   C57       1.0  0.06399  0.37946  0.25749  1.0000
  C   C58       1.0  0.53467  0.14484  0.23449  1.0000
  C   C59       1.0  0.48669  0.14417  0.22888  1.0000
  C   C60       1.0  0.46356  0.12019  0.22443  1.0000
  C   C61       1.0  0.48764  0.09817  0.22008  1.0000
  C   C62       1.0  0.53413  0.09887  0.22258  1.0000
  C   C63       1.0  0.55831  0.12156  0.23064  1.0000
  C   C64       1.0  0.02929  0.64463  0.25574  1.0000
  C   C65       1.0  0.03063  0.59872  0.24970  1.0000
  C   C66       1.0  0.05417  0.62156  0.25718  1.0000
  C   C67       1.0  0.99084  0.35681  0.24640  1.0000
  C   C68       1.0  0.96811  0.38081  0.24295  1.0000
  C   C69       1.0  0.99323  0.40290  0.24537  1.0000
  C   C70       1.0  0.98082  0.64360  0.24633  1.0000
  C   C71       1.0  0.95750  0.61943  0.23719  1.0000
  C   C72       1.0  0.98311  0.59754  0.23998  1.0000
  O   O17       1.0  0.54516  0.92724  0.23013  1.0000
  O   O18       1.0  0.05623  0.42707  0.24948  1.0000
  O   O19       1.0  0.54951  0.07412  0.21653  1.0000
  O   O20       1.0  0.04740  0.57426  0.24657  1.0000
  B   B9        1.0  0.50673  0.94354  0.21682  1.0000
  B   B10       1.0  0.01799  0.44284  0.24358  1.0000
  B   B11       1.0  0.51156  0.05835  0.21272  1.0000
  B   B12       1.0  0.00939  0.55795  0.23741  1.0000
  O   O21       1.0  0.46570  0.92958  0.20882  1.0000
  O   O22       1.0  0.97855  0.42819  0.24048  1.0000
  O   O23       1.0  0.47265  0.07286  0.21387  1.0000
  O   O24       1.0  0.96904  0.57196  0.23327  1.0000
  H   H1        1.0  0.61871  0.84868  0.25920  1.0000
  H   H2        1.0  0.52476  0.76710  0.21465  1.0000
  H   H3        1.0  0.46635  0.76833  0.23611  1.0000
  H   H4        1.0  0.38446  0.85275  0.21127  1.0000
  H   H5        1.0  0.41660  0.88368  0.20375  1.0000
  H   H6        1.0  0.58800  0.88003  0.24665  1.0000
  H   H7        1.0  0.13537  0.34753  0.29917  1.0000
  H   H8        1.0  0.03669  0.26615  0.21920  1.0000
  H   H9        1.0  0.09996  0.37984  0.25888  1.0000
  H   H10       1.0  0.62815  0.15264  0.26066  1.0000
  H   H11       1.0  0.53788  0.23477  0.22539  1.0000
  H   H12       1.0  0.47496  0.23384  0.22257  1.0000
  H   H13       1.0  0.39496  0.14955  0.21874  1.0000
  H   H14       1.0  0.42779  0.11892  0.22405  1.0000
  H   H15       1.0  0.59410  0.12121  0.23114  1.0000
  H   H16       1.0  0.12122  0.65271  0.27312  1.0000
  H   H17       1.0  0.02981  0.73450  0.23569  1.0000
  H   H18       1.0  0.09032  0.62142  0.25997  1.0000
  H   H19       1.0  0.97655  0.26715  0.23043  1.0000
  H   H20       1.0  0.89904  0.35148  0.23700  1.0000
  H   H21       1.0  0.93172  0.38199  0.23840  1.0000
  H   H22       1.0  0.96897  0.73337  0.24817  1.0000
  H   H23       1.0  0.89098  0.64861  0.24790  1.0000
  H   H24       1.0  0.92056  0.61798  0.22875  1.0000
  C   C73       1.0  0.78862  0.73299  0.23380  1.0000
  C   C74       1.0  0.74590  0.71935  0.22187  1.0000
  C   C75       1.0  0.74556  0.77282  0.23694  1.0000
  C   C76       1.0  0.78671  0.75963  0.23996  1.0000
  C   C77       1.0  0.70361  0.73286  0.21807  1.0000
  H   H25       1.0  0.81811  0.77072  0.24638  1.0000
  C   C78       1.0  0.70359  0.76021  0.22724  1.0000
  H   H26       1.0  0.74661  0.79368  0.24220  1.0000
  C   C79       1.0  0.51123  0.02890  0.20803  1.0000
  C   C80       1.0  0.01181  0.52851  0.23248  1.0000
  C   C81       1.0  0.50868  0.97293  0.20962  1.0000
  C   C82       1.0  0.01690  0.47238  0.23846  1.0000
  C   C83       1.0  0.55294  0.01423  0.22173  1.0000
  C   C84       1.0  0.05512  0.51544  0.24531  1.0000
  C   C85       1.0  0.55171  0.98641  0.22249  1.0000
  C   C86       1.0  0.05762  0.48761  0.24848  1.0000
  C   C87       1.0  0.46860  0.98794  0.19439  1.0000
  C   C88       1.0  0.97526  0.48587  0.22467  1.0000
  C   C89       1.0  0.46987  0.01506  0.19403  1.0000
  C   C90       1.0  0.97274  0.51300  0.22146  1.0000
  N   N1        1.0  0.59676  0.02392  0.23808  1.0000
  N   N2        1.0  0.09726  0.52673  0.25824  1.0000
  N   N3        1.0  0.59457  0.97559  0.23864  1.0000
  N   N4        1.0  0.10163  0.47846  0.26431  1.0000
  S   S1        1.0  0.63177  0.99928  0.25319  1.0000
  S   S2        1.0  0.13536  0.50350  0.27473  1.0000
  N   N5        1.0  0.74001  0.69350  0.21366  1.0000
  S   S3        1.0  0.68568  0.68807  0.20286  1.0000
  N   N6        1.0  0.66654  0.71702  0.20721  1.0000
  H   H27       1.0  0.43771  0.02555  0.18620  1.0000
  H   H28       1.0  0.93933  0.52214  0.21376  1.0000
  H   H29       1.0  0.43538  0.97843  0.18617  1.0000
  H   H30       1.0  0.94354  0.47515  0.21893  1.0000
  C   C91       1.0  0.52284  0.80746  0.73203  1.0000
  C   C92       1.0  0.54800  0.83088  0.73647  1.0000
  C   C93       1.0  0.59597  0.83032  0.74415  1.0000
  C   C94       1.0  0.61623  0.80692  0.74221  1.0000
  C   C95       1.0  0.59078  0.78399  0.73253  1.0000
  C   C96       1.0  0.54493  0.78367  0.72890  1.0000
  C   C97       1.0  0.00799  0.30624  0.73829  1.0000
  C   C98       1.0  0.03410  0.32947  0.74611  1.0000
  C   C99       1.0  0.08277  0.32868  0.75896  1.0000
  C   C100      1.0  0.10263  0.30521  0.75628  1.0000
  C   C101      1.0  0.07632  0.28237  0.74232  1.0000
  C   C102      1.0  0.02989  0.28233  0.73501  1.0000
  C   C103      1.0  0.50612  0.19084  0.72719  1.0000
  C   C104      1.0  0.53136  0.16766  0.72958  1.0000
  C   C105      1.0  0.57927  0.16843  0.73725  1.0000
  C   C106      1.0  0.59980  0.19190  0.73871  1.0000
  C   C107      1.0  0.57494  0.21473  0.73393  1.0000
  C   C108      1.0  0.52897  0.21477  0.72978  1.0000
  C   C109      1.0  0.02689  0.69046  0.75031  1.0000
  C   C110      1.0  0.05220  0.66687  0.75985  1.0000
  C   C111      1.0  0.10035  0.66727  0.76871  1.0000
  C   C112      1.0  0.12057  0.69051  0.76250  1.0000
  C   C113      1.0  0.09494  0.71357  0.74689  1.0000
  C   C114      1.0  0.04917  0.71410  0.74374  1.0000
  O   O25       1.0  0.61816  0.76353  0.72397  1.0000
  O   O26       1.0  0.10383  0.26185  0.73334  1.0000
  O   O27       1.0  0.60361  0.23528  0.73155  1.0000
  O   O28       1.0  0.12252  0.73377  0.73437  1.0000
  B   B13       1.0  0.66112  0.77451  0.72903  1.0000
  B   B14       1.0  0.14761  0.27286  0.74236  1.0000
  B   B15       1.0  0.64650  0.22420  0.73522  1.0000
  B   B16       1.0  0.16615  0.72238  0.74535  1.0000
  O   O29       1.0  0.66093  0.80140  0.74263  1.0000
  O   O30       1.0  0.14789  0.29973  0.76087  1.0000
  O   O31       1.0  0.64499  0.19735  0.74281  1.0000
  O   O32       1.0  0.16568  0.69566  0.76470  1.0000
  C   C115      1.0  0.47431  0.80800  0.72914  1.0000
  C   C116      1.0  0.45063  0.83193  0.72326  1.0000
  C   C117      1.0  0.45088  0.78475  0.73472  1.0000
  C   C118      1.0  0.40503  0.78598  0.73063  1.0000
  C   C119      1.0  0.38073  0.80938  0.71771  1.0000
  C   C120      1.0  0.40258  0.83231  0.71509  1.0000
  C   C121      1.0  0.95875  0.30726  0.73095  1.0000
  C   C122      1.0  0.93612  0.33148  0.72810  1.0000
  C   C123      1.0  0.93352  0.28421  0.72991  1.0000
  C   C124      1.0  0.88726  0.28583  0.72318  1.0000
  C   C125      1.0  0.86408  0.30949  0.71299  1.0000
  C   C126      1.0  0.88747  0.33224  0.71593  1.0000
  C   C127      1.0  0.45699  0.18975  0.72066  1.0000
  C   C128      1.0  0.43395  0.16551  0.71584  1.0000
  C   C129      1.0  0.43223  0.21284  0.72102  1.0000
  C   C130      1.0  0.38630  0.21132  0.71658  1.0000
  C   C131      1.0  0.36307  0.18764  0.70724  1.0000
  C   C132      1.0  0.38591  0.16484  0.70805  1.0000
  C   C133      1.0  0.97822  0.69020  0.74658  1.0000
  C   C134      1.0  0.95509  0.66627  0.74637  1.0000
  C   C135      1.0  0.95388  0.71360  0.74394  1.0000
  C   C136      1.0  0.90824  0.71248  0.74169  1.0000
  C   C137      1.0  0.88560  0.68897  0.73968  1.0000
  C   C138      1.0  0.90782  0.66599  0.74268  1.0000
  O   O33       1.0  0.33533  0.80490  0.71515  1.0000
  O   O34       1.0  0.81779  0.30533  0.70538  1.0000
  O   O35       1.0  0.31701  0.19184  0.70100  1.0000
  O   O36       1.0  0.84062  0.69322  0.73842  1.0000
  B   B17       1.0  0.33334  0.77809  0.73071  1.0000
  B   B18       1.0  0.81415  0.27858  0.71557  1.0000
  B   B19       1.0  0.31367  0.21860  0.71180  1.0000
  B   B20       1.0  0.83629  0.71982  0.74122  1.0000
  O   O37       1.0  0.37642  0.76618  0.74098  1.0000
  O   O38       1.0  0.85705  0.26628  0.72690  1.0000
  O   O39       1.0  0.35657  0.23093  0.72231  1.0000
  O   O40       1.0  0.87799  0.73228  0.74352  1.0000
  C   C139      1.0  0.52420  0.85531  0.73276  1.0000
  C   C140      1.0  0.47592  0.85586  0.72537  1.0000
  C   C141      1.0  0.45307  0.87976  0.72250  1.0000
  C   C142      1.0  0.47823  0.90185  0.72542  1.0000
  C   C143      1.0  0.52491  0.90126  0.72923  1.0000
  C   C144      1.0  0.54839  0.87864  0.73261  1.0000
  C   C145      1.0  0.01071  0.35407  0.74032  1.0000
  C   C146      1.0  0.01425  0.39997  0.74029  1.0000
  C   C147      1.0  0.03565  0.37697  0.73793  1.0000
  C   C148      1.0  0.50800  0.14307  0.72461  1.0000
  C   C149      1.0  0.45988  0.14174  0.71793  1.0000
  C   C150      1.0  0.43817  0.11731  0.71427  1.0000
  C   C151      1.0  0.46484  0.09567  0.71895  1.0000
  C   C152      1.0  0.51167  0.09728  0.72437  1.0000
  C   C153      1.0  0.53349  0.12029  0.72542  1.0000
  C   C154      1.0  0.02828  0.64247  0.75818  1.0000
  C   C155      1.0  0.02758  0.59639  0.75431  1.0000
  C   C156      1.0  0.05233  0.61890  0.76188  1.0000
  C   C157      1.0  0.96288  0.35526  0.73547  1.0000
  C   C158      1.0  0.94200  0.37960  0.73782  1.0000
  C   C159      1.0  0.96828  0.40135  0.74086  1.0000
  C   C160      1.0  0.97959  0.64219  0.74758  1.0000
  C   C161      1.0  0.95506  0.61845  0.73811  1.0000
  C   C162      1.0  0.97967  0.59617  0.74199  1.0000
  O   O41       1.0  0.54081  0.92602  0.72636  1.0000
  O   O42       1.0  0.03192  0.42435  0.73929  1.0000
  O   O43       1.0  0.52983  0.07309  0.72449  1.0000
  O   O44       1.0  0.04285  0.57146  0.75280  1.0000
  B   B21       1.0  0.50301  0.94174  0.72297  1.0000
  B   B22       1.0  0.99590  0.44083  0.74105  1.0000
  B   B23       1.0  0.49329  0.05640  0.72069  1.0000
  B   B24       1.0  0.00346  0.55601  0.74221  1.0000
  O   O45       1.0  0.46398  0.92714  0.72365  1.0000
  O   O46       1.0  0.95599  0.42701  0.74221  1.0000
  O   O47       1.0  0.45259  0.06994  0.71776  1.0000
  O   O48       1.0  0.96378  0.57101  0.73467  1.0000
  H   H31       1.0  0.61622  0.84767  0.74756  1.0000
  H   H32       1.0  0.52659  0.76546  0.72149  1.0000
  H   H33       1.0  0.46855  0.76624  0.74568  1.0000
  H   H34       1.0  0.38350  0.85007  0.71114  1.0000
  H   H35       1.0  0.41716  0.88092  0.72111  1.0000
  H   H36       1.0  0.58398  0.87908  0.73155  1.0000
  H   H37       1.0  0.10413  0.34589  0.76785  1.0000
  H   H38       1.0  0.01063  0.26423  0.72344  1.0000
  H   H39       1.0  0.07058  0.37680  0.73273  1.0000
  H   H40       1.0  0.59970  0.15129  0.73924  1.0000
  H   H41       1.0  0.51101  0.23284  0.72699  1.0000
  H   H42       1.0  0.44881  0.23150  0.72627  1.0000
  H   H43       1.0  0.36758  0.14686  0.70616  1.0000
  H   H44       1.0  0.40181  0.11543  0.70941  1.0000
  H   H45       1.0  0.56947  0.12043  0.72718  1.0000
  H   H46       1.0  0.12083  0.64983  0.77658  1.0000
  H   H47       1.0  0.03087  0.73236  0.73413  1.0000
  H   H48       1.0  0.08876  0.61819  0.76660  1.0000
  H   H49       1.0  0.95014  0.26552  0.73751  1.0000
  H   H50       1.0  0.86893  0.35025  0.71096  1.0000
  H   H51       1.0  0.90665  0.38130  0.73963  1.0000
  H   H52       1.0  0.97051  0.73207  0.74506  1.0000
  H   H53       1.0  0.88938  0.64836  0.74594  1.0000
  H   H54       1.0  0.91808  0.61752  0.72951  1.0000
  C   C163      1.0  0.79079  0.73337  0.73730  1.0000
  C   C164      1.0  0.26994  0.23234  0.71878  1.0000
  C   C165      1.0  0.77018  0.26473  0.72076  1.0000
  C   C166      1.0  0.29002  0.76363  0.73616  1.0000
  C   C167      1.0  0.74812  0.71935  0.72310  1.0000
  C   C168      1.0  0.22816  0.21855  0.70655  1.0000
  C   C169      1.0  0.72805  0.27837  0.70584  1.0000
  C   C170      1.0  0.24849  0.77701  0.72759  1.0000
  C   C171      1.0  0.74668  0.77279  0.73980  1.0000
  C   C172      1.0  0.23164  0.27187  0.74444  1.0000
  C   C173      1.0  0.73167  0.22506  0.74380  1.0000
  C   C174      1.0  0.25068  0.72352  0.74718  1.0000
  H   H55       1.0  0.22709  0.19774  0.69307  1.0000
  H   H56       1.0  0.72669  0.29913  0.69061  1.0000
  H   H57       1.0  0.24789  0.79786  0.72078  1.0000
  C   C175      1.0  0.78854  0.75996  0.74531  1.0000
  C   C176      1.0  0.27092  0.25926  0.73754  1.0000
  C   C177      1.0  0.77120  0.23782  0.73900  1.0000
  C   C178      1.0  0.29056  0.73665  0.74645  1.0000
  C   C179      1.0  0.70500  0.73250  0.71559  1.0000
  C   C180      1.0  0.18864  0.23121  0.71248  1.0000
  C   C181      1.0  0.68846  0.26556  0.71070  1.0000
  C   C182      1.0  0.20867  0.76387  0.72868  1.0000
  H   H58       1.0  0.82018  0.77128  0.75516  1.0000
  H   H59       1.0  0.30268  0.27014  0.74497  1.0000
  H   H60       1.0  0.80319  0.22712  0.74738  1.0000
  H   H61       1.0  0.32215  0.72612  0.75075  1.0000
  C   C183      1.0  0.70442  0.75982  0.72551  1.0000
  C   C184      1.0  0.18986  0.25810  0.73247  1.0000
  C   C185      1.0  0.68986  0.23875  0.73130  1.0000
  C   C186      1.0  0.20916  0.73692  0.73871  1.0000
  H   H62       1.0  0.15675  0.22023  0.70353  1.0000
  H   H63       1.0  0.65598  0.27624  0.69868  1.0000
  H   H64       1.0  0.17726  0.77437  0.72570  1.0000
  H   H65       1.0  0.74751  0.79365  0.74721  1.0000
  H   H66       1.0  0.23280  0.29266  0.75865  1.0000
  H   H67       1.0  0.73273  0.20427  0.75677  1.0000
  H   H68       1.0  0.25123  0.70267  0.75396  1.0000
  C   C187      1.0  0.49626  0.02704  0.71552  1.0000
  C   C188      1.0  0.00199  0.52646  0.73775  1.0000
  C   C189      1.0  0.50160  0.97116  0.71615  1.0000
  C   C190      1.0  0.99835  0.47031  0.73841  1.0000
  C   C191      1.0  0.53913  0.01430  0.72341  1.0000
  C   C192      1.0  0.04252  0.51146  0.74580  1.0000
  C   C193      1.0  0.54175  0.98651  0.72366  1.0000
  C   C194      1.0  0.04085  0.48362  0.74674  1.0000
  C   C195      1.0  0.46006  0.98431  0.70538  1.0000
  C   C196      1.0  0.95932  0.48561  0.72895  1.0000
  C   C197      1.0  0.45743  0.01138  0.70479  1.0000
  C   C198      1.0  0.96109  0.51275  0.72883  1.0000
  N   N7        1.0  0.58045  0.02586  0.73189  1.0000
  N   N8        1.0  0.08557  0.52087  0.75500  1.0000
  N   N9        1.0  0.58504  0.97759  0.73285  1.0000
  N   N10       1.0  0.08269  0.47257  0.75664  1.0000
  S   S4        1.0  0.61778  0.00284  0.74027  1.0000
  S   S5        1.0  0.11925  0.49602  0.76426  1.0000
  N   N11       1.0  0.74299  0.69345  0.71605  1.0000
  S   S6        1.0  0.68825  0.68761  0.70133  1.0000
  N   N12       1.0  0.66795  0.71640  0.70229  1.0000
  H   H69       1.0  0.42421  0.02033  0.69921  1.0000
  H   H70       1.0  0.92956  0.52335  0.72457  1.0000
  H   H71       1.0  0.42890  0.97325  0.70086  1.0000
  H   H72       1.0  0.92644  0.47628  0.72430  1.0000
  C   C199      1.0  0.77179  0.22602  0.24923  1.0000
  C   C200      1.0  0.73016  0.23618  0.25552  1.0000
  C  Sn1       1.0  0.72124  0.26260  0.23947  1.0000
  C  Sn2       1.0  0.75467  0.27910  0.21665  1.0000
  C   C201      1.0  0.79619  0.26874  0.21038  1.0000
  C   C202      1.0  0.80477  0.24228  0.22665  1.0000
  H   H73       1.0  0.77842  0.20555  0.26170  1.0000
  O  Te1       1.0  0.67948  0.27243  0.24612  1.0000
  O  Te2       1.0  0.74663  0.30557  0.20019  1.0000
  H   H74       1.0  0.83698  0.23442  0.22163  1.0000
  Mg  Mg1       1.0  0.68451  0.30982  0.21758  1.0000
  C   C203      1.0  0.24550  0.22073  0.22191  1.0000
  C   C204      1.0  0.28627  0.23112  0.21088  1.0000
  C  Sn3       1.0  0.29500  0.25759  0.22670  1.0000
  C  Sn4       1.0  0.26226  0.27392  0.25412  1.0000
  C   C205      1.0  0.22161  0.26334  0.26511  1.0000
  C   C206      1.0  0.21320  0.23682  0.24904  1.0000
  H   H75       1.0  0.23902  0.20021  0.20959  1.0000
  O  Te3       1.0  0.33589  0.26765  0.21528  1.0000
  O  Te4       1.0  0.27013  0.30044  0.27046  1.0000
  H   H76       1.0  0.18166  0.22878  0.25772  1.0000
  Mg  Mg2       1.0  0.33096  0.30503  0.24564  1.0000
  C   C207      1.0  0.28442  0.73368  0.25193  1.0000
  C   C208      1.0  0.28873  0.75986  0.22723  1.0000
  C  Sn5       1.0  0.25183  0.77709  0.21536  1.0000
  C  Sn6       1.0  0.20987  0.76788  0.22857  1.0000
  C   C209      1.0  0.20592  0.74166  0.25341  1.0000
  C   C210      1.0  0.24306  0.72458  0.26504  1.0000
  H   H77       1.0  0.31317  0.72047  0.26104  1.0000
  O  Te5       1.0  0.25671  0.80318  0.19061  1.0000
  O  Te6       1.0  0.17245  0.78469  0.21723  1.0000
  H   H78       1.0  0.23973  0.70432  0.28429  1.0000
  Mg  Mg3       1.0  0.19592  0.81853  0.18317  1.0000
