data_image0
_chemical_formula_structural       C24O8B4C48O8B8O8H24C12H8C24H8C16H8C24H16C24O8B4C48O8B8O8H24C24H8C16H8C24H16C2Sn2C2HTe2HMgC2Sn2C2HTe2HMg
_chemical_formula_sum              "C292 O48 B24 H124 Sn4 Te4 Mg2"
_cell_length_a       56.1148
_cell_length_b       37.6823
_cell_length_c       7.97694
_cell_angle_alpha    125.754
_cell_angle_beta     86.3788
_cell_angle_gamma    89.745

_symmetry_space_group_name_H-M    'P1'
_space_group_IT_number       1

loop_
  _space_group_symop_operation_xyz
  'x, y, z'

loop_
  _atom_site_type_symbol
  _atom_site_label
  _atom_site_symmetry_multiplicity
  _atom_site_fract_x
  _atom_site_fract_y
  _atom_site_fract_z
  _atom_site_occupancy
  C   C1        1.0  0.63589  0.01499  0.26355  1.0000
  C   C2        1.0  0.61455  0.03674  0.27344  1.0000
  C   C3        1.0  0.59311  0.01956  0.27398  1.0000
  C   C4        1.0  0.13377  0.53486  0.26657  1.0000
  C   C5        1.0  0.13401  0.49673  0.26482  1.0000
  C   C6        1.0  0.11214  0.47932  0.27756  1.0000
  C   C7        1.0  0.11157  0.55394  0.27043  1.0000
  C   C8        1.0  0.09123  0.49869  0.28111  1.0000
  C   C9        1.0  0.09086  0.53527  0.27676  1.0000
  C   C10       1.0  0.36961  0.99478  0.25498  1.0000
  C   C11       1.0  0.39164  0.97618  0.25569  1.0000
  C   C12       1.0  0.41243  0.99473  0.25115  1.0000
  C   C13       1.0  0.87036  0.47055  0.22351  1.0000
  C   C14       1.0  0.86918  0.51014  0.23809  1.0000
  C   C15       1.0  0.89043  0.53133  0.24784  1.0000
  C   C16       1.0  0.89299  0.45229  0.21682  1.0000
  C   C17       1.0  0.91174  0.51294  0.24330  1.0000
  C   C18       1.0  0.91313  0.47397  0.22730  1.0000
  C   C19       1.0  0.36938  0.03316  0.25789  1.0000
  C   C20       1.0  0.39143  0.05135  0.25356  1.0000
  C   C21       1.0  0.41240  0.03166  0.24986  1.0000
  C   C22       1.0  0.63483  0.97586  0.25343  1.0000
  C   C23       1.0  0.61212  0.95892  0.25215  1.0000
  C   C24       1.0  0.59186  0.98108  0.26190  1.0000
  O   O1        1.0  0.57037  0.03471  0.27900  1.0000
  O   O2        1.0  0.06729  0.54706  0.27800  1.0000
  O   O3        1.0  0.43564  0.98235  0.25182  1.0000
  O   O4        1.0  0.93687  0.46409  0.23214  1.0000
  O   O5        1.0  0.43584  0.04349  0.24918  1.0000
  O   O6        1.0  0.93431  0.52856  0.25737  1.0000
  O   O7        1.0  0.56802  0.97096  0.25939  1.0000
  O   O8        1.0  0.06817  0.48649  0.28627  1.0000
  B   B1        1.0  0.55502  0.00429  0.26932  1.0000
  B   B2        1.0  0.05362  0.51635  0.28234  1.0000
  B   B3        1.0  0.44996  0.01292  0.25273  1.0000
  B   B4        1.0  0.94959  0.49834  0.25209  1.0000
  C   C25       1.0  0.65879  0.03251  0.25900  1.0000
  C   C26       1.0  0.68047  0.01052  0.24342  1.0000
  C   C27       1.0  0.65950  0.07116  0.26757  1.0000
  C   C28       1.0  0.68136  0.08579  0.25478  1.0000
  C   C29       1.0  0.70270  0.06354  0.23242  1.0000
  C   C30       1.0  0.70278  0.02652  0.22788  1.0000
  C   C31       1.0  0.15633  0.55349  0.26147  1.0000
  C   C32       1.0  0.17849  0.53294  0.25016  1.0000
  C   C33       1.0  0.15638  0.59215  0.26928  1.0000
  C   C34       1.0  0.17791  0.60848  0.26182  1.0000
  C   C35       1.0  0.19964  0.58764  0.24423  1.0000
  C   C36       1.0  0.20042  0.55058  0.23962  1.0000
  C   C37       1.0  0.34733  0.97461  0.25183  1.0000
  C   C38       1.0  0.32511  0.99407  0.25719  1.0000
  C   C39       1.0  0.34769  0.93580  0.24283  1.0000
  C   C40       1.0  0.32625  0.91860  0.24591  1.0000
  C   C41       1.0  0.30449  0.93829  0.25622  1.0000
  C   C42       1.0  0.30342  0.97505  0.25913  1.0000
  C   C43       1.0  0.84823  0.45020  0.22293  1.0000
  C   C44       1.0  0.82562  0.47036  0.24064  1.0000
  C   C45       1.0  0.84903  0.41097  0.20973  1.0000
  C   C46       1.0  0.82788  0.39387  0.21911  1.0000
  C   C47       1.0  0.80574  0.41454  0.24521  1.0000
  C   C48       1.0  0.80413  0.45218  0.25528  1.0000
  C   C49       1.0  0.34657  0.05333  0.26609  1.0000
  C   C50       1.0  0.32472  0.03378  0.26503  1.0000
  C   C51       1.0  0.34584  0.09249  0.27800  1.0000
  C   C52       1.0  0.32400  0.11029  0.28540  1.0000
  C   C53       1.0  0.30268  0.09036  0.27771  1.0000
  C   C54       1.0  0.30256  0.05299  0.27022  1.0000
  C   C55       1.0  0.84630  0.52934  0.24503  1.0000
  C   C56       1.0  0.82464  0.50979  0.24648  1.0000
  C   C57       1.0  0.84565  0.56764  0.25076  1.0000
  C   C58       1.0  0.82384  0.58505  0.25774  1.0000
  C   C59       1.0  0.80253  0.56555  0.25456  1.0000
  C   C60       1.0  0.80242  0.52846  0.24956  1.0000
  C   C61       1.0  0.65703  0.95394  0.24397  1.0000
  C   C62       1.0  0.67952  0.97142  0.24011  1.0000
  C   C63       1.0  0.65656  0.91533  0.23709  1.0000
  C   C64       1.0  0.67787  0.89577  0.22757  1.0000
  C   C65       1.0  0.69973  0.91381  0.22984  1.0000
  C   C66       1.0  0.70105  0.95082  0.23504  1.0000
  C   C67       1.0  0.15650  0.47530  0.24903  1.0000
  C   C68       1.0  0.17857  0.49368  0.24594  1.0000
  C   C69       1.0  0.15642  0.43613  0.23653  1.0000
  C   C70       1.0  0.17785  0.41795  0.23182  1.0000
  C   C71       1.0  0.19946  0.43699  0.23849  1.0000
  C   C72       1.0  0.20039  0.47380  0.24165  1.0000
  O   O9        1.0  0.72183  0.08463  0.21499  1.0000
  O   O10       1.0  0.21835  0.60989  0.23171  1.0000
  O   O11       1.0  0.28580  0.91530  0.26409  1.0000
  O   O12       1.0  0.78766  0.39187  0.26273  1.0000
  O   O13       1.0  0.28362  0.11370  0.27730  1.0000
  O   O14       1.0  0.78353  0.58870  0.25114  1.0000
  O   O15       1.0  0.71815  0.88946  0.22962  1.0000
  O   O16       1.0  0.21797  0.41318  0.24273  1.0000
  B   B5        1.0  0.71145  0.12094  0.23281  1.0000
  B   B6        1.0  0.20757  0.64547  0.24607  1.0000
  B   B7        1.0  0.29685  0.88077  0.25757  1.0000
  B   B8        1.0  0.79936  0.35637  0.24337  1.0000
  B   B9        1.0  0.29381  0.14891  0.28754  1.0000
  B   B10       1.0  0.79404  0.62323  0.25616  1.0000
  B   B11       1.0  0.70717  0.85545  0.22442  1.0000
  B   B12       1.0  0.20696  0.37876  0.23525  1.0000
  O   O17       1.0  0.68638  0.12199  0.25802  1.0000
  O   O18       1.0  0.18242  0.64498  0.26499  1.0000
  O   O19       1.0  0.32189  0.88196  0.24182  1.0000
  O   O20       1.0  0.82423  0.35695  0.21444  1.0000
  O   O21       1.0  0.31886  0.14737  0.29452  1.0000
  O   O22       1.0  0.81898  0.62146  0.26178  1.0000
  O   O23       1.0  0.68216  0.85872  0.22179  1.0000
  O   O24       1.0  0.18216  0.38084  0.22415  1.0000
  H   H1        1.0  0.61043  0.92940  0.24492  1.0000
  H   H2        1.0  0.63983  0.90157  0.24255  1.0000
  H   H3        1.0  0.71835  0.96384  0.23847  1.0000
  H   H4        1.0  0.11156  0.45138  0.28373  1.0000
  H   H5        1.0  0.11070  0.58207  0.26553  1.0000
  H   H6        1.0  0.13994  0.60854  0.27759  1.0000
  H   H7        1.0  0.14012  0.42052  0.23320  1.0000
  H   H8        1.0  0.21756  0.53516  0.22428  1.0000
  H   H9        1.0  0.21750  0.48729  0.24410  1.0000
  H   H10       1.0  0.39207  0.08011  0.25353  1.0000
  H   H11       1.0  0.36201  0.10817  0.27823  1.0000
  H   H12       1.0  0.28570  0.03868  0.26574  1.0000
  H   H13       1.0  0.89026  0.56168  0.26149  1.0000
  H   H14       1.0  0.89458  0.42272  0.20953  1.0000
  H   H15       1.0  0.86580  0.39502  0.19808  1.0000
  H   H16       1.0  0.86165  0.58290  0.24428  1.0000
  H   H17       1.0  0.78675  0.46778  0.27842  1.0000
  H   H18       1.0  0.78563  0.51376  0.24354  1.0000
  H   H19       1.0  0.39244  0.94804  0.26036  1.0000
  H   H20       1.0  0.36421  0.91998  0.23709  1.0000
  H   H21       1.0  0.28613  0.98904  0.26659  1.0000
  H   H22       1.0  0.61478  0.06586  0.27654  1.0000
  H   H23       1.0  0.64352  0.08901  0.27992  1.0000
  H   H24       1.0  0.71965  0.00997  0.20920  1.0000
  C   C73       1.0  0.47731  0.01192  0.25966  1.0000
  C   C74       1.0  0.97661  0.50348  0.26472  1.0000
  C   C75       1.0  0.52771  0.00712  0.26717  1.0000
  C   C76       1.0  0.02643  0.51341  0.27906  1.0000
  C   C77       1.0  0.49149  0.04434  0.27509  1.0000
  C   C78       1.0  0.98666  0.53984  0.28404  1.0000
  C   C79       1.0  0.51351  0.97484  0.25280  1.0000
  C   C80       1.0  0.01633  0.47729  0.26120  1.0000
  C   C81       1.0  0.51623  0.04197  0.27907  1.0000
  C   C82       1.0  0.01122  0.54473  0.29085  1.0000
  C   C83       1.0  0.48878  0.97731  0.24990  1.0000
  C   C84       1.0  0.99180  0.47236  0.25430  1.0000
  H   H25       1.0  0.48299  0.07139  0.28328  1.0000
  H   H26       1.0  0.97502  0.56392  0.29088  1.0000
  H   H27       1.0  0.52199  0.94787  0.24537  1.0000
  H   H28       1.0  0.02796  0.45315  0.25364  1.0000
  H   H29       1.0  0.52691  0.06719  0.28989  1.0000
  H   H30       1.0  0.01881  0.57262  0.30301  1.0000
  H   H31       1.0  0.47806  0.95242  0.24170  1.0000
  H   H32       1.0  0.98420  0.44444  0.24180  1.0000
  C   C85       1.0  0.78071  0.65845  0.25475  1.0000
  C   C86       1.0  0.28005  0.18335  0.28047  1.0000
  C   C87       1.0  0.22008  0.34387  0.24107  1.0000
  C   C88       1.0  0.72066  0.82060  0.23000  1.0000
  C   C89       1.0  0.22121  0.68009  0.24045  1.0000
  C   C90       1.0  0.72514  0.15546  0.22829  1.0000
  C   C91       1.0  0.78660  0.32142  0.25105  1.0000
  C   C92       1.0  0.28324  0.84572  0.25938  1.0000
  C   C93       1.0  0.75629  0.65608  0.22414  1.0000
  C   C94       1.0  0.25553  0.18079  0.24929  1.0000
  C   C95       1.0  0.24447  0.34646  0.27374  1.0000
  C   C96       1.0  0.74519  0.82316  0.26129  1.0000
  C   C97       1.0  0.24630  0.68021  0.23744  1.0000
  C   C98       1.0  0.75019  0.15470  0.21881  1.0000
  C   C99       1.0  0.76157  0.32098  0.25241  1.0000
  C   C100      1.0  0.25817  0.84600  0.26521  1.0000
  C   C101      1.0  0.78180  0.72602  0.27729  1.0000
  C   C102      1.0  0.28079  0.25058  0.29882  1.0000
  C   C103      1.0  0.21895  0.27691  0.22451  1.0000
  C   C104      1.0  0.71995  0.75290  0.20673  1.0000
  C   C105      1.0  0.22051  0.74597  0.24691  1.0000
  C   C106      1.0  0.72423  0.22189  0.24043  1.0000
  C   C107      1.0  0.78770  0.25523  0.24109  1.0000
  C   C108      1.0  0.28398  0.77967  0.25117  1.0000
  H   H33       1.0  0.74655  0.62913  0.20466  1.0000
  H   H34       1.0  0.24580  0.15413  0.23300  1.0000
  H   H35       1.0  0.25427  0.37335  0.29305  1.0000
  H   H36       1.0  0.75486  0.85014  0.28040  1.0000
  H   H37       1.0  0.25617  0.65515  0.23662  1.0000
  H   H38       1.0  0.76004  0.12864  0.21011  1.0000
  H   H39       1.0  0.75171  0.34596  0.25262  1.0000
  H   H40       1.0  0.24826  0.87148  0.26959  1.0000
  C   C109      1.0  0.79323  0.69335  0.28054  1.0000
  C   C110      1.0  0.29230  0.21847  0.30584  1.0000
  C   C111      1.0  0.20757  0.30920  0.21761  1.0000
  C   C112      1.0  0.70836  0.78545  0.20327  1.0000
  C   C113      1.0  0.20866  0.71290  0.24377  1.0000
  C   C114      1.0  0.71242  0.18918  0.23969  1.0000
  C   C115      1.0  0.79942  0.28865  0.24607  1.0000
  C   C116      1.0  0.29584  0.81249  0.25258  1.0000
  C   C117      1.0  0.74411  0.68761  0.21660  1.0000
  C   C118      1.0  0.24320  0.21222  0.24094  1.0000
  C   C119      1.0  0.25661  0.31522  0.28364  1.0000
  C   C120      1.0  0.75754  0.79145  0.26714  1.0000
  C   C121      1.0  0.25897  0.71269  0.24119  1.0000
  C   C122      1.0  0.76286  0.18741  0.22432  1.0000
  C   C123      1.0  0.74908  0.28843  0.24816  1.0000
  C   C124      1.0  0.24547  0.81345  0.26099  1.0000
  H   H41       1.0  0.81223  0.69505  0.30345  1.0000
  H   H42       1.0  0.31121  0.22088  0.33192  1.0000
  H   H43       1.0  0.18857  0.30753  0.19464  1.0000
  H   H44       1.0  0.68941  0.78335  0.17891  1.0000
  H   H45       1.0  0.18924  0.71273  0.24455  1.0000
  H   H46       1.0  0.69296  0.18964  0.24578  1.0000
  H   H47       1.0  0.81882  0.28909  0.24605  1.0000
  H   H48       1.0  0.31528  0.81225  0.24875  1.0000
  C   C125      1.0  0.75688  0.72324  0.24466  1.0000
  C   C126      1.0  0.25594  0.24740  0.26406  1.0000
  C   C127      1.0  0.24388  0.27971  0.25697  1.0000
  C   C128      1.0  0.74482  0.75588  0.24022  1.0000
  C   C129      1.0  0.24604  0.74612  0.24628  1.0000
  C   C130      1.0  0.74981  0.22162  0.23668  1.0000
  C   C131      1.0  0.76217  0.25509  0.24268  1.0000
  C   C132      1.0  0.25843  0.77965  0.25269  1.0000
  C   C133      1.0  0.70769  0.71647  0.17555  1.0000
  C   C134      1.0  0.20654  0.24154  0.20359  1.0000
  C   C135      1.0  0.29300  0.28700  0.32910  1.0000
  C   C136      1.0  0.79416  0.76191  0.30325  1.0000
  C   C137      1.0  0.29646  0.74599  0.24799  1.0000
  C   C138      1.0  0.80033  0.22055  0.22902  1.0000
  C   C139      1.0  0.71165  0.25534  0.24226  1.0000
  C   C140      1.0  0.20799  0.78023  0.25508  1.0000
  C   C141      1.0  0.78258  0.79310  0.29745  1.0000
  C   C142      1.0  0.28143  0.31794  0.32138  1.0000
  C   C143      1.0  0.21809  0.21088  0.21365  1.0000
  C   C144      1.0  0.71927  0.68517  0.18054  1.0000
  C   C145      1.0  0.21990  0.81270  0.26287  1.0000
  C   C146      1.0  0.72358  0.28705  0.24419  1.0000
  C   C147      1.0  0.78843  0.18785  0.21928  1.0000
  C   C148      1.0  0.28450  0.71401  0.24381  1.0000
  H   H49       1.0  0.68884  0.71441  0.14778  1.0000
  H   H50       1.0  0.79223  0.81998  0.31532  1.0000
  H   H51       1.0  0.18750  0.24006  0.18268  1.0000
  H   H52       1.0  0.29082  0.34548  0.34422  1.0000
  H   H53       1.0  0.31179  0.28948  0.35906  1.0000
  H   H54       1.0  0.20834  0.18468  0.20175  1.0000
  H   H55       1.0  0.81314  0.76357  0.32679  1.0000
  H   H56       1.0  0.70981  0.65769  0.15773  1.0000
  H   H57       1.0  0.31582  0.74678  0.25091  1.0000
  H   H58       1.0  0.21016  0.83836  0.26766  1.0000
  H   H59       1.0  0.81973  0.22079  0.22748  1.0000
  H   H60       1.0  0.71405  0.31166  0.23961  1.0000
  H   H61       1.0  0.69231  0.25442  0.23833  1.0000
  H   H62       1.0  0.79815  0.16155  0.20950  1.0000
  H   H63       1.0  0.18859  0.77977  0.25471  1.0000
  H   H64       1.0  0.29411  0.68916  0.24609  1.0000
  C   C149      1.0  0.62989  0.03079  0.77171  1.0000
  C   C150      1.0  0.60717  0.04904  0.77876  1.0000
  C   C151      1.0  0.58693  0.02807  0.77526  1.0000
  C   C152      1.0  0.13148  0.50515  0.75378  1.0000
  C   C153      1.0  0.13159  0.46671  0.74950  1.0000
  C   C154      1.0  0.10948  0.44914  0.75815  1.0000
  C   C155      1.0  0.10952  0.52461  0.75837  1.0000
  C   C156      1.0  0.08856  0.46948  0.76582  1.0000
  C   C157      1.0  0.08870  0.50655  0.76559  1.0000
  C   C158      1.0  0.36600  0.96379  0.74142  1.0000
  C   C159      1.0  0.38817  0.94495  0.74040  1.0000
  C   C160      1.0  0.40890  0.96431  0.74023  1.0000
  C   C161      1.0  0.86608  0.48674  0.73162  1.0000
  C   C162      1.0  0.86661  0.52633  0.74550  1.0000
  C   C163      1.0  0.88904  0.54452  0.75068  1.0000
  C   C164      1.0  0.88769  0.46598  0.72385  1.0000
  C   C165      1.0  0.90959  0.52324  0.74260  1.0000
  C   C166      1.0  0.90879  0.48457  0.72905  1.0000
  C   C167      1.0  0.36580  0.00200  0.74372  1.0000
  C   C168      1.0  0.38766  0.02014  0.73782  1.0000
  C   C169      1.0  0.40847  0.00123  0.73873  1.0000
  C   C170      1.0  0.63101  0.99180  0.76272  1.0000
  C   C171      1.0  0.60971  0.97147  0.76031  1.0000
  C   C172      1.0  0.58836  0.98983  0.76547  1.0000
  O   O25       1.0  0.56302  0.03822  0.77585  1.0000
  O   O26       1.0  0.06557  0.51992  0.77018  1.0000
  O   O27       1.0  0.43249  0.95308  0.74219  1.0000
  O   O28       1.0  0.93157  0.47076  0.73045  1.0000
  O   O29       1.0  0.43140  0.01425  0.73967  1.0000
  O   O30       1.0  0.93328  0.53468  0.75117  1.0000
  O   O31       1.0  0.56579  0.97490  0.76002  1.0000
  O   O32       1.0  0.06500  0.45863  0.77237  1.0000
  B   B13       1.0  0.55030  0.00483  0.76508  1.0000
  B   B14       1.0  0.05108  0.48988  0.77232  1.0000
  B   B15       1.0  0.44612  0.98440  0.74218  1.0000
  B   B16       1.0  0.94655  0.50215  0.74583  1.0000
  C   C173      1.0  0.65213  0.05068  0.76912  1.0000
  C   C174      1.0  0.67465  0.03019  0.75178  1.0000
  C   C175      1.0  0.65166  0.08980  0.78076  1.0000
  C   C176      1.0  0.67302  0.10658  0.77193  1.0000
  C   C177      1.0  0.69498  0.08580  0.74917  1.0000
  C   C178      1.0  0.69627  0.04823  0.73938  1.0000
  C   C179      1.0  0.15378  0.52466  0.75339  1.0000
  C   C180      1.0  0.17601  0.50521  0.74770  1.0000
  C   C181      1.0  0.15326  0.56302  0.75918  1.0000
  C   C182      1.0  0.17457  0.57997  0.75326  1.0000
  C   C183      1.0  0.19642  0.56038  0.74213  1.0000
  C   C184      1.0  0.19767  0.52387  0.74143  1.0000
  C   C185      1.0  0.34337  0.94497  0.74340  1.0000
  C   C186      1.0  0.32131  0.96532  0.75115  1.0000
  C   C187      1.0  0.34309  0.90659  0.73802  1.0000
  C   C188      1.0  0.32144  0.89037  0.74342  1.0000
  C   C189      1.0  0.29983  0.91077  0.75513  1.0000
  C   C190      1.0  0.29929  0.94747  0.75731  1.0000
  C   C191      1.0  0.84345  0.46800  0.73166  1.0000
  C   C192      1.0  0.82151  0.48916  0.74525  1.0000
  C   C193      1.0  0.84325  0.42903  0.72087  1.0000
  C   C194      1.0  0.82163  0.41336  0.73159  1.0000
  C   C195      1.0  0.80004  0.43485  0.75259  1.0000
  C   C196      1.0  0.79949  0.47187  0.75679  1.0000
  C   C197      1.0  0.34341  0.02299  0.75421  1.0000
  C   C198      1.0  0.32131  0.00463  0.75615  1.0000
  C   C199      1.0  0.34360  0.06189  0.76437  1.0000
  C   C200      1.0  0.32219  0.08021  0.76941  1.0000
  C   C201      1.0  0.30053  0.06140  0.76402  1.0000
  C   C202      1.0  0.29953  0.02461  0.76059  1.0000
  C   C203      1.0  0.84417  0.54750  0.75412  1.0000
  C   C204      1.0  0.82192  0.52864  0.75084  1.0000
  C   C205      1.0  0.84416  0.58682  0.76727  1.0000
  C   C206      1.0  0.82270  0.60521  0.77128  1.0000
  C   C207      1.0  0.80105  0.58576  0.75946  1.0000
  C   C208      1.0  0.80021  0.54832  0.75150  1.0000
  C   C209      1.0  0.65383  0.97217  0.75420  1.0000
  C   C210      1.0  0.67555  0.99080  0.74623  1.0000
  C   C211      1.0  0.65437  0.93434  0.75255  1.0000
  C   C212      1.0  0.67615  0.91631  0.74193  1.0000
  C   C213      1.0  0.69754  0.93477  0.73705  1.0000
  C   C214      1.0  0.69777  0.97135  0.73783  1.0000
  C   C215      1.0  0.15437  0.44614  0.73823  1.0000
  C   C216      1.0  0.17631  0.46576  0.74212  1.0000
  C   C217      1.0  0.15485  0.40671  0.72328  1.0000
  C   C218      1.0  0.17650  0.38904  0.71932  1.0000
  C   C219      1.0  0.19794  0.40911  0.73174  1.0000
  C   C220      1.0  0.19833  0.44675  0.74132  1.0000
  O   O33       1.0  0.71337  0.10825  0.73445  1.0000
  O   O34       1.0  0.21494  0.58302  0.72898  1.0000
  O   O35       1.0  0.28092  0.88853  0.76461  1.0000
  O   O36       1.0  0.78116  0.41307  0.76868  1.0000
  O   O37       1.0  0.28201  0.08539  0.76134  1.0000
  O   O38       1.0  0.78251  0.60963  0.75618  1.0000
  O   O39       1.0  0.71656  0.91114  0.73653  1.0000
  O   O40       1.0  0.21665  0.38548  0.73424  1.0000
  B   B17       1.0  0.70217  0.14357  0.74963  1.0000
  B   B18       1.0  0.20358  0.61718  0.73448  1.0000
  B   B19       1.0  0.29154  0.85337  0.75433  1.0000
  B   B20       1.0  0.79197  0.37712  0.75203  1.0000
  B   B21       1.0  0.29305  0.11972  0.76835  1.0000
  B   B22       1.0  0.79336  0.64475  0.76959  1.0000
  B   B23       1.0  0.70604  0.87721  0.73710  1.0000
  B   B24       1.0  0.20609  0.35024  0.72178  1.0000
  O   O41       1.0  0.67718  0.14326  0.77537  1.0000
  O   O42       1.0  0.17859  0.61606  0.75252  1.0000
  O   O43       1.0  0.31667  0.85417  0.74209  1.0000
  O   O44       1.0  0.81703  0.37684  0.72731  1.0000
  O   O45       1.0  0.31788  0.11730  0.77697  1.0000
  O   O46       1.0  0.81821  0.64255  0.78043  1.0000
  O   O47       1.0  0.68100  0.88000  0.73904  1.0000
  O   O48       1.0  0.18119  0.35183  0.70992  1.0000
  H   H65       1.0  0.60979  0.94194  0.75386  1.0000
  H   H66       1.0  0.63828  0.91995  0.76457  1.0000
  H   H67       1.0  0.71470  0.98491  0.73596  1.0000
  H   H68       1.0  0.10881  0.42075  0.76108  1.0000
  H   H69       1.0  0.10874  0.55307  0.75625  1.0000
  H   H70       1.0  0.13673  0.57856  0.76322  1.0000
  H   H71       1.0  0.13865  0.39054  0.71717  1.0000
  H   H72       1.0  0.21501  0.50965  0.73128  1.0000
  H   H73       1.0  0.21517  0.46173  0.75264  1.0000
  H   H74       1.0  0.38842  0.04844  0.73455  1.0000
  H   H75       1.0  0.36000  0.07702  0.76504  1.0000
  H   H76       1.0  0.28238  0.01134  0.75869  1.0000
  H   H77       1.0  0.89026  0.57445  0.76104  1.0000
  H   H78       1.0  0.88799  0.43660  0.71863  1.0000
  H   H79       1.0  0.85955  0.41192  0.70908  1.0000
  H   H80       1.0  0.86064  0.60217  0.77154  1.0000
  H   H81       1.0  0.78238  0.48735  0.77162  1.0000
  H   H82       1.0  0.78315  0.53413  0.74262  1.0000
  H   H83       1.0  0.38897  0.91637  0.74183  1.0000
  H   H84       1.0  0.35941  0.89037  0.73306  1.0000
  H   H85       1.0  0.28222  0.96222  0.76597  1.0000
  H   H86       1.0  0.60561  0.07820  0.78248  1.0000
  H   H87       1.0  0.63499  0.10595  0.79162  1.0000
  H   H88       1.0  0.71357  0.03276  0.71923  1.0000
  C   C221      1.0  0.78017  0.67974  0.76284  1.0000
  C   C222      1.0  0.27979  0.15509  0.76694  1.0000
  C   C223      1.0  0.21941  0.31572  0.73086  1.0000
  C   C224      1.0  0.71962  0.84159  0.73506  1.0000
  C   C225      1.0  0.21677  0.65227  0.73197  1.0000
  C   C226      1.0  0.71554  0.17780  0.73946  1.0000
  C   C227      1.0  0.77840  0.34229  0.75591  1.0000
  C   C228      1.0  0.27789  0.81866  0.75742  1.0000
  C   C229      1.0  0.75569  0.67715  0.73066  1.0000
  C   C230      1.0  0.25533  0.15258  0.73625  1.0000
  C   C231      1.0  0.24387  0.31838  0.76297  1.0000
  C   C232      1.0  0.74411  0.84388  0.76428  1.0000
  C   C233      1.0  0.24176  0.65242  0.72915  1.0000
  C   C234      1.0  0.74063  0.17758  0.73628  1.0000
  C   C235      1.0  0.75334  0.34313  0.76406  1.0000
  C   C236      1.0  0.25284  0.81841  0.75976  1.0000
  C   C237      1.0  0.78090  0.74715  0.78230  1.0000
  C   C238      1.0  0.28058  0.22250  0.78756  1.0000
  C   C239      1.0  0.21861  0.24875  0.71482  1.0000
  C   C240      1.0  0.71897  0.77360  0.71012  1.0000
  C   C241      1.0  0.21561  0.71844  0.74264  1.0000
  C   C242      1.0  0.71508  0.24359  0.74570  1.0000
  C   C243      1.0  0.77879  0.27581  0.74421  1.0000
  C   C244      1.0  0.27889  0.75281  0.75002  1.0000
  H   H89       1.0  0.74597  0.65039  0.71327  1.0000
  H   H90       1.0  0.24565  0.12554  0.71640  1.0000
  H   H91       1.0  0.25357  0.34510  0.77961  1.0000
  H   H92       1.0  0.75374  0.87105  0.78508  1.0000
  H   H93       1.0  0.25164  0.62708  0.72593  1.0000
  H   H94       1.0  0.75031  0.15257  0.73700  1.0000
  H   H95       1.0  0.74366  0.36918  0.77162  1.0000
  H   H96       1.0  0.24297  0.84331  0.75933  1.0000
  C   C245      1.0  0.79247  0.71486  0.78837  1.0000
  C   C246      1.0  0.29214  0.19008  0.79236  1.0000
  C   C247      1.0  0.20708  0.28072  0.70654  1.0000
  C   C248      1.0  0.70734  0.80635  0.70831  1.0000
  C   C249      1.0  0.20393  0.68512  0.73761  1.0000
  C   C250      1.0  0.70307  0.21072  0.74337  1.0000
  C   C251      1.0  0.79086  0.30846  0.74567  1.0000
  C   C252      1.0  0.29061  0.78592  0.75319  1.0000
  C   C253      1.0  0.74338  0.70857  0.72263  1.0000
  C   C254      1.0  0.24300  0.18398  0.72859  1.0000
  C   C255      1.0  0.25619  0.28712  0.77227  1.0000
  C   C256      1.0  0.75650  0.81225  0.77028  1.0000
  C   C257      1.0  0.25430  0.68520  0.73493  1.0000
  C   C258      1.0  0.75342  0.20959  0.73751  1.0000
  C   C259      1.0  0.74042  0.31069  0.75931  1.0000
  C   C260      1.0  0.24028  0.78591  0.75635  1.0000
  H   H97       1.0  0.81139  0.71718  0.81377  1.0000
  H   H98       1.0  0.31115  0.19203  0.81524  1.0000
  H   H99       1.0  0.18816  0.27841  0.68090  1.0000
  H   H100      1.0  0.68832  0.80441  0.68599  1.0000
  H   H101      1.0  0.18452  0.68456  0.73700  1.0000
  H   H102      1.0  0.68365  0.21084  0.74532  1.0000
  H   H103      1.0  0.81032  0.30768  0.74072  1.0000
  H   H104      1.0  0.31001  0.78613  0.75154  1.0000
  C   C261      1.0  0.75604  0.74403  0.74801  1.0000
  C   C262      1.0  0.25564  0.21956  0.75521  1.0000
  C   C263      1.0  0.24349  0.25189  0.74878  1.0000
  C   C264      1.0  0.74390  0.77649  0.74237  1.0000
  C   C265      1.0  0.24115  0.71887  0.74349  1.0000
  C   C266      1.0  0.74062  0.24315  0.74269  1.0000
  C   C267      1.0  0.75322  0.27635  0.74769  1.0000
  C   C268      1.0  0.25337  0.75258  0.75106  1.0000
  C   C269      1.0  0.70673  0.73759  0.68428  1.0000
  C   C270      1.0  0.20644  0.21248  0.68687  1.0000
  C   C271      1.0  0.29286  0.25820  0.81086  1.0000
  C   C272      1.0  0.79305  0.78357  0.81179  1.0000
  C   C273      1.0  0.29161  0.71874  0.74187  1.0000
  C   C274      1.0  0.79111  0.24189  0.74060  1.0000
  C   C275      1.0  0.70271  0.27835  0.75684  1.0000
  C   C276      1.0  0.20294  0.75213  0.74716  1.0000
  C   C277      1.0  0.78138  0.81469  0.80572  1.0000
  C   C278      1.0  0.28124  0.28888  0.80152  1.0000
  C   C279      1.0  0.21810  0.18151  0.69388  1.0000
  C   C280      1.0  0.71837  0.70665  0.69155  1.0000
  C   C281      1.0  0.21476  0.78449  0.75389  1.0000
  C   C282      1.0  0.71483  0.31066  0.76463  1.0000
  C   C283      1.0  0.77897  0.21033  0.73864  1.0000
  C   C284      1.0  0.27984  0.68615  0.73384  1.0000
  H   H105      1.0  0.68777  0.73563  0.66009  1.0000
  H   H106      1.0  0.79083  0.84214  0.82784  1.0000
  H   H107      1.0  0.18756  0.21012  0.65960  1.0000
  H   H108      1.0  0.29081  0.31546  0.81561  1.0000
  H   H109      1.0  0.31184  0.26005  0.83372  1.0000
  H   H110      1.0  0.20868  0.15415  0.67306  1.0000
  H   H111      1.0  0.81191  0.78591  0.83963  1.0000
  H   H112      1.0  0.70881  0.67980  0.67473  1.0000
  H   H113      1.0  0.31099  0.71945  0.74251  1.0000
  H   H114      1.0  0.20508  0.80959  0.75390  1.0000
  H   H115      1.0  0.81049  0.24222  0.74215  1.0000
  H   H116      1.0  0.70523  0.33695  0.77356  1.0000
  H   H117      1.0  0.68329  0.27852  0.75937  1.0000
  H   H118      1.0  0.78842  0.18528  0.74056  1.0000
  H   H119      1.0  0.18359  0.75101  0.74326  1.0000
  H   H120      1.0  0.28961  0.66051  0.72899  1.0000
  C   C285      1.0  0.00808  0.53303  0.77242  1.0000
  C   C286      1.0  0.02143  0.50310  0.78307  1.0000
  C  Sn1       1.0  0.01034  0.46877  0.77227  1.0000
  C  Sn2       1.0  0.98541  0.46440  0.75036  1.0000
  C   C287      1.0  0.97222  0.49449  0.73970  1.0000
  C   C288      1.0  0.98349  0.52873  0.75073  1.0000
  H   H121      1.0  0.01680  0.55950  0.78083  1.0000
  O  Te1       1.0  0.02395  0.43917  0.78323  1.0000
  O  Te2       1.0  0.97388  0.43038  0.73911  1.0000
  H   H122      1.0  0.97315  0.55188  0.74234  1.0000
  Mg  Mg1       1.0  0.00010  0.39830  0.76105  1.0000
  C   C289      1.0  0.48510  0.03188  0.77274  1.0000
  C   C290      1.0  0.47238  0.99698  0.74207  1.0000
  C  Sn3       1.0  0.48422  0.96251  0.72791  1.0000
  C  Sn4       1.0  0.50926  0.96310  0.74488  1.0000
  C   C291      1.0  0.52181  0.99818  0.77570  1.0000
  C   C292      1.0  0.50979  0.03249  0.78958  1.0000
  H   H123      1.0  0.47580  0.05843  0.78360  1.0000
  O  Te3       1.0  0.47124  0.92789  0.69717  1.0000
  O  Te4       1.0  0.52153  0.92908  0.73137  1.0000
  H   H124      1.0  0.51964  0.05952  0.81346  1.0000
  Mg  Mg2       1.0  0.49599  0.88913  0.68884  1.0000
