data_image0
_chemical_formula_structural       C12O2B2O2C12H12C14H6O2B2O2C12O2B2O2H4C2S2C4H2C12O2B2O2C12H12C14H6O2B2O2C12O2B2O2H4C4H2C2H2C2S2C4H2C2Sn2C2HTe2HMg
_chemical_formula_sum              "C122 O24 B12 H54 S4 Sn2 Te2 Mg1"
_cell_length_a       31.4001
_cell_length_b       33.7857
_cell_length_c       7.8301
_cell_angle_alpha    121.595
_cell_angle_beta     108.545
_cell_angle_gamma    65.3023

_symmetry_space_group_name_H-M    'P1'
_space_group_IT_number       1

loop_
  _space_group_symop_operation_xyz
  'x, y, z'

loop_
  _atom_site_type_symbol
  _atom_site_label
  _atom_site_symmetry_multiplicity
  _atom_site_fract_x
  _atom_site_fract_y
  _atom_site_fract_z
  _atom_site_occupancy
  C   C1        1.0  0.34181  0.31048  0.24961  1.0000
  C   C2        1.0  0.38839  0.30815  0.25121  1.0000
  C   C3        1.0  0.42727  0.26670  0.25268  1.0000
  C   C4        1.0  0.41837  0.22914  0.24526  1.0000
  C   C5        1.0  0.37225  0.23101  0.23452  1.0000
  C   C6        1.0  0.33405  0.27058  0.23706  1.0000
  C   C7        1.0  0.67859  0.69210  0.21825  1.0000
  C   C8        1.0  0.63554  0.68580  0.20957  1.0000
  C   C9        1.0  0.59178  0.72179  0.20005  1.0000
  C   C10       1.0  0.59203  0.76182  0.19733  1.0000
  C   C11       1.0  0.63397  0.76844  0.20585  1.0000
  C   C12       1.0  0.67720  0.73468  0.21752  1.0000
  O   O1        1.0  0.37290  0.18860  0.22283  1.0000
  O   O2        1.0  0.62296  0.81192  0.19892  1.0000
  B   B1        1.0  0.42088  0.16053  0.22943  1.0000
  B   B2        1.0  0.57329  0.83127  0.18656  1.0000
  O   O3        1.0  0.44957  0.18527  0.24379  1.0000
  O   O4        1.0  0.55381  0.80012  0.18307  1.0000
  C   C13       1.0  0.30174  0.35339  0.25759  1.0000
  C   C14       1.0  0.72347  0.65479  0.22919  1.0000
  C   C15       1.0  0.30800  0.39199  0.25125  1.0000
  C   C16       1.0  0.72374  0.61247  0.23052  1.0000
  C   C17       1.0  0.25646  0.35694  0.27454  1.0000
  C   C18       1.0  0.76701  0.65993  0.23787  1.0000
  C   C19       1.0  0.21920  0.39711  0.27588  1.0000
  C   C20       1.0  0.80833  0.62383  0.24878  1.0000
  C   C21       1.0  0.22480  0.43438  0.26313  1.0000
  C   C22       1.0  0.80834  0.58313  0.25443  1.0000
  C   C23       1.0  0.26828  0.43294  0.25171  1.0000
  C   C24       1.0  0.76733  0.57674  0.24660  1.0000
  H   H1        1.0  0.46331  0.26395  0.25817  1.0000
  H   H2        1.0  0.55834  0.71829  0.19175  1.0000
  H   H3        1.0  0.29902  0.27047  0.22930  1.0000
  H   H4        1.0  0.70908  0.74047  0.22196  1.0000
  H   H5        1.0  0.25068  0.32970  0.29087  1.0000
  H   H6        1.0  0.76817  0.69119  0.23488  1.0000
  H   H7        1.0  0.27139  0.46271  0.24403  1.0000
  H   H8        1.0  0.76902  0.54496  0.25389  1.0000
  H   H9        1.0  0.33272  0.46007  0.24647  1.0000
  H   H10       1.0  0.71242  0.53405  0.21648  1.0000
  H   H11       1.0  0.47197  0.31581  0.24671  1.0000
  H   H12       1.0  0.55901  0.66420  0.19776  1.0000
  C   C25       1.0  0.43661  0.11051  0.22601  1.0000
  C   C26       1.0  0.54279  0.88119  0.19537  1.0000
  C   C27       1.0  0.40220  0.09566  0.23808  1.0000
  C   C28       1.0  0.56090  0.91194  0.18764  1.0000
  C   C29       1.0  0.41386  0.05204  0.24647  1.0000
  C   C30       1.0  0.53145  0.95809  0.21249  1.0000
  C   C31       1.0  0.48397  0.07968  0.21823  1.0000
  C   C32       1.0  0.49753  0.90074  0.25435  1.0000
  C   C33       1.0  0.49597  0.03646  0.22920  1.0000
  C   C34       1.0  0.46851  0.94893  0.29763  1.0000
  C   C35       1.0  0.46113  0.02248  0.24520  1.0000
  C   C36       1.0  0.48384  0.97531  0.24988  1.0000
  C   C37       1.0  0.54415  0.00063  0.24828  1.0000
  C   C38       1.0  0.43284  0.97295  0.44248  1.0000
  H   H13       1.0  0.36571  0.11939  0.24402  1.0000
  H   H14       1.0  0.51082  0.09057  0.20807  1.0000
  H   H15       1.0  0.56771  0.99119  0.14593  1.0000
  H   H16       1.0  0.59759  0.89971  0.16493  1.0000
  H   H17       1.0  0.48598  0.87867  0.28232  1.0000
  H   H18       1.0  0.41873  0.94586  0.42281  1.0000
  O   O5        1.0  0.18127  0.47014  0.26797  1.0000
  O   O6        1.0  0.85416  0.55289  0.26715  1.0000
  B   B3        1.0  0.14951  0.45333  0.28639  1.0000
  B   B4        1.0  0.88232  0.57596  0.26676  1.0000
  O   O7        1.0  0.17253  0.40829  0.29210  1.0000
  O   O8        1.0  0.85463  0.61999  0.25529  1.0000
  C   C39       1.0  0.39525  0.34834  0.25061  1.0000
  C   C40       1.0  0.35534  0.38945  0.24845  1.0000
  C   C41       1.0  0.36197  0.42836  0.24752  1.0000
  C   C42       1.0  0.40679  0.42520  0.24524  1.0000
  C   C43       1.0  0.44577  0.38475  0.24344  1.0000
  C   C44       1.0  0.44104  0.34654  0.24756  1.0000
  C   C45       1.0  0.63596  0.64242  0.20817  1.0000
  C   C46       1.0  0.67963  0.60568  0.21592  1.0000
  C   C47       1.0  0.67997  0.56279  0.21041  1.0000
  C   C48       1.0  0.63762  0.55863  0.20172  1.0000
  C   C49       1.0  0.59486  0.59539  0.19935  1.0000
  C   C50       1.0  0.59290  0.63675  0.19984  1.0000
  O   O9        1.0  0.48608  0.39100  0.23698  1.0000
  O   O10       1.0  0.55823  0.58265  0.19765  1.0000
  B   B5        1.0  0.47037  0.43666  0.23703  1.0000
  B   B6        1.0  0.57983  0.53719  0.20104  1.0000
  O   O11       1.0  0.42132  0.45807  0.24184  1.0000
  O   O12       1.0  0.62892  0.52134  0.19931  1.0000
  H   H19       1.0  0.38650  0.04157  0.25483  1.0000
  H   H20       1.0  0.40298  0.00300  0.42461  1.0000
  H   H21       1.0  0.65926  0.94616  0.21425  1.0000
  H   H22       1.0  0.64894  0.93307  0.11116  1.0000
  C   C51       1.0  0.93582  0.55406  0.27693  1.0000
  C   C52       1.0  0.09686  0.47949  0.29511  1.0000
  S   S1        1.0  0.97128  0.58111  0.26848  1.0000
  S   S2        1.0  0.06140  0.45331  0.31028  1.0000
  C   C53       1.0  0.02194  0.53468  0.28378  1.0000
  C   C54       1.0  0.07062  0.52287  0.28146  1.0000
  C   C55       1.0  0.01093  0.49991  0.29712  1.0000
  C   C56       1.0  0.96208  0.51098  0.29329  1.0000
  H   H23       1.0  0.94587  0.48889  0.29819  1.0000
  H   H24       1.0  0.08657  0.54414  0.26932  1.0000
  C   C57       1.0  0.32367  0.30804  0.74928  1.0000
  C   C58       1.0  0.36617  0.31398  0.74937  1.0000
  C   C59       1.0  0.40996  0.27696  0.74646  1.0000
  C   C60       1.0  0.41036  0.23622  0.74575  1.0000
  C   C61       1.0  0.36895  0.22974  0.74379  1.0000
  C   C62       1.0  0.32563  0.26447  0.74357  1.0000
  C   C63       1.0  0.66007  0.68909  0.71042  1.0000
  C   C64       1.0  0.61316  0.69081  0.70073  1.0000
  C   C65       1.0  0.57424  0.73113  0.68846  1.0000
  C   C66       1.0  0.58328  0.76827  0.69303  1.0000
  C   C67       1.0  0.62958  0.76701  0.71088  1.0000
  C   C68       1.0  0.66788  0.72843  0.71835  1.0000
  O   O13       1.0  0.38046  0.18526  0.74315  1.0000
  O   O14       1.0  0.62901  0.80887  0.71798  1.0000
  B   B7        1.0  0.42993  0.16519  0.74481  1.0000
  B   B8        1.0  0.58089  0.83586  0.70057  1.0000
  O   O15       1.0  0.44882  0.19679  0.74835  1.0000
  O   O16       1.0  0.55207  0.81108  0.68461  1.0000
  C   C69       1.0  0.27887  0.34692  0.75515  1.0000
  C   C70       1.0  0.70037  0.64769  0.71781  1.0000
  C   C71       1.0  0.27803  0.38973  0.75584  1.0000
  C   C72       1.0  0.69359  0.60941  0.72454  1.0000
  C   C73       1.0  0.23606  0.34300  0.76222  1.0000
  C   C74       1.0  0.74653  0.64554  0.71810  1.0000
  C   C75       1.0  0.19486  0.38061  0.76771  1.0000
  C   C76       1.0  0.78388  0.60705  0.73313  1.0000
  C   C77       1.0  0.19424  0.42187  0.76453  1.0000
  C   C78       1.0  0.77757  0.57013  0.74576  1.0000
  C   C79       1.0  0.23455  0.42725  0.75880  1.0000
  C   C80       1.0  0.73338  0.57023  0.74107  1.0000
  H   H25       1.0  0.44290  0.28012  0.74668  1.0000
  H   H26       1.0  0.53804  0.73328  0.67655  1.0000
  H   H27       1.0  0.29413  0.25851  0.74216  1.0000
  H   H28       1.0  0.70299  0.72891  0.72988  1.0000
  H   H29       1.0  0.23543  0.31161  0.76594  1.0000
  H   H30       1.0  0.75305  0.67273  0.70418  1.0000
  H   H31       1.0  0.23243  0.45980  0.75625  1.0000
  H   H32       1.0  0.72983  0.54094  0.75078  1.0000
  H   H33       1.0  0.28788  0.46703  0.75501  1.0000
  H   H34       1.0  0.66797  0.54062  0.71970  1.0000
  H   H35       1.0  0.44161  0.33546  0.74979  1.0000
  H   H36       1.0  0.52888  0.68284  0.69601  1.0000
  C   C81       1.0  0.46040  0.11455  0.72868  1.0000
  C   C82       1.0  0.56523  0.88507  0.69697  1.0000
  C   C83       1.0  0.44217  0.08378  0.73570  1.0000
  C   C84       1.0  0.59987  0.89945  0.68377  1.0000
  C   C85       1.0  0.47133  0.03734  0.70789  1.0000
  C   C86       1.0  0.58853  0.94271  0.67285  1.0000
  C   C87       1.0  0.50543  0.09468  0.66719  1.0000
  C   C88       1.0  0.51791  0.91594  0.70247  1.0000
  C   C89       1.0  0.53426  0.04633  0.62228  1.0000
  C   C90       1.0  0.50633  0.95900  0.69102  1.0000
  C   C91       1.0  0.51891  0.01986  0.66966  1.0000
  C   C92       1.0  0.54140  0.97264  0.67447  1.0000
  C   C93       1.0  0.56978  0.02253  0.47685  1.0000
  C   C94       1.0  0.45830  0.99494  0.67149  1.0000
  H   H37       1.0  0.40560  0.09626  0.76038  1.0000
  H   H38       1.0  0.51714  0.11671  0.63956  1.0000
  H   H39       1.0  0.58356  0.04985  0.49639  1.0000
  H   H40       1.0  0.63631  0.87561  0.67916  1.0000
  H   H41       1.0  0.49071  0.90533  0.71179  1.0000
  H   H42       1.0  0.43454  0.00457  0.77343  1.0000
  O   O17       1.0  0.14872  0.45384  0.77061  1.0000
  O   O18       1.0  0.82133  0.53631  0.76046  1.0000
  B   B9        1.0  0.12135  0.43113  0.77909  1.0000
  B   B10       1.0  0.85406  0.55391  0.75428  1.0000
  O   O19       1.0  0.14927  0.38580  0.77833  1.0000
  O   O20       1.0  0.83140  0.59755  0.73659  1.0000
  C   C95       1.0  0.36517  0.35786  0.75293  1.0000
  C   C96       1.0  0.32147  0.39539  0.75497  1.0000
  C   C97       1.0  0.32053  0.43813  0.75710  1.0000
  C   C98       1.0  0.36237  0.44187  0.75684  1.0000
  C   C99       1.0  0.40517  0.40469  0.75312  1.0000
  C   C100      1.0  0.40766  0.36322  0.75314  1.0000
  C   C101      1.0  0.60592  0.65106  0.70336  1.0000
  C   C102      1.0  0.64579  0.61079  0.71414  1.0000
  C   C103      1.0  0.63880  0.57187  0.71339  1.0000
  C   C104      1.0  0.59365  0.57448  0.70805  1.0000
  C   C105      1.0  0.55470  0.61449  0.70460  1.0000
  C   C106      1.0  0.55978  0.65251  0.70016  1.0000
  O   O21       1.0  0.44135  0.41712  0.74890  1.0000
  O   O22       1.0  0.51408  0.60803  0.70689  1.0000
  B   B11       1.0  0.41946  0.46282  0.74769  1.0000
  B   B12       1.0  0.52956  0.56262  0.70896  1.0000
  O   O23       1.0  0.37063  0.47906  0.75622  1.0000
  O   O24       1.0  0.57877  0.54156  0.70942  1.0000
  H   H43       1.0  0.34777  0.06284  0.76016  1.0000
  H   H44       1.0  0.34374  0.04749  0.65166  1.0000
  H   H45       1.0  0.61611  0.95257  0.66249  1.0000
  H   H46       1.0  0.59986  0.99254  0.49413  1.0000
  C   C107      1.0  0.44661  0.49013  0.73761  1.0000
  C   C108      1.0  0.49575  0.46901  0.73048  1.0000
  C   C109      1.0  0.49916  0.53799  0.71698  1.0000
  C   C110      1.0  0.44997  0.55904  0.72280  1.0000
  H   H47       1.0  0.51351  0.43418  0.73553  1.0000
  H   H48       1.0  0.43209  0.59398  0.71853  1.0000
  C   C111      1.0  0.42412  0.53547  0.73269  1.0000
  C   C112      1.0  0.52149  0.49244  0.72018  1.0000
  H   H49       1.0  0.38609  0.55199  0.73602  1.0000
  H   H50       1.0  0.55940  0.47557  0.71447  1.0000
  C   C113      1.0  0.90720  0.52940  0.76404  1.0000
  C   C114      1.0  0.06823  0.45447  0.78389  1.0000
  S   S3        1.0  0.94304  0.55578  0.75280  1.0000
  S   S4        1.0  0.03266  0.42787  0.79465  1.0000
  C   C115      1.0  0.99335  0.50944  0.76926  1.0000
  C   C116      1.0  0.04215  0.49799  0.77088  1.0000
  C   C117      1.0  0.98212  0.47476  0.78228  1.0000
  C   C118      1.0  0.93327  0.48640  0.78113  1.0000
  H   H51       1.0  0.91707  0.46497  0.79077  1.0000
  H   H52       1.0  0.05839  0.51984  0.76452  1.0000
  C   C119      1.0  0.47802  0.51807  0.22605  1.0000
  C   C120      1.0  0.49323  0.47198  0.21813  1.0000
  C  Sn1       1.0  0.54100  0.44434  0.21311  1.0000
  C  Sn2       1.0  0.57407  0.46330  0.21614  1.0000
  C   C121      1.0  0.55850  0.50946  0.22422  1.0000
  C   C122      1.0  0.51062  0.53680  0.22913  1.0000
  H   H53       1.0  0.44098  0.53924  0.22997  1.0000
  O  Te1       1.0  0.55560  0.39835  0.20513  1.0000
  O  Te2       1.0  0.62203  0.43645  0.21132  1.0000
  H   H54       1.0  0.49886  0.57250  0.23539  1.0000
  Mg  Mg1       1.0  0.62468  0.37563  0.20084  1.0000
