data_image0
_chemical_formula_structural       C24O8B4C48O8B8O8H24C20H8C12H8C24O8B4C48O8B8O8H24C20H8C12H8SnCSn2CSnTe4Mg2SnCSn2CSnTe4Mg2SnCSn2CSnTe4Mg2SnCSn2CSnTe4Mg2SnCSn2CSnTe4Mg2SnCSn2CSnTe4Mg2SnCSn2CSnTe4Mg2SnCSn2CSnTe4Mg2
_chemical_formula_sum              "C224 O48 B24 H80 Sn32 Te32 Mg16"
_cell_length_a       60.6566
_cell_length_b       30.2004
_cell_length_c       8.03305
_cell_angle_alpha    123.049
_cell_angle_beta     89.1847
_cell_angle_gamma    90.4129

_symmetry_space_group_name_H-M    'P1'
_space_group_IT_number       1

loop_
  _space_group_symop_operation_xyz
  'x, y, z'

loop_
  _atom_site_type_symbol
  _atom_site_label
  _atom_site_symmetry_multiplicity
  _atom_site_fract_x
  _atom_site_fract_y
  _atom_site_fract_z
  _atom_site_occupancy
  C   C1        1.0  0.34330  0.52461  0.25619  1.0000
  C   C2        1.0  0.34316  0.47671  0.25226  1.0000
  C   C3        1.0  0.36343  0.45368  0.25431  1.0000
  C   C4        1.0  0.36369  0.54904  0.26277  1.0000
  C   C5        1.0  0.38272  0.47841  0.25945  1.0000
  C   C6        1.0  0.38287  0.52530  0.26330  1.0000
  C   C7        1.0  0.84336  0.02641  0.24690  1.0000
  C   C8        1.0  0.86392  0.04968  0.24835  1.0000
  C   C9        1.0  0.88300  0.02572  0.25021  1.0000
  C   C10       1.0  0.65928  0.47815  0.25945  1.0000
  C   C11       1.0  0.65909  0.52563  0.26064  1.0000
  C   C12       1.0  0.63866  0.54842  0.26107  1.0000
  C   C13       1.0  0.63903  0.45402  0.25917  1.0000
  C   C14       1.0  0.61953  0.52384  0.26048  1.0000
  C   C15       1.0  0.61967  0.47729  0.25882  1.0000
  C   C16       1.0  0.15903  0.97418  0.25536  1.0000
  C   C17       1.0  0.13871  0.95089  0.25952  1.0000
  C   C18       1.0  0.11941  0.97470  0.26148  1.0000
  C   C19       1.0  0.15894  0.02146  0.25520  1.0000
  C   C20       1.0  0.13858  0.04463  0.25685  1.0000
  C   C21       1.0  0.11940  0.02077  0.25986  1.0000
  C   C22       1.0  0.84301  0.97897  0.24612  1.0000
  C   C23       1.0  0.86315  0.95566  0.24900  1.0000
  C   C24       1.0  0.88256  0.97941  0.25031  1.0000
  O   O1        1.0  0.40447  0.54099  0.26639  1.0000
  O   O2        1.0  0.90475  0.04059  0.25180  1.0000
  O   O3        1.0  0.59814  0.46138  0.25756  1.0000
  O   O4        1.0  0.09782  0.95989  0.26601  1.0000
  O   O5        1.0  0.59798  0.53839  0.25924  1.0000
  O   O6        1.0  0.09791  0.03593  0.26046  1.0000
  O   O7        1.0  0.40418  0.46369  0.26304  1.0000
  O   O8        1.0  0.90391  0.96403  0.25383  1.0000
  B   B1        1.0  0.41747  0.50237  0.26490  1.0000
  B   B2        1.0  0.91742  0.00206  0.25418  1.0000
  B   B3        1.0  0.58491  0.49950  0.25780  1.0000
  B   B4        1.0  0.08471  0.99801  0.26455  1.0000
  C   C25       1.0  0.32258  0.54798  0.25100  1.0000
  C   C26       1.0  0.30212  0.52351  0.24576  1.0000
  C   C27       1.0  0.32272  0.59506  0.25132  1.0000
  C   C28       1.0  0.30292  0.61580  0.24554  1.0000
  C   C29       1.0  0.28285  0.59177  0.23950  1.0000
  C   C30       1.0  0.28200  0.54643  0.24032  1.0000
  C   C31       1.0  0.82268  0.05050  0.24502  1.0000
  C   C32       1.0  0.80213  0.02636  0.24036  1.0000
  C   C33       1.0  0.82281  0.09808  0.24897  1.0000
  C   C34       1.0  0.80302  0.11896  0.24387  1.0000
  C   C35       1.0  0.78292  0.09459  0.23411  1.0000
  C   C36       1.0  0.78202  0.04912  0.23382  1.0000
  C   C37       1.0  0.68021  0.45463  0.25895  1.0000
  C   C38       1.0  0.70050  0.47897  0.25846  1.0000
  C   C39       1.0  0.68046  0.40723  0.25628  1.0000
  C   C40       1.0  0.70048  0.38622  0.25548  1.0000
  C   C41       1.0  0.72034  0.41055  0.25896  1.0000
  C   C42       1.0  0.72082  0.45611  0.25945  1.0000
  C   C43       1.0  0.17994  0.95033  0.25334  1.0000
  C   C44       1.0  0.20028  0.97460  0.25363  1.0000
  C   C45       1.0  0.18015  0.90281  0.24976  1.0000
  C   C46       1.0  0.20012  0.88182  0.25010  1.0000
  C   C47       1.0  0.22006  0.90619  0.25504  1.0000
  C   C48       1.0  0.22059  0.95184  0.25597  1.0000
  C   C49       1.0  0.67978  0.55041  0.25951  1.0000
  C   C50       1.0  0.70030  0.52718  0.25748  1.0000
  C   C51       1.0  0.67954  0.59777  0.26193  1.0000
  C   C52       1.0  0.69930  0.61981  0.25961  1.0000
  C   C53       1.0  0.71943  0.59632  0.25206  1.0000
  C   C54       1.0  0.72040  0.55090  0.25235  1.0000
  C   C55       1.0  0.17966  0.04574  0.25184  1.0000
  C   C56       1.0  0.20015  0.02261  0.25126  1.0000
  C   C57       1.0  0.17952  0.09260  0.25064  1.0000
  C   C58       1.0  0.19933  0.11431  0.24696  1.0000
  C   C59       1.0  0.21942  0.09112  0.24261  1.0000
  C   C60       1.0  0.22028  0.04615  0.24599  1.0000
  C   C61       1.0  0.32230  0.45169  0.24683  1.0000
  C   C62       1.0  0.30197  0.47502  0.24463  1.0000
  C   C63       1.0  0.32213  0.40403  0.24243  1.0000
  C   C64       1.0  0.30217  0.38192  0.23871  1.0000
  C   C65       1.0  0.28221  0.40534  0.24122  1.0000
  C   C66       1.0  0.28165  0.45093  0.24203  1.0000
  C   C67       1.0  0.82205  0.95467  0.24352  1.0000
  C   C68       1.0  0.80180  0.97826  0.24152  1.0000
  C   C69       1.0  0.82169  0.90728  0.24093  1.0000
  C   C70       1.0  0.80164  0.88573  0.23925  1.0000
  C   C71       1.0  0.78179  0.90954  0.24224  1.0000
  C   C72       1.0  0.78140  0.95492  0.24180  1.0000
  O   O9        1.0  0.26567  0.62041  0.23138  1.0000
  O   O10       1.0  0.76578  0.12314  0.22493  1.0000
  O   O11       1.0  0.73780  0.38158  0.26092  1.0000
  O   O12       1.0  0.23747  0.87729  0.25846  1.0000
  O   O13       1.0  0.73656  0.62542  0.24271  1.0000
  O   O14       1.0  0.23661  0.12017  0.23365  1.0000
  O   O15       1.0  0.26480  0.37580  0.24395  1.0000
  O   O16       1.0  0.76428  0.88070  0.24753  1.0000
  B   B5        1.0  0.27586  0.66276  0.23352  1.0000
  B   B6        1.0  0.77605  0.16594  0.23102  1.0000
  B   B7        1.0  0.72801  0.33837  0.25504  1.0000
  B   B8        1.0  0.22754  0.83425  0.25288  1.0000
  B   B9        1.0  0.72629  0.66795  0.24892  1.0000
  B   B10       1.0  0.22645  0.16225  0.23591  1.0000
  B   B11       1.0  0.27477  0.33339  0.24079  1.0000
  B   B12       1.0  0.77402  0.83814  0.24482  1.0000
  O   O17       1.0  0.29894  0.66047  0.24278  1.0000
  O   O18       1.0  0.79907  0.16408  0.24413  1.0000
  O   O19       1.0  0.70488  0.34080  0.25168  1.0000
  O   O20       1.0  0.20442  0.83656  0.24790  1.0000
  O   O21       1.0  0.70321  0.66502  0.25937  1.0000
  O   O22       1.0  0.20332  0.15909  0.24420  1.0000
  O   O23       1.0  0.29788  0.33644  0.23585  1.0000
  O   O24       1.0  0.79713  0.84063  0.23825  1.0000
  H   H1        1.0  0.36405  0.41785  0.25468  1.0000
  H   H2        1.0  0.36449  0.58532  0.26546  1.0000
  H   H3        1.0  0.33789  0.61448  0.25318  1.0000
  H   H4        1.0  0.33716  0.38532  0.24588  1.0000
  H   H5        1.0  0.26613  0.52904  0.23542  1.0000
  H   H6        1.0  0.26590  0.46760  0.24183  1.0000
  H   H7        1.0  0.86355  0.92044  0.25356  1.0000
  H   H8        1.0  0.83665  0.88813  0.24270  1.0000
  H   H9        1.0  0.76569  0.97209  0.24376  1.0000
  H   H10       1.0  0.63778  0.58384  0.25832  1.0000
  H   H11       1.0  0.63854  0.41855  0.26218  1.0000
  H   H12       1.0  0.66548  0.38752  0.25664  1.0000
  H   H13       1.0  0.66428  0.61633  0.26275  1.0000
  H   H14       1.0  0.73656  0.47356  0.26103  1.0000
  H   H15       1.0  0.73632  0.53403  0.24702  1.0000
  H   H16       1.0  0.13777  0.07987  0.25282  1.0000
  H   H17       1.0  0.16433  0.11104  0.24937  1.0000
  H   H18       1.0  0.23617  0.02954  0.24340  1.0000
  H   H19       1.0  0.13814  0.91579  0.26487  1.0000
  H   H20       1.0  0.16507  0.88315  0.24840  1.0000
  H   H21       1.0  0.23630  0.96969  0.25964  1.0000
  H   H22       1.0  0.86483  0.08499  0.24461  1.0000
  H   H23       1.0  0.83797  0.11781  0.25299  1.0000
  H   H24       1.0  0.76618  0.03143  0.22726  1.0000
  C   C73       1.0  0.55961  0.49930  0.25701  1.0000
  C   C74       1.0  0.05940  0.99851  0.26527  1.0000
  C   C75       1.0  0.44277  0.50196  0.26313  1.0000
  C   C76       1.0  0.94267  0.00115  0.25587  1.0000
  C   C77       1.0  0.54814  0.54041  0.26257  1.0000
  C   C78       1.0  0.04809  0.03969  0.26987  1.0000
  C   C79       1.0  0.45423  0.46092  0.25803  1.0000
  C   C80       1.0  0.95386  0.96009  0.25285  1.0000
  C   C81       1.0  0.45480  0.54234  0.26584  1.0000
  C   C82       1.0  0.95487  0.04149  0.26021  1.0000
  C   C83       1.0  0.54759  0.45858  0.25177  1.0000
  C   C84       1.0  0.04718  0.95801  0.26013  1.0000
  C   C85       1.0  0.52443  0.45806  0.25163  1.0000
  C   C86       1.0  0.02404  0.95779  0.25927  1.0000
  C   C87       1.0  0.47796  0.54253  0.26398  1.0000
  C   C88       1.0  0.97799  0.04190  0.26362  1.0000
  C   C89       1.0  0.47736  0.45929  0.25502  1.0000
  C   C90       1.0  0.97698  0.95869  0.25505  1.0000
  C   C91       1.0  0.52500  0.54157  0.26243  1.0000
  C   C92       1.0  0.02497  0.04119  0.26924  1.0000
  H   H25       1.0  0.55731  0.57190  0.26511  1.0000
  H   H26       1.0  0.05735  0.07096  0.27159  1.0000
  H   H27       1.0  0.44502  0.42985  0.25824  1.0000
  H   H28       1.0  0.94446  0.92898  0.25115  1.0000
  H   H29       1.0  0.44607  0.57390  0.26699  1.0000
  H   H30       1.0  0.94627  0.07291  0.25950  1.0000
  H   H31       1.0  0.55630  0.42687  0.24976  1.0000
  H   H32       1.0  0.05578  0.92625  0.25847  1.0000
  C   C93       1.0  0.51292  0.49998  0.25693  1.0000
  C   C94       1.0  0.01272  0.99975  0.26353  1.0000
  C   C95       1.0  0.48946  0.50053  0.25807  1.0000
  C   C96       1.0  0.98928  0.00011  0.26087  1.0000
  C   C97       1.0  0.49051  0.58338  0.26667  1.0000
  C   C98       1.0  0.99068  0.08294  0.26909  1.0000
  C   C99       1.0  0.51186  0.41719  0.24869  1.0000
  C   C100      1.0  0.01129  0.91705  0.25584  1.0000
  C   C101      1.0  0.51303  0.58294  0.26616  1.0000
  C   C102      1.0  0.01319  0.08268  0.27210  1.0000
  C   C103      1.0  0.48933  0.41786  0.25074  1.0000
  C   C104      1.0  0.98877  0.91750  0.25402  1.0000
  H   H33       1.0  0.48160  0.61458  0.26684  1.0000
  H   H34       1.0  0.98184  0.11400  0.26776  1.0000
  H   H35       1.0  0.52073  0.38600  0.24865  1.0000
  H   H36       1.0  0.02006  0.88605  0.25788  1.0000
  H   H37       1.0  0.52239  0.61376  0.26559  1.0000
  H   H38       1.0  0.02263  0.11364  0.27333  1.0000
  H   H39       1.0  0.47996  0.38727  0.25275  1.0000
  H   H40       1.0  0.97931  0.88685  0.25484  1.0000
  C   C105      1.0  0.34146  0.52845  0.75344  1.0000
  C   C106      1.0  0.34104  0.48128  0.75445  1.0000
  C   C107      1.0  0.36112  0.45824  0.76028  1.0000
  C   C108      1.0  0.36202  0.55162  0.75492  1.0000
  C   C109      1.0  0.38055  0.48185  0.76111  1.0000
  C   C110      1.0  0.38103  0.52773  0.75809  1.0000
  C   C111      1.0  0.84129  0.01976  0.74372  1.0000
  C   C112      1.0  0.86156  0.04420  0.74763  1.0000
  C   C113      1.0  0.88087  0.02095  0.74860  1.0000
  C   C114      1.0  0.65666  0.47149  0.75388  1.0000
  C   C115      1.0  0.65700  0.51908  0.75555  1.0000
  C   C116      1.0  0.63686  0.54306  0.75695  1.0000
  C   C117      1.0  0.63610  0.44887  0.75642  1.0000
  C   C118      1.0  0.61742  0.51987  0.75903  1.0000
  C   C119      1.0  0.61705  0.47366  0.75987  1.0000
  C   C120      1.0  0.15721  0.97916  0.75648  1.0000
  C   C121      1.0  0.13703  0.95523  0.75933  1.0000
  C   C122      1.0  0.11760  0.97841  0.76052  1.0000
  C   C123      1.0  0.15690  0.02648  0.75645  1.0000
  C   C124      1.0  0.13637  0.04911  0.75775  1.0000
  C   C125      1.0  0.11732  0.02462  0.75980  1.0000
  C   C126      1.0  0.84142  0.97209  0.74143  1.0000
  C   C127      1.0  0.86184  0.94946  0.74313  1.0000
  C   C128      1.0  0.88102  0.97430  0.74638  1.0000
  O   O25       1.0  0.40274  0.54246  0.75845  1.0000
  O   O26       1.0  0.90236  0.03719  0.75084  1.0000
  O   O27       1.0  0.59535  0.45946  0.76407  1.0000
  O   O28       1.0  0.09612  0.96287  0.76433  1.0000
  O   O29       1.0  0.59601  0.53560  0.75901  1.0000
  O   O30       1.0  0.09571  0.03923  0.76130  1.0000
  O   O31       1.0  0.40189  0.46670  0.76613  1.0000
  O   O32       1.0  0.90262  0.96010  0.74961  1.0000
  B   B13       1.0  0.41541  0.50427  0.76272  1.0000
  B   B14       1.0  0.91558  0.99925  0.75176  1.0000
  B   B15       1.0  0.58257  0.49778  0.76155  1.0000
  B   B16       1.0  0.08278  0.00076  0.76420  1.0000
  C   C129      1.0  0.32088  0.55248  0.74944  1.0000
  C   C130      1.0  0.30029  0.52864  0.74563  1.0000
  C   C131      1.0  0.32123  0.59983  0.75163  1.0000
  C   C132      1.0  0.30153  0.62105  0.74620  1.0000
  C   C133      1.0  0.28139  0.59704  0.73770  1.0000
  C   C134      1.0  0.28029  0.55181  0.73933  1.0000
  C   C135      1.0  0.82043  0.04299  0.74051  1.0000
  C   C136      1.0  0.80012  0.01833  0.73784  1.0000
  C   C137      1.0  0.82024  0.09017  0.74142  1.0000
  C   C138      1.0  0.80026  0.11084  0.73877  1.0000
  C   C139      1.0  0.78040  0.08611  0.73234  1.0000
  C   C140      1.0  0.77986  0.04068  0.73254  1.0000
  C   C141      1.0  0.67732  0.44667  0.75143  1.0000
  C   C142      1.0  0.69787  0.47050  0.75374  1.0000
  C   C143      1.0  0.67714  0.39886  0.74622  1.0000
  C   C144      1.0  0.69695  0.37721  0.74648  1.0000
  C   C145      1.0  0.71706  0.40111  0.75280  1.0000
  C   C146      1.0  0.71798  0.44692  0.75531  1.0000
  C   C147      1.0  0.17819  0.95559  0.75465  1.0000
  C   C148      1.0  0.19842  0.97994  0.75301  1.0000
  C   C149      1.0  0.17855  0.90836  0.75309  1.0000
  C   C150      1.0  0.19861  0.88740  0.75155  1.0000
  C   C151      1.0  0.21843  0.91165  0.75313  1.0000
  C   C152      1.0  0.21882  0.95709  0.75281  1.0000
  C   C153      1.0  0.67796  0.54291  0.75491  1.0000
  C   C154      1.0  0.69820  0.51897  0.75485  1.0000
  C   C155      1.0  0.67829  0.59005  0.75591  1.0000
  C   C156      1.0  0.69835  0.61133  0.75558  1.0000
  C   C157      1.0  0.71819  0.58748  0.75213  1.0000
  C   C158      1.0  0.71859  0.54220  0.75329  1.0000
  C   C159      1.0  0.17754  0.05123  0.75410  1.0000
  C   C160      1.0  0.19810  0.02812  0.75228  1.0000
  C   C161      1.0  0.17728  0.09836  0.75493  1.0000
  C   C162      1.0  0.19704  0.12036  0.75225  1.0000
  C   C163      1.0  0.21720  0.09724  0.74672  1.0000
  C   C164      1.0  0.21819  0.05201  0.74816  1.0000
  C   C165      1.0  0.32007  0.45686  0.75002  1.0000
  C   C166      1.0  0.29988  0.48049  0.74701  1.0000
  C   C167      1.0  0.31971  0.40932  0.74636  1.0000
  C   C168      1.0  0.29966  0.38760  0.74305  1.0000
  C   C169      1.0  0.27983  0.41133  0.74488  1.0000
  C   C170      1.0  0.27948  0.45698  0.74600  1.0000
  C   C171      1.0  0.82068  0.94704  0.73950  1.0000
  C   C172      1.0  0.80022  0.97021  0.73932  1.0000
  C   C173      1.0  0.82069  0.89959  0.73666  1.0000
  C   C174      1.0  0.80082  0.87762  0.73705  1.0000
  C   C175      1.0  0.78076  0.90110  0.74264  1.0000
  C   C176      1.0  0.78002  0.94652  0.74217  1.0000
  O   O33       1.0  0.26438  0.62570  0.72787  1.0000
  O   O34       1.0  0.76297  0.11432  0.72559  1.0000
  O   O35       1.0  0.73423  0.37180  0.75685  1.0000
  O   O36       1.0  0.23596  0.88296  0.75577  1.0000
  O   O37       1.0  0.73569  0.61614  0.74526  1.0000
  O   O38       1.0  0.23431  0.12640  0.73764  1.0000
  O   O39       1.0  0.26229  0.38196  0.74652  1.0000
  O   O40       1.0  0.76349  0.87197  0.74997  1.0000
  B   B17       1.0  0.27465  0.66863  0.73524  1.0000
  B   B18       1.0  0.77270  0.15748  0.73095  1.0000
  B   B19       1.0  0.72401  0.32891  0.75064  1.0000
  B   B20       1.0  0.22626  0.84011  0.75317  1.0000
  B   B21       1.0  0.72596  0.65858  0.74710  1.0000
  B   B22       1.0  0.22399  0.16826  0.73940  1.0000
  B   B23       1.0  0.27202  0.33929  0.74302  1.0000
  B   B24       1.0  0.77361  0.82945  0.74504  1.0000
  O   O41       1.0  0.29771  0.66620  0.74605  1.0000
  O   O42       1.0  0.79582  0.15593  0.74006  1.0000
  O   O43       1.0  0.70094  0.33161  0.74316  1.0000
  O   O44       1.0  0.20312  0.84233  0.75005  1.0000
  O   O45       1.0  0.70285  0.65622  0.75521  1.0000
  O   O46       1.0  0.20093  0.16528  0.75012  1.0000
  O   O47       1.0  0.29515  0.34224  0.74018  1.0000
  O   O48       1.0  0.79672  0.83236  0.73643  1.0000
  H   H41       1.0  0.36152  0.42324  0.76631  1.0000
  H   H42       1.0  0.36307  0.58679  0.75035  1.0000
  H   H43       1.0  0.33651  0.61922  0.75608  1.0000
  H   H44       1.0  0.33466  0.39014  0.74830  1.0000
  H   H45       1.0  0.26436  0.53469  0.73447  1.0000
  H   H46       1.0  0.26380  0.47403  0.74646  1.0000
  H   H47       1.0  0.86256  0.91390  0.74513  1.0000
  H   H48       1.0  0.83584  0.88086  0.73733  1.0000
  H   H49       1.0  0.76421  0.96343  0.74496  1.0000
  H   H50       1.0  0.63645  0.57849  0.75371  1.0000
  H   H51       1.0  0.63509  0.41328  0.75823  1.0000
  H   H52       1.0  0.66192  0.37946  0.74387  1.0000
  H   H53       1.0  0.66330  0.60904  0.75379  1.0000
  H   H54       1.0  0.73385  0.46430  0.76061  1.0000
  H   H55       1.0  0.73431  0.52513  0.75133  1.0000
  H   H56       1.0  0.13535  0.08444  0.75432  1.0000
  H   H57       1.0  0.16201  0.11679  0.75474  1.0000
  H   H58       1.0  0.23409  0.03535  0.74436  1.0000
  H   H59       1.0  0.13663  0.91999  0.76381  1.0000
  H   H60       1.0  0.16357  0.88888  0.75537  1.0000
  H   H61       1.0  0.23450  0.97460  0.75352  1.0000
  H   H62       1.0  0.86217  0.08003  0.74716  1.0000
  H   H63       1.0  0.83528  0.10981  0.74179  1.0000
  H   H64       1.0  0.76411  0.02295  0.72807  1.0000
  C   C177      1.0  0.55730  0.49800  0.75921  1.0000
  C   C178      1.0  0.05750  0.00062  0.76557  1.0000
  C   C179      1.0  0.44063  0.50335  0.76191  1.0000
  C   C180      1.0  0.94081  0.99992  0.75470  1.0000
  C   C181      1.0  0.54610  0.53883  0.76092  1.0000
  C   C182      1.0  0.04598  0.04124  0.76806  1.0000
  C   C183      1.0  0.45175  0.46180  0.75575  1.0000
  C   C184      1.0  0.95233  0.95922  0.75137  1.0000
  C   C185      1.0  0.45290  0.54336  0.76435  1.0000
  C   C186      1.0  0.95270  0.04086  0.76049  1.0000
  C   C187      1.0  0.54505  0.45761  0.75452  1.0000
  C   C188      1.0  0.04555  0.96009  0.76229  1.0000
  C   C189      1.0  0.52190  0.45740  0.75249  1.0000
  C   C190      1.0  0.02242  0.95916  0.76006  1.0000
  C   C191      1.0  0.47602  0.54284  0.76233  1.0000
  C   C192      1.0  0.97583  0.04190  0.76295  1.0000
  C   C193      1.0  0.47486  0.45956  0.75332  1.0000
  C   C194      1.0  0.97543  0.95864  0.75412  1.0000
  C   C195      1.0  0.52300  0.54049  0.76043  1.0000
  C   C196      1.0  0.02286  0.04213  0.76693  1.0000
  H   H65       1.0  0.55542  0.56991  0.76189  1.0000
  H   H66       1.0  0.05513  0.07250  0.76883  1.0000
  H   H67       1.0  0.44226  0.43101  0.75542  1.0000
  H   H68       1.0  0.94319  0.92764  0.74861  1.0000
  H   H69       1.0  0.44439  0.57524  0.76586  1.0000
  H   H70       1.0  0.94386  0.07221  0.76110  1.0000
  H   H71       1.0  0.55362  0.42611  0.75492  1.0000
  H   H72       1.0  0.05433  0.92886  0.76309  1.0000
  C   C197      1.0  0.51066  0.49950  0.75695  1.0000
  C   C198      1.0  0.01085  0.00059  0.76245  1.0000
  C   C199      1.0  0.48722  0.50062  0.75749  1.0000
  C   C200      1.0  0.98741  0.00038  0.75983  1.0000
  C   C201      1.0  0.48884  0.58309  0.76326  1.0000
  C   C202      1.0  0.98829  0.08298  0.76656  1.0000
  C   C203      1.0  0.50906  0.41669  0.74830  1.0000
  C   C204      1.0  0.00996  0.91804  0.75635  1.0000
  C   C205      1.0  0.51135  0.58190  0.76200  1.0000
  C   C206      1.0  0.01081  0.08305  0.76815  1.0000
  C   C207      1.0  0.48654  0.41777  0.74886  1.0000
  C   C208      1.0  0.98745  0.91776  0.75315  1.0000
  H   H73       1.0  0.48016  0.61425  0.76152  1.0000
  H   H74       1.0  0.97932  0.11376  0.76443  1.0000
  H   H75       1.0  0.51768  0.38511  0.74763  1.0000
  H   H76       1.0  0.01891  0.88730  0.75886  1.0000
  H   H77       1.0  0.52094  0.61194  0.75820  1.0000
  H   H78       1.0  0.02009  0.11389  0.76722  1.0000
  H   H79       1.0  0.47697  0.38714  0.74881  1.0000
  H   H80       1.0  0.97812  0.88681  0.75293  1.0000
  C  Sn1       1.0  0.22877  0.24859  0.17640  1.0000
  C   C209      1.0  0.23742  0.20649  0.18092  1.0000
  C  Sn2       1.0  0.25933  0.20746  0.23409  1.0000
  C  Sn3       1.0  0.27287  0.25142  0.28392  1.0000
  C   C210      1.0  0.26421  0.29348  0.27943  1.0000
  C  Sn4       1.0  0.24231  0.29255  0.22623  1.0000
  O  Te1       1.0  0.20682  0.24678  0.12282  1.0000
  O  Te2       1.0  0.26761  0.16490  0.23746  1.0000
  O  Te3       1.0  0.29483  0.25319  0.33752  1.0000
  O  Te4       1.0  0.23402  0.33507  0.22288  1.0000
  Mg  Mg1       1.0  0.29854  0.18573  0.32022  1.0000
  Mg  Mg2       1.0  0.20309  0.31430  0.14025  1.0000
  C  Sn5       1.0  0.76573  0.72765  0.29728  1.0000
  C   C211      1.0  0.74296  0.72034  0.29763  1.0000
  C  Sn6       1.0  0.72857  0.74820  0.25261  1.0000
  C  Sn7       1.0  0.73713  0.78409  0.20613  1.0000
  C   C212      1.0  0.75989  0.79138  0.20576  1.0000
  C  Sn8       1.0  0.77429  0.76354  0.25080  1.0000
  O  Te5       1.0  0.77980  0.69937  0.34273  1.0000
  O  Te6       1.0  0.70587  0.74024  0.25398  1.0000
  O  Te7       1.0  0.72304  0.81237  0.16067  1.0000
  O  Te8       1.0  0.79698  0.77148  0.24940  1.0000
  Mg  Mg3       1.0  0.69339  0.78794  0.18197  1.0000
  Mg  Mg4       1.0  0.80947  0.72378  0.32129  1.0000
  C  Sn9       1.0  0.73050  0.25148  0.30895  1.0000
  C   C213      1.0  0.73919  0.29337  0.30152  1.0000
  C  Sn10      1.0  0.76094  0.29160  0.23864  1.0000
  C  Sn11      1.0  0.77429  0.24703  0.18187  1.0000
  C   C214      1.0  0.76560  0.20517  0.18927  1.0000
  C  Sn12      1.0  0.74385  0.20690  0.25217  1.0000
  O  Te9       1.0  0.70872  0.25409  0.37228  1.0000
  O  Te10      1.0  0.76925  0.33397  0.23253  1.0000
  O  Te11      1.0  0.79609  0.24445  0.11851  1.0000
  O  Te12      1.0  0.73554  0.16457  0.25826  1.0000
  Mg  Mg5       1.0  0.79992  0.31196  0.13564  1.0000
  Mg  Mg6       1.0  0.70487  0.18652  0.35503  1.0000
  C  Sn13      1.0  0.23627  0.70637  0.17887  1.0000
  C   C215      1.0  0.25907  0.69996  0.17810  1.0000
  C  Sn14      1.0  0.27327  0.74217  0.23093  1.0000
  C  Sn15      1.0  0.26450  0.79184  0.28579  1.0000
  C   C216      1.0  0.24171  0.79824  0.28658  1.0000
  C  Sn16      1.0  0.22750  0.75605  0.23374  1.0000
  O  Te13      1.0  0.22239  0.66363  0.12554  1.0000
  O  Te14      1.0  0.29601  0.73479  0.22896  1.0000
  O  Te15      1.0  0.27840  0.83459  0.33915  1.0000
  O  Te16      1.0  0.20477  0.76341  0.23572  1.0000
  Mg  Mg7       1.0  0.30818  0.80497  0.31359  1.0000
  Mg  Mg8       1.0  0.19258  0.69327  0.15122  1.0000
  C  Sn17      1.0  0.23216  0.29480  0.79846  1.0000
  C   C217      1.0  0.25495  0.30173  0.79680  1.0000
  C  Sn18      1.0  0.26931  0.26002  0.74471  1.0000
  C  Sn19      1.0  0.26072  0.21033  0.69307  1.0000
  C   C218      1.0  0.23794  0.20341  0.69471  1.0000
  C  Sn20      1.0  0.22357  0.24511  0.74682  1.0000
  O  Te17      1.0  0.21811  0.33704  0.85101  1.0000
  O  Te18      1.0  0.29203  0.26791  0.74420  1.0000
  O  Te19      1.0  0.27479  0.16807  0.64050  1.0000
  O  Te20      1.0  0.20086  0.23724  0.74731  1.0000
  Mg  Mg9       1.0  0.30447  0.19829  0.66185  1.0000
  Mg  Mg10      1.0  0.18841  0.30682  0.82953  1.0000
  C  Sn21      1.0  0.76553  0.71886  0.79896  1.0000
  C   C219      1.0  0.74278  0.71112  0.79762  1.0000
  C  Sn22      1.0  0.72836  0.73880  0.75201  1.0000
  C  Sn23      1.0  0.73687  0.77495  0.70665  1.0000
  C   C220      1.0  0.75961  0.78268  0.70797  1.0000
  C  Sn24      1.0  0.77404  0.75502  0.75360  1.0000
  O  Te21      1.0  0.77964  0.69076  0.84497  1.0000
  O  Te22      1.0  0.70568  0.73040  0.75169  1.0000
  O  Te23      1.0  0.72274  0.80306  0.66062  1.0000
  O  Te24      1.0  0.79671  0.76339  0.75390  1.0000
  Mg  Mg11      1.0  0.69314  0.77802  0.67951  1.0000
  Mg  Mg12      1.0  0.80927  0.71578  0.82595  1.0000
  C  Sn25      1.0  0.77033  0.26082  0.79233  1.0000
  C   C221      1.0  0.76176  0.21715  0.78812  1.0000
  C  Sn26      1.0  0.73960  0.20333  0.74403  1.0000
  C  Sn27      1.0  0.72571  0.23379  0.70316  1.0000
  C   C222      1.0  0.73428  0.27742  0.70735  1.0000
  C  Sn28      1.0  0.75644  0.29128  0.75147  1.0000
  O  Te25      1.0  0.79254  0.27391  0.83675  1.0000
  O  Te26      1.0  0.73141  0.15951  0.74077  1.0000
  O  Te27      1.0  0.70349  0.22066  0.65873  1.0000
  O  Te28      1.0  0.76464  0.33506  0.75470  1.0000
  Mg  Mg13      1.0  0.70003  0.15748  0.67233  1.0000
  Mg  Mg14      1.0  0.79601  0.33711  0.82301  1.0000
  C  Sn29      1.0  0.22862  0.75265  0.80471  1.0000
  C   C223      1.0  0.23728  0.79543  0.80314  1.0000
  C  Sn30      1.0  0.25925  0.79508  0.74804  1.0000
  C  Sn31      1.0  0.27286  0.75103  0.69324  1.0000
  C   C224      1.0  0.26421  0.70828  0.69480  1.0000
  C  Sn32      1.0  0.24223  0.70860  0.74991  1.0000
  O  Te29      1.0  0.20660  0.75385  0.86030  1.0000
  O  Te30      1.0  0.26753  0.83832  0.74768  1.0000
  O  Te31      1.0  0.29489  0.74987  0.63763  1.0000
  O  Te32      1.0  0.23395  0.66539  0.75026  1.0000
  Mg  Mg15      1.0  0.29857  0.81815  0.66050  1.0000
  Mg  Mg16      1.0  0.20291  0.68550  0.83730  1.0000
