data_image0
_chemical_formula_structural       C24O4B4O4C24O4B4O4C24O4B4O4H24C3HC2HCH2C12N4S2H4C24O4B4O4C24O4B4O4C24O4B4O4H24C9H3C6H3C3H6C12N4S2H4SnCSn2CSnTe4Mg2SnCSn2CSnTe4Mg2SnCSn2CSnTe4Mg2SnCSn2CSnTe4Mg2
_chemical_formula_sum              "C200 O48 B24 H72 N8 S4 Sn16 Te16 Mg8"
_cell_length_a       30.2842
_cell_length_b       52.2007
_cell_length_c       8.01543
_cell_angle_alpha    89.9431
_cell_angle_beta     122.586
_cell_angle_gamma    90.1234

_symmetry_space_group_name_H-M    'P1'
_space_group_IT_number       1

loop_
  _space_group_symop_operation_xyz
  'x, y, z'

loop_
  _atom_site_type_symbol
  _atom_site_label
  _atom_site_symmetry_multiplicity
  _atom_site_fract_x
  _atom_site_fract_y
  _atom_site_fract_z
  _atom_site_occupancy
  C   C1        1.0  0.52666  0.80876  0.23779  1.0000
  C   C2        1.0  0.55128  0.83214  0.23799  1.0000
  C   C3        1.0  0.59811  0.83153  0.23752  1.0000
  C   C4        1.0  0.61846  0.80814  0.23608  1.0000
  C   C5        1.0  0.59415  0.78519  0.23366  1.0000
  C   C6        1.0  0.54894  0.78496  0.23503  1.0000
  C   C7        1.0  0.02609  0.30865  0.23203  1.0000
  C   C8        1.0  0.05045  0.33213  0.23167  1.0000
  C   C9        1.0  0.09716  0.33154  0.23042  1.0000
  C   C10       1.0  0.11758  0.30818  0.22860  1.0000
  C   C11       1.0  0.09323  0.28520  0.22555  1.0000
  C   C12       1.0  0.04827  0.28488  0.22830  1.0000
  C   C13       1.0  0.52650  0.19288  0.24016  1.0000
  C   C14       1.0  0.55120  0.16964  0.23900  1.0000
  C   C15       1.0  0.59776  0.17060  0.23728  1.0000
  C   C16       1.0  0.61767  0.19412  0.23548  1.0000
  C   C17       1.0  0.59310  0.21696  0.23271  1.0000
  C   C18       1.0  0.54818  0.21687  0.23601  1.0000
  C   C19       1.0  0.02686  0.69240  0.24081  1.0000
  C   C20       1.0  0.05109  0.66891  0.24171  1.0000
  C   C21       1.0  0.09813  0.66934  0.24308  1.0000
  C   C22       1.0  0.11875  0.69264  0.24069  1.0000
  C   C23       1.0  0.09453  0.71571  0.23558  1.0000
  C   C24       1.0  0.04936  0.71612  0.23696  1.0000
  O   O1        1.0  0.62258  0.76474  0.22938  1.0000
  O   O2        1.0  0.12122  0.26477  0.21894  1.0000
  O   O3        1.0  0.62090  0.23759  0.22537  1.0000
  O   O4        1.0  0.12273  0.73606  0.22748  1.0000
  B   B1        1.0  0.66521  0.77590  0.23139  1.0000
  B   B2        1.0  0.16403  0.27587  0.22211  1.0000
  B   B3        1.0  0.66351  0.22656  0.22696  1.0000
  B   B4        1.0  0.16534  0.72467  0.23135  1.0000
  O   O5        1.0  0.66305  0.80276  0.23528  1.0000
  O   O6        1.0  0.16214  0.30273  0.22739  1.0000
  O   O7        1.0  0.66198  0.19973  0.23360  1.0000
  O   O8        1.0  0.16340  0.69780  0.23981  1.0000
  C   C25       1.0  0.47870  0.80943  0.23952  1.0000
  C   C26       1.0  0.45644  0.83342  0.24303  1.0000
  C   C27       1.0  0.45401  0.78620  0.23805  1.0000
  C   C28       1.0  0.40878  0.78746  0.23836  1.0000
  C   C29       1.0  0.38644  0.81092  0.23810  1.0000
  C   C30       1.0  0.40932  0.83384  0.24175  1.0000
  C   C31       1.0  0.97842  0.30914  0.23557  1.0000
  C   C32       1.0  0.95603  0.33312  0.23790  1.0000
  C   C33       1.0  0.95420  0.28591  0.23771  1.0000
  C   C34       1.0  0.90936  0.28728  0.24090  1.0000
  C   C35       1.0  0.88726  0.31078  0.24141  1.0000
  C   C36       1.0  0.90962  0.33363  0.24110  1.0000
  C   C37       1.0  0.47895  0.19183  0.24448  1.0000
  C   C38       1.0  0.45701  0.16764  0.24659  1.0000
  C   C39       1.0  0.45452  0.21482  0.24825  1.0000
  C   C40       1.0  0.40973  0.21308  0.25159  1.0000
  C   C41       1.0  0.38764  0.18940  0.24946  1.0000
  C   C42       1.0  0.41048  0.16673  0.24907  1.0000
  C   C43       1.0  0.97891  0.69191  0.24228  1.0000
  C   C44       1.0  0.95585  0.66798  0.24215  1.0000
  C   C45       1.0  0.95514  0.71520  0.24500  1.0000
  C   C46       1.0  0.91010  0.71397  0.24706  1.0000
  C   C47       1.0  0.88725  0.69051  0.24440  1.0000
  C   C48       1.0  0.90900  0.66759  0.24218  1.0000
  O   O9        1.0  0.34115  0.80642  0.23676  1.0000
  O   O10       1.0  0.84248  0.30653  0.24354  1.0000
  O   O11       1.0  0.34255  0.19341  0.25022  1.0000
  O   O12       1.0  0.84248  0.69489  0.24622  1.0000
  B   B5        1.0  0.33693  0.77956  0.23851  1.0000
  B   B6        1.0  0.83810  0.27972  0.24628  1.0000
  B   B7        1.0  0.33823  0.22016  0.25618  1.0000
  B   B8        1.0  0.83885  0.72170  0.25150  1.0000
  O   O13       1.0  0.37876  0.76758  0.24019  1.0000
  O   O14       1.0  0.87942  0.26755  0.24548  1.0000
  O   O15       1.0  0.37986  0.23257  0.25834  1.0000
  O   O16       1.0  0.88068  0.73377  0.25312  1.0000
  C   C49       1.0  0.52856  0.85660  0.24089  1.0000
  C   C50       1.0  0.48188  0.85732  0.24480  1.0000
  C   C51       1.0  0.46060  0.88136  0.25034  1.0000
  C   C52       1.0  0.48556  0.90335  0.24967  1.0000
  C   C53       1.0  0.53048  0.90253  0.24127  1.0000
  C   C54       1.0  0.55264  0.87982  0.23785  1.0000
  C   C55       1.0  0.02750  0.35660  0.23403  1.0000
  C   C56       1.0  0.02822  0.40262  0.23433  1.0000
  C   C57       1.0  0.05139  0.38006  0.23382  1.0000
  C   C58       1.0  0.52887  0.14495  0.24117  1.0000
  C   C59       1.0  0.48217  0.14395  0.24439  1.0000
  C   C60       1.0  0.46043  0.11980  0.24543  1.0000
  C   C61       1.0  0.48506  0.09796  0.24151  1.0000
  C   C62       1.0  0.53072  0.09898  0.23809  1.0000
  C   C63       1.0  0.55318  0.12185  0.23810  1.0000
  C   C64       1.0  0.02744  0.64453  0.24094  1.0000
  C   C65       1.0  0.02759  0.59864  0.23694  1.0000
  C   C66       1.0  0.05110  0.62121  0.23866  1.0000
  C   C67       1.0  0.98053  0.35708  0.23571  1.0000
  C   C68       1.0  0.95795  0.38094  0.23662  1.0000
  C   C69       1.0  0.98229  0.40314  0.23600  1.0000
  C   C70       1.0  0.98017  0.64400  0.24028  1.0000
  C   C71       1.0  0.95722  0.62012  0.23880  1.0000
  C   C72       1.0  0.98141  0.59801  0.23682  1.0000
  O   O17       1.0  0.54648  0.92719  0.23597  1.0000
  O   O18       1.0  0.04411  0.42741  0.23221  1.0000
  O   O19       1.0  0.54686  0.07434  0.23350  1.0000
  O   O20       1.0  0.04312  0.57396  0.23227  1.0000
  B   B9        1.0  0.51070  0.94316  0.24474  1.0000
  B   B10       1.0  0.00706  0.44311  0.23522  1.0000
  B   B11       1.0  0.51021  0.05828  0.23645  1.0000
  B   B12       1.0  0.00561  0.55816  0.23125  1.0000
  O   O21       1.0  0.47275  0.92874  0.25468  1.0000
  O   O22       1.0  0.96841  0.42842  0.23816  1.0000
  O   O23       1.0  0.47144  0.07256  0.24119  1.0000
  O   O24       1.0  0.96679  0.57270  0.23370  1.0000
  H   H1        1.0  0.61785  0.84882  0.23665  1.0000
  H   H2        1.0  0.53139  0.76680  0.23388  1.0000
  H   H3        1.0  0.46992  0.76763  0.23796  1.0000
  H   H4        1.0  0.39157  0.85162  0.24653  1.0000
  H   H5        1.0  0.42579  0.88269  0.25673  1.0000
  H   H6        1.0  0.58724  0.88011  0.22980  1.0000
  H   H7        1.0  0.11640  0.34893  0.22785  1.0000
  H   H8        1.0  0.03069  0.26669  0.22659  1.0000
  H   H9        1.0  0.08677  0.38072  0.23105  1.0000
  H   H10       1.0  0.61745  0.15342  0.23494  1.0000
  H   H11       1.0  0.53029  0.23488  0.23494  1.0000
  H   H12       1.0  0.47033  0.23353  0.24986  1.0000
  H   H13       1.0  0.39313  0.14877  0.25363  1.0000
  H   H14       1.0  0.42561  0.11820  0.25144  1.0000
  H   H15       1.0  0.58820  0.12179  0.23274  1.0000
  H   H16       1.0  0.11759  0.65194  0.24286  1.0000
  H   H17       1.0  0.03173  0.73432  0.23347  1.0000
  H   H18       1.0  0.08638  0.62070  0.23517  1.0000
  H   H19       1.0  0.97010  0.26729  0.23810  1.0000
  H   H20       1.0  0.89185  0.35134  0.24647  1.0000
  H   H21       1.0  0.92267  0.38193  0.23999  1.0000
  H   H22       1.0  0.97159  0.73370  0.24600  1.0000
  H   H23       1.0  0.89054  0.64983  0.24305  1.0000
  H   H24       1.0  0.92190  0.61898  0.24173  1.0000
  C   C73       1.0  0.79423  0.73574  0.25072  1.0000
  C   C74       1.0  0.75466  0.72188  0.25332  1.0000
  C   C75       1.0  0.74921  0.77525  0.23095  1.0000
  H   H25       1.0  0.75692  0.70107  0.26241  1.0000
  C   C76       1.0  0.79086  0.76267  0.23961  1.0000
  C   C77       1.0  0.71306  0.73449  0.24510  1.0000
  H   H26       1.0  0.82079  0.77357  0.23459  1.0000
  C   C78       1.0  0.70962  0.76141  0.23361  1.0000
  H   H27       1.0  0.68310  0.72358  0.24988  1.0000
  H   H28       1.0  0.74682  0.79605  0.22112  1.0000
  C   C79       1.0  0.51115  0.02879  0.23385  1.0000
  C   C80       1.0  0.00620  0.52872  0.22623  1.0000
  C   C81       1.0  0.51141  0.97266  0.23924  1.0000
  C   C82       1.0  0.00711  0.47262  0.23106  1.0000
  C   C83       1.0  0.55225  0.01459  0.23944  1.0000
  C   C84       1.0  0.04742  0.51471  0.23121  1.0000
  C   C85       1.0  0.55234  0.98675  0.24185  1.0000
  C   C86       1.0  0.04788  0.48689  0.23416  1.0000
  C   C87       1.0  0.47191  0.98721  0.23210  1.0000
  C   C88       1.0  0.96739  0.48700  0.22410  1.0000
  C   C89       1.0  0.47176  0.01434  0.22917  1.0000
  C   C90       1.0  0.96695  0.51414  0.22149  1.0000
  N   N1        1.0  0.59408  0.02476  0.24421  1.0000
  N   N2        1.0  0.08920  0.52502  0.23636  1.0000
  N   N3        1.0  0.59422  0.97647  0.24810  1.0000
  N   N4        1.0  0.09010  0.47673  0.24218  1.0000
  S   S1        1.0  0.62896  0.00056  0.25164  1.0000
  S   S2        1.0  0.12462  0.50094  0.24619  1.0000
  H   H29       1.0  0.43975  0.02436  0.22549  1.0000
  H   H30       1.0  0.93510  0.52407  0.21961  1.0000
  H   H31       1.0  0.44005  0.97733  0.23109  1.0000
  H   H32       1.0  0.93580  0.47702  0.22431  1.0000
  C   C91       1.0  0.52625  0.80816  0.73902  1.0000
  C   C92       1.0  0.55015  0.83180  0.73891  1.0000
  C   C93       1.0  0.59695  0.83169  0.73830  1.0000
  C   C94       1.0  0.61809  0.80856  0.73663  1.0000
  C   C95       1.0  0.59454  0.78535  0.73478  1.0000
  C   C96       1.0  0.54954  0.78462  0.73759  1.0000
  C   C97       1.0  0.01752  0.30737  0.72951  1.0000
  C   C98       1.0  0.04185  0.33078  0.72867  1.0000
  C   C99       1.0  0.08848  0.33022  0.72723  1.0000
  C   C100      1.0  0.10893  0.30689  0.72562  1.0000
  C   C101      1.0  0.08471  0.28389  0.72295  1.0000
  C   C102      1.0  0.03963  0.28359  0.72510  1.0000
  C   C103      1.0  0.51844  0.19142  0.74069  1.0000
  C   C104      1.0  0.54223  0.16801  0.73695  1.0000
  C   C105      1.0  0.58874  0.16852  0.73436  1.0000
  C   C106      1.0  0.60930  0.19186  0.73235  1.0000
  C   C107      1.0  0.58566  0.21485  0.73284  1.0000
  C   C108      1.0  0.54117  0.21517  0.73893  1.0000
  C   C109      1.0  0.02607  0.69119  0.74132  1.0000
  C   C110      1.0  0.04988  0.66762  0.74093  1.0000
  C   C111      1.0  0.09711  0.66788  0.74336  1.0000
  C   C112      1.0  0.11817  0.69110  0.74169  1.0000
  C   C113      1.0  0.09415  0.71423  0.73669  1.0000
  C   C114      1.0  0.04902  0.71481  0.73830  1.0000
  O   O25       1.0  0.62352  0.76518  0.72989  1.0000
  O   O26       1.0  0.11316  0.26351  0.71789  1.0000
  O   O27       1.0  0.61390  0.23524  0.72569  1.0000
  O   O28       1.0  0.12256  0.73447  0.72870  1.0000
  B   B13       1.0  0.66576  0.77682  0.73155  1.0000
  B   B14       1.0  0.15579  0.27477  0.72044  1.0000
  B   B15       1.0  0.65588  0.22402  0.72400  1.0000
  B   B16       1.0  0.16494  0.72301  0.73113  1.0000
  O   O29       1.0  0.66284  0.80370  0.73549  1.0000
  O   O30       1.0  0.15362  0.30161  0.72546  1.0000
  O   O31       1.0  0.65344  0.19716  0.72834  1.0000
  O   O32       1.0  0.16292  0.69616  0.74097  1.0000
  C   C115      1.0  0.47814  0.80838  0.74007  1.0000
  C   C116      1.0  0.45501  0.83220  0.74078  1.0000
  C   C117      1.0  0.45407  0.78500  0.74028  1.0000
  C   C118      1.0  0.40885  0.78607  0.74137  1.0000
  C   C119      1.0  0.38602  0.80942  0.73986  1.0000
  C   C120      1.0  0.40798  0.83241  0.73964  1.0000
  C   C121      1.0  0.97001  0.30803  0.73409  1.0000
  C   C122      1.0  0.94764  0.33205  0.73653  1.0000
  C   C123      1.0  0.94599  0.28478  0.73677  1.0000
  C   C124      1.0  0.90096  0.28603  0.73875  1.0000
  C   C125      1.0  0.87856  0.30952  0.73760  1.0000
  C   C126      1.0  0.90097  0.33243  0.73812  1.0000
  C   C127      1.0  0.47081  0.19074  0.74474  1.0000
  C   C128      1.0  0.44811  0.16671  0.74560  1.0000
  C   C129      1.0  0.44691  0.21395  0.74796  1.0000
  C   C130      1.0  0.40179  0.21260  0.74937  1.0000
  C   C131      1.0  0.37895  0.18909  0.74572  1.0000
  C   C132      1.0  0.40119  0.16622  0.74562  1.0000
  C   C133      1.0  0.97813  0.69090  0.74305  1.0000
  C   C134      1.0  0.95464  0.66707  0.74254  1.0000
  C   C135      1.0  0.95483  0.71432  0.74663  1.0000
  C   C136      1.0  0.90965  0.71338  0.74775  1.0000
  C   C137      1.0  0.88616  0.69005  0.74343  1.0000
  C   C138      1.0  0.90762  0.66699  0.74166  1.0000
  O   O33       1.0  0.34093  0.80491  0.73942  1.0000
  O   O34       1.0  0.83359  0.30508  0.73858  1.0000
  O   O35       1.0  0.33383  0.19347  0.74559  1.0000
  O   O36       1.0  0.84142  0.69476  0.74496  1.0000
  B   B17       1.0  0.33697  0.77805  0.74153  1.0000
  B   B18       1.0  0.82960  0.27825  0.74243  1.0000
  B   B19       1.0  0.33025  0.22026  0.75118  1.0000
  B   B20       1.0  0.83870  0.72157  0.75316  1.0000
  O   O37       1.0  0.37899  0.76616  0.74397  1.0000
  O   O38       1.0  0.87118  0.26622  0.74302  1.0000
  O   O39       1.0  0.37239  0.23238  0.75553  1.0000
  O   O40       1.0  0.88087  0.73341  0.75545  1.0000
  C   C139      1.0  0.52675  0.85605  0.74148  1.0000
  C   C140      1.0  0.47945  0.85628  0.74074  1.0000
  C   C141      1.0  0.45655  0.87999  0.74157  1.0000
  C   C142      1.0  0.48094  0.90222  0.74251  1.0000
  C   C143      1.0  0.52733  0.90198  0.74400  1.0000
  C   C144      1.0  0.55083  0.87955  0.74402  1.0000
  C   C145      1.0  0.01911  0.35526  0.73091  1.0000
  C   C146      1.0  0.02090  0.40120  0.72928  1.0000
  C   C147      1.0  0.04334  0.37845  0.72841  1.0000
  C   C148      1.0  0.51914  0.14354  0.73782  1.0000
  C   C149      1.0  0.47269  0.14281  0.74303  1.0000
  C   C150      1.0  0.45064  0.11874  0.74455  1.0000
  C   C151      1.0  0.47488  0.09677  0.73968  1.0000
  C   C152      1.0  0.52008  0.09765  0.73316  1.0000
  C   C153      1.0  0.54262  0.12036  0.73150  1.0000
  C   C154      1.0  0.02577  0.64333  0.73907  1.0000
  C   C155      1.0  0.02530  0.59741  0.73336  1.0000
  C   C156      1.0  0.04870  0.61992  0.73321  1.0000
  C   C157      1.0  0.97239  0.35600  0.73421  1.0000
  C   C158      1.0  0.95051  0.38008  0.73535  1.0000
  C   C159      1.0  0.97523  0.40207  0.73256  1.0000
  C   C160      1.0  0.97879  0.64297  0.74085  1.0000
  C   C161      1.0  0.95599  0.61910  0.74150  1.0000
  C   C162      1.0  0.97989  0.59690  0.73853  1.0000
  O   O41       1.0  0.54292  0.92685  0.74283  1.0000
  O   O42       1.0  0.03739  0.42580  0.72589  1.0000
  O   O43       1.0  0.53584  0.07307  0.72635  1.0000
  O   O44       1.0  0.04031  0.57269  0.72583  1.0000
  B   B21       1.0  0.50512  0.94226  0.74205  1.0000
  B   B22       1.0  0.00105  0.44186  0.72998  1.0000
  B   B23       1.0  0.49964  0.05705  0.73200  1.0000
  B   B24       1.0  0.00346  0.55697  0.72999  1.0000
  O   O45       1.0  0.46635  0.92738  0.74241  1.0000
  O   O46       1.0  0.96198  0.42751  0.73331  1.0000
  O   O47       1.0  0.46137  0.07133  0.73999  1.0000
  O   O48       1.0  0.96549  0.57157  0.73762  1.0000
  H   H33       1.0  0.61585  0.84925  0.73649  1.0000
  H   H34       1.0  0.53302  0.76625  0.73940  1.0000
  H   H35       1.0  0.47033  0.76654  0.73963  1.0000
  H   H36       1.0  0.38929  0.85004  0.74053  1.0000
  H   H37       1.0  0.42108  0.88095  0.74369  1.0000
  H   H38       1.0  0.58653  0.88029  0.74348  1.0000
  H   H39       1.0  0.10795  0.34755  0.72530  1.0000
  H   H40       1.0  0.02185  0.26542  0.72216  1.0000
  H   H41       1.0  0.07841  0.37879  0.72352  1.0000
  H   H42       1.0  0.60786  0.15117  0.73115  1.0000
  H   H43       1.0  0.52454  0.23341  0.74186  1.0000
  H   H44       1.0  0.46325  0.23251  0.74989  1.0000
  H   H45       1.0  0.38293  0.14843  0.74743  1.0000
  H   H46       1.0  0.41601  0.11740  0.75198  1.0000
  H   H47       1.0  0.57695  0.12005  0.72167  1.0000
  H   H48       1.0  0.11640  0.65039  0.74383  1.0000
  H   H49       1.0  0.03175  0.73312  0.73510  1.0000
  H   H50       1.0  0.08312  0.61929  0.72404  1.0000
  H   H51       1.0  0.96214  0.26626  0.73713  1.0000
  H   H52       1.0  0.88299  0.35020  0.74147  1.0000
  H   H53       1.0  0.91557  0.38142  0.74079  1.0000
  H   H54       1.0  0.97199  0.73275  0.75117  1.0000
  H   H55       1.0  0.88885  0.64933  0.74257  1.0000
  H   H56       1.0  0.92097  0.61807  0.74659  1.0000
  C   C163      1.0  0.28544  0.23435  0.74807  1.0000
  C   C164      1.0  0.78512  0.26411  0.74276  1.0000
  C   C165      1.0  0.29227  0.76374  0.73935  1.0000
  C   C166      1.0  0.24608  0.22066  0.75302  1.0000
  C   C167      1.0  0.74631  0.27792  0.75000  1.0000
  C   C168      1.0  0.25130  0.77738  0.73296  1.0000
  C   C169      1.0  0.23978  0.27399  0.71926  1.0000
  C   C170      1.0  0.73919  0.22460  0.71840  1.0000
  C   C171      1.0  0.24940  0.72391  0.73271  1.0000
  H   H57       1.0  0.24886  0.19989  0.76716  1.0000
  H   H58       1.0  0.74969  0.29868  0.76490  1.0000
  H   H59       1.0  0.25212  0.79823  0.73298  1.0000
  C   C172      1.0  0.28169  0.26124  0.73122  1.0000
  C   C173      1.0  0.78104  0.23718  0.72780  1.0000
  C   C174      1.0  0.29059  0.73676  0.73901  1.0000
  C   C175      1.0  0.20423  0.23342  0.74165  1.0000
  C   C176      1.0  0.70444  0.26532  0.74052  1.0000
  C   C177      1.0  0.21017  0.76453  0.72713  1.0000
  H   H60       1.0  0.31165  0.27191  0.72476  1.0000
  H   H61       1.0  0.81068  0.22629  0.72135  1.0000
  H   H62       1.0  0.32168  0.72600  0.74158  1.0000
  C   C178      1.0  0.20042  0.26029  0.72457  1.0000
  C   C179      1.0  0.70023  0.23845  0.72469  1.0000
  C   C180      1.0  0.20863  0.73755  0.72779  1.0000
  H   H63       1.0  0.17439  0.22268  0.74841  1.0000
  H   H64       1.0  0.67493  0.27622  0.74778  1.0000
  H   H65       1.0  0.17903  0.77531  0.72413  1.0000
  H   H66       1.0  0.23706  0.29476  0.70462  1.0000
  H   H67       1.0  0.73600  0.20384  0.70432  1.0000
  H   H68       1.0  0.24838  0.70306  0.73151  1.0000
  C   C181      1.0  0.50126  0.02760  0.73007  1.0000
  C   C182      1.0  0.00346  0.52751  0.72495  1.0000
  C   C183      1.0  0.50444  0.97167  0.73721  1.0000
  C   C184      1.0  0.00254  0.47138  0.72740  1.0000
  C   C185      1.0  0.54327  0.01409  0.73731  1.0000
  C   C186      1.0  0.04439  0.51314  0.73093  1.0000
  C   C187      1.0  0.54484  0.98631  0.74098  1.0000
  C   C188      1.0  0.04423  0.48531  0.73419  1.0000
  C   C189      1.0  0.46390  0.98551  0.72816  1.0000
  C   C190      1.0  0.96293  0.48613  0.71801  1.0000
  C   C191      1.0  0.46238  0.01261  0.72481  1.0000
  C   C192      1.0  0.96353  0.51327  0.71789  1.0000
  N   N5        1.0  0.58476  0.02490  0.74297  1.0000
  N   N6        1.0  0.08648  0.52318  0.73678  1.0000
  N   N7        1.0  0.58744  0.97663  0.74911  1.0000
  N   N8        1.0  0.08649  0.47488  0.74401  1.0000
  S   S3        1.0  0.62096  0.00126  0.75254  1.0000
  S   S4        1.0  0.12152  0.49885  0.74804  1.0000
  H   H69       1.0  0.42982  0.02211  0.72062  1.0000
  H   H70       1.0  0.93187  0.52349  0.71531  1.0000
  H   H71       1.0  0.43249  0.97502  0.72615  1.0000
  H   H72       1.0  0.93042  0.47641  0.71328  1.0000
  C  Sn1       1.0  0.24964  0.77794  0.29160  1.0000
  C   C193      1.0  0.29187  0.76741  0.29055  1.0000
  C  Sn2       1.0  0.29094  0.74173  0.23987  1.0000
  C  Sn3       1.0  0.24685  0.72625  0.18905  1.0000
  C   C194      1.0  0.20464  0.73678  0.19008  1.0000
  C  Sn4       1.0  0.20554  0.76246  0.24078  1.0000
  O  Te1       1.0  0.25141  0.80366  0.34274  1.0000
  O  Te2       1.0  0.33364  0.73163  0.23995  1.0000
  O  Te3       1.0  0.24510  0.70051  0.13789  1.0000
  O  Te4       1.0  0.16287  0.77256  0.24068  1.0000
  Mg  Mg1       1.0  0.31278  0.69555  0.15956  1.0000
  Mg  Mg2       1.0  0.18367  0.80864  0.32094  1.0000
  C  Sn5       1.0  0.79260  0.76771  0.79805  1.0000
  C   C195      1.0  0.80102  0.74129  0.80800  1.0000
  C  Sn6       1.0  0.76050  0.72421  0.76319  1.0000
  C  Sn7       1.0  0.71050  0.73373  0.70715  1.0000
  C   C196      1.0  0.70210  0.76013  0.69718  1.0000
  C  Sn8       1.0  0.74260  0.77723  0.74200  1.0000
  O  Te5       1.0  0.83367  0.78443  0.84347  1.0000
  O  Te6       1.0  0.76987  0.69787  0.77426  1.0000
  O  Te7       1.0  0.66941  0.71698  0.66172  1.0000
  O  Te8       1.0  0.73325  0.80355  0.73093  1.0000
  Mg  Mg3       1.0  0.70145  0.68276  0.69820  1.0000
  Mg  Mg4       1.0  0.80162  0.81868  0.80685  1.0000
  C  Sn9       1.0  0.76493  0.22704  0.28022  1.0000
  C   C197      1.0  0.72271  0.23806  0.27877  1.0000
  C  Sn10      1.0  0.71228  0.26420  0.24119  1.0000
  C  Sn11      1.0  0.74469  0.27965  0.20416  1.0000
  C   C198      1.0  0.78687  0.26862  0.20558  1.0000
  C  Sn12      1.0  0.79734  0.24248  0.24318  1.0000
  O  Te9       1.0  0.77463  0.20086  0.31812  1.0000
  O  Te10      1.0  0.66986  0.27479  0.24059  1.0000
  O  Te11      1.0  0.73496  0.30584  0.16625  1.0000
  O  Te12      1.0  0.83972  0.23189  0.24376  1.0000
  Mg  Mg5       1.0  0.67255  0.31138  0.18127  1.0000
  Mg  Mg6       1.0  0.83705  0.19530  0.30297  1.0000
  C  Sn13      1.0  0.22720  0.23046  0.30667  1.0000
  C   C199      1.0  0.21705  0.25675  0.28200  1.0000
  C  Sn14      1.0  0.24316  0.27256  0.22147  1.0000
  C  Sn15      1.0  0.28015  0.26187  0.18471  1.0000
  C   C200      1.0  0.29027  0.23560  0.20936  1.0000
  C  Sn16      1.0  0.26419  0.21977  0.26992  1.0000
  O  Te13      1.0  0.20064  0.21501  0.36729  1.0000
  O  Te14      1.0  0.23238  0.29880  0.19788  1.0000
  O  Te15      1.0  0.30671  0.27735  0.12406  1.0000
  O  Te16      1.0  0.27495  0.19355  0.29347  1.0000
  Mg  Mg7       1.0  0.27858  0.31194  0.11264  1.0000
  Mg  Mg8       1.0  0.22875  0.18039  0.37861  1.0000
