data_image0
_chemical_formula_structural       C12NC8NC3NCNO4C19NC2NC3NC7NO4C8H61C13NC8NC3NC7NCO4C23NC8NC3NCNCO4C17H75SnCSn2CSnTe4Mg2SnCSn2CSnTe4Mg2SnCSn2CSnTe4Mg2SnCSn2CSnTe4Mg2SnCSn2CSnTe4Mg2SnCSn2CSnTe4Mg2SnCSn2CSnTe4Mg2SnCSn2CSnTe4Mg2SnCSn2CSnTe4Mg2SnCSn2CSnTe4Mg2SnCSn2CSnTe4Mg2SnCSn2CSnTe4Mg2SnCSn2CSnTe4Mg2SnCSn2CSnTe4Mg2SnCSn2CSnTe4Mg2SnCSn2CSnTe4Mg2
_chemical_formula_sum              "C180 N16 O16 H136 Sn64 Te64 Mg32"
_cell_length_a       36.8719
_cell_length_b       36.6495
_cell_length_c       8.5437
_cell_angle_alpha    91.1851
_cell_angle_beta     90.8035
_cell_angle_gamma    89.8369

_symmetry_space_group_name_H-M    'P1'
_space_group_IT_number       1

loop_
  _space_group_symop_operation_xyz
  'x, y, z'

loop_
  _atom_site_type_symbol
  _atom_site_label
  _atom_site_symmetry_multiplicity
  _atom_site_fract_x
  _atom_site_fract_y
  _atom_site_fract_z
  _atom_site_occupancy
  C   C1        1.0  0.26784  0.75698  0.50267  1.0000
  C   C2        1.0  0.23350  0.73267  0.50349  1.0000
  C   C3        1.0  0.25328  0.74452  0.76394  1.0000
  C   C4        1.0  0.22982  0.76749  0.87374  1.0000
  C   C5        1.0  0.23376  0.81644  0.44613  1.0000
  C   C6        1.0  0.23568  0.83674  0.58718  1.0000
  C   C7        1.0  0.20776  0.86050  0.62871  1.0000
  C   C8        1.0  0.17742  0.86528  0.52923  1.0000
  C   C9        1.0  0.17549  0.84498  0.38803  1.0000
  C   C10       1.0  0.20330  0.82089  0.34771  1.0000
  C   C11       1.0  0.26543  0.79157  0.39901  1.0000
  C   C12       1.0  0.14936  0.89126  0.57635  1.0000
  N   N1        1.0  0.12089  0.89844  0.49228  1.0000
  C   C13       1.0  0.30035  0.81407  0.40531  1.0000
  C   C14       1.0  0.33092  0.80527  0.49577  1.0000
  C   C15       1.0  0.36135  0.82796  0.49774  1.0000
  C   C16       1.0  0.36194  0.85980  0.40919  1.0000
  C   C17       1.0  0.33129  0.86821  0.31598  1.0000
  C   C18       1.0  0.30109  0.84577  0.31484  1.0000
  C   C19       1.0  0.27972  0.71986  0.85145  1.0000
  C   C20       1.0  0.39382  0.88344  0.41472  1.0000
  N   N2        1.0  0.39486  0.91285  0.33421  1.0000
  C   C21       1.0  0.23411  0.69764  0.39534  1.0000
  C   C22       1.0  0.35033  0.59682  0.55942  1.0000
  C   C23       1.0  0.40363  0.56431  0.54049  1.0000
  N   N3        1.0  0.37876  0.58951  0.47750  1.0000
  C   C24       1.0  0.10499  0.60699  0.41060  1.0000
  N   N4        1.0  0.10410  0.57684  0.33006  1.0000
  O   O1        1.0  0.27267  0.76830  0.66286  1.0000
  O   O2        1.0  0.23632  0.70955  0.23508  1.0000
  O   O3        1.0  0.23045  0.72216  0.66280  1.0000
  O   O4        1.0  0.26193  0.77947  0.23781  1.0000
  C   C25       1.0  0.39289  0.53300  0.62061  1.0000
  C   C26       1.0  0.41871  0.51192  0.69844  1.0000
  C   C27       1.0  0.45560  0.52100  0.69801  1.0000
  C   C28       1.0  0.46652  0.55022  0.60622  1.0000
  C   C29       1.0  0.44098  0.57135  0.52679  1.0000
  C   C30       1.0  0.51826  0.00113  0.20896  1.0000
  C   C31       1.0  0.02004  0.99022  0.81642  1.0000
  C   C32       1.0  0.23601  0.21824  0.52007  1.0000
  C   C33       1.0  0.26430  0.24910  0.50404  1.0000
  C   C34       1.0  0.25463  0.23788  0.77277  1.0000
  C   C35       1.0  0.27821  0.21071  0.86053  1.0000
  C   C36       1.0  0.17400  0.19137  0.43466  1.0000
  C   C37       1.0  0.17957  0.16152  0.53199  1.0000
  C   C38       1.0  0.15411  0.13329  0.53458  1.0000
  C   C39       1.0  0.12278  0.13402  0.43916  1.0000
  C   C40       1.0  0.11731  0.16412  0.34116  1.0000
  C   C41       1.0  0.14232  0.19230  0.34019  1.0000
  C   C42       1.0  0.20019  0.22343  0.42281  1.0000
  C   C43       1.0  0.09700  0.10369  0.43781  1.0000
  N   N5        1.0  0.07007  0.10280  0.33946  1.0000
  C   C44       1.0  0.23619  0.26568  0.88057  1.0000
  C   C45       1.0  0.11794  0.35253  0.59768  1.0000
  N   N6        1.0  0.11130  0.38079  0.51400  1.0000
  C   C46       1.0  0.29721  0.23938  0.39707  1.0000
  C   C47       1.0  0.40218  0.35479  0.31051  1.0000
  C   C48       1.0  0.43279  0.40848  0.36726  1.0000
  N   N7        1.0  0.40712  0.38212  0.40635  1.0000
  C   C49       1.0  0.31985  0.20765  0.46020  1.0000
  C   C50       1.0  0.31848  0.17292  0.38771  1.0000
  C   C51       1.0  0.34087  0.14471  0.43877  1.0000
  C   C52       1.0  0.36509  0.15050  0.56549  1.0000
  C   C53       1.0  0.36594  0.18517  0.63957  1.0000
  C   C54       1.0  0.34396  0.21343  0.58674  1.0000
  C   C55       1.0  0.39030  0.12248  0.61958  1.0000
  N   N8        1.0  0.39481  0.09145  0.54768  1.0000
  O   O5        1.0  0.22722  0.21853  0.68224  1.0000
  O   O6        1.0  0.28351  0.22955  0.24415  1.0000
  O   O7        1.0  0.27613  0.25714  0.66106  1.0000
  O   O8        1.0  0.21077  0.22585  0.25824  1.0000
  C   C56       1.0  0.46591  0.40026  0.29431  1.0000
  C   C57       1.0  0.48796  0.42839  0.24336  1.0000
  C   C58       1.0  0.47783  0.46505  0.26395  1.0000
  C   C59       1.0  0.44587  0.47306  0.34520  1.0000
  C   C60       1.0  0.42392  0.44526  0.39853  1.0000
  C   C61       1.0  0.01721  0.48291  0.82368  1.0000
  C   C62       1.0  0.49868  0.49500  0.18715  1.0000
  C   C63       1.0  0.95338  0.99703  0.74879  1.0000
  H   H1        1.0  0.29143  0.74086  0.46306  1.0000
  H   H2        1.0  0.20952  0.74883  0.46839  1.0000
  H   H3        1.0  0.21472  0.74927  0.94970  1.0000
  H   H4        1.0  0.21057  0.78393  0.80611  1.0000
  H   H5        1.0  0.24687  0.78560  0.94722  1.0000
  H   H6        1.0  0.25937  0.83395  0.66292  1.0000
  H   H7        1.0  0.20956  0.87606  0.73857  1.0000
  H   H8        1.0  0.15210  0.84869  0.31093  1.0000
  H   H9        1.0  0.20176  0.80612  0.23616  1.0000
  H   H10       1.0  0.15357  0.90434  0.69236  1.0000
  H   H11       1.0  0.33099  0.78123  0.56786  1.0000
  H   H12       1.0  0.38488  0.82100  0.56971  1.0000
  H   H13       1.0  0.33194  0.89280  0.24691  1.0000
  H   H14       1.0  0.27735  0.85265  0.24433  1.0000
  H   H15       1.0  0.29715  0.70510  0.76862  1.0000
  H   H16       1.0  0.26445  0.69989  0.91814  1.0000
  H   H17       1.0  0.29660  0.73638  0.93246  1.0000
  H   H18       1.0  0.41640  0.87449  0.49049  1.0000
  H   H19       1.0  0.34645  0.58433  0.67405  1.0000
  H   H20       1.0  0.08286  0.61589  0.48795  1.0000
  H   H21       1.0  0.26131  0.71708  0.21837  1.0000
  H   H22       1.0  0.24017  0.76427  0.22780  1.0000
  H   H23       1.0  0.36435  0.52561  0.62304  1.0000
  H   H24       1.0  0.41009  0.48832  0.76363  1.0000
  H   H25       1.0  0.49520  0.55691  0.59900  1.0000
  H   H26       1.0  0.44934  0.59472  0.45987  1.0000
  H   H27       1.0  0.50718  0.02092  0.12601  1.0000
  H   H28       1.0  0.53495  0.98218  0.13892  1.0000
  H   H29       1.0  0.03596  0.00861  0.89382  1.0000
  H   H30       1.0  0.00857  0.96965  0.89290  1.0000
  H   H31       1.0  0.24801  0.19178  0.48484  1.0000
  H   H32       1.0  0.25121  0.27361  0.45596  1.0000
  H   H33       1.0  0.29107  0.19157  0.77817  1.0000
  H   H34       1.0  0.26134  0.19549  0.94124  1.0000
  H   H35       1.0  0.29925  0.22488  0.93030  1.0000
  H   H36       1.0  0.20337  0.16048  0.60819  1.0000
  H   H37       1.0  0.15884  0.11019  0.61059  1.0000
  H   H38       1.0  0.09297  0.16444  0.26771  1.0000
  H   H39       1.0  0.13750  0.21573  0.26641  1.0000
  H   H40       1.0  0.10237  0.08197  0.52234  1.0000
  H   H41       1.0  0.21998  0.25187  0.96822  1.0000
  H   H42       1.0  0.21845  0.28347  0.81186  1.0000
  H   H43       1.0  0.25683  0.28225  0.94232  1.0000
  H   H44       1.0  0.10555  0.34985  0.71341  1.0000
  H   H45       1.0  0.41739  0.35219  0.20083  1.0000
  H   H46       1.0  0.30045  0.16888  0.28719  1.0000
  H   H47       1.0  0.34040  0.11805  0.38039  1.0000
  H   H48       1.0  0.38482  0.19002  0.73697  1.0000
  H   H49       1.0  0.34583  0.24033  0.64206  1.0000
  H   H50       1.0  0.40567  0.12966  0.72728  1.0000
  H   H51       1.0  0.25698  0.23288  0.24155  1.0000
  H   H52       1.0  0.20803  0.20145  0.21285  1.0000
  H   H53       1.0  0.47385  0.37190  0.27588  1.0000
  H   H54       1.0  0.51296  0.42188  0.18231  1.0000
  H   H55       1.0  0.43780  0.50137  0.36454  1.0000
  H   H56       1.0  0.39886  0.45138  0.45941  1.0000
  H   H57       1.0  0.03528  0.49505  0.91422  1.0000
  H   H58       1.0  0.99772  0.46624  0.88644  1.0000
  H   H59       1.0  0.47871  0.51247  0.12846  1.0000
  H   H60       1.0  0.51499  0.48244  0.09332  1.0000
  H   H61       1.0  0.94944  0.96886  0.78291  1.0000
  C   C64       1.0  0.73441  0.25799  0.48938  1.0000
  C   C65       1.0  0.76869  0.23353  0.49312  1.0000
  C   C66       1.0  0.75206  0.24478  0.23029  1.0000
  C   C67       1.0  0.77766  0.26816  0.13627  1.0000
  C   C68       1.0  0.76783  0.31748  0.55531  1.0000
  C   C69       1.0  0.76653  0.33817  0.41892  1.0000
  C   C70       1.0  0.79503  0.36126  0.38355  1.0000
  C   C71       1.0  0.82542  0.36478  0.48419  1.0000
  C   C72       1.0  0.82675  0.34388  0.62043  1.0000
  C   C73       1.0  0.79836  0.32043  0.65502  1.0000
  C   C74       1.0  0.73567  0.29337  0.59331  1.0000
  C   C75       1.0  0.85412  0.38996  0.44140  1.0000
  C   C76       1.0  0.90754  0.42182  0.46709  1.0000
  N   N9        1.0  0.88237  0.39717  0.52775  1.0000
  C   C77       1.0  0.70037  0.31516  0.58548  1.0000
  C   C78       1.0  0.66785  0.30111  0.52290  1.0000
  C   C79       1.0  0.63590  0.32166  0.53074  1.0000
  C   C80       1.0  0.63578  0.35681  0.59959  1.0000
  C   C81       1.0  0.66862  0.37095  0.66127  1.0000
  C   C82       1.0  0.70020  0.35044  0.65450  1.0000
  C   C83       1.0  0.72728  0.22085  0.12752  1.0000
  C   C84       1.0  0.60227  0.37825  0.60936  1.0000
  N   N10       1.0  0.60338  0.41174  0.65915  1.0000
  C   C85       1.0  0.76643  0.19936  0.59944  1.0000
  C   C86       1.0  0.64479  0.10436  0.43895  1.0000
  C   C87       1.0  0.59325  0.07058  0.46806  1.0000
  N   N11       1.0  0.61738  0.09747  0.52631  1.0000
  C   C88       1.0  0.80055  0.17549  0.58788  1.0000
  C   C89       1.0  0.80073  0.14228  0.66825  1.0000
  C   C90       1.0  0.83091  0.11957  0.66682  1.0000
  C   C91       1.0  0.86209  0.12925  0.58363  1.0000
  C   C92       1.0  0.86190  0.16235  0.50371  1.0000
  C   C93       1.0  0.83153  0.18525  0.50608  1.0000
  C   C94       1.0  0.89444  0.10609  0.58223  1.0000
  N   N12       1.0  0.89561  0.07597  0.65800  1.0000
  C   C95       1.0  0.92751  0.05534  0.67250  1.0000
  O   O9        1.0  0.73053  0.26840  0.33014  1.0000
  O   O10       1.0  0.76558  0.21146  0.76070  1.0000
  O   O11       1.0  0.77270  0.22190  0.33338  1.0000
  O   O12       1.0  0.73996  0.28133  0.75548  1.0000
  C   C96       1.0  0.89717  0.45349  0.38712  1.0000
  C   C97       1.0  0.92298  0.47364  0.30828  1.0000
  C   C98       1.0  0.95957  0.46323  0.30863  1.0000
  C   C99       1.0  0.97027  0.43379  0.40125  1.0000
  C   C100      1.0  0.94476  0.41359  0.48119  1.0000
  C   C101      1.0  0.60534  0.03808  0.39472  1.0000
  C   C102      1.0  0.58057  0.01457  0.32057  1.0000
  C   C103      1.0  0.54337  0.02245  0.31821  1.0000
  C   C104      1.0  0.53118  0.05324  0.40276  1.0000
  C   C105      1.0  0.55566  0.07677  0.47859  1.0000
  C   C106      1.0  0.96303  0.06940  0.66372  1.0000
  C   C107      1.0  0.99288  0.04773  0.70145  1.0000
  C   C108      1.0  0.98854  0.01153  0.74866  1.0000
  C   C109      1.0  0.92335  0.01857  0.71288  1.0000
  C   C110      1.0  0.48160  0.50256  0.80982  1.0000
  C   C111      1.0  0.98586  0.48039  0.19776  1.0000
  C   C112      1.0  0.76384  0.71887  0.46729  1.0000
  C   C113      1.0  0.73509  0.74943  0.48652  1.0000
  C   C114      1.0  0.74387  0.73596  0.21677  1.0000
  C   C115      1.0  0.72056  0.70736  0.13154  1.0000
  C   C116      1.0  0.79987  0.72458  0.56246  1.0000
  C   C117      1.0  0.89905  0.60112  0.54920  1.0000
  C   C118      1.0  0.95095  0.57174  0.65212  1.0000
  N   N13       1.0  0.92913  0.60259  0.62833  1.0000
  C   C119      1.0  0.81925  0.75957  0.51959  1.0000
  C   C120      1.0  0.83992  0.75960  0.38304  1.0000
  C   C121      1.0  0.85986  0.79023  0.34506  1.0000
  C   C122      1.0  0.85967  0.82170  0.44231  1.0000
  C   C123      1.0  0.83802  0.82208  0.57653  1.0000
  C   C124      1.0  0.81812  0.79128  0.61484  1.0000
  C   C125      1.0  0.76075  0.76343  0.10817  1.0000
  C   C126      1.0  0.88313  0.85196  0.40103  1.0000
  N   N14       1.0  0.88667  0.88185  0.48262  1.0000
  C   C127      1.0  0.91258  0.90668  0.42929  1.0000
  C   C128      1.0  0.70303  0.74033  0.59713  1.0000
  C   C129      1.0  0.59623  0.85570  0.68499  1.0000
  N   N15       1.0  0.59077  0.88223  0.58993  1.0000
  C   C130      1.0  0.60849  0.62182  0.39056  1.0000
  N   N16       1.0  0.60190  0.59319  0.47134  1.0000
  C   C131      1.0  0.57432  0.56978  0.41483  1.0000
  O   O13       1.0  0.77253  0.71852  0.30491  1.0000
  O   O14       1.0  0.71764  0.73164  0.74833  1.0000
  O   O15       1.0  0.72204  0.75537  0.33060  1.0000
  O   O16       1.0  0.79006  0.72758  0.72876  1.0000
  C   C132      1.0  0.98658  0.57820  0.70711  1.0000
  C   C133      1.0  0.00879  0.54944  0.75342  1.0000
  C   C134      1.0  0.99609  0.51340  0.74762  1.0000
  C   C135      1.0  0.96123  0.50676  0.68501  1.0000
  C   C136      1.0  0.93884  0.53531  0.63862  1.0000
  C   C137      1.0  0.54306  0.58253  0.33625  1.0000
  C   C138      1.0  0.51822  0.55785  0.27119  1.0000
  C   C139      1.0  0.52324  0.52005  0.28309  1.0000
  C   C140      1.0  0.55289  0.50754  0.37192  1.0000
  C   C141      1.0  0.57793  0.53202  0.43800  1.0000
  C   C142      1.0  0.94669  0.89506  0.37497  1.0000
  C   C143      1.0  0.96959  0.91966  0.30350  1.0000
  C   C144      1.0  0.95956  0.95628  0.28530  1.0000
  C   C145      1.0  0.92732  0.96850  0.35460  1.0000
  C   C146      1.0  0.90418  0.94415  0.42690  1.0000
  C   C147      1.0  0.98124  0.97973  0.17705  1.0000
  C   C148      1.0  0.49520  0.99193  0.82937  1.0000
  H   H62       1.0  0.71079  0.24189  0.52461  1.0000
  H   H63       1.0  0.79255  0.24947  0.53219  1.0000
  H   H64       1.0  0.79394  0.25063  0.05851  1.0000
  H   H65       1.0  0.79546  0.28385  0.21621  1.0000
  H   H66       1.0  0.76218  0.28732  0.06419  1.0000
  H   H67       1.0  0.74292  0.33623  0.34176  1.0000
  H   H68       1.0  0.79372  0.37733  0.27780  1.0000
  H   H69       1.0  0.85030  0.34654  0.69793  1.0000
  H   H70       1.0  0.79942  0.30464  0.76136  1.0000
  H   H71       1.0  0.85057  0.40232  0.32566  1.0000
  H   H72       1.0  0.66724  0.27427  0.46657  1.0000
  H   H73       1.0  0.61084  0.31035  0.48169  1.0000
  H   H74       1.0  0.66834  0.39821  0.71412  1.0000
  H   H75       1.0  0.72541  0.36159  0.70255  1.0000
  H   H76       1.0  0.70967  0.20441  0.20043  1.0000
  H   H77       1.0  0.74345  0.20285  0.05133  1.0000
  H   H78       1.0  0.71024  0.23818  0.05323  1.0000
  H   H79       1.0  0.57702  0.36398  0.57595  1.0000
  H   H80       1.0  0.64748  0.09075  0.32358  1.0000
  H   H81       1.0  0.77664  0.13435  0.73125  1.0000
  H   H82       1.0  0.83119  0.09389  0.72851  1.0000
  H   H83       1.0  0.88576  0.17026  0.43891  1.0000
  H   H84       1.0  0.83202  0.21038  0.44106  1.0000
  H   H85       1.0  0.91746  0.11614  0.51466  1.0000
  H   H86       1.0  0.75495  0.23619  0.76639  1.0000
  H   H87       1.0  0.71663  0.28518  0.80502  1.0000
  H   H88       1.0  0.86875  0.46155  0.38415  1.0000
  H   H89       1.0  0.91449  0.49716  0.24084  1.0000
  H   H90       1.0  0.99881  0.42615  0.40787  1.0000
  H   H91       1.0  0.95289  0.38984  0.54752  1.0000
  H   H92       1.0  0.63420  0.03184  0.39408  1.0000
  H   H93       1.0  0.59031  0.99015  0.25948  1.0000
  H   H94       1.0  0.50227  0.05934  0.40607  1.0000
  H   H95       1.0  0.54630  0.10140  0.53881  1.0000
  H   H96       1.0  0.96710  0.09788  0.63514  1.0000
  H   H97       1.0  0.01998  0.05942  0.69995  1.0000
  H   H98       1.0  0.89598  0.00778  0.71979  1.0000
  H   H99       1.0  0.49296  0.52408  0.88731  1.0000
  H   H100      1.0  0.46554  0.48507  0.88573  1.0000
  H   H101      1.0  0.97010  0.49595  0.11143  1.0000
  H   H102      1.0  0.99872  0.45791  0.13182  1.0000
  H   H103      1.0  0.75211  0.69252  0.50037  1.0000
  H   H104      1.0  0.74787  0.77468  0.53251  1.0000
  H   H105      1.0  0.70976  0.68805  0.21519  1.0000
  H   H106      1.0  0.73657  0.69257  0.04333  1.0000
  H   H107      1.0  0.69785  0.72061  0.07054  1.0000
  H   H108      1.0  0.88970  0.57643  0.48520  1.0000
  H   H109      1.0  0.84076  0.73519  0.30887  1.0000
  H   H110      1.0  0.87648  0.78966  0.24066  1.0000
  H   H111      1.0  0.83765  0.84664  0.65034  1.0000
  H   H112      1.0  0.80231  0.79136  0.72131  1.0000
  H   H113      1.0  0.77868  0.74965  0.02419  1.0000
  H   H114      1.0  0.77661  0.78345  0.17711  1.0000
  H   H115      1.0  0.73929  0.77738  0.04188  1.0000
  H   H116      1.0  0.89841  0.84754  0.29236  1.0000
  H   H117      1.0  0.58055  0.85358  0.79313  1.0000
  H   H118      1.0  0.59433  0.62658  0.27852  1.0000
  H   H119      1.0  0.74437  0.73234  0.74650  1.0000
  H   H120      1.0  0.79686  0.70445  0.77499  1.0000
  H   H121      1.0  0.99569  0.60635  0.71779  1.0000
  H   H122      1.0  0.03580  0.55506  0.80106  1.0000
  H   H123      1.0  0.95113  0.47887  0.67721  1.0000
  H   H124      1.0  0.91128  0.52934  0.59923  1.0000
  H   H125      1.0  0.53845  0.61173  0.32641  1.0000
  H   H126      1.0  0.49440  0.56793  0.20874  1.0000
  H   H127      1.0  0.55668  0.47840  0.38833  1.0000
  H   H128      1.0  0.60132  0.52225  0.50399  1.0000
  H   H129      1.0  0.95469  0.86666  0.38729  1.0000
  H   H130      1.0  0.99543  0.91023  0.25724  1.0000
  H   H131      1.0  0.91982  0.99719  0.34848  1.0000
  H   H132      1.0  0.87846  0.95337  0.47445  1.0000
  H   H133      1.0  0.96297  0.98900  0.08281  1.0000
  H   H134      1.0  0.00110  0.96153  0.12050  1.0000
  H   H135      1.0  0.51478  0.00894  0.89529  1.0000
  H   H136      1.0  0.47853  0.97857  0.91745  1.0000
  C  Sn1       1.0  0.41360  0.02348  0.64565  1.0000
  C   C149      1.0  0.41703  0.06137  0.63793  1.0000
  C  Sn2       1.0  0.45061  0.07801  0.66573  1.0000
  C  Sn3       1.0  0.48141  0.05633  0.70191  1.0000
  C   C150      1.0  0.47797  0.01847  0.70959  1.0000
  C  Sn4       1.0  0.44157  0.00181  0.68183  1.0000
  O  Te1       1.0  0.37977  0.00743  0.61742  1.0000
  O  Te2       1.0  0.45337  0.11593  0.65740  1.0000
  O  Te3       1.0  0.51526  0.07241  0.73015  1.0000
  O  Te4       1.0  0.43881  0.96391  0.69012  1.0000
  Mg  Mg1       1.0  0.50529  0.12508  0.70512  1.0000
  Mg  Mg2       1.0  0.38691  0.95472  0.64234  1.0000
  C  Sn5       1.0  0.13932  0.67534  0.46649  1.0000
  C   C151      1.0  0.13332  0.64235  0.38536  1.0000
  C  Sn6       1.0  0.16223  0.62337  0.31764  1.0000
  C  Sn7       1.0  0.19788  0.63764  0.33136  1.0000
  C   C152      1.0  0.20385  0.67060  0.41246  1.0000
  C  Sn8       1.0  0.17496  0.68960  0.48021  1.0000
  O  Te5       1.0  0.11001  0.69385  0.53327  1.0000
  O  Te6       1.0  0.15557  0.59045  0.23707  1.0000
  O  Te7       1.0  0.22718  0.61909  0.26449  1.0000
  O  Te8       1.0  0.18161  0.72250  0.56076  1.0000
  Mg  Mg3       1.0  0.20436  0.57530  0.16643  1.0000
  Mg  Mg4       1.0  0.13285  0.73766  0.63151  1.0000
  C  Sn9       1.0  0.14689  0.26158  0.60025  1.0000
  C   C153      1.0  0.16867  0.25593  0.46937  1.0000
  C  Sn10      1.0  0.18015  0.28548  0.38223  1.0000
  C  Sn11      1.0  0.16966  0.32143  0.42687  1.0000
  C   C154      1.0  0.14789  0.32707  0.55769  1.0000
  C  Sn12      1.0  0.13639  0.29753  0.64489  1.0000
  O  Te9       1.0  0.13573  0.23163  0.68565  1.0000
  O  Te10      1.0  0.20191  0.27915  0.25181  1.0000
  O  Te11      1.0  0.18083  0.35139  0.34133  1.0000
  O  Te12      1.0  0.11465  0.30384  0.77525  1.0000
  Mg  Mg5       1.0  0.21024  0.32881  0.17299  1.0000
  Mg  Mg6       1.0  0.10633  0.25421  0.85419  1.0000
  C  Sn13      1.0  0.44218  0.99325  0.28186  1.0000
  C   C155      1.0  0.47900  0.98593  0.30698  1.0000
  C  Sn14      1.0  0.49087  0.95029  0.33259  1.0000
  C  Sn15      1.0  0.46541  0.92136  0.33300  1.0000
  C   C156      1.0  0.42862  0.92868  0.30787  1.0000
  C  Sn16      1.0  0.41672  0.96432  0.28228  1.0000
  O  Te13      1.0  0.43376  0.02909  0.25650  1.0000
  O  Te14      1.0  0.52781  0.94365  0.35748  1.0000
  O  Te15      1.0  0.47670  0.88550  0.35840  1.0000
  O  Te16      1.0  0.37980  0.97096  0.25737  1.0000
  Mg  Mg7       1.0  0.52986  0.89023  0.38666  1.0000
  Mg  Mg8       1.0  0.38056  0.02437  0.22810  1.0000
  C  Sn17      1.0  0.87459  0.66876  0.67345  1.0000
  C   C157      1.0  0.87118  0.63534  0.59291  1.0000
  C  Sn18      1.0  0.84581  0.63113  0.47096  1.0000
  C  Sn19      1.0  0.82339  0.66095  0.42857  1.0000
  C   C158      1.0  0.82681  0.69434  0.50907  1.0000
  C  Sn20      1.0  0.85217  0.69858  0.63106  1.0000
  O  Te17      1.0  0.90014  0.67235  0.79497  1.0000
  O  Te18      1.0  0.84289  0.59745  0.39219  1.0000
  O  Te19      1.0  0.79783  0.65733  0.30694  1.0000
  O  Te20      1.0  0.85510  0.73223  0.70978  1.0000
  Mg  Mg9       1.0  0.80405  0.60605  0.23477  1.0000
  Mg  Mg10      1.0  0.89394  0.72366  0.86716  1.0000
  C  Sn21      1.0  0.29809  0.65524  0.31438  1.0000
  C   C159      1.0  0.26663  0.66359  0.39730  1.0000
  C  Sn22      1.0  0.26349  0.65358  0.55339  1.0000
  C  Sn23      1.0  0.29241  0.63485  0.62820  1.0000
  C   C160      1.0  0.32385  0.62652  0.54531  1.0000
  C  Sn24      1.0  0.32701  0.63651  0.38919  1.0000
  O  Te21      1.0  0.30063  0.66552  0.15843  1.0000
  O  Te22      1.0  0.23177  0.66221  0.63386  1.0000
  O  Te23      1.0  0.28984  0.62457  0.78427  1.0000
  O  Te24      1.0  0.35871  0.62789  0.30875  1.0000
  Mg  Mg11      1.0  0.24119  0.64246  0.84454  1.0000
  Mg  Mg12      1.0  0.34932  0.64765  0.09809  1.0000
  C  Sn25      1.0  0.00260  0.07434  0.26785  1.0000
  C   C161      1.0  0.03609  0.07384  0.34641  1.0000
  C  Sn26      1.0  0.05499  0.04106  0.36416  1.0000
  C  Sn27      1.0  0.04011  0.00809  0.30203  1.0000
  C   C162      1.0  0.00664  0.00860  0.22351  1.0000
  C  Sn28      1.0  0.98772  0.04137  0.20572  1.0000
  O  Te25      1.0  0.98418  0.10742  0.25147  1.0000
  O  Te26      1.0  0.08842  0.04124  0.44320  1.0000
  O  Te27      1.0  0.05573  0.97500  0.31848  1.0000
  O  Te28      1.0  0.95431  0.04119  0.12672  1.0000
  Mg  Mg13      1.0  0.10036  0.98927  0.43542  1.0000
  Mg  Mg14      1.0  0.93952  0.09316  0.13435  1.0000
  C  Sn29      1.0  0.72352  0.15695  0.37768  1.0000
  C   C163      1.0  0.72844  0.17913  0.51128  1.0000
  C  Sn30      1.0  0.70651  0.17479  0.64154  1.0000
  C  Sn31      1.0  0.67909  0.14771  0.63826  1.0000
  C   C164      1.0  0.67418  0.12554  0.50475  1.0000
  C  Sn32      1.0  0.69610  0.12986  0.37441  1.0000
  O  Te29      1.0  0.74576  0.16176  0.24881  1.0000
  O  Te30      1.0  0.71193  0.19730  0.77374  1.0000
  O  Te31      1.0  0.65684  0.14291  0.76729  1.0000
  O  Te32      1.0  0.69069  0.10737  0.24228  1.0000
  Mg  Mg15      1.0  0.67476  0.18022  0.92010  1.0000
  Mg  Mg16      1.0  0.72786  0.12441  0.09589  1.0000
  C  Sn33      1.0  0.53129  0.43487  0.58099  1.0000
  C   C165      1.0  0.56749  0.43806  0.63003  1.0000
  C  Sn34      1.0  0.57702  0.46154  0.75466  1.0000
  C  Sn35      1.0  0.54982  0.48224  0.83197  1.0000
  C   C166      1.0  0.51366  0.47904  0.78294  1.0000
  C  Sn36      1.0  0.50409  0.45557  0.65830  1.0000
  O  Te33      1.0  0.52238  0.41123  0.45614  1.0000
  O  Te34      1.0  0.61339  0.46428  0.80155  1.0000
  O  Te35      1.0  0.55877  0.50590  0.95691  1.0000
  O  Te36      1.0  0.46775  0.45282  0.61143  1.0000
  Mg  Mg17      1.0  0.61200  0.50020  0.97768  1.0000
  Mg  Mg18      1.0  0.46910  0.41690  0.43537  1.0000
  C  Sn37      1.0  0.05080  0.92683  0.51285  1.0000
  C   C167      1.0  0.08854  0.93022  0.51232  1.0000
  C  Sn38      1.0  0.10617  0.95305  0.62176  1.0000
  C  Sn39      1.0  0.08566  0.97290  0.73415  1.0000
  C   C168      1.0  0.04795  0.96951  0.73466  1.0000
  C  Sn40      1.0  0.03029  0.94668  0.62524  1.0000
  O  Te37      1.0  0.03374  0.90384  0.40235  1.0000
  O  Te38      1.0  0.14393  0.95601  0.61888  1.0000
  O  Te39      1.0  0.10276  0.99591  0.84469  1.0000
  O  Te40      1.0  0.99256  0.94372  0.62810  1.0000
  Mg  Mg19      1.0  0.15474  0.99081  0.79351  1.0000
  Mg  Mg20      1.0  0.98172  0.90891  0.45358  1.0000
  C  Sn41      1.0  0.35156  0.31912  0.50166  1.0000
  C   C169      1.0  0.37698  0.32144  0.38248  1.0000
  C  Sn42      1.0  0.37346  0.29973  0.24683  1.0000
  C  Sn43      1.0  0.34391  0.27521  0.22988  1.0000
  C   C170      1.0  0.31852  0.27290  0.34900  1.0000
  C  Sn44      1.0  0.32201  0.29459  0.48472  1.0000
  O  Te41      1.0  0.35561  0.34108  0.63626  1.0000
  O  Te42      1.0  0.39922  0.30252  0.12930  1.0000
  O  Te43      1.0  0.33988  0.25323  0.09514  1.0000
  O  Te44      1.0  0.29627  0.29181  0.60217  1.0000
  Mg  Mg21      1.0  0.38520  0.27171  0.96775  1.0000
  Mg  Mg22      1.0  0.31349  0.32743  0.76373  1.0000
  C  Sn45      1.0  0.51896  0.90252  0.67411  1.0000
  C   C171      1.0  0.55216  0.90671  0.59969  1.0000
  C  Sn46      1.0  0.57014  0.94021  0.60668  1.0000
  C  Sn47      1.0  0.55462  0.97015  0.68986  1.0000
  C   C172      1.0  0.52145  0.96595  0.76423  1.0000
  C  Sn48      1.0  0.50345  0.93245  0.75729  1.0000
  O  Te45      1.0  0.50147  0.86877  0.66559  1.0000
  O  Te46      1.0  0.60329  0.94375  0.53130  1.0000
  O  Te47      1.0  0.57497  0.00391  0.69831  1.0000
  O  Te48      1.0  0.47032  0.92891  0.83262  1.0000
  Mg  Mg23      1.0  0.61673  0.99519  0.57659  1.0000
  Mg  Mg24      1.0  0.45686  0.87748  0.78748  1.0000
  C  Sn49      1.0  0.63977  0.77060  0.73351  1.0000
  C   C173      1.0  0.66595  0.76796  0.61710  1.0000
  C  Sn50      1.0  0.67403  0.79813  0.52670  1.0000
  C  Sn51      1.0  0.65556  0.83164  0.55326  1.0000
  C   C174      1.0  0.62940  0.83427  0.66963  1.0000
  C  Sn52      1.0  0.62130  0.80411  0.76007  1.0000
  O  Te49      1.0  0.63214  0.74009  0.82248  1.0000
  O  Te50      1.0  0.70030  0.79483  0.41096  1.0000
  O  Te51      1.0  0.66322  0.86216  0.46417  1.0000
  O  Te52      1.0  0.59505  0.80740  0.87577  1.0000
  Mg  Mg25      1.0  0.70119  0.84410  0.32035  1.0000
  Mg  Mg26      1.0  0.59416  0.75816  0.96650  1.0000
  C  Sn53      1.0  0.64517  0.68750  0.33248  1.0000
  C   C175      1.0  0.64247  0.65290  0.39702  1.0000
  C  Sn54      1.0  0.65676  0.64632  0.54611  1.0000
  C  Sn55      1.0  0.67408  0.67494  0.63257  1.0000
  C   C176      1.0  0.67677  0.70951  0.56805  1.0000
  C  Sn56      1.0  0.66249  0.71611  0.41894  1.0000
  O  Te53      1.0  0.63069  0.69345  0.18324  1.0000
  O  Te54      1.0  0.65374  0.61150  0.60815  1.0000
  O  Te55      1.0  0.68856  0.66895  0.78192  1.0000
  O  Te56      1.0  0.66550  0.75091  0.35692  1.0000
  Mg  Mg27      1.0  0.67771  0.61688  0.81613  1.0000
  Mg  Mg28      1.0  0.64152  0.74556  0.14899  1.0000
  C  Sn57      1.0  0.09544  0.44979  0.62158  1.0000
  C   C177      1.0  0.09114  0.41197  0.60837  1.0000
  C  Sn58      1.0  0.05766  0.39600  0.63837  1.0000
  C  Sn59      1.0  0.02785  0.41830  0.68240  1.0000
  C   C178      1.0  0.03215  0.45609  0.69556  1.0000
  C  Sn60      1.0  0.06563  0.47208  0.66561  1.0000
  O  Te57      1.0  0.12916  0.46516  0.59102  1.0000
  O  Te58      1.0  0.05403  0.35813  0.62444  1.0000
  O  Te59      1.0  0.99411  0.40289  0.71296  1.0000
  O  Te60      1.0  0.06926  0.50993  0.67949  1.0000
  Mg  Mg29      1.0  0.00266  0.35002  0.67818  1.0000
  Mg  Mg30      1.0  0.12061  0.51807  0.62570  1.0000
  C  Sn61      1.0  0.03011  0.55876  0.38576  1.0000
  C   C179      1.0  0.06733  0.55254  0.37101  1.0000
  C  Sn62      1.0  0.07995  0.52190  0.28825  1.0000
  C  Sn63      1.0  0.05485  0.49696  0.21869  1.0000
  C   C180      1.0  0.01766  0.50319  0.23344  1.0000
  C  Sn64      1.0  0.00501  0.53383  0.31621  1.0000
  O  Te61      1.0  0.01810  0.58958  0.46902  1.0000
  O  Te62      1.0  0.11728  0.51625  0.27513  1.0000
  O  Te63      1.0  0.06689  0.46613  0.13539  1.0000
  O  Te64      1.0  0.96770  0.53949  0.32931  1.0000
  Mg  Mg31      1.0  0.12035  0.47030  0.14997  1.0000
  Mg  Mg32      1.0  0.96461  0.58543  0.45437  1.0000
