data_image0
_chemical_formula_structural       C6NC2NC2NCNO4C8NC2NC2NCNO4C2H36C6NC2NC2NCNO4C8NC2NC2NCNO4C2H36SnCSn2CSnTe4Mg2SnCSn2CSnTe4Mg2SnCSn2CSnTe4Mg2SnCSn2CSnTe4Mg2SnCSn2CSnTe4Mg2SnCSn2CSnTe4Mg2SnCSn2CSnTe4Mg2SnCSn2CSnTe4Mg2SnCSn2CSnTe4Mg2SnCSn2CSnTe4Mg2SnCSn2CSnTe4Mg2SnCSn2CSnTe4Mg2SnCSn2CSnTe4Mg2SnCSn2CSnTe4Mg2SnCSn2CSnTe4Mg2SnCSn2CSnTe4Mg2SnCSn2CSnTe4Mg2SnCSn2CSnTe4Mg2SnCSn2CSnTe4Mg2SnCSn2CSnTe4Mg2SnCSn2CSnTe4Mg2SnCSn2CSnTe4Mg2SnCSn2CSnTe4Mg2SnCSn2CSnTe4Mg2SnCSn2CSnTe4Mg2SnCSn2CSnTe4Mg2SnCSn2CSnTe4Mg2SnCSn2CSnTe4Mg2SnCSn2CSnTe4Mg2SnCSn2CSnTe4Mg2SnCSn2CSnTe4Mg2SnCSn2CSnTe4Mg2
_chemical_formula_sum              "C116 N16 O16 H72 Sn128 Te128 Mg64"
_cell_length_a       36.8719
_cell_length_b       36.6495
_cell_length_c       8.5437
_cell_angle_alpha    91.1851
_cell_angle_beta     90.8035
_cell_angle_gamma    89.8369

_symmetry_space_group_name_H-M    'P1'
_space_group_IT_number       1

loop_
  _space_group_symop_operation_xyz
  'x, y, z'

loop_
  _atom_site_type_symbol
  _atom_site_label
  _atom_site_symmetry_multiplicity
  _atom_site_fract_x
  _atom_site_fract_y
  _atom_site_fract_z
  _atom_site_occupancy
  C   C1        1.0  0.26784  0.75698  0.50267  1.0000
  C   C2        1.0  0.23350  0.73267  0.50349  1.0000
  C   C3        1.0  0.25328  0.74452  0.76394  1.0000
  C   C4        1.0  0.22982  0.76749  0.87374  1.0000
  C   C5        1.0  0.26543  0.79157  0.39901  1.0000
  C   C6        1.0  0.14936  0.89126  0.57635  1.0000
  N   N1        1.0  0.12089  0.89844  0.49228  1.0000
  C   C7        1.0  0.27972  0.71986  0.85145  1.0000
  C   C8        1.0  0.39382  0.88344  0.41472  1.0000
  N   N2        1.0  0.39486  0.91285  0.33421  1.0000
  C   C9        1.0  0.23411  0.69764  0.39534  1.0000
  C   C10       1.0  0.35033  0.59682  0.55942  1.0000
  N   N3        1.0  0.37876  0.58951  0.47750  1.0000
  C   C11       1.0  0.10499  0.60699  0.41060  1.0000
  N   N4        1.0  0.10410  0.57684  0.33006  1.0000
  O   O1        1.0  0.27267  0.76830  0.66286  1.0000
  O   O2        1.0  0.23632  0.70955  0.23508  1.0000
  O   O3        1.0  0.23045  0.72216  0.66280  1.0000
  O   O4        1.0  0.26193  0.77947  0.23781  1.0000
  C   C12       1.0  0.51826  0.00113  0.20896  1.0000
  C   C13       1.0  0.02004  0.99022  0.81642  1.0000
  C   C14       1.0  0.23601  0.21824  0.52007  1.0000
  C   C15       1.0  0.26430  0.24910  0.50404  1.0000
  C   C16       1.0  0.25463  0.23788  0.77277  1.0000
  C   C17       1.0  0.27821  0.21071  0.86053  1.0000
  C   C18       1.0  0.20019  0.22343  0.42281  1.0000
  C   C19       1.0  0.09700  0.10369  0.43781  1.0000
  N   N5        1.0  0.07007  0.10280  0.33946  1.0000
  C   C20       1.0  0.23619  0.26568  0.88057  1.0000
  C   C21       1.0  0.11794  0.35253  0.59768  1.0000
  N   N6        1.0  0.11130  0.38079  0.51400  1.0000
  C   C22       1.0  0.29721  0.23938  0.39707  1.0000
  C   C23       1.0  0.40218  0.35479  0.31051  1.0000
  N   N7        1.0  0.40712  0.38212  0.40635  1.0000
  C   C24       1.0  0.39030  0.12248  0.61958  1.0000
  N   N8        1.0  0.39481  0.09145  0.54768  1.0000
  O   O5        1.0  0.22722  0.21853  0.68224  1.0000
  O   O6        1.0  0.28351  0.22955  0.24415  1.0000
  O   O7        1.0  0.27613  0.25714  0.66106  1.0000
  O   O8        1.0  0.21077  0.22585  0.25824  1.0000
  C   C25       1.0  0.01721  0.48291  0.82368  1.0000
  C   C26       1.0  0.49868  0.49500  0.18715  1.0000
  H   H1        1.0  0.29143  0.74086  0.46306  1.0000
  H   H2        1.0  0.20952  0.74883  0.46839  1.0000
  H   H3        1.0  0.21472  0.74927  0.94970  1.0000
  H   H4        1.0  0.21057  0.78393  0.80611  1.0000
  H   H5        1.0  0.24687  0.78560  0.94722  1.0000
  H   H6        1.0  0.15357  0.90434  0.69236  1.0000
  H   H7        1.0  0.29715  0.70510  0.76862  1.0000
  H   H8        1.0  0.26445  0.69989  0.91814  1.0000
  H   H9        1.0  0.29660  0.73638  0.93246  1.0000
  H   H10       1.0  0.41640  0.87449  0.49049  1.0000
  H   H11       1.0  0.34645  0.58433  0.67405  1.0000
  H   H12       1.0  0.08286  0.61589  0.48795  1.0000
  H   H13       1.0  0.26131  0.71708  0.21837  1.0000
  H   H14       1.0  0.24017  0.76427  0.22780  1.0000
  H   H15       1.0  0.50718  0.02092  0.12601  1.0000
  H   H16       1.0  0.53495  0.98218  0.13892  1.0000
  H   H17       1.0  0.03596  0.00861  0.89382  1.0000
  H   H18       1.0  0.00857  0.96965  0.89290  1.0000
  H   H19       1.0  0.24801  0.19178  0.48484  1.0000
  H   H20       1.0  0.25121  0.27361  0.45596  1.0000
  H   H21       1.0  0.29107  0.19157  0.77817  1.0000
  H   H22       1.0  0.26134  0.19549  0.94124  1.0000
  H   H23       1.0  0.29925  0.22488  0.93030  1.0000
  H   H24       1.0  0.10237  0.08197  0.52234  1.0000
  H   H25       1.0  0.21998  0.25187  0.96822  1.0000
  H   H26       1.0  0.21845  0.28347  0.81186  1.0000
  H   H27       1.0  0.25683  0.28225  0.94232  1.0000
  H   H28       1.0  0.10555  0.34985  0.71341  1.0000
  H   H29       1.0  0.41739  0.35219  0.20083  1.0000
  H   H30       1.0  0.40567  0.12966  0.72728  1.0000
  H   H31       1.0  0.25698  0.23288  0.24155  1.0000
  H   H32       1.0  0.20803  0.20145  0.21285  1.0000
  H   H33       1.0  0.03528  0.49505  0.91422  1.0000
  H   H34       1.0  0.99772  0.46624  0.88644  1.0000
  H   H35       1.0  0.47871  0.51247  0.12846  1.0000
  H   H36       1.0  0.51499  0.48244  0.09332  1.0000
  C   C27       1.0  0.73441  0.25799  0.48938  1.0000
  C   C28       1.0  0.76869  0.23353  0.49312  1.0000
  C   C29       1.0  0.75206  0.24478  0.23029  1.0000
  C   C30       1.0  0.77766  0.26816  0.13627  1.0000
  C   C31       1.0  0.73567  0.29337  0.59331  1.0000
  C   C32       1.0  0.85412  0.38996  0.44140  1.0000
  N   N9        1.0  0.88237  0.39717  0.52775  1.0000
  C   C33       1.0  0.72728  0.22085  0.12752  1.0000
  C   C34       1.0  0.60227  0.37825  0.60936  1.0000
  N   N10       1.0  0.60338  0.41174  0.65915  1.0000
  C   C35       1.0  0.76643  0.19936  0.59944  1.0000
  C   C36       1.0  0.64479  0.10436  0.43895  1.0000
  N   N11       1.0  0.61738  0.09747  0.52631  1.0000
  C   C37       1.0  0.89444  0.10609  0.58223  1.0000
  N   N12       1.0  0.89561  0.07597  0.65800  1.0000
  O   O9        1.0  0.73053  0.26840  0.33014  1.0000
  O   O10       1.0  0.76558  0.21146  0.76070  1.0000
  O   O11       1.0  0.77270  0.22190  0.33338  1.0000
  O   O12       1.0  0.73996  0.28133  0.75548  1.0000
  C   C38       1.0  0.48160  0.50256  0.80982  1.0000
  C   C39       1.0  0.98586  0.48039  0.19776  1.0000
  C   C40       1.0  0.76384  0.71887  0.46729  1.0000
  C   C41       1.0  0.73509  0.74943  0.48652  1.0000
  C   C42       1.0  0.74387  0.73596  0.21677  1.0000
  C   C43       1.0  0.72056  0.70736  0.13154  1.0000
  C   C44       1.0  0.79987  0.72458  0.56246  1.0000
  C   C45       1.0  0.89905  0.60112  0.54920  1.0000
  N   N13       1.0  0.92913  0.60259  0.62833  1.0000
  C   C46       1.0  0.76075  0.76343  0.10817  1.0000
  C   C47       1.0  0.88313  0.85196  0.40103  1.0000
  N   N14       1.0  0.88667  0.88185  0.48262  1.0000
  C   C48       1.0  0.70303  0.74033  0.59713  1.0000
  C   C49       1.0  0.59623  0.85570  0.68499  1.0000
  N   N15       1.0  0.59077  0.88223  0.58993  1.0000
  C   C50       1.0  0.60849  0.62182  0.39056  1.0000
  N   N16       1.0  0.60190  0.59319  0.47134  1.0000
  O   O13       1.0  0.77253  0.71852  0.30491  1.0000
  O   O14       1.0  0.71764  0.73164  0.74833  1.0000
  O   O15       1.0  0.72204  0.75537  0.33060  1.0000
  O   O16       1.0  0.79006  0.72758  0.72876  1.0000
  C   C51       1.0  0.98124  0.97973  0.17705  1.0000
  C   C52       1.0  0.49520  0.99193  0.82937  1.0000
  H   H37       1.0  0.71079  0.24189  0.52461  1.0000
  H   H38       1.0  0.79255  0.24947  0.53219  1.0000
  H   H39       1.0  0.79394  0.25063  0.05851  1.0000
  H   H40       1.0  0.79546  0.28385  0.21621  1.0000
  H   H41       1.0  0.76218  0.28732  0.06419  1.0000
  H   H42       1.0  0.85057  0.40232  0.32566  1.0000
  H   H43       1.0  0.70967  0.20441  0.20043  1.0000
  H   H44       1.0  0.74345  0.20285  0.05133  1.0000
  H   H45       1.0  0.71024  0.23818  0.05323  1.0000
  H   H46       1.0  0.57702  0.36398  0.57595  1.0000
  H   H47       1.0  0.64748  0.09075  0.32358  1.0000
  H   H48       1.0  0.91746  0.11614  0.51466  1.0000
  H   H49       1.0  0.75495  0.23619  0.76639  1.0000
  H   H50       1.0  0.71663  0.28518  0.80502  1.0000
  H   H51       1.0  0.49296  0.52408  0.88731  1.0000
  H   H52       1.0  0.46554  0.48507  0.88573  1.0000
  H   H53       1.0  0.97010  0.49595  0.11143  1.0000
  H   H54       1.0  0.99872  0.45791  0.13182  1.0000
  H   H55       1.0  0.75211  0.69252  0.50037  1.0000
  H   H56       1.0  0.74787  0.77468  0.53251  1.0000
  H   H57       1.0  0.70976  0.68805  0.21519  1.0000
  H   H58       1.0  0.73657  0.69257  0.04333  1.0000
  H   H59       1.0  0.69785  0.72061  0.07054  1.0000
  H   H60       1.0  0.88970  0.57643  0.48520  1.0000
  H   H61       1.0  0.77868  0.74965  0.02419  1.0000
  H   H62       1.0  0.77661  0.78345  0.17711  1.0000
  H   H63       1.0  0.73929  0.77738  0.04188  1.0000
  H   H64       1.0  0.89841  0.84754  0.29236  1.0000
  H   H65       1.0  0.58055  0.85358  0.79313  1.0000
  H   H66       1.0  0.59433  0.62658  0.27852  1.0000
  H   H67       1.0  0.74437  0.73234  0.74650  1.0000
  H   H68       1.0  0.79686  0.70445  0.77499  1.0000
  H   H69       1.0  0.96297  0.98900  0.08281  1.0000
  H   H70       1.0  0.00110  0.96153  0.12050  1.0000
  H   H71       1.0  0.51478  0.00894  0.89529  1.0000
  H   H72       1.0  0.47853  0.97857  0.91745  1.0000
  C  Sn1       1.0  0.20123  0.83354  0.32521  1.0000
  C   C53       1.0  0.23266  0.82503  0.41036  1.0000
  C  Sn2       1.0  0.23552  0.83424  0.56951  1.0000
  C  Sn3       1.0  0.20634  0.85232  0.64518  1.0000
  C   C54       1.0  0.17494  0.86081  0.56006  1.0000
  C  Sn4       1.0  0.17206  0.85161  0.40088  1.0000
  O  Te1       1.0  0.19897  0.82406  0.16621  1.0000
  O  Te2       1.0  0.26722  0.82547  0.65216  1.0000
  O  Te3       1.0  0.20863  0.86179  0.80430  1.0000
  O  Te4       1.0  0.14038  0.86037  0.31825  1.0000
  Mg  Mg1       1.0  0.25736  0.84402  0.86671  1.0000
  Mg  Mg2       1.0  0.15019  0.84182  0.10373  1.0000
  C  Sn5       1.0  0.36021  0.81574  0.46835  1.0000
  C   C55       1.0  0.36509  0.84840  0.38984  1.0000
  C  Sn6       1.0  0.33534  0.86680  0.32576  1.0000
  C  Sn7       1.0  0.29998  0.85226  0.34055  1.0000
  C   C56       1.0  0.29511  0.81962  0.41903  1.0000
  C  Sn8       1.0  0.32484  0.80120  0.48313  1.0000
  O  Te5       1.0  0.39033  0.79781  0.53149  1.0000
  O  Te6       1.0  0.34090  0.89940  0.24775  1.0000
  O  Te7       1.0  0.26985  0.87022  0.27731  1.0000
  O  Te8       1.0  0.31929  0.76862  0.56112  1.0000
  Mg  Mg3       1.0  0.29129  0.91376  0.18174  1.0000
  Mg  Mg4       1.0  0.36889  0.75425  0.62725  1.0000
  C  Sn9       1.0  0.32441  0.65716  0.38447  1.0000
  C   C57       1.0  0.32632  0.63378  0.51147  1.0000
  C  Sn10      1.0  0.29536  0.62643  0.59763  1.0000
  C  Sn11      1.0  0.26178  0.64279  0.55594  1.0000
  C   C58       1.0  0.25988  0.66616  0.42900  1.0000
  C  Sn12      1.0  0.29083  0.67352  0.34278  1.0000
  O  Te9       1.0  0.35571  0.66412  0.29998  1.0000
  O  Te10      1.0  0.29795  0.60297  0.72415  1.0000
  O  Te11      1.0  0.23047  0.63582  0.64056  1.0000
  O  Te12      1.0  0.28825  0.69697  0.21632  1.0000
  Mg  Mg5       1.0  0.24775  0.60196  0.80318  1.0000
  Mg  Mg6       1.0  0.33843  0.69798  0.13716  1.0000
  C  Sn13      1.0  0.17830  0.61916  0.33541  1.0000
  C   C59       1.0  0.14635  0.62472  0.41876  1.0000
  C  Sn14      1.0  0.13851  0.65893  0.48524  1.0000
  C  Sn15      1.0  0.16311  0.68820  0.46797  1.0000
  C   C60       1.0  0.19504  0.68264  0.38463  1.0000
  C  Sn16      1.0  0.20290  0.64844  0.31813  1.0000
  O  Te13      1.0  0.18558  0.58473  0.26993  1.0000
  O  Te14      1.0  0.10640  0.66382  0.56810  1.0000
  O  Te15      1.0  0.15580  0.72265  0.53354  1.0000
  O  Te16      1.0  0.23499  0.64354  0.23529  1.0000
  Mg  Mg7       1.0  0.10853  0.71577  0.63573  1.0000
  Mg  Mg8       1.0  0.23287  0.59161  0.16755  1.0000
  C  Sn17      1.0  0.10570  0.95646  0.69316  1.0000
  C   C61       1.0  0.09899  0.92558  0.59863  1.0000
  C  Sn18      1.0  0.06397  0.91815  0.54244  1.0000
  C  Sn19      1.0  0.03505  0.94210  0.58147  1.0000
  C   C62       1.0  0.04176  0.97297  0.67592  1.0000
  C  Sn20      1.0  0.07677  0.98042  0.73218  1.0000
  O  Te17      1.0  0.14092  0.96336  0.74801  1.0000
  O  Te18      1.0  0.05793  0.88709  0.44817  1.0000
  O  Te19      1.0  0.99980  0.93518  0.52653  1.0000
  O  Te20      1.0  0.08565  0.01145  0.82638  1.0000
  Mg  Mg9       1.0  0.00522  0.88941  0.40188  1.0000
  Mg  Mg10      1.0  0.13835  0.00917  0.87266  1.0000
  C  Sn21      1.0  0.44929  0.56191  0.50090  1.0000
  C   C63       1.0  0.41159  0.55803  0.49832  1.0000
  C  Sn22      1.0  0.39461  0.53613  0.60719  1.0000
  C  Sn23      1.0  0.41575  0.51774  0.72109  1.0000
  C   C64       1.0  0.45343  0.52163  0.72366  1.0000
  C  Sn24      1.0  0.47043  0.54352  0.61480  1.0000
  O  Te21      1.0  0.46568  0.58394  0.39094  1.0000
  O  Te22      1.0  0.35688  0.53265  0.60225  1.0000
  O  Te23      1.0  0.39932  0.49569  0.83109  1.0000
  O  Te24      1.0  0.50813  0.54700  0.61972  1.0000
  Mg  Mg11      1.0  0.34711  0.49957  0.77692  1.0000
  Mg  Mg12      1.0  0.51794  0.58009  0.44517  1.0000
  C  Sn25      1.0  0.01315  0.55071  0.27650  1.0000
  C   C65       1.0  0.01530  0.51382  0.23286  1.0000
  C  Sn26      1.0  0.04800  0.49481  0.24838  1.0000
  C  Sn27      1.0  0.07921  0.51305  0.30887  1.0000
  C   C66       1.0  0.07705  0.54992  0.35250  1.0000
  C  Sn28      1.0  0.04436  0.56895  0.33699  1.0000
  O  Te25      1.0  0.98018  0.56917  0.25997  1.0000
  O  Te26      1.0  0.04948  0.45794  0.20392  1.0000
  O  Te27      1.0  0.11219  0.49456  0.32537  1.0000
  O  Te28      1.0  0.04287  0.60580  0.38144  1.0000
  Mg  Mg13      1.0  0.10058  0.44455  0.24872  1.0000
  Mg  Mg14      1.0  0.99178  0.61921  0.33676  1.0000
  C  Sn29      1.0  0.42683  0.97141  0.21081  1.0000
  C   C67       1.0  0.42685  0.93711  0.27928  1.0000
  C  Sn30      1.0  0.45738  0.92482  0.36144  1.0000
  C  Sn31      1.0  0.48856  0.94730  0.37554  1.0000
  C   C68       1.0  0.48853  0.98158  0.30713  1.0000
  C  Sn32      1.0  0.45801  0.99389  0.22492  1.0000
  O  Te29      1.0  0.39600  0.98314  0.12922  1.0000
  O  Te30      1.0  0.45676  0.89042  0.42883  1.0000
  O  Te31      1.0  0.51940  0.93554  0.45721  1.0000
  O  Te32      1.0  0.46145  0.02827  0.15757  1.0000
  Mg  Mg15      1.0  0.50539  0.88657  0.52843  1.0000
  Mg  Mg16      1.0  0.41283  0.03215  0.05802  1.0000
  C  Sn33      1.0  0.12656  0.16627  0.29842  1.0000
  C   C69       1.0  0.12758  0.13500  0.38923  1.0000
  C  Sn34      1.0  0.15080  0.13315  0.51944  1.0000
  C  Sn35      1.0  0.17346  0.16321  0.55981  1.0000
  C   C70       1.0  0.17242  0.19447  0.46905  1.0000
  C  Sn36      1.0  0.14921  0.19633  0.33879  1.0000
  O  Te33      1.0  0.10313  0.16752  0.16876  1.0000
  O  Te34      1.0  0.15135  0.10159  0.60840  1.0000
  O  Te35      1.0  0.19689  0.16194  0.68959  1.0000
  O  Te36      1.0  0.14865  0.22787  0.24988  1.0000
  Mg  Mg17      1.0  0.18785  0.11299  0.77429  1.0000
  Mg  Mg18      1.0  0.11215  0.21651  0.08402  1.0000
  C  Sn37      1.0  0.14689  0.26158  0.60025  1.0000
  C   C71       1.0  0.16867  0.25593  0.46937  1.0000
  C  Sn38      1.0  0.18015  0.28548  0.38223  1.0000
  C  Sn39      1.0  0.16966  0.32143  0.42687  1.0000
  C   C72       1.0  0.14789  0.32707  0.55769  1.0000
  C  Sn40      1.0  0.13639  0.29753  0.64489  1.0000
  O  Te37      1.0  0.13573  0.23163  0.68565  1.0000
  O  Te38      1.0  0.20191  0.27915  0.25181  1.0000
  O  Te39      1.0  0.18083  0.35139  0.34133  1.0000
  O  Te40      1.0  0.11465  0.30384  0.77525  1.0000
  Mg  Mg19      1.0  0.21024  0.32881  0.17299  1.0000
  Mg  Mg20      1.0  0.10633  0.25421  0.85419  1.0000
  C  Sn41      1.0  0.36120  0.29493  0.19945  1.0000
  C   C73       1.0  0.36768  0.32613  0.29233  1.0000
  C  Sn42      1.0  0.35341  0.32915  0.44265  1.0000
  C  Sn43      1.0  0.33223  0.30037  0.50141  1.0000
  C   C74       1.0  0.32576  0.26920  0.40856  1.0000
  C  Sn44      1.0  0.34002  0.26616  0.25821  1.0000
  O  Te41      1.0  0.37574  0.29250  0.04952  1.0000
  O  Te42      1.0  0.36025  0.36061  0.53330  1.0000
  O  Te43      1.0  0.31769  0.30283  0.65146  1.0000
  O  Te44      1.0  0.33319  0.23472  0.16759  1.0000
  Mg  Mg21      1.0  0.33457  0.35112  0.73024  1.0000
  Mg  Mg22      1.0  0.36211  0.24898  0.97068  1.0000
  C  Sn45      1.0  0.35751  0.21208  0.57655  1.0000
  C   C75       1.0  0.33183  0.21092  0.45471  1.0000
  C  Sn46      1.0  0.31947  0.17747  0.39384  1.0000
  C  Sn47      1.0  0.33306  0.14448  0.45609  1.0000
  C   C76       1.0  0.35872  0.14564  0.57787  1.0000
  C  Sn48      1.0  0.37110  0.17908  0.63881  1.0000
  O  Te45      1.0  0.36948  0.24583  0.63561  1.0000
  O  Te46      1.0  0.29379  0.17701  0.27199  1.0000
  O  Te47      1.0  0.32107  0.11071  0.39692  1.0000
  O  Te48      1.0  0.39676  0.17955  0.76059  1.0000
  Mg  Mg23      1.0  0.28586  0.12425  0.23089  1.0000
  Mg  Mg24      1.0  0.40469  0.23229  0.80183  1.0000
  C  Sn49      1.0  0.00260  0.07434  0.26785  1.0000
  C   C77       1.0  0.03609  0.07384  0.34641  1.0000
  C  Sn50      1.0  0.05499  0.04106  0.36416  1.0000
  C  Sn51      1.0  0.04011  0.00809  0.30203  1.0000
  C   C78       1.0  0.00664  0.00860  0.22351  1.0000
  C  Sn52      1.0  0.98772  0.04137  0.20572  1.0000
  O  Te49      1.0  0.98418  0.10742  0.25147  1.0000
  O  Te50      1.0  0.08842  0.04124  0.44320  1.0000
  O  Te51      1.0  0.05573  0.97500  0.31848  1.0000
  O  Te52      1.0  0.95431  0.04119  0.12672  1.0000
  Mg  Mg25      1.0  0.10036  0.98927  0.43542  1.0000
  Mg  Mg26      1.0  0.93952  0.09316  0.13435  1.0000
  C  Sn53      1.0  0.47771  0.40454  0.32059  1.0000
  C   C79       1.0  0.44442  0.40755  0.39601  1.0000
  C  Sn54      1.0  0.42518  0.44044  0.39558  1.0000
  C  Sn55      1.0  0.43950  0.47095  0.31806  1.0000
  C   C80       1.0  0.47278  0.46792  0.24268  1.0000
  C  Sn56      1.0  0.49204  0.43505  0.24307  1.0000
  O  Te53      1.0  0.49648  0.37139  0.32250  1.0000
  O  Te54      1.0  0.39195  0.44279  0.47184  1.0000
  O  Te55      1.0  0.42070  0.50411  0.31621  1.0000
  O  Te56      1.0  0.52524  0.43268  0.16685  1.0000
  Mg  Mg27      1.0  0.37654  0.49379  0.43652  1.0000
  Mg  Mg28      1.0  0.54067  0.38170  0.20202  1.0000
  C  Sn57      1.0  0.46659  0.07554  0.64920  1.0000
  C   C81       1.0  0.43321  0.06837  0.57553  1.0000
  C  Sn58      1.0  0.41625  0.03469  0.59288  1.0000
  C  Sn59      1.0  0.43298  0.00762  0.68589  1.0000
  C   C82       1.0  0.46633  0.01480  0.75953  1.0000
  C  Sn60      1.0  0.48332  0.04847  0.74222  1.0000
  O  Te57      1.0  0.48306  0.10940  0.63024  1.0000
  O  Te58      1.0  0.38289  0.02815  0.51803  1.0000
  O  Te59      1.0  0.41365  0.97374  0.70480  1.0000
  O  Te60      1.0  0.51665  0.05502  0.81702  1.0000
  Mg  Mg29      1.0  0.36831  0.97780  0.57949  1.0000
  Mg  Mg30      1.0  0.52841  0.10536  0.75571  1.0000
  C  Sn61      1.0  0.09544  0.44979  0.62158  1.0000
  C   C83       1.0  0.09114  0.41197  0.60837  1.0000
  C  Sn62      1.0  0.05766  0.39600  0.63837  1.0000
  C  Sn63      1.0  0.02785  0.41830  0.68240  1.0000
  C   C84       1.0  0.03215  0.45609  0.69556  1.0000
  C  Sn64      1.0  0.06563  0.47208  0.66561  1.0000
  O  Te61      1.0  0.12916  0.46516  0.59102  1.0000
  O  Te62      1.0  0.05403  0.35813  0.62444  1.0000
  O  Te63      1.0  0.99411  0.40289  0.71296  1.0000
  O  Te64      1.0  0.06926  0.50993  0.67949  1.0000
  Mg  Mg31      1.0  0.00266  0.35002  0.67818  1.0000
  Mg  Mg32      1.0  0.12061  0.51807  0.62570  1.0000
  C  Sn65      1.0  0.92744  0.01505  0.76788  1.0000
  C   C85       1.0  0.92704  0.05134  0.72083  1.0000
  C  Sn66      1.0  0.95874  0.06774  0.66920  1.0000
  C  Sn67      1.0  0.99152  0.04743  0.66440  1.0000
  C   C86       1.0  0.99191  0.01116  0.71141  1.0000
  C  Sn68      1.0  0.95739  0.99474  0.76308  1.0000
  O  Te65      1.0  0.89259  0.99921  0.81907  1.0000
  O  Te66      1.0  0.95767  0.10406  0.62281  1.0000
  O  Te67      1.0  0.02354  0.06330  0.61316  1.0000
  O  Te68      1.0  0.95844  0.95843  0.80943  1.0000
  Mg  Mg33      1.0  0.00834  0.11355  0.56202  1.0000
  Mg  Mg34      1.0  0.90779  0.94891  0.87016  1.0000
  C  Sn69      1.0  0.77617  0.33547  0.37791  1.0000
  C   C87       1.0  0.77256  0.31400  0.51007  1.0000
  C  Sn70      1.0  0.79478  0.32006  0.64177  1.0000
  C  Sn71      1.0  0.82113  0.34817  0.64144  1.0000
  C   C88       1.0  0.82472  0.36962  0.50936  1.0000
  C  Sn72      1.0  0.80252  0.36358  0.37758  1.0000
  O  Te69      1.0  0.75366  0.32894  0.24755  1.0000
  O  Te70      1.0  0.79068  0.29823  0.77249  1.0000
  O  Te71      1.0  0.84364  0.35469  0.77194  1.0000
  O  Te72      1.0  0.80661  0.38539  0.24694  1.0000
  Mg  Mg35      1.0  0.82770  0.31772  0.92180  1.0000
  Mg  Mg36      1.0  0.76959  0.36594  0.09760  1.0000
  C  Sn73      1.0  0.69250  0.35243  0.70315  1.0000
  C   C89       1.0  0.69764  0.31774  0.63599  1.0000
  C  Sn74      1.0  0.67159  0.30273  0.53351  1.0000
  C  Sn75      1.0  0.63974  0.32283  0.49731  1.0000
  C   C90       1.0  0.63461  0.35750  0.56443  1.0000
  C  Sn76      1.0  0.66065  0.37252  0.66695  1.0000
  O  Te73      1.0  0.71890  0.36689  0.80528  1.0000
  O  Te74      1.0  0.67733  0.26800  0.46787  1.0000
  O  Te75      1.0  0.61333  0.30833  0.39510  1.0000
  O  Te76      1.0  0.65492  0.40724  0.73255  1.0000
  Mg  Mg37      1.0  0.63349  0.25999  0.33531  1.0000
  Mg  Mg38      1.0  0.69875  0.41528  0.86506  1.0000
  C  Sn77      1.0  0.72352  0.15695  0.37768  1.0000
  C   C91       1.0  0.72844  0.17913  0.51128  1.0000
  C  Sn78      1.0  0.70651  0.17479  0.64154  1.0000
  C  Sn79      1.0  0.67909  0.14771  0.63826  1.0000
  C   C92       1.0  0.67418  0.12554  0.50475  1.0000
  C  Sn80      1.0  0.69610  0.12986  0.37441  1.0000
  O  Te77      1.0  0.74576  0.16176  0.24881  1.0000
  O  Te78      1.0  0.71193  0.19730  0.77374  1.0000
  O  Te79      1.0  0.65684  0.14291  0.76729  1.0000
  O  Te80      1.0  0.69069  0.10737  0.24228  1.0000
  Mg  Mg39      1.0  0.67476  0.18022  0.92010  1.0000
  Mg  Mg40      1.0  0.72786  0.12441  0.09589  1.0000
  C  Sn81      1.0  0.81929  0.11738  0.63485  1.0000
  C   C93       1.0  0.85256  0.12331  0.56334  1.0000
  C  Sn82      1.0  0.86165  0.15802  0.51219  1.0000
  C  Sn83      1.0  0.83699  0.18743  0.53304  1.0000
  C   C94       1.0  0.80375  0.18151  0.60453  1.0000
  C  Sn84      1.0  0.79463  0.14680  0.65570  1.0000
  O  Te81      1.0  0.81076  0.08246  0.68509  1.0000
  O  Te82      1.0  0.89507  0.16326  0.44098  1.0000
  O  Te83      1.0  0.84555  0.22238  0.48273  1.0000
  O  Te84      1.0  0.76124  0.14155  0.72690  1.0000
  Mg  Mg41      1.0  0.89433  0.21585  0.39235  1.0000
  Mg  Mg42      1.0  0.76196  0.08898  0.77564  1.0000
  C  Sn85      1.0  0.91720  0.47758  0.35990  1.0000
  C   C95       1.0  0.95443  0.47099  0.34866  1.0000
  C  Sn86      1.0  0.96898  0.43734  0.39136  1.0000
  C  Sn87      1.0  0.94583  0.40969  0.44636  1.0000
  C   C96       1.0  0.90863  0.41629  0.45755  1.0000
  C  Sn88      1.0  0.89405  0.44994  0.41490  1.0000
  O  Te85      1.0  0.90324  0.51143  0.31655  1.0000
  O  Te86      1.0  0.00629  0.43139  0.37916  1.0000
  O  Te87      1.0  0.95982  0.37583  0.48972  1.0000
  O  Te88      1.0  0.85677  0.45589  0.42705  1.0000
  Mg  Mg43      1.0  0.01241  0.38080  0.45223  1.0000
  Mg  Mg44      1.0  0.85061  0.50646  0.35394  1.0000
  C  Sn89      1.0  0.58684  0.01221  0.37307  1.0000
  C   C97       1.0  0.54920  0.01604  0.35982  1.0000
  C  Sn90      1.0  0.53265  0.04954  0.39408  1.0000
  C  Sn91      1.0  0.55416  0.07985  0.44251  1.0000
  C   C98       1.0  0.59177  0.07602  0.45572  1.0000
  C  Sn92      1.0  0.60835  0.04253  0.42150  1.0000
  O  Te89      1.0  0.59997  0.97847  0.33821  1.0000
  O  Te90      1.0  0.49498  0.05269  0.38002  1.0000
  O  Te91      1.0  0.53816  0.11361  0.47738  1.0000
  O  Te92      1.0  0.64599  0.03937  0.43551  1.0000
  Mg  Mg45      1.0  0.48585  0.10431  0.44057  1.0000
  Mg  Mg46      1.0  0.65232  0.98778  0.37492  1.0000
  C  Sn93      1.0  0.57108  0.46636  0.81901  1.0000
  C   C99       1.0  0.57092  0.43481  0.72432  1.0000
  C  Sn94      1.0  0.54140  0.42705  0.62500  1.0000
  C  Sn95      1.0  0.51142  0.45135  0.62014  1.0000
  C   C100      1.0  0.51159  0.48289  0.71477  1.0000
  C  Sn96      1.0  0.54110  0.49066  0.81415  1.0000
  O  Te93      1.0  0.60088  0.47357  0.91740  1.0000
  O  Te94      1.0  0.54186  0.39533  0.53147  1.0000
  O  Te95      1.0  0.48161  0.44412  0.52164  1.0000
  O  Te96      1.0  0.54065  0.52236  0.90761  1.0000
  Mg  Mg47      1.0  0.49492  0.39744  0.41656  1.0000
  Mg  Mg48      1.0  0.58434  0.51548  0.02251  1.0000
  C  Sn97      1.0  0.81596  0.64869  0.49076  1.0000
  C   C101      1.0  0.82039  0.68291  0.56362  1.0000
  C  Sn98      1.0  0.85447  0.69397  0.61979  1.0000
  C  Sn99      1.0  0.88476  0.67036  0.60270  1.0000
  C   C102      1.0  0.88032  0.63616  0.52986  1.0000
  C  Sn100     1.0  0.84625  0.62507  0.47367  1.0000
  O  Te97      1.0  0.78165  0.63819  0.43548  1.0000
  O  Te98      1.0  0.85822  0.72831  0.69226  1.0000
  O  Te99      1.0  0.91909  0.68088  0.65806  1.0000
  O  Te100     1.0  0.84249  0.59076  0.40122  1.0000
  Mg  Mg49      1.0  0.91048  0.73027  0.74828  1.0000
  Mg  Mg50      1.0  0.79026  0.58877  0.34509  1.0000
  C  Sn101     1.0  0.85361  0.76097  0.39075  1.0000
  C   C103      1.0  0.83044  0.75691  0.51725  1.0000
  C  Sn102     1.0  0.81854  0.78746  0.60269  1.0000
  C  Sn103     1.0  0.83000  0.82280  0.56077  1.0000
  C   C104      1.0  0.85315  0.82685  0.43432  1.0000
  C  Sn104     1.0  0.86507  0.79631  0.34882  1.0000
  O  Te101     1.0  0.86517  0.73005  0.30698  1.0000
  O  Te102     1.0  0.79540  0.78271  0.72873  1.0000
  O  Te103     1.0  0.81842  0.85373  0.64467  1.0000
  O  Te104     1.0  0.88820  0.80105  0.22284  1.0000
  Mg  Mg51      1.0  0.78702  0.83323  0.80683  1.0000
  Mg  Mg52      1.0  0.89657  0.75055  0.14461  1.0000
  C  Sn105     1.0  0.67691  0.81496  0.53792  1.0000
  C   C105      1.0  0.68314  0.78411  0.62800  1.0000
  C  Sn106     1.0  0.65707  0.77254  0.73302  1.0000
  C  Sn107     1.0  0.62407  0.79220  0.74827  1.0000
  C   C106      1.0  0.61786  0.82303  0.65821  1.0000
  C  Sn108     1.0  0.64392  0.83462  0.55317  1.0000
  O  Te105     1.0  0.70336  0.82604  0.43366  1.0000
  O  Te106     1.0  0.66391  0.74162  0.82185  1.0000
  O  Te107     1.0  0.59763  0.78110  0.85264  1.0000
  O  Te108     1.0  0.63709  0.86552  0.46436  1.0000
  Mg  Mg53      1.0  0.61952  0.73730  0.94781  1.0000
  Mg  Mg54      1.0  0.68145  0.86985  0.33831  1.0000
  C  Sn109     1.0  0.65680  0.65410  0.61381  1.0000
  C   C107      1.0  0.63182  0.65326  0.48924  1.0000
  C  Sn110     1.0  0.63299  0.67962  0.37366  1.0000
  C  Sn111     1.0  0.65970  0.70739  0.38270  1.0000
  C   C108      1.0  0.68466  0.70822  0.50719  1.0000
  C  Sn112     1.0  0.68351  0.68187  0.62285  1.0000
  O  Te109     1.0  0.65513  0.62747  0.72804  1.0000
  O  Te110     1.0  0.60773  0.67823  0.25028  1.0000
  O  Te111     1.0  0.66136  0.73403  0.26834  1.0000
  O  Te112     1.0  0.70876  0.68325  0.74615  1.0000
  Mg  Mg55      1.0  0.62104  0.72059  0.12316  1.0000
  Mg  Mg56      1.0  0.69548  0.64090  0.87329  1.0000
  C  Sn113     1.0  0.00210  0.55818  0.79034  1.0000
  C   C109      1.0  0.99469  0.52080  0.78481  1.0000
  C  Sn114     1.0  0.96545  0.50729  0.69572  1.0000
  C  Sn115     1.0  0.94315  0.53165  0.61030  1.0000
  C   C110      1.0  0.95057  0.56901  0.61584  1.0000
  C  Sn116     1.0  0.97980  0.58254  0.70492  1.0000
  O  Te113     1.0  0.03147  0.57108  0.88017  1.0000
  O  Te114     1.0  0.95858  0.46981  0.69205  1.0000
  O  Te115     1.0  0.91376  0.51872  0.52044  1.0000
  O  Te116     1.0  0.98668  0.62000  0.70860  1.0000
  Mg  Mg57      1.0  0.91540  0.46541  0.55260  1.0000
  Mg  Mg58      1.0  0.02985  0.62443  0.84794  1.0000
  C  Sn117     1.0  0.51650  0.91830  0.78919  1.0000
  C   C111      1.0  0.52028  0.95610  0.77882  1.0000
  C  Sn118     1.0  0.54480  0.97086  0.67440  1.0000
  C  Sn119     1.0  0.56597  0.94735  0.57825  1.0000
  C   C112      1.0  0.56218  0.90958  0.58862  1.0000
  C  Sn120     1.0  0.53767  0.89479  0.69304  1.0000
  O  Te117     1.0  0.49182  0.90415  0.89440  1.0000
  O  Te118     1.0  0.55093  0.00874  0.66617  1.0000
  O  Te119     1.0  0.59066  0.96154  0.47299  1.0000
  O  Te120     1.0  0.53436  0.85694  0.70127  1.0000
  Mg  Mg59      1.0  0.58824  0.01494  0.50451  1.0000
  Mg  Mg60      1.0  0.49704  0.85071  0.86282  1.0000
  C  Sn121     1.0  0.52785  0.56472  0.24127  1.0000
  C   C113      1.0  0.52801  0.52667  0.24905  1.0000
  C  Sn122     1.0  0.55004  0.50912  0.35867  1.0000
  C  Sn123     1.0  0.57237  0.53004  0.46275  1.0000
  C   C114      1.0  0.57221  0.56807  0.45495  1.0000
  C  Sn124     1.0  0.55019  0.58564  0.34535  1.0000
  O  Te121     1.0  0.50561  0.58168  0.13075  1.0000
  O  Te122     1.0  0.54974  0.47104  0.36419  1.0000
  O  Te123     1.0  0.59463  0.51304  0.57331  1.0000
  O  Te124     1.0  0.55048  0.62369  0.33982  1.0000
  Mg  Mg61      1.0  0.58475  0.46052  0.53530  1.0000
  Mg  Mg62      1.0  0.51547  0.63424  0.16882  1.0000
  C  Sn125     1.0  0.96149  0.91028  0.27533  1.0000
  C   C115      1.0  0.95656  0.94775  0.25624  1.0000
  C  Sn126     1.0  0.93054  0.96677  0.34308  1.0000
  C  Sn127     1.0  0.90902  0.94795  0.45134  1.0000
  C   C116      1.0  0.91395  0.91050  0.47041  1.0000
  C  Sn128     1.0  0.93996  0.89145  0.38359  1.0000
  O  Te125     1.0  0.98766  0.89181  0.18728  1.0000
  O  Te126     1.0  0.92894  0.00423  0.32192  1.0000
  O  Te127     1.0  0.88283  0.96644  0.53941  1.0000
  O  Te128     1.0  0.94441  0.85402  0.40473  1.0000
  Mg  Mg63      1.0  0.88977  0.01737  0.46907  1.0000
  Mg  Mg64      1.0  0.98358  0.84086  0.25770  1.0000
