data_image0
_chemical_formula_structural       C22NC7NC2NC6NCO4C42NCNC2NC6NO4C9H84C26NC7NCNC6NCO4C44NCNCN2O4C11H84SnCSn2CSnTe4Mg2SnCSn2CSnTe4Mg2SnCSn2CSnTe4Mg2SnCSn2CSnTe4Mg2SnCSn2CSnTe4Mg2SnCSn2CSnTe4Mg2SnCSn2CSnTe4Mg2SnCSn2CSnTe4Mg2SnCSn2CSnTe4Mg2SnCSn2CSnTe4Mg2SnCSn2CSnTe4Mg2SnCSn2CSnTe4Mg2SnCSn2CSnTe4Mg2SnCSn2CSnTe4Mg2SnCSn2CSnTe4Mg2SnCSn2CSnTe4Mg2SnCSn2CSnTe4Mg2SnCSn2CSnTe4Mg2SnCSn2CSnTe4Mg2SnCSn2CSnTe4Mg2SnCSn2CSnTe4Mg2SnCSn2CSnTe4Mg2SnCSn2CSnTe4Mg2SnCSn2CSnTe4Mg2
_chemical_formula_sum              "C244 N16 O16 H168 Sn96 Te96 Mg48"
_cell_length_a       44.794
_cell_length_b       49.0731
_cell_length_c       30.9345
_cell_angle_alpha    89.7012
_cell_angle_beta     91.2499
_cell_angle_gamma    90.0177

_symmetry_space_group_name_H-M    'P1'
_space_group_IT_number       1

loop_
  _space_group_symop_operation_xyz
  'x, y, z'

loop_
  _atom_site_type_symbol
  _atom_site_label
  _atom_site_symmetry_multiplicity
  _atom_site_fract_x
  _atom_site_fract_y
  _atom_site_fract_z
  _atom_site_occupancy
  C   C1        1.0  0.11706  0.10458  0.34075  1.0000
  C   C2        1.0  0.23765  0.51448  0.08967  1.0000
  C   C3        1.0  0.31077  0.85183  0.34636  1.0000
  C   C4        1.0  0.29047  0.87233  0.35555  1.0000
  C   C5        1.0  0.29869  0.89995  0.35270  1.0000
  C   C6        1.0  0.32762  0.90646  0.33898  1.0000
  C   C7        1.0  0.34785  0.88593  0.32991  1.0000
  C   C8        1.0  0.27767  0.92066  0.36645  1.0000
  C   C9        1.0  0.65822  0.61064  0.36048  1.0000
  C   C10       1.0  0.81540  0.42676  0.34201  1.0000
  C   C11       1.0  0.95230  0.25712  0.24933  1.0000
  C   C12       1.0  0.97785  0.27820  0.24823  1.0000
  C   C13       1.0  0.96325  0.27281  0.31992  1.0000
  C   C14       1.0  0.97703  0.25626  0.35699  1.0000
  C   C15       1.0  0.90294  0.24003  0.21684  1.0000
  C   C16       1.0  0.90500  0.21661  0.24279  1.0000
  C   C17       1.0  0.88432  0.19541  0.23794  1.0000
  C   C18       1.0  0.86078  0.19715  0.20733  1.0000
  C   C19       1.0  0.85874  0.22089  0.18157  1.0000
  C   C20       1.0  0.87943  0.24183  0.18620  1.0000
  C   C21       1.0  0.92437  0.26434  0.22026  1.0000
  C   C22       1.0  0.76019  0.06841  0.15419  1.0000
  N   N1        1.0  0.78102  0.08636  0.17305  1.0000
  C   C23       1.0  0.90781  0.28917  0.23715  1.0000
  C   C24       1.0  0.88554  0.28641  0.26805  1.0000
  C   C25       1.0  0.87067  0.30918  0.28352  1.0000
  C   C26       1.0  0.87770  0.33560  0.26900  1.0000
  C   C27       1.0  0.90019  0.33828  0.23828  1.0000
  C   C28       1.0  0.91473  0.31541  0.22229  1.0000
  C   C29       1.0  0.94527  0.29729  0.33485  1.0000
  N   N2        1.0  0.78871  0.42439  0.35660  1.0000
  C   C30       1.0  0.77545  0.44651  0.37736  1.0000
  C   C31       1.0  0.00579  0.26926  0.22251  1.0000
  N   N3        1.0  0.15475  0.44125  0.16926  1.0000
  C   C32       1.0  0.01990  0.24334  0.24105  1.0000
  C   C33       1.0  0.01432  0.21775  0.22268  1.0000
  C   C34       1.0  0.02874  0.19445  0.23885  1.0000
  C   C35       1.0  0.04951  0.19615  0.27345  1.0000
  C   C36       1.0  0.05429  0.22182  0.29253  1.0000
  C   C37       1.0  0.03967  0.24496  0.27676  1.0000
  N   N4        1.0  0.14409  0.10729  0.35552  1.0000
  C   C38       1.0  0.15874  0.08511  0.37537  1.0000
  O   O1        1.0  0.94489  0.25475  0.29394  1.0000
  O   O2        1.0  0.99534  0.26320  0.17819  1.0000
  O   O3        1.0  0.98683  0.28178  0.29235  1.0000
  O   O4        1.0  0.93459  0.27104  0.17766  1.0000
  C   C39       1.0  0.74526  0.07445  0.11471  1.0000
  C   C40       1.0  0.72558  0.05572  0.09607  1.0000
  C   C41       1.0  0.72007  0.03044  0.11580  1.0000
  C   C42       1.0  0.73498  0.02445  0.15506  1.0000
  C   C43       1.0  0.75501  0.04297  0.17381  1.0000
  C   C44       1.0  0.17824  0.09098  0.41033  1.0000
  C   C45       1.0  0.19249  0.07002  0.43325  1.0000
  C   C46       1.0  0.18843  0.04268  0.42162  1.0000
  C   C47       1.0  0.17014  0.03696  0.38529  1.0000
  C   C48       1.0  0.15544  0.05773  0.36244  1.0000
  C   C49       1.0  0.75893  0.44090  0.41452  1.0000
  C   C50       1.0  0.74597  0.46200  0.43757  1.0000
  C   C51       1.0  0.74818  0.48917  0.42363  1.0000
  C   C52       1.0  0.76347  0.49455  0.38537  1.0000
  C   C53       1.0  0.77714  0.47368  0.36261  1.0000
  C   C54       1.0  0.73501  0.51199  0.44973  1.0000
  C   C55       1.0  0.83871  0.17506  0.20145  1.0000
  C   C56       1.0  0.06677  0.17221  0.28891  1.0000
  C   C57       1.0  0.31732  0.60461  0.19358  1.0000
  C   C58       1.0  0.05376  0.14625  0.29272  1.0000
  C   C59       1.0  0.07037  0.12423  0.30879  1.0000
  C   C60       1.0  0.10058  0.12741  0.32126  1.0000
  C   C61       1.0  0.11388  0.15323  0.31640  1.0000
  C   C62       1.0  0.09725  0.17513  0.30067  1.0000
  C   C63       1.0  0.84695  0.14737  0.20532  1.0000
  C   C64       1.0  0.82648  0.12669  0.19678  1.0000
  C   C65       1.0  0.79686  0.13302  0.18419  1.0000
  C   C66       1.0  0.78832  0.16057  0.18158  1.0000
  C   C67       1.0  0.80884  0.18121  0.19021  1.0000
  C   C68       1.0  0.16089  0.41576  0.17512  1.0000
  C   C69       1.0  0.77527  0.11216  0.17157  1.0000
  C   C70       1.0  0.47832  0.75446  0.28825  1.0000
  C   C71       1.0  0.45385  0.77666  0.28764  1.0000
  C   C72       1.0  0.46454  0.76390  0.21590  1.0000
  C   C73       1.0  0.44556  0.74192  0.19410  1.0000
  C   C74       1.0  0.52913  0.73809  0.31793  1.0000
  C   C75       1.0  0.52494  0.71316  0.29678  1.0000
  C   C76       1.0  0.54604  0.69234  0.30159  1.0000
  C   C77       1.0  0.57188  0.69567  0.32759  1.0000
  C   C78       1.0  0.57595  0.72083  0.34864  1.0000
  C   C79       1.0  0.55507  0.74165  0.34370  1.0000
  C   C80       1.0  0.50697  0.76168  0.31544  1.0000
  N   N5        1.0  0.65143  0.58537  0.36676  1.0000
  C   C81       1.0  0.48061  0.78225  0.18403  1.0000
  N   N6        1.0  0.64240  0.92395  0.18532  1.0000
  C   C82       1.0  0.42590  0.76957  0.31501  1.0000
  C   C83       1.0  0.26324  0.96406  0.38568  1.0000
  N   N7        1.0  0.28345  0.94647  0.36592  1.0000
  C   C84       1.0  0.40926  0.74480  0.29693  1.0000
  C   C85       1.0  0.41472  0.71877  0.31419  1.0000
  C   C86       1.0  0.40006  0.69594  0.29742  1.0000
  C   C87       1.0  0.37921  0.69839  0.26299  1.0000
  C   C88       1.0  0.37355  0.72466  0.24616  1.0000
  C   C89       1.0  0.38828  0.74743  0.26283  1.0000
  N   N8        1.0  0.29010  0.60559  0.17898  1.0000
  O   O5        1.0  0.48655  0.75135  0.24429  1.0000
  O   O6        1.0  0.43607  0.76309  0.35835  1.0000
  O   O7        1.0  0.44624  0.78061  0.24291  1.0000
  O   O8        1.0  0.49707  0.76725  0.35950  1.0000
  C   C90       1.0  0.24972  0.95741  0.42512  1.0000
  C   C91       1.0  0.23018  0.97556  0.44423  1.0000
  C   C92       1.0  0.22344  0.00086  0.42502  1.0000
  C   C93       1.0  0.23725  0.00760  0.38613  1.0000
  C   C94       1.0  0.25713  0.98968  0.36691  1.0000
  C   C95       1.0  0.69979  0.01025  0.09245  1.0000
  C   C96       1.0  0.20284  0.02020  0.44825  1.0000
  C   C97       1.0  0.34007  0.85817  0.33415  1.0000
  C   C98       1.0  0.61558  0.92641  0.19935  1.0000
  H   H1        1.0  0.10468  0.08530  0.34385  1.0000
  H   H2        1.0  0.25613  0.50269  0.07613  1.0000
  H   H3        1.0  0.22523  0.52291  0.06152  1.0000
  H   H4        1.0  0.30398  0.83060  0.34860  1.0000
  H   H5        1.0  0.26802  0.86706  0.36553  1.0000
  H   H6        1.0  0.33388  0.92785  0.33693  1.0000
  H   H7        1.0  0.37047  0.89126  0.32090  1.0000
  H   H8        1.0  0.25630  0.91291  0.37849  1.0000
  H   H9        1.0  0.68126  0.61805  0.36528  1.0000
  H   H10       1.0  0.82860  0.44549  0.34669  1.0000
  H   H11       1.0  0.96047  0.23714  0.23861  1.0000
  H   H12       1.0  0.96960  0.29750  0.23420  1.0000
  H   H13       1.0  0.98994  0.23935  0.34386  1.0000
  H   H14       1.0  0.95935  0.24809  0.37736  1.0000
  H   H15       1.0  0.99179  0.26906  0.37705  1.0000
  H   H16       1.0  0.92236  0.21491  0.26776  1.0000
  H   H17       1.0  0.88613  0.17761  0.25897  1.0000
  H   H18       1.0  0.84101  0.22252  0.15710  1.0000
  H   H19       1.0  0.87773  0.25984  0.16566  1.0000
  H   H20       1.0  0.87988  0.26625  0.28009  1.0000
  H   H21       1.0  0.85370  0.30664  0.30785  1.0000
  H   H22       1.0  0.90567  0.35841  0.22586  1.0000
  H   H23       1.0  0.93116  0.31762  0.19720  1.0000
  H   H24       1.0  0.92585  0.29048  0.35301  1.0000
  H   H25       1.0  0.93724  0.30938  0.30707  1.0000
  H   H26       1.0  0.95936  0.31015  0.35583  1.0000
  H   H27       1.0  0.99946  0.21619  0.19457  1.0000
  H   H28       1.0  0.02475  0.17493  0.22324  1.0000
  H   H29       1.0  0.06970  0.22355  0.32005  1.0000
  H   H30       1.0  0.04392  0.26461  0.29172  1.0000
  H   H31       1.0  0.00007  0.27911  0.16072  1.0000
  H   H32       1.0  0.95473  0.26331  0.17468  1.0000
  H   H33       1.0  0.74995  0.09359  0.09831  1.0000
  H   H34       1.0  0.71451  0.06058  0.06530  1.0000
  H   H35       1.0  0.73092  0.00500  0.17094  1.0000
  H   H36       1.0  0.76675  0.03820  0.20405  1.0000
  H   H37       1.0  0.18131  0.11218  0.41947  1.0000
  H   H38       1.0  0.20699  0.07486  0.46085  1.0000
  H   H39       1.0  0.16756  0.01593  0.37481  1.0000
  H   H40       1.0  0.14166  0.05295  0.33408  1.0000
  H   H41       1.0  0.75705  0.41983  0.42517  1.0000
  H   H42       1.0  0.73386  0.45743  0.46687  1.0000
  H   H43       1.0  0.76442  0.51539  0.37324  1.0000
  H   H44       1.0  0.78869  0.47816  0.33282  1.0000
  H   H45       1.0  0.75335  0.52405  0.46432  1.0000
  H   H46       1.0  0.72315  0.50311  0.47727  1.0000
  H   H47       1.0  0.33099  0.58603  0.19136  1.0000
  H   H48       1.0  0.03024  0.14356  0.28429  1.0000
  H   H49       1.0  0.05981  0.10439  0.31255  1.0000
  H   H50       1.0  0.13733  0.15552  0.32557  1.0000
  H   H51       1.0  0.10786  0.19491  0.29670  1.0000
  H   H52       1.0  0.87001  0.14222  0.21352  1.0000
  H   H53       1.0  0.83297  0.10535  0.19855  1.0000
  H   H54       1.0  0.76537  0.16564  0.17242  1.0000
  H   H55       1.0  0.80180  0.20241  0.18839  1.0000
  H   H56       1.0  0.18353  0.40772  0.17035  1.0000
  H   H57       1.0  0.75350  0.11979  0.15951  1.0000
  H   H58       1.0  0.46929  0.73519  0.30088  1.0000
  H   H59       1.0  0.46291  0.79595  0.30043  1.0000
  H   H60       1.0  0.43553  0.72870  0.21850  1.0000
  H   H61       1.0  0.45948  0.72961  0.17295  1.0000
  H   H62       1.0  0.42758  0.75135  0.17455  1.0000
  H   H63       1.0  0.50571  0.71015  0.27532  1.0000
  H   H64       1.0  0.54270  0.67342  0.28400  1.0000
  H   H65       1.0  0.59552  0.72388  0.36946  1.0000
  H   H66       1.0  0.55877  0.76109  0.35972  1.0000
  H   H67       1.0  0.46438  0.79236  0.16226  1.0000
  H   H68       1.0  0.49571  0.77011  0.16441  1.0000
  H   H69       1.0  0.49370  0.79767  0.20161  1.0000
  H   H70       1.0  0.42995  0.71680  0.34186  1.0000
  H   H71       1.0  0.40409  0.67605  0.31208  1.0000
  H   H72       1.0  0.35778  0.72714  0.21918  1.0000
  H   H73       1.0  0.38362  0.76749  0.24917  1.0000
  H   H74       1.0  0.45725  0.76826  0.36161  1.0000
  H   H75       1.0  0.50227  0.75128  0.37688  1.0000
  H   H76       1.0  0.25522  0.93813  0.44091  1.0000
  H   H77       1.0  0.22012  0.97015  0.47485  1.0000
  H   H78       1.0  0.23233  0.02713  0.37076  1.0000
  H   H79       1.0  0.26783  0.99499  0.33678  1.0000
  H   H80       1.0  0.68193  0.02190  0.07570  1.0000
  H   H81       1.0  0.71254  0.00063  0.06659  1.0000
  H   H82       1.0  0.21537  0.02949  0.47546  1.0000
  H   H83       1.0  0.18525  0.00790  0.46329  1.0000
  H   H84       1.0  0.60281  0.94549  0.19578  1.0000
  C   C99       1.0  0.88102  0.60379  0.66494  1.0000
  C   C100      1.0  0.76220  0.01350  0.90569  1.0000
  C   C101      1.0  0.69092  0.35083  0.65727  1.0000
  C   C102      1.0  0.71117  0.37143  0.64787  1.0000
  C   C103      1.0  0.70243  0.39895  0.64784  1.0000
  C   C104      1.0  0.67293  0.40530  0.65895  1.0000
  C   C105      1.0  0.65277  0.38471  0.66840  1.0000
  C   C106      1.0  0.39892  0.35488  0.76185  1.0000
  C   C107      1.0  0.38384  0.37707  0.77843  1.0000
  C   C108      1.0  0.39838  0.40233  0.78366  1.0000
  C   C109      1.0  0.42826  0.40466  0.77104  1.0000
  C   C110      1.0  0.44334  0.38236  0.75438  1.0000
  C   C111      1.0  0.41629  0.14429  0.66698  1.0000
  C   C112      1.0  0.39591  0.12348  0.65872  1.0000
  C   C113      1.0  0.36559  0.12954  0.65028  1.0000
  C   C114      1.0  0.35636  0.15693  0.65168  1.0000
  C   C115      1.0  0.37685  0.17772  0.65956  1.0000
  C   C116      1.0  0.72360  0.41981  0.63443  1.0000
  C   C117      1.0  0.34364  0.10894  0.63767  1.0000
  C   C118      1.0  0.18661  0.92261  0.65785  1.0000
  C   C119      1.0  0.04675  0.75381  0.75386  1.0000
  C   C120      1.0  0.02198  0.77558  0.75369  1.0000
  C   C121      1.0  0.03367  0.76536  0.68153  1.0000
  C   C122      1.0  0.01606  0.74577  0.65261  1.0000
  C   C123      1.0  0.07549  0.76122  0.78086  1.0000
  C   C124      1.0  0.24224  0.56752  0.84869  1.0000
  N   N9        1.0  0.22040  0.58446  0.82952  1.0000
  C   C125      1.0  0.09158  0.78585  0.76188  1.0000
  C   C126      1.0  0.11294  0.78270  0.72980  1.0000
  C   C127      1.0  0.12837  0.80513  0.71389  1.0000
  C   C128      1.0  0.12267  0.83157  0.72909  1.0000
  C   C129      1.0  0.10070  0.83471  0.76040  1.0000
  C   C130      1.0  0.08563  0.81217  0.77681  1.0000
  C   C131      1.0  0.05138  0.78634  0.65611  1.0000
  N   N10       1.0  0.21295  0.92042  0.64206  1.0000
  C   C132      1.0  0.99418  0.76773  0.78074  1.0000
  N   N11       1.0  0.84685  0.94209  0.82694  1.0000
  C   C133      1.0  0.97873  0.74204  0.76394  1.0000
  C   C134      1.0  0.98426  0.71637  0.78253  1.0000
  C   C135      1.0  0.96921  0.69322  0.76739  1.0000
  C   C136      1.0  0.94792  0.69505  0.73344  1.0000
  C   C137      1.0  0.94279  0.72087  0.71463  1.0000
  C   C138      1.0  0.95796  0.74389  0.72942  1.0000
  N   N12       1.0  0.85415  0.60687  0.64966  1.0000
  C   C139      1.0  0.83928  0.58530  0.62886  1.0000
  O   O9        1.0  0.05367  0.75000  0.70946  1.0000
  O   O10       1.0  0.00579  0.76186  0.82470  1.0000
  O   O11       1.0  0.01322  0.77917  0.70947  1.0000
  O   O12       1.0  0.06688  0.76838  0.82400  1.0000
  C   C140      1.0  0.26055  0.57631  0.88357  1.0000
  C   C141      1.0  0.28126  0.55865  0.90291  1.0000
  C   C142      1.0  0.28454  0.53181  0.88837  1.0000
  C   C143      1.0  0.26603  0.52300  0.85401  1.0000
  C   C144      1.0  0.24493  0.54040  0.83477  1.0000
  C   C145      1.0  0.81988  0.59235  0.59422  1.0000
  C   C146      1.0  0.80546  0.57224  0.56996  1.0000
  C   C147      1.0  0.80912  0.54453  0.58006  1.0000
  C   C148      1.0  0.82709  0.53759  0.61627  1.0000
  C   C149      1.0  0.84207  0.55754  0.64032  1.0000
  C   C150      1.0  0.26210  0.01271  0.55355  1.0000
  C   C151      1.0  0.13949  0.85520  0.71278  1.0000
  C   C152      1.0  0.90613  0.85495  0.79697  1.0000
  C   C153      1.0  0.93076  0.67113  0.71796  1.0000
  C   C154      1.0  0.68223  0.10230  0.79928  1.0000
  C   C155      1.0  0.87568  0.84845  0.80080  1.0000
  C   C156      1.0  0.85465  0.86873  0.80791  1.0000
  C   C157      1.0  0.86324  0.89622  0.81136  1.0000
  C   C158      1.0  0.89353  0.90294  0.80612  1.0000
  C   C159      1.0  0.91448  0.88267  0.79903  1.0000
  C   C160      1.0  0.94372  0.64511  0.71499  1.0000
  C   C161      1.0  0.92732  0.62317  0.69857  1.0000
  C   C162      1.0  0.89739  0.62646  0.68476  1.0000
  C   C163      1.0  0.88416  0.65235  0.68861  1.0000
  C   C164      1.0  0.90053  0.67414  0.70485  1.0000
  C   C165      1.0  0.17011  0.85290  0.70355  1.0000
  C   C166      1.0  0.18582  0.87473  0.68656  1.0000
  C   C167      1.0  0.17139  0.89978  0.67827  1.0000
  C   C168      1.0  0.14111  0.90241  0.68864  1.0000
  C   C169      1.0  0.12540  0.88046  0.70555  1.0000
  C   C170      1.0  0.84093  0.91646  0.82288  1.0000
  C   C171      1.0  0.22672  0.60993  0.82406  1.0000
  C   C172      1.0  0.52062  0.25515  0.71272  1.0000
  C   C173      1.0  0.54520  0.27725  0.71301  1.0000
  C   C174      1.0  0.53226  0.26770  0.78492  1.0000
  C   C175      1.0  0.54856  0.24891  0.81693  1.0000
  C   C176      1.0  0.47083  0.23748  0.68161  1.0000
  C   C177      1.0  0.47399  0.21354  0.70611  1.0000
  C   C178      1.0  0.45356  0.19215  0.70119  1.0000
  C   C179      1.0  0.42918  0.19418  0.67211  1.0000
  C   C180      1.0  0.42614  0.21834  0.64757  1.0000
  C   C181      1.0  0.44659  0.23949  0.65217  1.0000
  C   C182      1.0  0.49213  0.26195  0.68447  1.0000
  C   C183      1.0  0.32776  0.06660  0.61418  1.0000
  N   N13       1.0  0.34990  0.08345  0.63264  1.0000
  C   C184      1.0  0.51384  0.28965  0.80667  1.0000
  N   N14       1.0  0.35690  0.42388  0.81802  1.0000
  C   C185      1.0  0.57331  0.26987  0.68639  1.0000
  N   N15       1.0  0.71650  0.44526  0.63112  1.0000
  N   N16       1.0  0.70973  0.10357  0.81256  1.0000
  O   O13       1.0  0.51331  0.25133  0.75711  1.0000
  O   O14       1.0  0.56252  0.26468  0.64205  1.0000
  O   O15       1.0  0.55386  0.28037  0.75738  1.0000
  O   O16       1.0  0.50145  0.26840  0.64126  1.0000
  C   C186      1.0  0.30905  0.07548  0.57967  1.0000
  C   C187      1.0  0.28783  0.05802  0.56140  1.0000
  C   C188      1.0  0.28450  0.03118  0.57643  1.0000
  C   C189      1.0  0.30331  0.02230  0.61053  1.0000
  C   C190      1.0  0.32488  0.03955  0.62882  1.0000
  C   C191      1.0  0.30682  0.51311  0.91137  1.0000
  C   C192      1.0  0.79458  0.52298  0.55187  1.0000
  C   C193      1.0  0.40731  0.17187  0.66663  1.0000
  C   C194      1.0  0.42907  0.35695  0.74982  1.0000
  C   C195      1.0  0.66110  0.35698  0.66696  1.0000
  C   C196      1.0  0.38367  0.42550  0.80353  1.0000
  H   H85       1.0  0.89328  0.58446  0.66205  1.0000
  H   H86       1.0  0.74364  0.00116  0.91800  1.0000
  H   H87       1.0  0.77366  0.02186  0.93459  1.0000
  H   H88       1.0  0.69825  0.32971  0.65710  1.0000
  H   H89       1.0  0.73401  0.36626  0.63979  1.0000
  H   H90       1.0  0.66625  0.42660  0.65881  1.0000
  H   H91       1.0  0.62982  0.39002  0.67547  1.0000
  H   H92       1.0  0.38730  0.33558  0.75748  1.0000
  H   H93       1.0  0.36067  0.37545  0.78796  1.0000
  H   H94       1.0  0.43977  0.42405  0.77520  1.0000
  H   H95       1.0  0.46668  0.38433  0.74588  1.0000
  H   H96       1.0  0.43979  0.13943  0.67232  1.0000
  H   H97       1.0  0.40300  0.10229  0.65768  1.0000
  H   H98       1.0  0.33287  0.16178  0.64602  1.0000
  H   H99       1.0  0.36936  0.19879  0.66064  1.0000
  H   H100      1.0  0.74607  0.41252  0.62649  1.0000
  H   H101      1.0  0.32086  0.11668  0.63149  1.0000
  H   H102      1.0  0.17379  0.94171  0.65508  1.0000
  H   H103      1.0  0.03828  0.73445  0.76695  1.0000
  H   H104      1.0  0.03091  0.79484  0.76664  1.0000
  H   H105      1.0  0.00401  0.73106  0.67253  1.0000
  H   H106      1.0  0.03128  0.73478  0.63151  1.0000
  H   H107      1.0  0.99989  0.75711  0.63232  1.0000
  H   H108      1.0  0.11759  0.76244  0.71763  1.0000
  H   H109      1.0  0.14487  0.80227  0.68902  1.0000
  H   H110      1.0  0.09625  0.85489  0.77316  1.0000
  H   H111      1.0  0.06983  0.81469  0.80262  1.0000
  H   H112      1.0  0.06817  0.77608  0.63666  1.0000
  H   H113      1.0  0.06285  0.80046  0.67822  1.0000
  H   H114      1.0  0.03631  0.79782  0.63431  1.0000
  H   H115      1.0  0.99968  0.71464  0.81001  1.0000
  H   H116      1.0  0.97337  0.67365  0.78310  1.0000
  H   H117      1.0  0.92685  0.72279  0.68774  1.0000
  H   H118      1.0  0.95350  0.76358  0.71440  1.0000
  H   H119      1.0  0.00153  0.77790  0.84190  1.0000
  H   H120      1.0  0.04660  0.76138  0.82859  1.0000
  H   H121      1.0  0.25776  0.59682  0.89600  1.0000
  H   H122      1.0  0.29495  0.56570  0.93015  1.0000
  H   H123      1.0  0.26819  0.50221  0.84238  1.0000
  H   H124      1.0  0.23051  0.53343  0.80832  1.0000
  H   H125      1.0  0.81706  0.61384  0.58641  1.0000
  H   H126      1.0  0.79110  0.57806  0.54259  1.0000
  H   H127      1.0  0.82923  0.51625  0.62566  1.0000
  H   H128      1.0  0.85568  0.55176  0.66847  1.0000
  H   H129      1.0  0.24292  0.02537  0.54304  1.0000
  H   H130      1.0  0.27188  0.00527  0.52344  1.0000
  H   H131      1.0  0.66871  0.08372  0.80303  1.0000
  H   H132      1.0  0.86853  0.82734  0.79795  1.0000
  H   H133      1.0  0.83123  0.86333  0.81123  1.0000
  H   H134      1.0  0.90009  0.92422  0.80890  1.0000
  H   H135      1.0  0.93794  0.88812  0.79661  1.0000
  H   H136      1.0  0.96707  0.64233  0.72441  1.0000
  H   H137      1.0  0.93789  0.60331  0.69556  1.0000
  H   H138      1.0  0.86097  0.65473  0.67813  1.0000
  H   H139      1.0  0.88987  0.69392  0.70807  1.0000
  H   H140      1.0  0.18155  0.83378  0.71066  1.0000
  H   H141      1.0  0.20940  0.87297  0.67932  1.0000
  H   H142      1.0  0.12979  0.92172  0.68242  1.0000
  H   H143      1.0  0.10176  0.88254  0.71222  1.0000
  H   H144      1.0  0.81850  0.90839  0.82920  1.0000
  H   H145      1.0  0.24949  0.61771  0.83007  1.0000
  H   H146      1.0  0.52966  0.23587  0.70041  1.0000
  H   H147      1.0  0.53615  0.29655  0.69997  1.0000
  H   H148      1.0  0.56097  0.23340  0.79933  1.0000
  H   H149      1.0  0.53233  0.23885  0.83776  1.0000
  H   H150      1.0  0.56425  0.26056  0.83734  1.0000
  H   H151      1.0  0.49205  0.21154  0.72994  1.0000
  H   H152      1.0  0.45621  0.17386  0.72091  1.0000
  H   H153      1.0  0.40789  0.22009  0.62396  1.0000
  H   H154      1.0  0.44417  0.25779  0.63242  1.0000
  H   H155      1.0  0.52821  0.30163  0.82858  1.0000
  H   H156      1.0  0.49601  0.28020  0.82534  1.0000
  H   H157      1.0  0.50365  0.30327  0.78235  1.0000
  H   H158      1.0  0.56359  0.28209  0.62696  1.0000
  H   H159      1.0  0.52176  0.26124  0.63790  1.0000
  H   H160      1.0  0.31192  0.09592  0.56662  1.0000
  H   H161      1.0  0.27376  0.06517  0.53452  1.0000
  H   H162      1.0  0.30107  0.00159  0.62277  1.0000
  H   H163      1.0  0.33954  0.03250  0.65504  1.0000
  H   H164      1.0  0.32558  0.52568  0.92338  1.0000
  H   H165      1.0  0.29651  0.50452  0.94044  1.0000
  H   H166      1.0  0.78120  0.53330  0.52633  1.0000
  H   H167      1.0  0.81202  0.51180  0.53473  1.0000
  H   H168      1.0  0.39719  0.44414  0.80702  1.0000
  C  Sn1       1.0  0.97681  0.82486  0.77301  1.0000
  C   C197      1.0  0.97631  0.79842  0.78998  1.0000
  C  Sn2       1.0  0.94994  0.78760  0.80620  1.0000
  C  Sn3       1.0  0.92352  0.80353  0.80541  1.0000
  C   C198      1.0  0.92403  0.82995  0.78844  1.0000
  C  Sn4       1.0  0.95039  0.84079  0.77222  1.0000
  O  Te1       1.0  0.00342  0.83526  0.75697  1.0000
  O  Te2       1.0  0.94999  0.76112  0.82302  1.0000
  O  Te3       1.0  0.89690  0.79310  0.82147  1.0000
  O  Te4       1.0  0.95035  0.86725  0.75541  1.0000
  Mg  Mg1       1.0  0.90822  0.75598  0.84105  1.0000
  Mg  Mg2       1.0  0.99210  0.87240  0.73735  1.0000
  C  Sn5       1.0  0.70355  0.57663  0.41661  1.0000
  C   C199      1.0  0.68252  0.57126  0.38372  1.0000
  C  Sn6       1.0  0.67521  0.54442  0.37296  1.0000
  C  Sn7       1.0  0.68920  0.52251  0.39555  1.0000
  C   C200      1.0  0.71021  0.52789  0.42842  1.0000
  C  Sn8       1.0  0.71754  0.55471  0.43921  1.0000
  O  Te5       1.0  0.71051  0.60361  0.42683  1.0000
  O  Te6       1.0  0.65412  0.53956  0.33995  1.0000
  O  Te7       1.0  0.68222  0.49551  0.38530  1.0000
  O  Te8       1.0  0.73861  0.55958  0.47220  1.0000
  Mg  Mg3       1.0  0.65210  0.49928  0.33788  1.0000
  Mg  Mg4       1.0  0.74064  0.59985  0.47431  1.0000
  C  Sn9       1.0  0.60551  0.86114  0.24759  1.0000
  C   C201      1.0  0.57569  0.86018  0.25991  1.0000
  C  Sn10      1.0  0.55599  0.88108  0.24786  1.0000
  C  Sn11      1.0  0.56630  0.90339  0.22295  1.0000
  C   C202      1.0  0.59610  0.90433  0.21064  1.0000
  C  Sn12      1.0  0.61581  0.88344  0.22268  1.0000
  O  Te9       1.0  0.62481  0.84002  0.26000  1.0000
  O  Te10      1.0  0.52629  0.87968  0.26057  1.0000
  O  Te11      1.0  0.54697  0.92451  0.21054  1.0000
  O  Te12      1.0  0.64550  0.88483  0.20998  1.0000
  Mg  Mg5       1.0  0.50856  0.91339  0.23570  1.0000
  Mg  Mg6       1.0  0.66325  0.85113  0.23480  1.0000
  C  Sn13      1.0  0.68775  0.94257  0.13471  1.0000
  C   C203      1.0  0.66746  0.94529  0.16809  1.0000
  C  Sn14      1.0  0.65376  0.97034  0.17562  1.0000
  C  Sn15      1.0  0.66048  0.99315  0.14922  1.0000
  C   C204      1.0  0.68076  0.99042  0.11586  1.0000
  C  Sn16      1.0  0.69447  0.96538  0.10831  1.0000
  O  Te13      1.0  0.70117  0.91733  0.12777  1.0000
  O  Te14      1.0  0.63355  0.97255  0.20919  1.0000
  O  Te15      1.0  0.64670  0.01840  0.15619  1.0000
  O  Te16      1.0  0.71466  0.96316  0.07475  1.0000
  Mg  Mg7       1.0  0.62068  0.01121  0.20588  1.0000
  Mg  Mg8       1.0  0.72720  0.92451  0.07802  1.0000
  C  Sn17      1.0  0.60071  0.20064  0.68459  1.0000
  C   C205      1.0  0.62051  0.19803  0.71990  1.0000
  C  Sn18      1.0  0.62267  0.21858  0.75088  1.0000
  C  Sn19      1.0  0.60465  0.24223  0.74649  1.0000
  C   C206      1.0  0.58486  0.24483  0.71120  1.0000
  C  Sn20      1.0  0.58268  0.22429  0.68020  1.0000
  O  Te17      1.0  0.59892  0.17983  0.65401  1.0000
  O  Te18      1.0  0.64264  0.21551  0.78590  1.0000
  O  Te19      1.0  0.60646  0.26304  0.77711  1.0000
  O  Te20      1.0  0.56273  0.22734  0.64521  1.0000
  Mg  Mg9       1.0  0.63700  0.24944  0.81909  1.0000
  Mg  Mg10      1.0  0.56834  0.19342  0.61201  1.0000
  C  Sn21      1.0  0.82318  0.99354  0.83825  1.0000
  C   C207      1.0  0.83033  0.96684  0.85051  1.0000
  C  Sn22      1.0  0.81163  0.95217  0.87769  1.0000
  C  Sn23      1.0  0.78522  0.96444  0.89292  1.0000
  C   C208      1.0  0.77808  0.99112  0.88065  1.0000
  C  Sn24      1.0  0.79643  0.00581  0.85348  1.0000
  O  Te21      1.0  0.84187  0.00782  0.81104  1.0000
  O  Te22      1.0  0.81925  0.92551  0.88951  1.0000
  O  Te23      1.0  0.76619  0.95013  0.92014  1.0000
  O  Te24      1.0  0.78882  0.03245  0.84165  1.0000
  Mg  Mg11      1.0  0.78617  0.91436  0.92717  1.0000
  Mg  Mg12      1.0  0.82187  0.04361  0.80397  1.0000
  C  Sn25      1.0  0.51217  0.82023  0.30776  1.0000
  C   C209      1.0  0.51480  0.79333  0.29375  1.0000
  C  Sn26      1.0  0.53815  0.78580  0.26709  1.0000
  C  Sn27      1.0  0.55931  0.80557  0.25418  1.0000
  C   C210      1.0  0.55668  0.83245  0.26819  1.0000
  C  Sn28      1.0  0.53334  0.84000  0.29485  1.0000
  O  Te25      1.0  0.48866  0.82730  0.33441  1.0000
  O  Te26      1.0  0.54030  0.75878  0.25349  1.0000
  O  Te27      1.0  0.58284  0.79847  0.22751  1.0000
  O  Te28      1.0  0.53118  0.86700  0.30846  1.0000
  Mg  Mg13      1.0  0.57629  0.75910  0.21745  1.0000
  Mg  Mg14      1.0  0.49521  0.86670  0.34451  1.0000
  C  Sn29      1.0  0.24295  0.95733  0.55809  1.0000
  C   C211      1.0  0.24369  0.98459  0.57093  1.0000
  C  Sn30      1.0  0.23806  0.99158  0.61370  1.0000
  C  Sn31      1.0  0.23159  0.97090  0.64429  1.0000
  C   C212      1.0  0.23086  0.94366  0.63145  1.0000
  C  Sn32      1.0  0.23648  0.93665  0.58867  1.0000
  O  Te29      1.0  0.24865  0.95081  0.51516  1.0000
  O  Te30      1.0  0.23857  0.01897  0.62577  1.0000
  O  Te31      1.0  0.22589  0.97744  0.68725  1.0000
  O  Te32      1.0  0.23564  0.90927  0.57660  1.0000
  Mg  Mg15      1.0  0.22930  0.01762  0.68803  1.0000
  Mg  Mg16      1.0  0.24492  0.91060  0.51436  1.0000
  C  Sn33      1.0  0.14319  0.36134  0.18164  1.0000
  C   C213      1.0  0.13855  0.38933  0.17622  1.0000
  C  Sn34      1.0  0.11178  0.40124  0.18869  1.0000
  C  Sn35      1.0  0.08919  0.38485  0.20698  1.0000
  C   C214      1.0  0.09383  0.35689  0.21240  1.0000
  C  Sn36      1.0  0.12059  0.34495  0.19993  1.0000
  O  Te33      1.0  0.17012  0.34987  0.16894  1.0000
  O  Te34      1.0  0.10766  0.42926  0.18294  1.0000
  O  Te35      1.0  0.06224  0.39635  0.21967  1.0000
  O  Te36      1.0  0.12473  0.31696  0.20568  1.0000
  Mg  Mg17      1.0  0.06715  0.43542  0.20530  1.0000
  Mg  Mg18      1.0  0.16523  0.31077  0.18334  1.0000
  C  Sn37      1.0  0.28827  0.54928  0.16231  1.0000
  C   C215      1.0  0.28381  0.57713  0.15511  1.0000
  C  Sn38      1.0  0.25957  0.58623  0.12979  1.0000
  C  Sn39      1.0  0.23936  0.56709  0.11130  1.0000
  C   C216      1.0  0.24382  0.53926  0.11851  1.0000
  C  Sn40      1.0  0.26806  0.53014  0.14382  1.0000
  O  Te37      1.0  0.31266  0.54065  0.18773  1.0000
  O  Te38      1.0  0.25558  0.61418  0.12304  1.0000
  O  Te39      1.0  0.21496  0.57575  0.08587  1.0000
  O  Te40      1.0  0.27205  0.50221  0.15059  1.0000
  Mg  Mg19      1.0  0.21900  0.61592  0.08603  1.0000
  Mg  Mg20      1.0  0.30861  0.50045  0.18760  1.0000
  C  Sn41      1.0  0.67282  0.16880  0.75465  1.0000
  C   C217      1.0  0.64310  0.17022  0.74015  1.0000
  C  Sn42      1.0  0.62318  0.14921  0.74956  1.0000
  C  Sn43      1.0  0.63317  0.12631  0.77400  1.0000
  C   C218      1.0  0.66288  0.12490  0.78850  1.0000
  C  Sn44      1.0  0.68282  0.14590  0.77910  1.0000
  O  Te41      1.0  0.69235  0.19003  0.74487  1.0000
  O  Te42      1.0  0.59357  0.15109  0.73469  1.0000
  O  Te43      1.0  0.61361  0.10507  0.78378  1.0000
  O  Te44      1.0  0.71241  0.14403  0.79396  1.0000
  Mg  Mg21      1.0  0.57544  0.11698  0.75635  1.0000
  Mg  Mg22      1.0  0.73055  0.17813  0.77234  1.0000
  C  Sn45      1.0  0.11360  0.69830  0.75199  1.0000
  C   C219      1.0  0.13883  0.69703  0.77930  1.0000
  C  Sn46      1.0  0.14230  0.71533  0.81348  1.0000
  C  Sn47      1.0  0.12008  0.73530  0.82055  1.0000
  C   C220      1.0  0.09486  0.73656  0.79326  1.0000
  C  Sn48      1.0  0.09137  0.71827  0.75906  1.0000
  O  Te45      1.0  0.11059  0.67980  0.71802  1.0000
  O  Te46      1.0  0.16773  0.71367  0.84034  1.0000
  O  Te47      1.0  0.12310  0.75381  0.85455  1.0000
  O  Te48      1.0  0.06596  0.71992  0.73222  1.0000
  Mg  Mg23      1.0  0.16169  0.74339  0.88230  1.0000
  Mg  Mg24      1.0  0.07197  0.69021  0.69026  1.0000
  C  Sn49      1.0  0.20611  0.44974  0.12049  1.0000
  C   C221      1.0  0.18602  0.45495  0.15338  1.0000
  C  Sn50      1.0  0.17942  0.48172  0.16496  1.0000
  C  Sn51      1.0  0.19318  0.50375  0.14321  1.0000
  C   C222      1.0  0.21326  0.49854  0.11034  1.0000
  C  Sn52      1.0  0.21987  0.47177  0.09874  1.0000
  O  Te49      1.0  0.21237  0.42282  0.10944  1.0000
  O  Te50      1.0  0.15927  0.48641  0.19795  1.0000
  O  Te51      1.0  0.18691  0.53068  0.15429  1.0000
  O  Te52      1.0  0.24001  0.46707  0.06577  1.0000
  Mg  Mg25      1.0  0.15795  0.52667  0.20133  1.0000
  Mg  Mg26      1.0  0.24133  0.42682  0.06235  1.0000
  C  Sn53      1.0  0.32298  0.45717  0.90142  1.0000
  C   C223      1.0  0.32497  0.48513  0.89311  1.0000
  C  Sn54      1.0  0.33436  0.49457  0.85295  1.0000
  C  Sn55      1.0  0.34189  0.47568  0.82041  1.0000
  C   C224      1.0  0.33989  0.44774  0.82872  1.0000
  C  Sn56      1.0  0.33051  0.43828  0.86887  1.0000
  O  Te53      1.0  0.31354  0.44819  0.94180  1.0000
  O  Te54      1.0  0.33619  0.52261  0.84541  1.0000
  O  Te55      1.0  0.35134  0.48468  0.78001  1.0000
  O  Te56      1.0  0.32868  0.41026  0.87642  1.0000
  Mg  Mg27      1.0  0.35021  0.52485  0.78524  1.0000
  Mg  Mg28      1.0  0.31465  0.40800  0.93657  1.0000
  C  Sn57      1.0  0.44392  0.28662  0.73083  1.0000
  C   C225      1.0  0.46560  0.28570  0.69906  1.0000
  C  Sn58      1.0  0.47997  0.30953  0.68594  1.0000
  C  Sn59      1.0  0.47252  0.33479  0.70499  1.0000
  C   C226      1.0  0.45086  0.33569  0.73674  1.0000
  C  Sn60      1.0  0.43648  0.31188  0.74988  1.0000
  O  Te57      1.0  0.42985  0.26255  0.74345  1.0000
  O  Te58      1.0  0.50156  0.30810  0.65411  1.0000
  O  Te59      1.0  0.48662  0.35886  0.69234  1.0000
  O  Te60      1.0  0.41490  0.31329  0.78170  1.0000
  Mg  Mg29      1.0  0.51452  0.34646  0.64777  1.0000
  Mg  Mg30      1.0  0.40193  0.27495  0.78807  1.0000
  C  Sn61      1.0  0.32555  0.67091  0.23827  1.0000
  C   C227      1.0  0.35506  0.67241  0.25367  1.0000
  C  Sn62      1.0  0.37532  0.65168  0.24458  1.0000
  C  Sn63      1.0  0.36589  0.62900  0.21954  1.0000
  C   C228      1.0  0.33639  0.62752  0.20415  1.0000
  C  Sn64      1.0  0.31612  0.64823  0.21324  1.0000
  O  Te61      1.0  0.30568  0.69187  0.24776  1.0000
  O  Te62      1.0  0.40471  0.65362  0.26034  1.0000
  O  Te63      1.0  0.38578  0.60804  0.21007  1.0000
  O  Te64      1.0  0.28674  0.64630  0.19749  1.0000
  Mg  Mg31      1.0  0.42346  0.61994  0.23877  1.0000
  Mg  Mg32      1.0  0.26798  0.67998  0.21901  1.0000
  C  Sn65      1.0  0.63168  0.67550  0.32642  1.0000
  C   C229      1.0  0.60067  0.67322  0.32200  1.0000
  C  Sn66      1.0  0.58618  0.64941  0.33494  1.0000
  C  Sn67      1.0  0.60305  0.62744  0.35269  1.0000
  C   C230      1.0  0.63404  0.62973  0.35711  1.0000
  C  Sn68      1.0  0.64855  0.65352  0.34417  1.0000
  O  Te65      1.0  0.64569  0.69948  0.31327  1.0000
  O  Te66      1.0  0.55516  0.64761  0.33019  1.0000
  O  Te67      1.0  0.58901  0.60344  0.36584  1.0000
  O  Te68      1.0  0.67955  0.65533  0.34893  1.0000
  Mg  Mg33      1.0  0.54629  0.61075  0.35285  1.0000
  Mg  Mg34      1.0  0.68844  0.69219  0.32630  1.0000
  C  Sn69      1.0  0.02452  0.32598  0.22747  1.0000
  C   C231      1.0  0.02481  0.29913  0.21264  1.0000
  C  Sn70      1.0  0.05131  0.28744  0.19861  1.0000
  C  Sn71      1.0  0.07807  0.30290  0.19946  1.0000
  C   C232      1.0  0.07777  0.32973  0.21429  1.0000
  C  Sn72      1.0  0.05128  0.34144  0.22831  1.0000
  O  Te69      1.0  0.99777  0.33725  0.24134  1.0000
  O  Te70      1.0  0.05105  0.26056  0.18391  1.0000
  O  Te71      1.0  0.10482  0.29160  0.18557  1.0000
  O  Te72      1.0  0.05153  0.36829  0.24301  1.0000
  Mg  Mg35      1.0  0.09312  0.25423  0.16839  1.0000
  Mg  Mg36      1.0  0.00948  0.37464  0.25856  1.0000
  C  Sn73      1.0  0.73520  0.49815  0.61834  1.0000
  C   C233      1.0  0.73075  0.47099  0.60644  1.0000
  C  Sn74      1.0  0.75101  0.45793  0.57983  1.0000
  C  Sn75      1.0  0.77626  0.47230  0.56481  1.0000
  C   C234      1.0  0.78071  0.49944  0.57671  1.0000
  C  Sn76      1.0  0.76045  0.51252  0.60332  1.0000
  O  Te73      1.0  0.71466  0.51081  0.64498  1.0000
  O  Te74      1.0  0.74608  0.43077  0.56836  1.0000
  O  Te75      1.0  0.79681  0.45962  0.53815  1.0000
  O  Te76      1.0  0.76538  0.53966  0.61480  1.0000
  Mg  Mg37      1.0  0.78041  0.42239  0.53143  1.0000
  Mg  Mg38      1.0  0.73108  0.54806  0.65174  1.0000
  C  Sn77      1.0  0.16950  0.62635  0.78931  1.0000
  C   C235      1.0  0.20014  0.62917  0.79755  1.0000
  C  Sn78      1.0  0.21213  0.65446  0.80907  1.0000
  C  Sn79      1.0  0.19310  0.67740  0.81246  1.0000
  C   C236      1.0  0.16248  0.67458  0.80423  1.0000
  C  Sn80      1.0  0.15047  0.64930  0.79270  1.0000
  O  Te77      1.0  0.15800  0.60088  0.77785  1.0000
  O  Te78      1.0  0.24284  0.65677  0.81713  1.0000
  O  Te79      1.0  0.20463  0.70289  0.82393  1.0000
  O  Te80      1.0  0.11978  0.64697  0.78465  1.0000
  Mg  Mg39      1.0  0.24791  0.69576  0.83174  1.0000
  Mg  Mg40      1.0  0.11469  0.60800  0.77006  1.0000
  C  Sn81      1.0  0.61361  0.33232  0.71381  1.0000
  C   C237      1.0  0.63867  0.33240  0.68769  1.0000
  C  Sn82      1.0  0.64160  0.31300  0.65518  1.0000
  C  Sn83      1.0  0.61900  0.29311  0.64861  1.0000
  C   C238      1.0  0.59395  0.29303  0.67472  1.0000
  C  Sn84      1.0  0.59101  0.31243  0.70725  1.0000
  O  Te81      1.0  0.61115  0.35191  0.74613  1.0000
  O  Te82      1.0  0.66687  0.31349  0.62948  1.0000
  O  Te83      1.0  0.62148  0.27351  0.61627  1.0000
  O  Te84      1.0  0.56576  0.31195  0.73293  1.0000
  Mg  Mg41      1.0  0.66005  0.28255  0.58963  1.0000
  Mg  Mg42      1.0  0.57255  0.34288  0.77277  1.0000
  C  Sn85      1.0  0.87679  0.38716  0.31014  1.0000
  C   C239      1.0  0.86526  0.36186  0.29770  1.0000
  C  Sn86      1.0  0.83448  0.35819  0.29234  1.0000
  C  Sn87      1.0  0.81482  0.38027  0.29952  1.0000
  C   C240      1.0  0.82635  0.40556  0.31195  1.0000
  C  Sn88      1.0  0.85713  0.40925  0.31733  1.0000
  O  Te85      1.0  0.90764  0.39037  0.31531  1.0000
  O  Te86      1.0  0.82347  0.33270  0.27989  1.0000
  O  Te87      1.0  0.78395  0.37704  0.29434  1.0000
  O  Te88      1.0  0.86814  0.43472  0.32976  1.0000
  Mg  Mg43      1.0  0.77973  0.33844  0.27701  1.0000
  Mg  Mg44      1.0  0.91188  0.42901  0.33263  1.0000
  C  Sn89      1.0  0.38491  0.83157  0.28536  1.0000
  C   C241      1.0  0.36169  0.83301  0.31472  1.0000
  C  Sn90      1.0  0.36097  0.81525  0.35011  1.0000
  C  Sn91      1.0  0.38395  0.79565  0.35632  1.0000
  C   C242      1.0  0.40715  0.79422  0.32698  1.0000
  C  Sn92      1.0  0.40789  0.81197  0.29157  1.0000
  O  Te89      1.0  0.38517  0.84954  0.25021  1.0000
  O  Te90      1.0  0.33752  0.81707  0.37901  1.0000
  O  Te91      1.0  0.38367  0.77768  0.39150  1.0000
  O  Te92      1.0  0.43132  0.81016  0.26269  1.0000
  Mg  Mg45      1.0  0.34703  0.78813  0.42196  1.0000
  Mg  Mg46      1.0  0.42185  0.83910  0.21974  1.0000
  C  Sn93      1.0  0.74744  0.06979  0.89457  1.0000
  C   C243      1.0  0.74429  0.04186  0.88712  1.0000
  C  Sn94      1.0  0.73274  0.03248  0.84761  1.0000
  C  Sn95      1.0  0.72418  0.05142  0.81484  1.0000
  C   C244      1.0  0.72734  0.07933  0.82229  1.0000
  C  Sn96      1.0  0.73887  0.08872  0.86180  1.0000
  O  Te93      1.0  0.75903  0.07870  0.93431  1.0000
  O  Te94      1.0  0.72980  0.00446  0.84093  1.0000
  O  Te95      1.0  0.71258  0.04248  0.77507  1.0000
  O  Te96      1.0  0.74182  0.11672  0.86848  1.0000
  Mg  Mg47      1.0  0.71287  0.00232  0.78139  1.0000
  Mg  Mg48      1.0  0.75877  0.11888  0.92800  1.0000
