data_image0
_chemical_formula_structural       C10NCNCN2O4C9NCNCN2O4C3H36C10NCNCN2O4C9NCNCN2O4C3H36C2Sn2C2HTe2HMgC2Sn2C2HTe2HMgC2Sn2C2HTe2HMgC2Sn2C2HTe2HMgC2Sn2C2HTe2HMgC2Sn2C2HTe2HMgC2Sn2C2HTe2HMgC2Sn2C2HTe2HMgC2Sn2C2HTe2HMgC2Sn2C2HTe2HMgC2Sn2C2HTe2HMgC2Sn2C2HTe2HMgC2Sn2C2HTe2HMgC2Sn2C2HTe2HMgC2Sn2C2HTe2HMgC2Sn2C2HTe2HMgC2Sn2C2HTe2HMgC2Sn2C2HTe2HMgC2Sn2C2HTe2HMgC2Sn2C2HTe2HMgC2Sn2C2HTe2HMgC2Sn2C2HTe2HMgC2Sn2C2HTe2HMgC2Sn2C2HTe2HMgC2Sn2C2HTe2HMgC2Sn2C2HTe2HMgC2Sn2C2HTe2HMgC2Sn2C2HTe2HMgC2Sn2C2HTe2HMgC2Sn2C2HTe2HMgC2Sn2C2HTe2HMgC2Sn2C2HTe2HMgC2Sn2C2HTe2HMgC2Sn2C2HTe2HMgC2Sn2C2HTe2HMgC2Sn2C2HTe2HMgC2Sn2C2HTe2HMgC2Sn2C2HTe2HMgC2Sn2C2HTe2HMgC2Sn2C2HTe2HMgC2Sn2C2HTe2HMgC2Sn2C2HTe2HMgC2Sn2C2HTe2HMgC2Sn2C2HTe2HMgC2Sn2C2HTe2HMgC2Sn2C2HTe2HMgC2Sn2C2HTe2HMgC2Sn2C2HTe2HMg
_chemical_formula_sum              "C244 N16 O16 H168 Sn96 Te96 Mg48"
_cell_length_a       44.794
_cell_length_b       49.0731
_cell_length_c       30.9345
_cell_angle_alpha    89.7012
_cell_angle_beta     91.2499
_cell_angle_gamma    90.0177

_symmetry_space_group_name_H-M    'P1'
_space_group_IT_number       1

loop_
  _space_group_symop_operation_xyz
  'x, y, z'

loop_
  _atom_site_type_symbol
  _atom_site_label
  _atom_site_symmetry_multiplicity
  _atom_site_fract_x
  _atom_site_fract_y
  _atom_site_fract_z
  _atom_site_occupancy
  C   C1        1.0  0.11706  0.10458  0.34075  1.0000
  C   C2        1.0  0.23765  0.51448  0.08967  1.0000
  C   C3        1.0  0.27767  0.92066  0.36645  1.0000
  C   C4        1.0  0.65822  0.61064  0.36048  1.0000
  C   C5        1.0  0.81540  0.42676  0.34201  1.0000
  C   C6        1.0  0.95230  0.25712  0.24933  1.0000
  C   C7        1.0  0.97785  0.27820  0.24823  1.0000
  C   C8        1.0  0.96325  0.27281  0.31992  1.0000
  C   C9        1.0  0.97703  0.25626  0.35699  1.0000
  C   C10       1.0  0.92437  0.26434  0.22026  1.0000
  N   N1        1.0  0.78102  0.08636  0.17305  1.0000
  C   C11       1.0  0.94527  0.29729  0.33485  1.0000
  N   N2        1.0  0.78871  0.42439  0.35660  1.0000
  C   C12       1.0  0.00579  0.26926  0.22251  1.0000
  N   N3        1.0  0.15475  0.44125  0.16926  1.0000
  N   N4        1.0  0.14409  0.10729  0.35552  1.0000
  O   O1        1.0  0.94489  0.25475  0.29394  1.0000
  O   O2        1.0  0.99534  0.26320  0.17819  1.0000
  O   O3        1.0  0.98683  0.28178  0.29235  1.0000
  O   O4        1.0  0.93459  0.27104  0.17766  1.0000
  C   C13       1.0  0.73501  0.51199  0.44973  1.0000
  C   C14       1.0  0.31732  0.60461  0.19358  1.0000
  C   C15       1.0  0.16089  0.41576  0.17512  1.0000
  C   C16       1.0  0.77527  0.11216  0.17157  1.0000
  C   C17       1.0  0.47832  0.75446  0.28825  1.0000
  C   C18       1.0  0.45385  0.77666  0.28764  1.0000
  C   C19       1.0  0.46454  0.76390  0.21590  1.0000
  C   C20       1.0  0.44556  0.74192  0.19410  1.0000
  C   C21       1.0  0.50697  0.76168  0.31544  1.0000
  N   N5        1.0  0.65143  0.58537  0.36676  1.0000
  C   C22       1.0  0.48061  0.78225  0.18403  1.0000
  N   N6        1.0  0.64240  0.92395  0.18532  1.0000
  C   C23       1.0  0.42590  0.76957  0.31501  1.0000
  N   N7        1.0  0.28345  0.94647  0.36592  1.0000
  N   N8        1.0  0.29010  0.60559  0.17898  1.0000
  O   O5        1.0  0.48655  0.75135  0.24429  1.0000
  O   O6        1.0  0.43607  0.76309  0.35835  1.0000
  O   O7        1.0  0.44624  0.78061  0.24291  1.0000
  O   O8        1.0  0.49707  0.76725  0.35950  1.0000
  C   C24       1.0  0.69979  0.01025  0.09245  1.0000
  C   C25       1.0  0.20284  0.02020  0.44825  1.0000
  C   C26       1.0  0.61558  0.92641  0.19935  1.0000
  H   H1        1.0  0.10468  0.08530  0.34385  1.0000
  H   H2        1.0  0.25613  0.50269  0.07613  1.0000
  H   H3        1.0  0.22523  0.52291  0.06152  1.0000
  H   H4        1.0  0.25630  0.91291  0.37849  1.0000
  H   H5        1.0  0.68126  0.61805  0.36528  1.0000
  H   H6        1.0  0.82860  0.44549  0.34669  1.0000
  H   H7        1.0  0.96047  0.23714  0.23861  1.0000
  H   H8        1.0  0.96960  0.29750  0.23420  1.0000
  H   H9        1.0  0.98994  0.23935  0.34386  1.0000
  H   H10       1.0  0.95935  0.24809  0.37736  1.0000
  H   H11       1.0  0.99179  0.26906  0.37705  1.0000
  H   H12       1.0  0.92585  0.29048  0.35301  1.0000
  H   H13       1.0  0.93724  0.30938  0.30707  1.0000
  H   H14       1.0  0.95936  0.31015  0.35583  1.0000
  H   H15       1.0  0.00007  0.27911  0.16072  1.0000
  H   H16       1.0  0.95473  0.26331  0.17468  1.0000
  H   H17       1.0  0.75335  0.52405  0.46432  1.0000
  H   H18       1.0  0.72315  0.50311  0.47727  1.0000
  H   H19       1.0  0.33099  0.58603  0.19136  1.0000
  H   H20       1.0  0.18353  0.40772  0.17035  1.0000
  H   H21       1.0  0.75350  0.11979  0.15951  1.0000
  H   H22       1.0  0.46929  0.73519  0.30088  1.0000
  H   H23       1.0  0.46291  0.79595  0.30043  1.0000
  H   H24       1.0  0.43553  0.72870  0.21850  1.0000
  H   H25       1.0  0.45948  0.72961  0.17295  1.0000
  H   H26       1.0  0.42758  0.75135  0.17455  1.0000
  H   H27       1.0  0.46438  0.79236  0.16226  1.0000
  H   H28       1.0  0.49571  0.77011  0.16441  1.0000
  H   H29       1.0  0.49370  0.79767  0.20161  1.0000
  H   H30       1.0  0.45725  0.76826  0.36161  1.0000
  H   H31       1.0  0.50227  0.75128  0.37688  1.0000
  H   H32       1.0  0.68193  0.02190  0.07570  1.0000
  H   H33       1.0  0.71254  0.00063  0.06659  1.0000
  H   H34       1.0  0.21537  0.02949  0.47546  1.0000
  H   H35       1.0  0.18525  0.00790  0.46329  1.0000
  H   H36       1.0  0.60281  0.94549  0.19578  1.0000
  C   C27       1.0  0.88102  0.60379  0.66494  1.0000
  C   C28       1.0  0.76220  0.01350  0.90569  1.0000
  C   C29       1.0  0.72360  0.41981  0.63443  1.0000
  C   C30       1.0  0.34364  0.10894  0.63767  1.0000
  C   C31       1.0  0.18661  0.92261  0.65785  1.0000
  C   C32       1.0  0.04675  0.75381  0.75386  1.0000
  C   C33       1.0  0.02198  0.77558  0.75369  1.0000
  C   C34       1.0  0.03367  0.76536  0.68153  1.0000
  C   C35       1.0  0.01606  0.74577  0.65261  1.0000
  C   C36       1.0  0.07549  0.76122  0.78086  1.0000
  N   N9        1.0  0.22040  0.58446  0.82952  1.0000
  C   C37       1.0  0.05138  0.78634  0.65611  1.0000
  N   N10       1.0  0.21295  0.92042  0.64206  1.0000
  C   C38       1.0  0.99418  0.76773  0.78074  1.0000
  N   N11       1.0  0.84685  0.94209  0.82694  1.0000
  N   N12       1.0  0.85415  0.60687  0.64966  1.0000
  O   O9        1.0  0.05367  0.75000  0.70946  1.0000
  O   O10       1.0  0.00579  0.76186  0.82470  1.0000
  O   O11       1.0  0.01322  0.77917  0.70947  1.0000
  O   O12       1.0  0.06688  0.76838  0.82400  1.0000
  C   C39       1.0  0.26210  0.01271  0.55355  1.0000
  C   C40       1.0  0.68223  0.10230  0.79928  1.0000
  C   C41       1.0  0.84093  0.91646  0.82288  1.0000
  C   C42       1.0  0.22672  0.60993  0.82406  1.0000
  C   C43       1.0  0.52062  0.25515  0.71272  1.0000
  C   C44       1.0  0.54520  0.27725  0.71301  1.0000
  C   C45       1.0  0.53226  0.26770  0.78492  1.0000
  C   C46       1.0  0.54856  0.24891  0.81693  1.0000
  C   C47       1.0  0.49213  0.26195  0.68447  1.0000
  N   N13       1.0  0.34990  0.08345  0.63264  1.0000
  C   C48       1.0  0.51384  0.28965  0.80667  1.0000
  N   N14       1.0  0.35690  0.42388  0.81802  1.0000
  C   C49       1.0  0.57331  0.26987  0.68639  1.0000
  N   N15       1.0  0.71650  0.44526  0.63112  1.0000
  N   N16       1.0  0.70973  0.10357  0.81256  1.0000
  O   O13       1.0  0.51331  0.25133  0.75711  1.0000
  O   O14       1.0  0.56252  0.26468  0.64205  1.0000
  O   O15       1.0  0.55386  0.28037  0.75738  1.0000
  O   O16       1.0  0.50145  0.26840  0.64126  1.0000
  C   C50       1.0  0.30682  0.51311  0.91137  1.0000
  C   C51       1.0  0.79458  0.52298  0.55187  1.0000
  C   C52       1.0  0.38367  0.42550  0.80353  1.0000
  H   H37       1.0  0.89328  0.58446  0.66205  1.0000
  H   H38       1.0  0.74364  0.00116  0.91800  1.0000
  H   H39       1.0  0.77366  0.02186  0.93459  1.0000
  H   H40       1.0  0.74607  0.41252  0.62649  1.0000
  H   H41       1.0  0.32086  0.11668  0.63149  1.0000
  H   H42       1.0  0.17379  0.94171  0.65508  1.0000
  H   H43       1.0  0.03828  0.73445  0.76695  1.0000
  H   H44       1.0  0.03091  0.79484  0.76664  1.0000
  H   H45       1.0  0.00401  0.73106  0.67253  1.0000
  H   H46       1.0  0.03128  0.73478  0.63151  1.0000
  H   H47       1.0  0.99989  0.75711  0.63232  1.0000
  H   H48       1.0  0.06817  0.77608  0.63666  1.0000
  H   H49       1.0  0.06285  0.80046  0.67822  1.0000
  H   H50       1.0  0.03631  0.79782  0.63431  1.0000
  H   H51       1.0  0.00153  0.77790  0.84190  1.0000
  H   H52       1.0  0.04660  0.76138  0.82859  1.0000
  H   H53       1.0  0.24292  0.02537  0.54304  1.0000
  H   H54       1.0  0.27188  0.00527  0.52344  1.0000
  H   H55       1.0  0.66871  0.08372  0.80303  1.0000
  H   H56       1.0  0.81850  0.90839  0.82920  1.0000
  H   H57       1.0  0.24949  0.61771  0.83007  1.0000
  H   H58       1.0  0.52966  0.23587  0.70041  1.0000
  H   H59       1.0  0.53615  0.29655  0.69997  1.0000
  H   H60       1.0  0.56097  0.23340  0.79933  1.0000
  H   H61       1.0  0.53233  0.23885  0.83776  1.0000
  H   H62       1.0  0.56425  0.26056  0.83734  1.0000
  H   H63       1.0  0.52821  0.30163  0.82858  1.0000
  H   H64       1.0  0.49601  0.28020  0.82534  1.0000
  H   H65       1.0  0.50365  0.30327  0.78235  1.0000
  H   H66       1.0  0.56359  0.28209  0.62696  1.0000
  H   H67       1.0  0.52176  0.26124  0.63790  1.0000
  H   H68       1.0  0.32558  0.52568  0.92338  1.0000
  H   H69       1.0  0.29651  0.50452  0.94044  1.0000
  H   H70       1.0  0.78120  0.53330  0.52633  1.0000
  H   H71       1.0  0.81202  0.51180  0.53473  1.0000
  H   H72       1.0  0.39719  0.44414  0.80702  1.0000
  C   C53       1.0  0.33553  0.90454  0.33679  1.0000
  C   C54       1.0  0.30525  0.90230  0.34619  1.0000
  C  Sn1       1.0  0.29215  0.87666  0.35109  1.0000
  C  Sn2       1.0  0.30975  0.85285  0.34648  1.0000
  C   C55       1.0  0.34003  0.85531  0.33710  1.0000
  C   C56       1.0  0.35291  0.88107  0.33225  1.0000
  H   H73       1.0  0.34550  0.92447  0.33306  1.0000
  O  Te1       1.0  0.26187  0.87478  0.36047  1.0000
  O  Te2       1.0  0.29723  0.82697  0.35123  1.0000
  H   H74       1.0  0.37635  0.88280  0.32500  1.0000
  Mg  Mg1       1.0  0.25500  0.83496  0.36393  1.0000
  C   C57       1.0  0.32673  0.67369  0.22445  1.0000
  C   C58       1.0  0.35509  0.67508  0.24407  1.0000
  C  Sn3       1.0  0.37343  0.65206  0.24582  1.0000
  C  Sn4       1.0  0.36314  0.62722  0.22754  1.0000
  C   C59       1.0  0.33475  0.62605  0.20796  1.0000
  C   C60       1.0  0.31657  0.64920  0.20640  1.0000
  H   H75       1.0  0.31267  0.69160  0.22323  1.0000
  O  Te3       1.0  0.40169  0.65380  0.26556  1.0000
  O  Te4       1.0  0.38102  0.60391  0.22882  1.0000
  H   H76       1.0  0.29463  0.64812  0.19118  1.0000
  Mg  Mg2       1.0  0.41781  0.61649  0.25925  1.0000
  C   C61       1.0  0.60455  0.85825  0.23377  1.0000
  C   C62       1.0  0.57582  0.85742  0.25043  1.0000
  C  Sn5       1.0  0.55784  0.88069  0.24931  1.0000
  C  Sn6       1.0  0.56891  0.90520  0.23115  1.0000
  C   C63       1.0  0.59768  0.90581  0.21455  1.0000
  C   C64       1.0  0.61548  0.88241  0.21584  1.0000
  H   H77       1.0  0.61832  0.84014  0.23475  1.0000
  O  Te5       1.0  0.52919  0.87951  0.26611  1.0000
  O  Te6       1.0  0.55141  0.92876  0.22961  1.0000
  H   H78       1.0  0.63772  0.88305  0.20292  1.0000
  Mg  Mg3       1.0  0.51384  0.91697  0.25662  1.0000
  C   C65       1.0  0.59754  0.62736  0.34209  1.0000
  C   C66       1.0  0.62868  0.62893  0.34425  1.0000
  C  Sn7       1.0  0.64295  0.65421  0.34203  1.0000
  C  Sn8       1.0  0.62566  0.67832  0.33759  1.0000
  C   C67       1.0  0.59451  0.67653  0.33549  1.0000
  C   C68       1.0  0.58046  0.65113  0.33773  1.0000
  H   H79       1.0  0.58667  0.60771  0.34385  1.0000
  O  Te7       1.0  0.67409  0.65541  0.34422  1.0000
  O  Te8       1.0  0.63934  0.70384  0.33532  1.0000
  H   H80       1.0  0.55635  0.64992  0.33609  1.0000
  Mg  Mg4       1.0  0.68242  0.69495  0.33971  1.0000
  C   C69       1.0  0.90187  0.21006  0.24702  1.0000
  C   C70       1.0  0.90502  0.23385  0.22248  1.0000
  C  Sn9       1.0  0.88432  0.24011  0.18947  1.0000
  C  Sn10      1.0  0.86006  0.22220  0.18094  1.0000
  C   C71       1.0  0.85710  0.19846  0.20569  1.0000
  C   C72       1.0  0.87794  0.19239  0.23864  1.0000
  H   H81       1.0  0.91799  0.20537  0.27253  1.0000
  O  Te9       1.0  0.88780  0.26395  0.16526  1.0000
  O  Te10      1.0  0.83905  0.22796  0.14815  1.0000
  H   H82       1.0  0.87549  0.17399  0.25765  1.0000
  Mg  Mg5       1.0  0.85338  0.26293  0.12401  1.0000
  C   C73       1.0  0.87114  0.30158  0.28290  1.0000
  C   C74       1.0  0.87631  0.32915  0.27435  1.0000
  C  Sn11      1.0  0.89730  0.33689  0.24387  1.0000
  C  Sn12      1.0  0.91337  0.31662  0.22158  1.0000
  C   C75       1.0  0.90802  0.28909  0.23034  1.0000
  C   C76       1.0  0.88697  0.28156  0.26091  1.0000
  H   H83       1.0  0.85485  0.29575  0.30653  1.0000
  O  Te11      1.0  0.90220  0.36453  0.23574  1.0000
  O  Te12      1.0  0.93446  0.32379  0.19095  1.0000
  H   H84       1.0  0.88296  0.26021  0.26750  1.0000
  Mg  Mg6       1.0  0.93324  0.36412  0.19112  1.0000
  C   C77       1.0  0.07474  0.29949  0.19116  1.0000
  C   C78       1.0  0.07403  0.32690  0.20315  1.0000
  C  Sn13      1.0  0.05034  0.33690  0.22704  1.0000
  C  Sn14      1.0  0.02696  0.31909  0.23912  1.0000
  C   C79       1.0  0.02789  0.29171  0.22699  1.0000
  C   C80       1.0  0.05170  0.28191  0.20307  1.0000
  H   H85       1.0  0.09317  0.29191  0.17267  1.0000
  O  Te13      1.0  0.04997  0.36434  0.23874  1.0000
  O  Te14      1.0  0.00302  0.32856  0.26301  1.0000
  H   H86       1.0  0.05225  0.26069  0.19382  1.0000
  Mg  Mg7       1.0  0.01256  0.36761  0.27128  1.0000
  C   C81       1.0  0.04442  0.24175  0.28550  1.0000
  C   C82       1.0  0.02568  0.24463  0.24905  1.0000
  C  Sn15      1.0  0.01725  0.22180  0.22490  1.0000
  C  Sn16      1.0  0.02782  0.19563  0.23755  1.0000
  C   C83       1.0  0.04655  0.19297  0.27407  1.0000
  C   C84       1.0  0.05485  0.21595  0.29801  1.0000
  H   H87       1.0  0.05083  0.25953  0.30403  1.0000
  O  Te15      1.0  0.99852  0.22503  0.18857  1.0000
  O  Te16      1.0  0.01974  0.17247  0.21400  1.0000
  H   H88       1.0  0.06934  0.21371  0.32624  1.0000
  Mg  Mg8       1.0  0.99376  0.18733  0.16694  1.0000
  C   C85       1.0  0.74056  0.07245  0.10509  1.0000
  C   C86       1.0  0.75560  0.07111  0.14509  1.0000
  C  Sn17      1.0  0.75344  0.04780  0.17097  1.0000
  C  Sn18      1.0  0.73588  0.02545  0.15643  1.0000
  C   C87       1.0  0.72093  0.02698  0.11634  1.0000
  C   C88       1.0  0.72324  0.05041  0.09071  1.0000
  H   H89       1.0  0.74236  0.09056  0.08524  1.0000
  O  Te17      1.0  0.76861  0.04681  0.21086  1.0000
  O  Te18      1.0  0.73334  0.00191  0.18164  1.0000
  H   H90       1.0  0.71161  0.05143  0.05973  1.0000
  Mg  Mg9       1.0  0.75821  0.01029  0.23358  1.0000
  C   C89       1.0  0.18279  0.49215  0.16625  1.0000
  C   C90       1.0  0.17516  0.46569  0.15373  1.0000
  C  Sn19      1.0  0.19052  0.45288  0.12066  1.0000
  C  Sn20      1.0  0.21393  0.46688  0.09980  1.0000
  C   C91       1.0  0.22141  0.49335  0.11258  1.0000
  C   C92       1.0  0.20589  0.50597  0.14571  1.0000
  H   H91       1.0  0.17080  0.50192  0.19189  1.0000
  O  Te19      1.0  0.18260  0.42643  0.10854  1.0000
  O  Te20      1.0  0.22965  0.45457  0.06666  1.0000
  H   H92       1.0  0.21182  0.52646  0.15541  1.0000
  Mg  Mg10      1.0  0.21060  0.41827  0.06164  1.0000
  C   C93       1.0  0.16440  0.03895  0.37688  1.0000
  C   C94       1.0  0.18538  0.04084  0.41083  1.0000
  C  Sn21      1.0  0.19257  0.06619  0.42860  1.0000
  C  Sn22      1.0  0.17845  0.09004  0.41201  1.0000
  C   C95       1.0  0.15748  0.08792  0.37806  1.0000
  C   C96       1.0  0.15045  0.06246  0.36051  1.0000
  H   H93       1.0  0.15895  0.01924  0.36331  1.0000
  O  Te21      1.0  0.21359  0.06772  0.46250  1.0000
  O  Te22      1.0  0.18522  0.11563  0.42918  1.0000
  H   H94       1.0  0.13419  0.06099  0.33424  1.0000
  Mg  Mg11      1.0  0.21534  0.10723  0.47511  1.0000
  C   C97       1.0  0.76868  0.49254  0.37664  1.0000
  C   C98       1.0  0.75019  0.49082  0.41236  1.0000
  C  Sn23      1.0  0.74510  0.46569  0.43232  1.0000
  C  Sn24      1.0  0.75882  0.44187  0.41615  1.0000
  C   C99       1.0  0.77730  0.44381  0.38042  1.0000
  C   C100      1.0  0.78223  0.46906  0.36068  1.0000
  H   H95       1.0  0.77250  0.51207  0.36138  1.0000
  O  Te23      1.0  0.72656  0.46433  0.46796  1.0000
  O  Te24      1.0  0.75413  0.41650  0.43550  1.0000
  H   H96       1.0  0.79656  0.47039  0.33304  1.0000
  Mg  Mg12      1.0  0.72702  0.42508  0.48326  1.0000
  C   C101      1.0  0.10001  0.40032  0.19107  1.0000
  C   C102      1.0  0.13112  0.39826  0.19071  1.0000
  C  Sn25      1.0  0.14495  0.37288  0.19544  1.0000
  C  Sn26      1.0  0.12725  0.34915  0.20061  1.0000
  C   C103      1.0  0.09614  0.35142  0.20089  1.0000
  C   C104      1.0  0.08254  0.37693  0.19615  1.0000
  H   H97       1.0  0.08948  0.42006  0.18737  1.0000
  O  Te25      1.0  0.17606  0.37118  0.19502  1.0000
  O  Te26      1.0  0.14049  0.32352  0.20539  1.0000
  H   H98       1.0  0.05845  0.37852  0.19640  1.0000
  Mg  Mg13      1.0  0.18371  0.33168  0.20272  1.0000
  C   C105      1.0  0.11386  0.16040  0.31222  1.0000
  C   C106      1.0  0.10420  0.13411  0.32240  1.0000
  C  Sn27      1.0  0.07474  0.12630  0.31331  1.0000
  C  Sn28      1.0  0.05463  0.14521  0.29365  1.0000
  C   C107      1.0  0.06452  0.17146  0.28356  1.0000
  C   C108      1.0  0.09404  0.17907  0.29281  1.0000
  H   H99       1.0  0.13671  0.16628  0.31935  1.0000
  O  Te27      1.0  0.06545  0.09995  0.32371  1.0000
  O  Te28      1.0  0.02507  0.13794  0.28420  1.0000
  H   H100      1.0  0.10152  0.19942  0.28490  1.0000
  Mg  Mg14      1.0  0.02298  0.09967  0.30450  1.0000
  C   C109      1.0  0.81491  0.37300  0.30519  1.0000
  C   C110      1.0  0.82628  0.39774  0.32052  1.0000
  C  Sn29      1.0  0.85645  0.40407  0.31583  1.0000
  C  Sn30      1.0  0.87554  0.38525  0.29539  1.0000
  C   C111      1.0  0.86393  0.36057  0.28014  1.0000
  C   C112      1.0  0.83371  0.35444  0.28502  1.0000
  H   H101      1.0  0.79152  0.36826  0.30894  1.0000
  O  Te29      1.0  0.86746  0.42887  0.33134  1.0000
  O  Te30      1.0  0.90578  0.39107  0.29026  1.0000
  H   H102      1.0  0.82490  0.33529  0.27312  1.0000
  Mg  Mg15      1.0  0.91027  0.42752  0.31676  1.0000
  C   C113      1.0  0.84513  0.13993  0.20572  1.0000
  C   C114      1.0  0.84174  0.16811  0.20121  1.0000
  C  Sn31      1.0  0.81390  0.17921  0.18992  1.0000
  C  Sn32      1.0  0.78905  0.16171  0.18306  1.0000
  C   C115      1.0  0.79267  0.13354  0.18768  1.0000
  C   C116      1.0  0.82062  0.12265  0.19897  1.0000
  H   H103      1.0  0.86675  0.13150  0.21447  1.0000
  O  Te31      1.0  0.81091  0.20741  0.18553  1.0000
  O  Te32      1.0  0.76098  0.17226  0.17177  1.0000
  H   H104      1.0  0.82324  0.10083  0.20249  1.0000
  Mg  Mg16      1.0  0.76813  0.21206  0.16965  1.0000
  C   C117      1.0  0.56177  0.73889  0.34970  1.0000
  C   C118      1.0  0.53661  0.74029  0.32226  1.0000
  C  Sn33      1.0  0.52788  0.71767  0.29783  1.0000
  C  Sn34      1.0  0.54469  0.69322  0.30100  1.0000
  C   C119      1.0  0.56982  0.69201  0.32857  1.0000
  C   C120      1.0  0.57836  0.71477  0.35286  1.0000
  H   H105      1.0  0.56837  0.75649  0.36851  1.0000
  O  Te33      1.0  0.50269  0.71943  0.27057  1.0000
  O  Te34      1.0  0.53646  0.67030  0.27696  1.0000
  H   H106      1.0  0.59783  0.71367  0.37412  1.0000
  Mg  Mg17      1.0  0.50042  0.68273  0.24434  1.0000
  C   C121      1.0  0.52560  0.83314  0.30863  1.0000
  C   C122      1.0  0.54687  0.83528  0.27641  1.0000
  C  Sn35      1.0  0.55491  0.81235  0.25274  1.0000
  C  Sn36      1.0  0.54135  0.78684  0.26157  1.0000
  C   C123      1.0  0.52008  0.78492  0.29386  1.0000
  C   C124      1.0  0.51221  0.80800  0.31735  1.0000
  H   H107      1.0  0.51949  0.85100  0.32680  1.0000
  O  Te35      1.0  0.57621  0.81484  0.22067  1.0000
  O  Te36      1.0  0.54897  0.76360  0.23840  1.0000
  H   H108      1.0  0.49572  0.80634  0.34228  1.0000
  Mg  Mg18      1.0  0.57917  0.77731  0.19786  1.0000
  C   C125      1.0  0.40254  0.82405  0.28854  1.0000
  C   C126      1.0  0.40647  0.80010  0.31263  1.0000
  C  Sn37      1.0  0.38653  0.79333  0.34509  1.0000
  C  Sn38      1.0  0.36222  0.81090  0.35351  1.0000
  C   C127      1.0  0.35846  0.83481  0.32921  1.0000
  C   C128      1.0  0.37855  0.84139  0.29681  1.0000
  H   H109      1.0  0.41807  0.82913  0.26346  1.0000
  O  Te37      1.0  0.39080  0.76933  0.36887  1.0000
  O  Te38      1.0  0.34195  0.80463  0.38576  1.0000
  H   H110      1.0  0.37549  0.85992  0.27815  1.0000
  Mg  Mg19      1.0  0.35720  0.76962  0.40944  1.0000
  C   C129      1.0  0.37417  0.73226  0.24653  1.0000
  C   C130      1.0  0.37830  0.70477  0.25701  1.0000
  C  Sn39      1.0  0.39772  0.69721  0.29094  1.0000
  C  Sn40      1.0  0.41325  0.71760  0.31477  1.0000
  C   C131      1.0  0.40895  0.74505  0.30405  1.0000
  C   C132      1.0  0.38947  0.75239  0.27002  1.0000
  H   H111      1.0  0.35910  0.73795  0.22022  1.0000
  O  Te39      1.0  0.40159  0.66964  0.30098  1.0000
  O  Te40      1.0  0.43278  0.71061  0.34884  1.0000
  H   H112      1.0  0.38627  0.77368  0.26193  1.0000
  Mg  Mg20      1.0  0.43061  0.67031  0.35020  1.0000
  C   C133      1.0  0.70978  0.56584  0.43753  1.0000
  C   C134      1.0  0.71334  0.53792  0.43069  1.0000
  C  Sn41      1.0  0.69657  0.52475  0.39842  1.0000
  C  Sn42      1.0  0.67587  0.53988  0.37256  1.0000
  C   C135      1.0  0.67248  0.56782  0.37963  1.0000
  C   C136      1.0  0.68937  0.58078  0.41202  1.0000
  H   H113      1.0  0.72286  0.57588  0.46257  1.0000
  O  Te41      1.0  0.70040  0.49684  0.39204  1.0000
  O  Te42      1.0  0.65883  0.52724  0.34008  1.0000
  H   H114      1.0  0.68662  0.60241  0.41728  1.0000
  Mg  Mg21      1.0  0.67203  0.48878  0.34377  1.0000
  C   C137      1.0  0.23350  0.96856  0.44403  1.0000
  C   C138      1.0  0.22592  0.99514  0.43165  1.0000
  C  Sn43      1.0  0.23652  0.00627  0.39347  1.0000
  C  Sn44      1.0  0.25573  0.99044  0.36725  1.0000
  C   C139      1.0  0.26318  0.96386  0.37990  1.0000
  C   C140      1.0  0.25211  0.95293  0.41818  1.0000
  H   H115      1.0  0.22493  0.96010  0.47363  1.0000
  O  Te43      1.0  0.22873  0.03286  0.38159  1.0000
  O  Te44      1.0  0.26663  0.00105  0.32891  1.0000
  H   H116      1.0  0.25797  0.93234  0.42774  1.0000
  Mg  Mg22      1.0  0.24966  0.03829  0.32646  1.0000
  C   C141      1.0  0.27555  0.53592  0.15934  1.0000
  C   C142      1.0  0.25366  0.53633  0.12646  1.0000
  C  Sn45      1.0  0.24371  0.56111  0.10899  1.0000
  C  Sn46      1.0  0.25595  0.58589  0.12479  1.0000
  C   C143      1.0  0.27785  0.58526  0.15768  1.0000
  C   C144      1.0  0.28764  0.56035  0.17494  1.0000
  H   H117      1.0  0.28313  0.51665  0.17268  1.0000
  O  Te45      1.0  0.22182  0.56115  0.07615  1.0000
  O  Te46      1.0  0.24641  0.61094  0.10790  1.0000
  H   H118      1.0  0.30460  0.56004  0.20038  1.0000
  Mg  Mg23      1.0  0.21609  0.60044  0.06352  1.0000
  C   C145      1.0  0.69021  0.95310  0.11236  1.0000
  C   C146      1.0  0.68656  0.98131  0.11509  1.0000
  C  Sn47      1.0  0.66829  0.99244  0.14649  1.0000
  C  Sn48      1.0  0.65342  0.97493  0.17566  1.0000
  C   C147      1.0  0.65722  0.94673  0.17268  1.0000
  C   C148      1.0  0.67556  0.93582  0.14113  1.0000
  H   H119      1.0  0.70440  0.94465  0.08797  1.0000
  O  Te47      1.0  0.66455  0.02067  0.14876  1.0000
  O  Te48      1.0  0.63503  0.98551  0.20736  1.0000
  H   H120      1.0  0.67839  0.91398  0.13904  1.0000
  Mg  Mg24      1.0  0.63712  0.02534  0.19754  1.0000
  C   C149      1.0  0.65454  0.39217  0.66826  1.0000
  C   C150      1.0  0.65809  0.36392  0.66614  1.0000
  C  Sn49      1.0  0.68585  0.35272  0.65668  1.0000
  C  Sn50      1.0  0.71048  0.37019  0.64924  1.0000
  C   C151      1.0  0.70671  0.39842  0.65146  1.0000
  C   C152      1.0  0.67882  0.40941  0.66093  1.0000
  H   H121      1.0  0.63297  0.40067  0.67561  1.0000
  O  Te49      1.0  0.68900  0.32445  0.65468  1.0000
  O  Te50      1.0  0.73848  0.35954  0.63974  1.0000
  H   H122      1.0  0.67609  0.43128  0.66259  1.0000
  Mg  Mg25      1.0  0.73160  0.31968  0.64060  1.0000
  C   C153      1.0  0.68091  0.15891  0.77477  1.0000
  C   C154      1.0  0.67047  0.13252  0.78237  1.0000
  C  Sn51      1.0  0.64127  0.12536  0.77036  1.0000
  C  Sn52      1.0  0.62223  0.14503  0.75037  1.0000
  C   C155      1.0  0.63289  0.17137  0.74288  1.0000
  C   C156      1.0  0.66214  0.17832  0.75503  1.0000
  H   H123      1.0  0.70355  0.16429  0.78415  1.0000
  O  Te51      1.0  0.63119  0.09890  0.77821  1.0000
  O  Te52      1.0  0.59295  0.13841  0.73803  1.0000
  H   H124      1.0  0.67023  0.19875  0.74912  1.0000
  Mg  Mg26      1.0  0.58950  0.09969  0.75555  1.0000
  C   C157      1.0  0.43552  0.40158  0.76783  1.0000
  C   C158      1.0  0.40542  0.40408  0.77808  1.0000
  C  Sn53      1.0  0.38647  0.38150  0.77548  1.0000
  C  Sn54      1.0  0.39794  0.35596  0.76239  1.0000
  C   C159      1.0  0.42810  0.35367  0.75223  1.0000
  C   C160      1.0  0.44686  0.37640  0.75492  1.0000
  H   H125      1.0  0.45004  0.41916  0.76993  1.0000
  O  Te53      1.0  0.35646  0.38436  0.78582  1.0000
  O  Te54      1.0  0.37951  0.33306  0.75954  1.0000
  H   H126      1.0  0.47017  0.37445  0.74701  1.0000
  Mg  Mg27      1.0  0.34019  0.34722  0.77696  1.0000
  C   C161      1.0  0.40392  0.12556  0.65999  1.0000
  C   C162      1.0  0.37288  0.12720  0.65515  1.0000
  C  Sn55      1.0  0.35866  0.15253  0.65486  1.0000
  C  Sn56      1.0  0.37589  0.17665  0.65949  1.0000
  C   C163      1.0  0.40694  0.17480  0.66427  1.0000
  C   C164      1.0  0.42094  0.14934  0.66453  1.0000
  H   H127      1.0  0.41476  0.10587  0.66017  1.0000
  O  Te55      1.0  0.32763  0.15380  0.65002  1.0000
  O  Te56      1.0  0.36225  0.20224  0.65929  1.0000
  H   H128      1.0  0.44497  0.14808  0.66825  1.0000
  Mg  Mg28      1.0  0.31932  0.19341  0.65177  1.0000
  C   C165      1.0  0.12853  0.73638  0.81778  1.0000
  C   C166      1.0  0.10396  0.73865  0.78937  1.0000
  C  Sn57      1.0  0.09605  0.71698  0.76233  1.0000
  C  Sn58      1.0  0.11309  0.69261  0.76384  1.0000
  C   C167      1.0  0.13762  0.69054  0.79240  1.0000
  C   C168      1.0  0.14534  0.71235  0.81931  1.0000
  H   H129      1.0  0.13450  0.75325  0.83862  1.0000
  O  Te57      1.0  0.07145  0.71959  0.73412  1.0000
  O  Te58      1.0  0.10568  0.67064  0.73718  1.0000
  H   H130      1.0  0.16435  0.71058  0.84132  1.0000
  Mg  Mg29      1.0  0.07021  0.68401  0.70418  1.0000
  C   C169      1.0  0.11808  0.78552  0.72150  1.0000
  C   C170      1.0  0.09780  0.78424  0.75515  1.0000
  C  Sn59      1.0  0.08855  0.80807  0.77543  1.0000
  C  Sn60      1.0  0.09983  0.83363  0.76168  1.0000
  C   C171      1.0  0.12009  0.83470  0.72797  1.0000
  C   C172      1.0  0.12921  0.81072  0.70792  1.0000
  H   H131      1.0  0.12512  0.76698  0.70597  1.0000
  O  Te59      1.0  0.06828  0.80642  0.80900  1.0000
  O  Te60      1.0  0.09095  0.85776  0.78137  1.0000
  H   H132      1.0  0.14490  0.81173  0.68185  1.0000
  Mg  Mg30      1.0  0.06291  0.84498  0.82574  1.0000
  C   C173      1.0  0.92701  0.80030  0.81381  1.0000
  C   C174      1.0  0.92794  0.82734  0.79949  1.0000
  C  Sn61      1.0  0.95124  0.83628  0.77366  1.0000
  C  Sn62      1.0  0.97397  0.81777  0.76199  1.0000
  C   C175      1.0  0.97282  0.79076  0.77646  1.0000
  C   C176      1.0  0.94942  0.78202  0.80230  1.0000
  H   H133      1.0  0.90889  0.79354  0.83379  1.0000
  O  Te61      1.0  0.95184  0.86337  0.75964  1.0000
  O  Te62      1.0  0.99750  0.82616  0.73620  1.0000
  H   H134      1.0  0.94869  0.76109  0.81336  1.0000
  Mg  Mg31      1.0  0.98851  0.86511  0.72510  1.0000
  C   C177      1.0  0.98239  0.70900  0.78410  1.0000
  C   C178      1.0  0.98186  0.73560  0.76775  1.0000
  C  Sn63      1.0  0.96270  0.74247  0.73315  1.0000
  C  Sn64      1.0  0.94374  0.72229  0.71465  1.0000
  C   C179      1.0  0.94443  0.69575  0.73126  1.0000
  C   C180      1.0  0.96369  0.68909  0.76589  1.0000
  H   H135      1.0  0.99728  0.70385  0.81091  1.0000
  O  Te63      1.0  0.96247  0.76914  0.71720  1.0000
  O  Te64      1.0  0.92437  0.72861  0.68006  1.0000
  H   H136      1.0  0.96408  0.66850  0.77856  1.0000
  Mg  Mg32      1.0  0.93218  0.76779  0.66964  1.0000
  C   C181      1.0  0.25946  0.52386  0.84644  1.0000
  C   C182      1.0  0.28116  0.52944  0.87832  1.0000
  C  Sn65      1.0  0.28221  0.55498  0.89805  1.0000
  C  Sn66      1.0  0.26111  0.57526  0.88558  1.0000
  C   C183      1.0  0.23948  0.56947  0.85368  1.0000
  C   C184      1.0  0.23863  0.54385  0.83413  1.0000
  H   H137      1.0  0.25879  0.50403  0.83133  1.0000
  O  Te65      1.0  0.30404  0.56022  0.92983  1.0000
  O  Te66      1.0  0.26164  0.60095  0.90479  1.0000
  H   H138      1.0  0.22182  0.53953  0.80947  1.0000
  Mg  Mg33      1.0  0.29567  0.59832  0.94654  1.0000
  C   C185      1.0  0.80609  0.00186  0.83922  1.0000
  C   C186      1.0  0.78648  0.99661  0.87235  1.0000
  C  Sn67      1.0  0.78737  0.97170  0.89443  1.0000
  C  Sn68      1.0  0.80866  0.95173  0.88306  1.0000
  C   C187      1.0  0.82854  0.95719  0.84989  1.0000
  C   C188      1.0  0.82745  0.98217  0.82800  1.0000
  H   H139      1.0  0.80526  0.02120  0.82229  1.0000
  O  Te67      1.0  0.76727  0.96679  0.92744  1.0000
  O  Te68      1.0  0.81005  0.92667  0.90461  1.0000
  H   H140      1.0  0.84291  0.98624  0.80236  1.0000
  Mg  Mg34      1.0  0.77792  0.92953  0.94731  1.0000
  C   C189      1.0  0.81548  0.59058  0.58420  1.0000
  C   C190      1.0  0.83238  0.58775  0.62247  1.0000
  C  Sn69      1.0  0.83865  0.56186  0.63935  1.0000
  C  Sn70      1.0  0.82779  0.53842  0.61744  1.0000
  C   C191      1.0  0.81093  0.54147  0.57916  1.0000
  C   C192      1.0  0.80477  0.56747  0.56255  1.0000
  H   H141      1.0  0.81072  0.61069  0.57133  1.0000
  O  Te69      1.0  0.85556  0.55940  0.67763  1.0000
  O  Te70      1.0  0.83375  0.51231  0.63359  1.0000
  H   H142      1.0  0.79170  0.56965  0.53291  1.0000
  Mg  Mg35      1.0  0.85776  0.51947  0.68683  1.0000
  C   C193      1.0  0.25204  0.95455  0.56302  1.0000
  C   C194      1.0  0.25034  0.98225  0.57293  1.0000
  C  Sn71      1.0  0.23727  0.99066  0.61122  1.0000
  C  Sn72      1.0  0.22570  0.97093  0.64007  1.0000
  C   C195      1.0  0.22753  0.94326  0.62987  1.0000
  C   C196      1.0  0.24065  0.93507  0.59146  1.0000
  H   H143      1.0  0.26220  0.94821  0.53331  1.0000
  O  Te71      1.0  0.23541  0.01842  0.62062  1.0000
  O  Te72      1.0  0.21253  0.97877  0.67857  1.0000
  H   H144      1.0  0.24198  0.91362  0.58381  1.0000
  Mg  Mg36      1.0  0.21537  0.01901  0.67705  1.0000
  C   C197      1.0  0.90160  0.90101  0.80563  1.0000
  C   C198      1.0  0.87053  0.89880  0.80702  1.0000
  C  Sn73      1.0  0.85684  0.87325  0.80463  1.0000
  C  Sn74      1.0  0.87464  0.84951  0.80079  1.0000
  C   C199      1.0  0.90570  0.85194  0.79946  1.0000
  C   C200      1.0  0.91917  0.87760  0.80186  1.0000
  H   H145      1.0  0.91203  0.92086  0.80751  1.0000
  O  Te73      1.0  0.82577  0.87141  0.80605  1.0000
  O  Te74      1.0  0.86153  0.82372  0.79835  1.0000
  H   H146      1.0  0.94323  0.87931  0.80081  1.0000
  Mg  Mg37      1.0  0.81832  0.83172  0.80161  1.0000
  C   C201      1.0  0.89358  0.67166  0.69918  1.0000
  C   C202      1.0  0.92246  0.67207  0.71721  1.0000
  C  Sn75      1.0  0.94012  0.64861  0.71697  1.0000
  C  Sn76      1.0  0.92860  0.62433  0.69831  1.0000
  C   C203      1.0  0.89969  0.62414  0.68033  1.0000
  C   C204      1.0  0.88221  0.64773  0.68076  1.0000
  H   H147      1.0  0.88006  0.68992  0.69949  1.0000
  O  Te75      1.0  0.96892  0.64937  0.73513  1.0000
  O  Te76      1.0  0.94577  0.60060  0.69762  1.0000
  H   H148      1.0  0.85986  0.64741  0.66677  1.0000
  Mg  Mg38      1.0  0.98370  0.61180  0.72640  1.0000
  C   C205      1.0  0.12555  0.88792  0.70294  1.0000
  C   C206      1.0  0.13506  0.86108  0.70967  1.0000
  C  Sn77      1.0  0.16471  0.85387  0.70253  1.0000
  C  Sn78      1.0  0.18516  0.87394  0.68839  1.0000
  C   C207      1.0  0.17543  0.90073  0.68178  1.0000
  C   C208      1.0  0.14571  0.90773  0.68902  1.0000
  H   H149      1.0  0.10256  0.89334  0.70856  1.0000
  O  Te77      1.0  0.17384  0.82696  0.70939  1.0000
  O  Te78      1.0  0.21493  0.86728  0.68102  1.0000
  H   H150      1.0  0.13835  0.92851  0.68383  1.0000
  Mg  Mg39      1.0  0.21668  0.82788  0.69490  1.0000
  C   C209      1.0  0.20013  0.67658  0.80631  1.0000
  C   C210      1.0  0.16975  0.67422  0.79578  1.0000
  C  Sn79      1.0  0.15607  0.64863  0.79495  1.0000
  C  Sn80      1.0  0.17319  0.62500  0.80486  1.0000
  C   C211      1.0  0.20357  0.62758  0.81538  1.0000
  C   C212      1.0  0.21703  0.65329  0.81610  1.0000
  H   H151      1.0  0.21054  0.69647  0.80689  1.0000
  O  Te79      1.0  0.12569  0.64663  0.78435  1.0000
  O  Te80      1.0  0.16009  0.59917  0.80428  1.0000
  H   H152      1.0  0.24055  0.65511  0.82428  1.0000
  Mg  Mg40      1.0  0.11796  0.60695  0.78790  1.0000
  C   C213      1.0  0.46081  0.19465  0.70595  1.0000
  C   C214      1.0  0.43462  0.19350  0.68064  1.0000
  C  Sn81      1.0  0.42691  0.21508  0.65297  1.0000
  C  Sn82      1.0  0.44582  0.23822  0.65065  1.0000
  C   C215      1.0  0.47199  0.23916  0.67608  1.0000
  C   C216      1.0  0.47948  0.21745  0.70367  1.0000
  H   H153      1.0  0.46662  0.17784  0.72728  1.0000
  O  Te81      1.0  0.40065  0.21360  0.62792  1.0000
  O  Te82      1.0  0.43866  0.26007  0.62326  1.0000
  H   H154      1.0  0.49977  0.21834  0.72324  1.0000
  Mg  Mg41      1.0  0.40049  0.24853  0.59553  1.0000
  C   C217      1.0  0.44043  0.29914  0.74965  1.0000
  C   C218      1.0  0.44440  0.32665  0.73939  1.0000
  C  Sn83      1.0  0.46390  0.33432  0.70685  1.0000
  C  Sn84      1.0  0.47969  0.31401  0.68421  1.0000
  C   C219      1.0  0.47556  0.28654  0.69469  1.0000
  C   C220      1.0  0.45599  0.27910  0.72732  1.0000
  H   H155      1.0  0.42529  0.29338  0.77487  1.0000
  O  Te83      1.0  0.46760  0.36190  0.69703  1.0000
  O  Te84      1.0  0.49931  0.32111  0.65154  1.0000
  H   H156      1.0  0.45292  0.25779  0.73523  1.0000
  Mg  Mg42      1.0  0.49684  0.36138  0.64992  1.0000
  C   C221      1.0  0.63952  0.30264  0.65072  1.0000
  C   C222      1.0  0.63940  0.32932  0.66628  1.0000
  C  Sn85      1.0  0.61721  0.33778  0.69429  1.0000
  C  Sn86      1.0  0.59477  0.31912  0.70690  1.0000
  C   C223      1.0  0.59511  0.29247  0.69118  1.0000
  C   C224      1.0  0.61741  0.28423  0.66316  1.0000
  H   H157      1.0  0.65679  0.29625  0.62906  1.0000
  O  Te85      1.0  0.61741  0.36451  0.70952  1.0000
  O  Te86      1.0  0.57234  0.32703  0.73487  1.0000
  H   H158      1.0  0.61751  0.26356  0.65114  1.0000
  Mg  Mg43      1.0  0.58212  0.36564  0.74695  1.0000
  C   C225      1.0  0.61329  0.24174  0.74680  1.0000
  C   C226      1.0  0.59458  0.24513  0.71043  1.0000
  C  Sn87      1.0  0.58636  0.22268  0.68526  1.0000
  C  Sn88      1.0  0.59709  0.19637  0.69681  1.0000
  C   C227      1.0  0.61577  0.19319  0.73328  1.0000
  C   C228      1.0  0.62387  0.21580  0.75823  1.0000
  H   H159      1.0  0.61954  0.25923  0.76612  1.0000
  O  Te87      1.0  0.56766  0.22643  0.64901  1.0000
  O  Te88      1.0  0.58921  0.17358  0.67223  1.0000
  H   H160      1.0  0.63834  0.21317  0.78641  1.0000
  Mg  Mg44      1.0  0.56320  0.18909  0.62573  1.0000
  C   C229      1.0  0.32070  0.03296  0.62949  1.0000
  C   C230      1.0  0.32893  0.05917  0.61649  1.0000
  C  Sn89      1.0  0.31320  0.07236  0.58298  1.0000
  C  Sn90      1.0  0.28878  0.05902  0.56217  1.0000
  C   C231      1.0  0.28070  0.03281  0.57543  1.0000
  C   C232      1.0  0.29661  0.01979  0.60899  1.0000
  H   H161      1.0  0.33299  0.02289  0.65547  1.0000
  O  Te89      1.0  0.32173  0.09855  0.57038  1.0000
  O  Te90      1.0  0.27266  0.07174  0.52860  1.0000
  H   H162      1.0  0.29022  0.99950  0.61907  1.0000
  Mg  Mg45      1.0  0.29284  0.10745  0.52301  1.0000
  C   C233      1.0  0.77032  0.46848  0.55876  1.0000
  C   C234      1.0  0.77368  0.49615  0.56819  1.0000
  C  Sn91      1.0  0.75851  0.50764  0.60262  1.0000
  C  Sn92      1.0  0.73966  0.49108  0.62803  1.0000
  C   C235      1.0  0.73647  0.46342  0.61834  1.0000
  C   C236      1.0  0.75174  0.45213  0.58381  1.0000
  H   H163      1.0  0.78215  0.45974  0.53205  1.0000
  O  Te91      1.0  0.76211  0.53532  0.61159  1.0000
  O  Te92      1.0  0.72425  0.50204  0.66263  1.0000
  H   H164      1.0  0.74916  0.43071  0.57653  1.0000
  Mg  Mg46      1.0  0.73640  0.54084  0.66209  1.0000
  C   C237      1.0  0.74789  0.08327  0.87621  1.0000
  C   C238      1.0  0.73052  0.08247  0.83815  1.0000
  C  Sn93      1.0  0.72162  0.05750  0.82063  1.0000
  C  Sn94      1.0  0.73030  0.03290  0.84168  1.0000
  C   C239      1.0  0.74765  0.03391  0.87975  1.0000
  C   C240      1.0  0.75644  0.05902  0.89700  1.0000
  H   H165      1.0  0.75468  0.10269  0.88956  1.0000
  O  Te93      1.0  0.70429  0.05707  0.78258  1.0000
  O  Te94      1.0  0.72170  0.00766  0.82488  1.0000
  H   H166      1.0  0.76987  0.05963  0.92648  1.0000
  Mg  Mg47      1.0  0.69813  0.01764  0.77227  1.0000
  C   C241      1.0  0.31416  0.45529  0.89469  1.0000
  C   C242      1.0  0.31837  0.48334  0.88972  1.0000
  C  Sn95      1.0  0.33490  0.49344  0.85537  1.0000
  C  Sn96      1.0  0.34742  0.47507  0.82549  1.0000
  C   C243      1.0  0.34306  0.44705  0.83073  1.0000
  C   C244      1.0  0.32649  0.43715  0.86522  1.0000
  H   H167      1.0  0.30132  0.44763  0.92137  1.0000
  O  Te95      1.0  0.33890  0.52152  0.85089  1.0000
  O  Te96      1.0  0.36403  0.48462  0.79086  1.0000
  H   H168      1.0  0.32321  0.41544  0.86905  1.0000
  Mg  Mg48      1.0  0.36329  0.52465  0.79845  1.0000
