data_image0
_chemical_formula_structural       C20NC7NC2N2CO4C43NC7NC7NC6NO4C5H84C26NC7NC8NC6NO4C31NCNC3N2O4C16H84C2Sn2C2HTe2HMgC2Sn2C2HTe2HMgC2Sn2C2HTe2HMgC2Sn2C2HTe2HMgC2Sn2C2HTe2HMgC2Sn2C2HTe2HMgC2Sn2C2HTe2HMgC2Sn2C2HTe2HMgC2Sn2C2HTe2HMgC2Sn2C2HTe2HMgC2Sn2C2HTe2HMgC2Sn2C2HTe2HMgC2Sn2C2HTe2HMgC2Sn2C2HTe2HMgC2Sn2C2HTe2HMgC2Sn2C2HTe2HMgC2Sn2C2HTe2HMgC2Sn2C2HTe2HMgC2Sn2C2HTe2HMgC2Sn2C2HTe2HMgC2Sn2C2HTe2HMgC2Sn2C2HTe2HMgC2Sn2C2HTe2HMgC2Sn2C2HTe2HMg
_chemical_formula_sum              "C292 N16 O16 H216 Sn48 Te48 Mg24"
_cell_length_a       44.794
_cell_length_b       49.0731
_cell_length_c       30.9345
_cell_angle_alpha    89.7012
_cell_angle_beta     91.2499
_cell_angle_gamma    90.0177

_symmetry_space_group_name_H-M    'P1'
_space_group_IT_number       1

loop_
  _space_group_symop_operation_xyz
  'x, y, z'

loop_
  _atom_site_type_symbol
  _atom_site_label
  _atom_site_symmetry_multiplicity
  _atom_site_fract_x
  _atom_site_fract_y
  _atom_site_fract_z
  _atom_site_occupancy
  C   C1        1.0  0.11706  0.10458  0.34075  1.0000
  C   C2        1.0  0.23765  0.51448  0.08967  1.0000
  C   C3        1.0  0.31077  0.85183  0.34636  1.0000
  C   C4        1.0  0.29047  0.87233  0.35555  1.0000
  C   C5        1.0  0.29869  0.89995  0.35270  1.0000
  C   C6        1.0  0.32762  0.90646  0.33898  1.0000
  C   C7        1.0  0.34785  0.88593  0.32991  1.0000
  C   C8        1.0  0.37717  0.64860  0.24424  1.0000
  C   C9        1.0  0.36196  0.62606  0.22769  1.0000
  C   C10       1.0  0.33229  0.62835  0.21225  1.0000
  C   C11       1.0  0.31818  0.65397  0.21406  1.0000
  C   C12       1.0  0.33345  0.67642  0.23040  1.0000
  C   C13       1.0  0.27767  0.92066  0.36645  1.0000
  C   C14       1.0  0.65822  0.61064  0.36048  1.0000
  C   C15       1.0  0.81540  0.42676  0.34201  1.0000
  C   C16       1.0  0.95230  0.25712  0.24933  1.0000
  C   C17       1.0  0.97785  0.27820  0.24823  1.0000
  C   C18       1.0  0.96325  0.27281  0.31992  1.0000
  C   C19       1.0  0.97703  0.25626  0.35699  1.0000
  C   C20       1.0  0.92437  0.26434  0.22026  1.0000
  N   N1        1.0  0.78102  0.08636  0.17305  1.0000
  C   C21       1.0  0.90781  0.28917  0.23715  1.0000
  C   C22       1.0  0.88554  0.28641  0.26805  1.0000
  C   C23       1.0  0.87067  0.30918  0.28352  1.0000
  C   C24       1.0  0.87770  0.33560  0.26900  1.0000
  C   C25       1.0  0.90019  0.33828  0.23828  1.0000
  C   C26       1.0  0.91473  0.31541  0.22229  1.0000
  C   C27       1.0  0.94527  0.29729  0.33485  1.0000
  N   N2        1.0  0.78871  0.42439  0.35660  1.0000
  C   C28       1.0  0.00579  0.26926  0.22251  1.0000
  C   C29       1.0  0.17648  0.45831  0.15146  1.0000
  N   N3        1.0  0.15475  0.44125  0.16926  1.0000
  N   N4        1.0  0.14409  0.10729  0.35552  1.0000
  C   C30       1.0  0.15874  0.08511  0.37537  1.0000
  O   O1        1.0  0.94489  0.25475  0.29394  1.0000
  O   O2        1.0  0.99534  0.26320  0.17819  1.0000
  O   O3        1.0  0.98683  0.28178  0.29235  1.0000
  O   O4        1.0  0.93459  0.27104  0.17766  1.0000
  C   C31       1.0  0.19484  0.44977  0.11767  1.0000
  C   C32       1.0  0.21481  0.46788  0.09900  1.0000
  C   C33       1.0  0.21733  0.49490  0.11324  1.0000
  C   C34       1.0  0.19927  0.50325  0.14723  1.0000
  C   C35       1.0  0.17883  0.48544  0.16568  1.0000
  C   C36       1.0  0.17824  0.09098  0.41033  1.0000
  C   C37       1.0  0.19249  0.07002  0.43325  1.0000
  C   C38       1.0  0.18843  0.04268  0.42162  1.0000
  C   C39       1.0  0.17014  0.03696  0.38529  1.0000
  C   C40       1.0  0.15544  0.05773  0.36244  1.0000
  C   C41       1.0  0.73501  0.51199  0.44973  1.0000
  C   C42       1.0  0.86153  0.35954  0.28539  1.0000
  C   C43       1.0  0.09570  0.35453  0.20346  1.0000
  C   C44       1.0  0.06677  0.17221  0.28891  1.0000
  C   C45       1.0  0.31732  0.60461  0.19358  1.0000
  C   C46       1.0  0.12620  0.34805  0.20071  1.0000
  C   C47       1.0  0.14720  0.36825  0.19260  1.0000
  C   C48       1.0  0.13850  0.39561  0.18700  1.0000
  C   C49       1.0  0.10808  0.40229  0.19065  1.0000
  C   C50       1.0  0.08718  0.38210  0.19876  1.0000
  C   C51       1.0  0.05376  0.14625  0.29272  1.0000
  C   C52       1.0  0.07037  0.12423  0.30879  1.0000
  C   C53       1.0  0.10058  0.12741  0.32126  1.0000
  C   C54       1.0  0.11388  0.15323  0.31640  1.0000
  C   C55       1.0  0.09725  0.17513  0.30067  1.0000
  C   C56       1.0  0.83062  0.35800  0.29315  1.0000
  C   C57       1.0  0.81533  0.37984  0.31049  1.0000
  C   C58       1.0  0.83042  0.40424  0.32072  1.0000
  C   C59       1.0  0.86100  0.40622  0.31170  1.0000
  C   C60       1.0  0.87631  0.38424  0.29433  1.0000
  C   C61       1.0  0.16089  0.41576  0.17512  1.0000
  C   C62       1.0  0.77527  0.11216  0.17157  1.0000
  C   C63       1.0  0.47832  0.75446  0.28825  1.0000
  C   C64       1.0  0.45385  0.77666  0.28764  1.0000
  C   C65       1.0  0.46454  0.76390  0.21590  1.0000
  C   C66       1.0  0.44556  0.74192  0.19410  1.0000
  C   C67       1.0  0.52913  0.73809  0.31793  1.0000
  C   C68       1.0  0.52494  0.71316  0.29678  1.0000
  C   C69       1.0  0.54604  0.69234  0.30159  1.0000
  C   C70       1.0  0.57188  0.69567  0.32759  1.0000
  C   C71       1.0  0.57595  0.72083  0.34864  1.0000
  C   C72       1.0  0.55507  0.74165  0.34370  1.0000
  C   C73       1.0  0.50697  0.76168  0.31544  1.0000
  N   N5        1.0  0.65143  0.58537  0.36676  1.0000
  C   C74       1.0  0.52198  0.78734  0.29860  1.0000
  C   C75       1.0  0.54111  0.78560  0.26342  1.0000
  C   C76       1.0  0.55549  0.80869  0.24793  1.0000
  C   C77       1.0  0.55112  0.83436  0.26685  1.0000
  C   C78       1.0  0.53134  0.83610  0.30135  1.0000
  C   C79       1.0  0.51713  0.81289  0.31721  1.0000
  C   C80       1.0  0.48061  0.78225  0.18403  1.0000
  N   N6        1.0  0.64240  0.92395  0.18532  1.0000
  C   C81       1.0  0.40438  0.79376  0.31784  1.0000
  C   C82       1.0  0.38150  0.79149  0.34793  1.0000
  C   C83       1.0  0.36084  0.81226  0.35290  1.0000
  C   C84       1.0  0.36210  0.83627  0.32779  1.0000
  C   C85       1.0  0.38501  0.83846  0.29768  1.0000
  C   C86       1.0  0.40583  0.81750  0.29269  1.0000
  C   C87       1.0  0.42590  0.76957  0.31501  1.0000
  N   N7        1.0  0.28345  0.94647  0.36592  1.0000
  C   C88       1.0  0.40926  0.74480  0.29693  1.0000
  C   C89       1.0  0.41472  0.71877  0.31419  1.0000
  C   C90       1.0  0.40006  0.69594  0.29742  1.0000
  C   C91       1.0  0.37921  0.69839  0.26299  1.0000
  C   C92       1.0  0.37355  0.72466  0.24616  1.0000
  C   C93       1.0  0.38828  0.74743  0.26283  1.0000
  N   N8        1.0  0.29010  0.60559  0.17898  1.0000
  O   O5        1.0  0.48655  0.75135  0.24429  1.0000
  O   O6        1.0  0.43607  0.76309  0.35835  1.0000
  O   O7        1.0  0.44624  0.78061  0.24291  1.0000
  O   O8        1.0  0.49707  0.76725  0.35950  1.0000
  C   C94       1.0  0.69979  0.01025  0.09245  1.0000
  C   C95       1.0  0.20284  0.02020  0.44825  1.0000
  C   C96       1.0  0.34007  0.85817  0.33415  1.0000
  C   C97       1.0  0.36328  0.67430  0.24576  1.0000
  C   C98       1.0  0.61558  0.92641  0.19935  1.0000
  H   H1        1.0  0.10468  0.08530  0.34385  1.0000
  H   H2        1.0  0.25613  0.50269  0.07613  1.0000
  H   H3        1.0  0.22523  0.52291  0.06152  1.0000
  H   H4        1.0  0.30398  0.83060  0.34860  1.0000
  H   H5        1.0  0.26802  0.86706  0.36553  1.0000
  H   H6        1.0  0.33388  0.92785  0.33693  1.0000
  H   H7        1.0  0.37047  0.89126  0.32090  1.0000
  H   H8        1.0  0.40027  0.64649  0.25527  1.0000
  H   H9        1.0  0.37313  0.60639  0.22619  1.0000
  H   H10       1.0  0.29520  0.65563  0.20225  1.0000
  H   H11       1.0  0.32213  0.69598  0.23217  1.0000
  H   H12       1.0  0.25630  0.91291  0.37849  1.0000
  H   H13       1.0  0.68126  0.61805  0.36528  1.0000
  H   H14       1.0  0.82860  0.44549  0.34669  1.0000
  H   H15       1.0  0.96047  0.23714  0.23861  1.0000
  H   H16       1.0  0.96960  0.29750  0.23420  1.0000
  H   H17       1.0  0.98994  0.23935  0.34386  1.0000
  H   H18       1.0  0.95935  0.24809  0.37736  1.0000
  H   H19       1.0  0.99179  0.26906  0.37705  1.0000
  H   H20       1.0  0.87988  0.26625  0.28009  1.0000
  H   H21       1.0  0.85370  0.30664  0.30785  1.0000
  H   H22       1.0  0.90567  0.35841  0.22586  1.0000
  H   H23       1.0  0.93116  0.31762  0.19720  1.0000
  H   H24       1.0  0.92585  0.29048  0.35301  1.0000
  H   H25       1.0  0.93724  0.30938  0.30707  1.0000
  H   H26       1.0  0.95936  0.31015  0.35583  1.0000
  H   H27       1.0  0.00007  0.27911  0.16072  1.0000
  H   H28       1.0  0.95473  0.26331  0.17468  1.0000
  H   H29       1.0  0.19247  0.42917  0.10521  1.0000
  H   H30       1.0  0.22838  0.46110  0.07234  1.0000
  H   H31       1.0  0.20109  0.52408  0.15892  1.0000
  H   H32       1.0  0.16450  0.49210  0.19151  1.0000
  H   H33       1.0  0.18131  0.11218  0.41947  1.0000
  H   H34       1.0  0.20699  0.07486  0.46085  1.0000
  H   H35       1.0  0.16756  0.01593  0.37481  1.0000
  H   H36       1.0  0.14166  0.05295  0.33408  1.0000
  H   H37       1.0  0.75335  0.52405  0.46432  1.0000
  H   H38       1.0  0.72315  0.50311  0.47727  1.0000
  H   H39       1.0  0.33099  0.58603  0.19136  1.0000
  H   H40       1.0  0.13344  0.32706  0.20527  1.0000
  H   H41       1.0  0.17071  0.36294  0.19030  1.0000
  H   H42       1.0  0.10138  0.42344  0.18600  1.0000
  H   H43       1.0  0.06363  0.38741  0.20001  1.0000
  H   H44       1.0  0.03024  0.14356  0.28429  1.0000
  H   H45       1.0  0.05981  0.10439  0.31255  1.0000
  H   H46       1.0  0.13733  0.15552  0.32557  1.0000
  H   H47       1.0  0.10786  0.19491  0.29670  1.0000
  H   H48       1.0  0.81865  0.33940  0.28479  1.0000
  H   H49       1.0  0.79155  0.37857  0.31668  1.0000
  H   H50       1.0  0.87291  0.42499  0.31941  1.0000
  H   H51       1.0  0.90015  0.38585  0.28883  1.0000
  H   H52       1.0  0.18353  0.40772  0.17035  1.0000
  H   H53       1.0  0.75350  0.11979  0.15951  1.0000
  H   H54       1.0  0.46929  0.73519  0.30088  1.0000
  H   H55       1.0  0.46291  0.79595  0.30043  1.0000
  H   H56       1.0  0.43553  0.72870  0.21850  1.0000
  H   H57       1.0  0.45948  0.72961  0.17295  1.0000
  H   H58       1.0  0.42758  0.75135  0.17455  1.0000
  H   H59       1.0  0.50571  0.71015  0.27532  1.0000
  H   H60       1.0  0.54270  0.67342  0.28400  1.0000
  H   H61       1.0  0.59552  0.72388  0.36946  1.0000
  H   H62       1.0  0.55877  0.76109  0.35972  1.0000
  H   H63       1.0  0.54472  0.76595  0.24838  1.0000
  H   H64       1.0  0.57016  0.80696  0.22052  1.0000
  H   H65       1.0  0.52792  0.85567  0.31686  1.0000
  H   H66       1.0  0.50282  0.81452  0.34499  1.0000
  H   H67       1.0  0.46438  0.79236  0.16226  1.0000
  H   H68       1.0  0.49571  0.77011  0.16441  1.0000
  H   H69       1.0  0.49370  0.79767  0.20161  1.0000
  H   H70       1.0  0.38049  0.77327  0.36798  1.0000
  H   H71       1.0  0.34387  0.81024  0.37732  1.0000
  H   H72       1.0  0.38632  0.85655  0.27731  1.0000
  H   H73       1.0  0.42289  0.81967  0.26844  1.0000
  H   H74       1.0  0.42995  0.71680  0.34186  1.0000
  H   H75       1.0  0.40409  0.67605  0.31208  1.0000
  H   H76       1.0  0.35778  0.72714  0.21918  1.0000
  H   H77       1.0  0.38362  0.76749  0.24917  1.0000
  H   H78       1.0  0.45725  0.76826  0.36161  1.0000
  H   H79       1.0  0.50227  0.75128  0.37688  1.0000
  H   H80       1.0  0.68193  0.02190  0.07570  1.0000
  H   H81       1.0  0.71254  0.00063  0.06659  1.0000
  H   H82       1.0  0.21537  0.02949  0.47546  1.0000
  H   H83       1.0  0.18525  0.00790  0.46329  1.0000
  H   H84       1.0  0.60281  0.94549  0.19578  1.0000
  C   C99       1.0  0.88102  0.60379  0.66494  1.0000
  C   C100      1.0  0.76220  0.01350  0.90569  1.0000
  C   C101      1.0  0.62140  0.14609  0.74956  1.0000
  C   C102      1.0  0.63698  0.12351  0.76571  1.0000
  C   C103      1.0  0.66677  0.12592  0.78057  1.0000
  C   C104      1.0  0.68066  0.15164  0.77846  1.0000
  C   C105      1.0  0.66499  0.17414  0.76284  1.0000
  C   C106      1.0  0.39892  0.35488  0.76185  1.0000
  C   C107      1.0  0.38384  0.37707  0.77843  1.0000
  C   C108      1.0  0.39838  0.40233  0.78366  1.0000
  C   C109      1.0  0.42826  0.40466  0.77104  1.0000
  C   C110      1.0  0.44334  0.38236  0.75438  1.0000
  C   C111      1.0  0.41629  0.14429  0.66698  1.0000
  C   C112      1.0  0.39591  0.12348  0.65872  1.0000
  C   C113      1.0  0.36559  0.12954  0.65028  1.0000
  C   C114      1.0  0.35636  0.15693  0.65168  1.0000
  C   C115      1.0  0.37685  0.17772  0.65956  1.0000
  C   C116      1.0  0.72360  0.41981  0.63443  1.0000
  C   C117      1.0  0.34364  0.10894  0.63767  1.0000
  C   C118      1.0  0.18661  0.92261  0.65785  1.0000
  C   C119      1.0  0.04675  0.75381  0.75386  1.0000
  C   C120      1.0  0.02198  0.77558  0.75369  1.0000
  C   C121      1.0  0.03367  0.76536  0.68153  1.0000
  C   C122      1.0  0.01606  0.74577  0.65261  1.0000
  C   C123      1.0  0.07549  0.76122  0.78086  1.0000
  C   C124      1.0  0.24224  0.56752  0.84869  1.0000
  N   N9        1.0  0.22040  0.58446  0.82952  1.0000
  C   C125      1.0  0.09158  0.78585  0.76188  1.0000
  C   C126      1.0  0.11294  0.78270  0.72980  1.0000
  C   C127      1.0  0.12837  0.80513  0.71389  1.0000
  C   C128      1.0  0.12267  0.83157  0.72909  1.0000
  C   C129      1.0  0.10070  0.83471  0.76040  1.0000
  C   C130      1.0  0.08563  0.81217  0.77681  1.0000
  C   C131      1.0  0.05138  0.78634  0.65611  1.0000
  N   N10       1.0  0.21295  0.92042  0.64206  1.0000
  C   C132      1.0  0.22576  0.94343  0.62271  1.0000
  C   C133      1.0  0.97181  0.79114  0.78349  1.0000
  C   C134      1.0  0.94603  0.78704  0.80786  1.0000
  C   C135      1.0  0.92499  0.80765  0.81222  1.0000
  C   C136      1.0  0.92867  0.83324  0.79209  1.0000
  C   C137      1.0  0.95440  0.83718  0.76761  1.0000
  C   C138      1.0  0.97561  0.81653  0.76331  1.0000
  C   C139      1.0  0.99418  0.76773  0.78074  1.0000
  N   N11       1.0  0.84685  0.94209  0.82694  1.0000
  C   C140      1.0  0.97873  0.74204  0.76394  1.0000
  C   C141      1.0  0.98426  0.71637  0.78253  1.0000
  C   C142      1.0  0.96921  0.69322  0.76739  1.0000
  C   C143      1.0  0.94792  0.69505  0.73344  1.0000
  C   C144      1.0  0.94279  0.72087  0.71463  1.0000
  C   C145      1.0  0.95796  0.74389  0.72942  1.0000
  N   N12       1.0  0.85415  0.60687  0.64966  1.0000
  O   O9        1.0  0.05367  0.75000  0.70946  1.0000
  O   O10       1.0  0.00579  0.76186  0.82470  1.0000
  O   O11       1.0  0.01322  0.77917  0.70947  1.0000
  O   O12       1.0  0.06688  0.76838  0.82400  1.0000
  C   C146      1.0  0.26055  0.57631  0.88357  1.0000
  C   C147      1.0  0.28126  0.55865  0.90291  1.0000
  C   C148      1.0  0.28454  0.53181  0.88837  1.0000
  C   C149      1.0  0.26603  0.52300  0.85401  1.0000
  C   C150      1.0  0.24493  0.54040  0.83477  1.0000
  C   C151      1.0  0.24091  0.93978  0.58384  1.0000
  C   C152      1.0  0.25274  0.96213  0.56206  1.0000
  C   C153      1.0  0.25065  0.98857  0.57876  1.0000
  C   C154      1.0  0.23688  0.99192  0.61873  1.0000
  C   C155      1.0  0.22447  0.96980  0.64043  1.0000
  C   C156      1.0  0.26210  0.01271  0.55355  1.0000
  C   C157      1.0  0.16185  0.67217  0.79685  1.0000
  C   C158      1.0  0.93076  0.67113  0.71796  1.0000
  C   C159      1.0  0.68223  0.10230  0.79928  1.0000
  C   C160      1.0  0.94372  0.64511  0.71499  1.0000
  C   C161      1.0  0.92732  0.62317  0.69857  1.0000
  C   C162      1.0  0.89739  0.62646  0.68476  1.0000
  C   C163      1.0  0.88416  0.65235  0.68861  1.0000
  C   C164      1.0  0.90053  0.67414  0.70485  1.0000
  C   C165      1.0  0.15338  0.64445  0.79656  1.0000
  C   C166      1.0  0.17423  0.62391  0.80399  1.0000
  C   C167      1.0  0.20453  0.63040  0.81160  1.0000
  C   C168      1.0  0.21327  0.65792  0.81013  1.0000
  C   C169      1.0  0.19230  0.67845  0.80302  1.0000
  C   C170      1.0  0.84093  0.91646  0.82288  1.0000
  C   C171      1.0  0.22672  0.60993  0.82406  1.0000
  C   C172      1.0  0.52062  0.25515  0.71272  1.0000
  C   C173      1.0  0.54520  0.27725  0.71301  1.0000
  C   C174      1.0  0.53226  0.26770  0.78492  1.0000
  C   C175      1.0  0.54856  0.24891  0.81693  1.0000
  C   C176      1.0  0.49213  0.26195  0.68447  1.0000
  N   N13       1.0  0.34990  0.08345  0.63264  1.0000
  C   C177      1.0  0.51384  0.28965  0.80667  1.0000
  N   N14       1.0  0.35690  0.42388  0.81802  1.0000
  C   C178      1.0  0.34426  0.44655  0.83811  1.0000
  C   C179      1.0  0.57331  0.26987  0.68639  1.0000
  C   C180      1.0  0.73666  0.46346  0.61238  1.0000
  N   N15       1.0  0.71650  0.44526  0.63112  1.0000
  N   N16       1.0  0.70973  0.10357  0.81256  1.0000
  O   O13       1.0  0.51331  0.25133  0.75711  1.0000
  O   O14       1.0  0.56252  0.26468  0.64205  1.0000
  O   O15       1.0  0.55386  0.28037  0.75738  1.0000
  O   O16       1.0  0.50145  0.26840  0.64126  1.0000
  C   C181      1.0  0.75402  0.45653  0.57660  1.0000
  C   C182      1.0  0.77279  0.47576  0.55802  1.0000
  C   C183      1.0  0.77502  0.50232  0.57435  1.0000
  C   C184      1.0  0.75759  0.50922  0.60986  1.0000
  C   C185      1.0  0.73839  0.49027  0.62824  1.0000
  C   C186      1.0  0.32589  0.44134  0.87348  1.0000
  C   C187      1.0  0.31386  0.46279  0.89677  1.0000
  C   C188      1.0  0.31896  0.48998  0.88493  1.0000
  C   C189      1.0  0.33598  0.49507  0.84814  1.0000
  C   C190      1.0  0.34860  0.47382  0.82503  1.0000
  C   C191      1.0  0.30682  0.51311  0.91137  1.0000
  C   C192      1.0  0.79458  0.52298  0.55187  1.0000
  C   C193      1.0  0.40731  0.17187  0.66663  1.0000
  C   C194      1.0  0.42907  0.35695  0.74982  1.0000
  C   C195      1.0  0.63498  0.17194  0.74837  1.0000
  C   C196      1.0  0.38367  0.42550  0.80353  1.0000
  H   H85       1.0  0.89328  0.58446  0.66205  1.0000
  H   H86       1.0  0.74364  0.00116  0.91800  1.0000
  H   H87       1.0  0.77366  0.02186  0.93459  1.0000
  H   H88       1.0  0.59821  0.14392  0.73893  1.0000
  H   H89       1.0  0.62597  0.10375  0.76734  1.0000
  H   H90       1.0  0.70377  0.15334  0.78969  1.0000
  H   H91       1.0  0.67603  0.19386  0.76109  1.0000
  H   H92       1.0  0.38730  0.33558  0.75748  1.0000
  H   H93       1.0  0.36067  0.37545  0.78796  1.0000
  H   H94       1.0  0.43977  0.42405  0.77520  1.0000
  H   H95       1.0  0.46668  0.38433  0.74588  1.0000
  H   H96       1.0  0.43979  0.13943  0.67232  1.0000
  H   H97       1.0  0.40300  0.10229  0.65768  1.0000
  H   H98       1.0  0.33287  0.16178  0.64602  1.0000
  H   H99       1.0  0.36936  0.19879  0.66064  1.0000
  H   H100      1.0  0.74607  0.41252  0.62649  1.0000
  H   H101      1.0  0.32086  0.11668  0.63149  1.0000
  H   H102      1.0  0.17379  0.94171  0.65508  1.0000
  H   H103      1.0  0.03828  0.73445  0.76695  1.0000
  H   H104      1.0  0.03091  0.79484  0.76664  1.0000
  H   H105      1.0  0.00401  0.73106  0.67253  1.0000
  H   H106      1.0  0.03128  0.73478  0.63151  1.0000
  H   H107      1.0  0.99989  0.75711  0.63232  1.0000
  H   H108      1.0  0.11759  0.76244  0.71763  1.0000
  H   H109      1.0  0.14487  0.80227  0.68902  1.0000
  H   H110      1.0  0.09625  0.85489  0.77316  1.0000
  H   H111      1.0  0.06983  0.81469  0.80262  1.0000
  H   H112      1.0  0.06817  0.77608  0.63666  1.0000
  H   H113      1.0  0.06285  0.80046  0.67822  1.0000
  H   H114      1.0  0.03631  0.79782  0.63431  1.0000
  H   H115      1.0  0.94256  0.76737  0.82339  1.0000
  H   H116      1.0  0.90555  0.80408  0.83194  1.0000
  H   H117      1.0  0.95758  0.85646  0.75082  1.0000
  H   H118      1.0  0.99474  0.82015  0.74305  1.0000
  H   H119      1.0  0.99968  0.71464  0.81001  1.0000
  H   H120      1.0  0.97337  0.67365  0.78310  1.0000
  H   H121      1.0  0.92685  0.72279  0.68774  1.0000
  H   H122      1.0  0.95350  0.76358  0.71440  1.0000
  H   H123      1.0  0.00153  0.77790  0.84190  1.0000
  H   H124      1.0  0.04660  0.76138  0.82859  1.0000
  H   H125      1.0  0.25776  0.59682  0.89600  1.0000
  H   H126      1.0  0.29495  0.56570  0.93015  1.0000
  H   H127      1.0  0.26819  0.50221  0.84238  1.0000
  H   H128      1.0  0.23051  0.53343  0.80832  1.0000
  H   H129      1.0  0.24250  0.91931  0.57079  1.0000
  H   H130      1.0  0.26374  0.95914  0.53139  1.0000
  H   H131      1.0  0.23599  0.01213  0.63300  1.0000
  H   H132      1.0  0.21411  0.97263  0.67159  1.0000
  H   H133      1.0  0.24292  0.02537  0.54304  1.0000
  H   H134      1.0  0.27188  0.00527  0.52344  1.0000
  H   H135      1.0  0.66871  0.08372  0.80303  1.0000
  H   H136      1.0  0.96707  0.64233  0.72441  1.0000
  H   H137      1.0  0.93789  0.60331  0.69556  1.0000
  H   H138      1.0  0.86097  0.65473  0.67813  1.0000
  H   H139      1.0  0.88987  0.69392  0.70807  1.0000
  H   H140      1.0  0.12991  0.63926  0.79208  1.0000
  H   H141      1.0  0.16759  0.60259  0.80525  1.0000
  H   H142      1.0  0.23672  0.66310  0.81528  1.0000
  H   H143      1.0  0.19939  0.69964  0.80204  1.0000
  H   H144      1.0  0.81850  0.90839  0.82920  1.0000
  H   H145      1.0  0.24949  0.61771  0.83007  1.0000
  H   H146      1.0  0.52966  0.23587  0.70041  1.0000
  H   H147      1.0  0.53615  0.29655  0.69997  1.0000
  H   H148      1.0  0.56097  0.23340  0.79933  1.0000
  H   H149      1.0  0.53233  0.23885  0.83776  1.0000
  H   H150      1.0  0.56425  0.26056  0.83734  1.0000
  H   H151      1.0  0.52821  0.30163  0.82858  1.0000
  H   H152      1.0  0.49601  0.28020  0.82534  1.0000
  H   H153      1.0  0.50365  0.30327  0.78235  1.0000
  H   H154      1.0  0.56359  0.28209  0.62696  1.0000
  H   H155      1.0  0.52176  0.26124  0.63790  1.0000
  H   H156      1.0  0.75208  0.43623  0.56285  1.0000
  H   H157      1.0  0.78565  0.47024  0.52989  1.0000
  H   H158      1.0  0.75902  0.52973  0.62297  1.0000
  H   H159      1.0  0.72461  0.49568  0.65540  1.0000
  H   H160      1.0  0.32203  0.42023  0.88270  1.0000
  H   H161      1.0  0.30033  0.45843  0.92478  1.0000
  H   H162      1.0  0.33929  0.51603  0.83759  1.0000
  H   H163      1.0  0.36154  0.47814  0.79642  1.0000
  H   H164      1.0  0.32558  0.52568  0.92338  1.0000
  H   H165      1.0  0.29651  0.50452  0.94044  1.0000
  H   H166      1.0  0.78120  0.53330  0.52633  1.0000
  H   H167      1.0  0.81202  0.51180  0.53473  1.0000
  H   H168      1.0  0.39719  0.44414  0.80702  1.0000
  C   C197      1.0  0.65454  0.39217  0.66826  1.0000
  C   C198      1.0  0.65809  0.36392  0.66614  1.0000
  C  Sn1       1.0  0.68585  0.35272  0.65668  1.0000
  C  Sn2       1.0  0.71048  0.37019  0.64924  1.0000
  C   C199      1.0  0.70671  0.39842  0.65146  1.0000
  C   C200      1.0  0.67882  0.40941  0.66093  1.0000
  H   H169      1.0  0.63297  0.40067  0.67561  1.0000
  O  Te1       1.0  0.68900  0.32445  0.65468  1.0000
  O  Te2       1.0  0.73848  0.35954  0.63974  1.0000
  H   H170      1.0  0.67609  0.43128  0.66259  1.0000
  Mg  Mg1       1.0  0.73160  0.31968  0.64060  1.0000
  C   C201      1.0  0.80127  0.17927  0.18586  1.0000
  C   C202      1.0  0.83073  0.17714  0.20135  1.0000
  C  Sn3       1.0  0.84409  0.15157  0.20654  1.0000
  C  Sn4       1.0  0.82760  0.12773  0.19599  1.0000
  C   C203      1.0  0.79816  0.13008  0.18049  1.0000
  C   C204      1.0  0.78500  0.15576  0.17543  1.0000
  H   H171      1.0  0.79110  0.19914  0.18192  1.0000
  O  Te3       1.0  0.87353  0.14981  0.22207  1.0000
  O  Te4       1.0  0.84041  0.10193  0.20086  1.0000
  H   H172      1.0  0.76221  0.15741  0.16341  1.0000
  Mg  Mg2       1.0  0.88120  0.11006  0.22316  1.0000
  C   C205      1.0  0.60455  0.85825  0.23377  1.0000
  C   C206      1.0  0.57582  0.85742  0.25043  1.0000
  C  Sn5       1.0  0.55784  0.88069  0.24931  1.0000
  C  Sn6       1.0  0.56891  0.90520  0.23115  1.0000
  C   C207      1.0  0.59768  0.90581  0.21455  1.0000
  C   C208      1.0  0.61548  0.88241  0.21584  1.0000
  H   H173      1.0  0.61832  0.84014  0.23475  1.0000
  O  Te5       1.0  0.52919  0.87951  0.26611  1.0000
  O  Te6       1.0  0.55141  0.92876  0.22961  1.0000
  H   H174      1.0  0.63772  0.88305  0.20292  1.0000
  Mg  Mg3       1.0  0.51384  0.91697  0.25662  1.0000
  C   C209      1.0  0.02286  0.19744  0.23146  1.0000
  C   C210      1.0  0.04482  0.19519  0.26406  1.0000
  C  Sn7       1.0  0.05360  0.21809  0.28779  1.0000
  C  Sn8       1.0  0.04010  0.24369  0.27864  1.0000
  C   C211      1.0  0.01814  0.24572  0.24598  1.0000
  C   C212      1.0  0.00953  0.22268  0.22242  1.0000
  H   H175      1.0  0.01619  0.17961  0.21324  1.0000
  O  Te7       1.0  0.07558  0.21548  0.32025  1.0000
  O  Te8       1.0  0.04845  0.26690  0.30187  1.0000
  H   H176      1.0  0.99251  0.22442  0.19719  1.0000
  Mg  Mg4       1.0  0.07941  0.25301  0.34299  1.0000
  C   C213      1.0  0.75061  0.03653  0.17499  1.0000
  C   C214      1.0  0.76082  0.06130  0.15842  1.0000
  C  Sn9       1.0  0.74894  0.07158  0.11951  1.0000
  C  Sn10      1.0  0.72643  0.05673  0.09684  1.0000
  C   C215      1.0  0.71636  0.03198  0.11370  1.0000
  C   C216      1.0  0.72840  0.02188  0.15265  1.0000
  H   H177      1.0  0.75992  0.02872  0.20514  1.0000
  O  Te9       1.0  0.75940  0.09636  0.10341  1.0000
  O  Te10      1.0  0.71417  0.06654  0.05789  1.0000
  H   H178      1.0  0.72049  0.00270  0.16548  1.0000
  Mg  Mg5       1.0  0.73576  0.10128  0.04908  1.0000
  C   C217      1.0  0.09630  0.70602  0.75636  1.0000
  C   C218      1.0  0.09446  0.73043  0.77923  1.0000
  C  Sn11      1.0  0.11683  0.73750  0.80930  1.0000
  C  Sn12      1.0  0.14147  0.71977  0.81654  1.0000
  C   C219      1.0  0.14311  0.69541  0.79348  1.0000
  C   C220      1.0  0.12061  0.68853  0.76347  1.0000
  H   H179      1.0  0.07890  0.70071  0.73312  1.0000
  O  Te11      1.0  0.11463  0.76195  0.83189  1.0000
  O  Te12      1.0  0.16414  0.72634  0.84640  1.0000
  H   H180      1.0  0.12205  0.66964  0.74575  1.0000
  Mg  Mg6       1.0  0.15112  0.76193  0.86922  1.0000
  C   C221      1.0  0.64395  0.66599  0.34220  1.0000
  C   C222      1.0  0.63910  0.63825  0.34972  1.0000
  C  Sn13      1.0  0.61026  0.62747  0.34658  1.0000
  C  Sn14      1.0  0.58589  0.64483  0.33569  1.0000
  C   C223      1.0  0.59098  0.67255  0.32820  1.0000
  C   C224      1.0  0.61993  0.68312  0.33145  1.0000
  H   H181      1.0  0.66635  0.67417  0.34469  1.0000
  O  Te13      1.0  0.60580  0.59971  0.35420  1.0000
  O  Te14      1.0  0.55684  0.63459  0.33231  1.0000
  H   H182      1.0  0.62368  0.70460  0.32560  1.0000
  Mg  Mg7       1.0  0.56211  0.59537  0.34571  1.0000
  C   C225      1.0  0.71929  0.04597  0.82034  1.0000
  C   C226      1.0  0.72046  0.07389  0.82889  1.0000
  C  Sn15      1.0  0.73839  0.08374  0.86287  1.0000
  C  Sn16      1.0  0.75544  0.06524  0.88873  1.0000
  C   C227      1.0  0.75413  0.03734  0.87990  1.0000
  C   C228      1.0  0.73610  0.02771  0.84581  1.0000
  H   H183      1.0  0.70536  0.03852  0.79396  1.0000
  O  Te15      1.0  0.73930  0.11169  0.87098  1.0000
  O  Te16      1.0  0.77356  0.07452  0.92289  1.0000
  H   H184      1.0  0.73521  0.00610  0.83919  1.0000
  Mg  Mg8       1.0  0.76733  0.11446  0.92117  1.0000
  C   C229      1.0  0.62718  0.29208  0.65160  1.0000
  C   C230      1.0  0.60311  0.29085  0.67953  1.0000
  C  Sn17      1.0  0.59580  0.31342  0.70454  1.0000
  C  Sn18      1.0  0.61294  0.33764  0.70144  1.0000
  C   C231      1.0  0.63697  0.33867  0.67337  1.0000
  C   C232      1.0  0.64409  0.31597  0.64851  1.0000
  H   H185      1.0  0.63268  0.27452  0.63235  1.0000
  O  Te17      1.0  0.57169  0.31184  0.73229  1.0000
  O  Te18      1.0  0.60612  0.36050  0.72604  1.0000
  H   H186      1.0  0.66272  0.31693  0.62687  1.0000
  Mg  Mg9       1.0  0.57117  0.34837  0.75920  1.0000
  C   C233      1.0  0.76868  0.49254  0.37664  1.0000
  C   C234      1.0  0.75019  0.49082  0.41236  1.0000
  C  Sn19      1.0  0.74510  0.46569  0.43232  1.0000
  C  Sn20      1.0  0.75882  0.44187  0.41615  1.0000
  C   C235      1.0  0.77730  0.44381  0.38042  1.0000
  C   C236      1.0  0.78223  0.46906  0.36068  1.0000
  H   H187      1.0  0.77250  0.51207  0.36138  1.0000
  O  Te19      1.0  0.72656  0.46433  0.46796  1.0000
  O  Te20      1.0  0.75413  0.41650  0.43550  1.0000
  H   H188      1.0  0.79656  0.47039  0.33304  1.0000
  Mg  Mg10      1.0  0.72702  0.42508  0.48326  1.0000
  C   C237      1.0  0.27555  0.53592  0.15934  1.0000
  C   C238      1.0  0.25366  0.53633  0.12646  1.0000
  C  Sn21      1.0  0.24371  0.56111  0.10899  1.0000
  C  Sn22      1.0  0.25595  0.58589  0.12479  1.0000
  C   C239      1.0  0.27785  0.58526  0.15768  1.0000
  C   C240      1.0  0.28764  0.56035  0.17494  1.0000
  H   H189      1.0  0.28313  0.51665  0.17268  1.0000
  O  Te21      1.0  0.22182  0.56115  0.07615  1.0000
  O  Te22      1.0  0.24641  0.61094  0.10790  1.0000
  H   H190      1.0  0.30460  0.56004  0.20038  1.0000
  Mg  Mg11      1.0  0.21609  0.60044  0.06352  1.0000
  C   C241      1.0  0.29095  0.06508  0.56226  1.0000
  C   C242      1.0  0.28580  0.03751  0.57082  1.0000
  C  Sn23      1.0  0.30189  0.02415  0.60382  1.0000
  C  Sn24      1.0  0.32352  0.03873  0.62865  1.0000
  C   C243      1.0  0.32849  0.06632  0.61985  1.0000
  C   C244      1.0  0.31226  0.07948  0.58675  1.0000
  H   H191      1.0  0.27838  0.07527  0.53667  1.0000
  O  Te23      1.0  0.29682  0.99660  0.61193  1.0000
  O  Te24      1.0  0.33991  0.02589  0.66183  1.0000
  H   H192      1.0  0.31624  0.10083  0.58015  1.0000
  Mg  Mg12      1.0  0.32484  0.98807  0.66055  1.0000
  C   C245      1.0  0.68136  0.94180  0.12326  1.0000
  C   C246      1.0  0.66346  0.94387  0.15953  1.0000
  C  Sn25      1.0  0.65565  0.96944  0.17538  1.0000
  C  Sn26      1.0  0.66597  0.99334  0.15446  1.0000
  C   C247      1.0  0.68384  0.99105  0.11817  1.0000
  C   C248      1.0  0.69154  0.96536  0.10259  1.0000
  H   H193      1.0  0.68731  0.92192  0.11118  1.0000
  O  Te25      1.0  0.63775  0.97115  0.21167  1.0000
  O  Te26      1.0  0.65814  0.01916  0.16961  1.0000
  H   H194      1.0  0.70538  0.96376  0.07448  1.0000
  Mg  Mg13      1.0  0.63323  0.01093  0.22015  1.0000
  C   C249      1.0  0.12555  0.88792  0.70294  1.0000
  C   C250      1.0  0.13506  0.86108  0.70967  1.0000
  C  Sn27      1.0  0.16471  0.85387  0.70253  1.0000
  C  Sn28      1.0  0.18516  0.87394  0.68839  1.0000
  C   C251      1.0  0.17543  0.90073  0.68178  1.0000
  C   C252      1.0  0.14571  0.90773  0.68902  1.0000
  H   H195      1.0  0.10256  0.89334  0.70856  1.0000
  O  Te27      1.0  0.17384  0.82696  0.70939  1.0000
  O  Te28      1.0  0.21493  0.86728  0.68102  1.0000
  H   H196      1.0  0.13835  0.92851  0.68383  1.0000
  Mg  Mg14      1.0  0.21668  0.82788  0.69490  1.0000
  C   C253      1.0  0.85621  0.86146  0.80513  1.0000
  C   C254      1.0  0.86054  0.88923  0.81282  1.0000
  C  Sn29      1.0  0.88903  0.90063  0.81019  1.0000
  C  Sn30      1.0  0.91360  0.88386  0.79963  1.0000
  C   C255      1.0  0.90902  0.85610  0.79196  1.0000
  C   C256      1.0  0.88042  0.84491  0.79470  1.0000
  H   H197      1.0  0.83407  0.85280  0.80722  1.0000
  O  Te29      1.0  0.89297  0.92841  0.81799  1.0000
  O  Te30      1.0  0.94231  0.89472  0.79677  1.0000
  H   H198      1.0  0.87706  0.82341  0.78872  1.0000
  Mg  Mg15      1.0  0.93637  0.93372  0.81022  1.0000
  C   C257      1.0  0.89150  0.19790  0.24293  1.0000
  C   C258      1.0  0.86589  0.19660  0.21640  1.0000
  C  Sn31      1.0  0.85924  0.21771  0.18728  1.0000
  C  Sn32      1.0  0.87863  0.24050  0.18473  1.0000
  C   C259      1.0  0.90421  0.24159  0.21138  1.0000
  C   C260      1.0  0.91065  0.22036  0.24042  1.0000
  H   H199      1.0  0.89649  0.18147  0.26538  1.0000
  O  Te31      1.0  0.83355  0.21610  0.16102  1.0000
  O  Te32      1.0  0.87252  0.26187  0.15589  1.0000
  H   H200      1.0  0.93049  0.22136  0.26094  1.0000
  Mg  Mg16      1.0  0.83480  0.25032  0.12687  1.0000
  C   C261      1.0  0.61329  0.24174  0.74680  1.0000
  C   C262      1.0  0.59458  0.24513  0.71043  1.0000
  C  Sn33      1.0  0.58636  0.22268  0.68526  1.0000
  C  Sn34      1.0  0.59709  0.19637  0.69681  1.0000
  C   C263      1.0  0.61577  0.19319  0.73328  1.0000
  C   C264      1.0  0.62387  0.21580  0.75823  1.0000
  H   H201      1.0  0.61954  0.25923  0.76612  1.0000
  O  Te33      1.0  0.56766  0.22643  0.64901  1.0000
  O  Te34      1.0  0.58921  0.17358  0.67223  1.0000
  H   H202      1.0  0.63834  0.21317  0.78641  1.0000
  Mg  Mg17      1.0  0.56320  0.18909  0.62573  1.0000
  C   C265      1.0  0.81630  0.99192  0.82766  1.0000
  C   C266      1.0  0.82603  0.96630  0.84199  1.0000
  C  Sn35      1.0  0.81276  0.95381  0.87743  1.0000
  C  Sn36      1.0  0.78931  0.96726  0.89884  1.0000
  C   C267      1.0  0.77971  0.99287  0.88423  1.0000
  C   C268      1.0  0.79282  0.00519  0.84875  1.0000
  H   H203      1.0  0.82635  0.00145  0.80019  1.0000
  O  Te35      1.0  0.82277  0.92822  0.89133  1.0000
  O  Te36      1.0  0.77564  0.95523  0.93432  1.0000
  H   H204      1.0  0.78526  0.02501  0.83764  1.0000
  Mg  Mg18      1.0  0.79711  0.92015  0.94116  1.0000
  C   C269      1.0  0.24527  0.95923  0.43479  1.0000
  C   C270      1.0  0.25909  0.96126  0.39484  1.0000
  C  Sn37      1.0  0.25571  0.98480  0.36962  1.0000
  C  Sn38      1.0  0.23782  0.00668  0.38476  1.0000
  C   C271      1.0  0.22410  0.00446  0.42479  1.0000
  C   C272      1.0  0.22796  0.98081  0.44976  1.0000
  H   H205      1.0  0.24801  0.94094  0.45413  1.0000
  O  Te37      1.0  0.26967  0.98648  0.32977  1.0000
  O  Te38      1.0  0.23407  0.03045  0.36021  1.0000
  H   H206      1.0  0.21727  0.97925  0.48071  1.0000
  Mg  Mg19      1.0  0.25755  0.02306  0.30806  1.0000
  C   C273      1.0  0.47109  0.20686  0.71015  1.0000
  C   C274      1.0  0.47318  0.23119  0.68673  1.0000
  C  Sn39      1.0  0.45158  0.23779  0.65514  1.0000
  C  Sn40      1.0  0.42746  0.21966  0.64693  1.0000
  C   C275      1.0  0.42556  0.19538  0.67056  1.0000
  C   C276      1.0  0.44730  0.18897  0.70208  1.0000
  H   H207      1.0  0.48791  0.20191  0.73456  1.0000
  O  Te39      1.0  0.45401  0.26217  0.63202  1.0000
  O  Te40      1.0  0.40555  0.22576  0.61555  1.0000
  H   H208      1.0  0.44567  0.17014  0.72023  1.0000
  Mg  Mg20      1.0  0.41861  0.26144  0.59253  1.0000
  C   C277      1.0  0.07474  0.29949  0.19116  1.0000
  C   C278      1.0  0.07403  0.32690  0.20315  1.0000
  C  Sn41      1.0  0.05034  0.33690  0.22704  1.0000
  C  Sn42      1.0  0.02696  0.31909  0.23912  1.0000
  C   C279      1.0  0.02789  0.29171  0.22699  1.0000
  C   C280      1.0  0.05170  0.28191  0.20307  1.0000
  H   H209      1.0  0.09317  0.29191  0.17267  1.0000
  O  Te41      1.0  0.04997  0.36434  0.23874  1.0000
  O  Te42      1.0  0.00302  0.32856  0.26301  1.0000
  H   H210      1.0  0.05225  0.26069  0.19382  1.0000
  Mg  Mg21      1.0  0.01256  0.36761  0.27128  1.0000
  C   C281      1.0  0.67842  0.53395  0.37200  1.0000
  C   C282      1.0  0.67157  0.56070  0.38350  1.0000
  C  Sn43      1.0  0.68795  0.57372  0.41632  1.0000
  C  Sn44      1.0  0.71162  0.55966  0.43796  1.0000
  C   C283      1.0  0.71831  0.53292  0.42619  1.0000
  C   C284      1.0  0.70177  0.52007  0.39331  1.0000
  H   H211      1.0  0.66563  0.52402  0.34654  1.0000
  O  Te43      1.0  0.68080  0.60044  0.42742  1.0000
  O  Te44      1.0  0.72836  0.57220  0.47088  1.0000
  H   H212      1.0  0.70709  0.49937  0.38439  1.0000
  Mg  Mg22      1.0  0.71008  0.60883  0.47439  1.0000
  C   C285      1.0  0.80637  0.57965  0.57247  1.0000
  C   C286      1.0  0.80877  0.55132  0.57572  1.0000
  C  Sn45      1.0  0.82586  0.53946  0.60912  1.0000
  C  Sn46      1.0  0.84079  0.55633  0.63979  1.0000
  C   C287      1.0  0.83823  0.58465  0.63628  1.0000
  C   C288      1.0  0.82108  0.59631  0.60272  1.0000
  H   H213      1.0  0.79308  0.58867  0.54652  1.0000
  O  Te45      1.0  0.82803  0.51112  0.61188  1.0000
  O  Te46      1.0  0.85801  0.54501  0.67351  1.0000
  H   H214      1.0  0.81921  0.61824  0.60022  1.0000
  Mg  Mg23      1.0  0.85414  0.50532  0.66360  1.0000
  C   C289      1.0  0.47937  0.32026  0.68373  1.0000
  C   C290      1.0  0.47864  0.29327  0.69831  1.0000
  C  Sn47      1.0  0.45951  0.28567  0.73134  1.0000
  C  Sn48      1.0  0.44077  0.30549  0.75004  1.0000
  C   C291      1.0  0.44165  0.33243  0.73520  1.0000
  C   C292      1.0  0.46089  0.33982  0.70214  1.0000
  H   H215      1.0  0.49424  0.32597  0.65813  1.0000
  O  Te47      1.0  0.45907  0.25862  0.74554  1.0000
  O  Te48      1.0  0.42142  0.29844  0.78309  1.0000
  H   H216      1.0  0.46143  0.36071  0.69084  1.0000
  Mg  Mg24      1.0  0.42891  0.25898  0.79141  1.0000
