data_image0
_chemical_formula_structural       C12NC2NC3NCNO4C14NC8NC8NCNO4C8H57C12NC8NC9NC7NCO4C18NC2NC4NC7NCO4C22H79C2Sn2C2HTe2HMgC2Sn2C2HTe2HMgC2Sn2C2HTe2HMgC2Sn2C2HTe2HMgC2Sn2C2HTe2HMgC2Sn2C2HTe2HMgC2Sn2C2HTe2HMgC2Sn2C2HTe2HMgC2Sn2C2HTe2HMgC2Sn2C2HTe2HMgC2Sn2C2HTe2HMgC2Sn2C2HTe2HMgC2Sn2C2HTe2HMgC2Sn2C2HTe2HMgC2Sn2C2HTe2HMgC2Sn2C2HTe2HMg
_chemical_formula_sum              "C212 N16 O16 H168 Sn32 Te32 Mg16"
_cell_length_a       36.8719
_cell_length_b       36.6495
_cell_length_c       8.5437
_cell_angle_alpha    91.1851
_cell_angle_beta     90.8035
_cell_angle_gamma    89.8369

_symmetry_space_group_name_H-M    'P1'
_space_group_IT_number       1

loop_
  _space_group_symop_operation_xyz
  'x, y, z'

loop_
  _atom_site_type_symbol
  _atom_site_label
  _atom_site_symmetry_multiplicity
  _atom_site_fract_x
  _atom_site_fract_y
  _atom_site_fract_z
  _atom_site_occupancy
  C   C1        1.0  0.26784  0.75698  0.50267  1.0000
  C   C2        1.0  0.23350  0.73267  0.50349  1.0000
  C   C3        1.0  0.25328  0.74452  0.76394  1.0000
  C   C4        1.0  0.22982  0.76749  0.87374  1.0000
  C   C5        1.0  0.23376  0.81644  0.44613  1.0000
  C   C6        1.0  0.23568  0.83674  0.58718  1.0000
  C   C7        1.0  0.20776  0.86050  0.62871  1.0000
  C   C8        1.0  0.17742  0.86528  0.52923  1.0000
  C   C9        1.0  0.17549  0.84498  0.38803  1.0000
  C   C10       1.0  0.20330  0.82089  0.34771  1.0000
  C   C11       1.0  0.26543  0.79157  0.39901  1.0000
  C   C12       1.0  0.14936  0.89126  0.57635  1.0000
  N   N1        1.0  0.12089  0.89844  0.49228  1.0000
  C   C13       1.0  0.27972  0.71986  0.85145  1.0000
  C   C14       1.0  0.39382  0.88344  0.41472  1.0000
  N   N2        1.0  0.39486  0.91285  0.33421  1.0000
  C   C15       1.0  0.42609  0.93454  0.32741  1.0000
  C   C16       1.0  0.23411  0.69764  0.39534  1.0000
  C   C17       1.0  0.35033  0.59682  0.55942  1.0000
  N   N3        1.0  0.37876  0.58951  0.47750  1.0000
  C   C18       1.0  0.10499  0.60699  0.41060  1.0000
  N   N4        1.0  0.10410  0.57684  0.33006  1.0000
  O   O1        1.0  0.27267  0.76830  0.66286  1.0000
  O   O2        1.0  0.23632  0.70955  0.23508  1.0000
  O   O3        1.0  0.23045  0.72216  0.66280  1.0000
  O   O4        1.0  0.26193  0.77947  0.23781  1.0000
  C   C19       1.0  0.46162  0.92340  0.36804  1.0000
  C   C20       1.0  0.49114  0.94584  0.33980  1.0000
  C   C21       1.0  0.48639  0.97990  0.26948  1.0000
  C   C22       1.0  0.45095  0.99166  0.23650  1.0000
  C   C23       1.0  0.42126  0.96939  0.26429  1.0000
  C   C24       1.0  0.51826  0.00113  0.20896  1.0000
  C   C25       1.0  0.02004  0.99022  0.81642  1.0000
  C   C26       1.0  0.23601  0.21824  0.52007  1.0000
  C   C27       1.0  0.26430  0.24910  0.50404  1.0000
  C   C28       1.0  0.25463  0.23788  0.77277  1.0000
  C   C29       1.0  0.27821  0.21071  0.86053  1.0000
  C   C30       1.0  0.20019  0.22343  0.42281  1.0000
  C   C31       1.0  0.09700  0.10369  0.43781  1.0000
  C   C32       1.0  0.04737  0.07229  0.32205  1.0000
  N   N5        1.0  0.07007  0.10280  0.33946  1.0000
  C   C33       1.0  0.18058  0.25871  0.46688  1.0000
  C   C34       1.0  0.16061  0.25998  0.60537  1.0000
  C   C35       1.0  0.14138  0.29125  0.64719  1.0000
  C   C36       1.0  0.14093  0.32188  0.55047  1.0000
  C   C37       1.0  0.16135  0.32081  0.41270  1.0000
  C   C38       1.0  0.18113  0.28960  0.37202  1.0000
  C   C39       1.0  0.23619  0.26568  0.88057  1.0000
  C   C40       1.0  0.11794  0.35253  0.59768  1.0000
  N   N6        1.0  0.11130  0.38079  0.51400  1.0000
  C   C41       1.0  0.32299  0.27173  0.37770  1.0000
  C   C42       1.0  0.34725  0.26942  0.25253  1.0000
  C   C43       1.0  0.37290  0.29653  0.23146  1.0000
  C   C44       1.0  0.37526  0.32659  0.33625  1.0000
  C   C45       1.0  0.35081  0.32903  0.46062  1.0000
  C   C46       1.0  0.32487  0.30204  0.48060  1.0000
  C   C47       1.0  0.29721  0.23938  0.39707  1.0000
  C   C48       1.0  0.40218  0.35479  0.31051  1.0000
  N   N7        1.0  0.40712  0.38212  0.40635  1.0000
  C   C49       1.0  0.39030  0.12248  0.61958  1.0000
  N   N8        1.0  0.39481  0.09145  0.54768  1.0000
  O   O5        1.0  0.22722  0.21853  0.68224  1.0000
  O   O6        1.0  0.28351  0.22955  0.24415  1.0000
  O   O7        1.0  0.27613  0.25714  0.66106  1.0000
  O   O8        1.0  0.21077  0.22585  0.25824  1.0000
  C   C50       1.0  0.01437  0.07747  0.24045  1.0000
  C   C51       1.0  0.99196  0.04797  0.20176  1.0000
  C   C52       1.0  0.00193  0.01239  0.24186  1.0000
  C   C53       1.0  0.03419  0.00735  0.32824  1.0000
  C   C54       1.0  0.05663  0.03664  0.36787  1.0000
  C   C55       1.0  0.01721  0.48291  0.82368  1.0000
  C   C56       1.0  0.49868  0.49500  0.18715  1.0000
  C   C57       1.0  0.95338  0.99703  0.74879  1.0000
  H   H1        1.0  0.29143  0.74086  0.46306  1.0000
  H   H2        1.0  0.20952  0.74883  0.46839  1.0000
  H   H3        1.0  0.21472  0.74927  0.94970  1.0000
  H   H4        1.0  0.21057  0.78393  0.80611  1.0000
  H   H5        1.0  0.24687  0.78560  0.94722  1.0000
  H   H6        1.0  0.25937  0.83395  0.66292  1.0000
  H   H7        1.0  0.20956  0.87606  0.73857  1.0000
  H   H8        1.0  0.15210  0.84869  0.31093  1.0000
  H   H9        1.0  0.20176  0.80612  0.23616  1.0000
  H   H10       1.0  0.15357  0.90434  0.69236  1.0000
  H   H11       1.0  0.29715  0.70510  0.76862  1.0000
  H   H12       1.0  0.26445  0.69989  0.91814  1.0000
  H   H13       1.0  0.29660  0.73638  0.93246  1.0000
  H   H14       1.0  0.41640  0.87449  0.49049  1.0000
  H   H15       1.0  0.34645  0.58433  0.67405  1.0000
  H   H16       1.0  0.08286  0.61589  0.48795  1.0000
  H   H17       1.0  0.26131  0.71708  0.21837  1.0000
  H   H18       1.0  0.24017  0.76427  0.22780  1.0000
  H   H19       1.0  0.46649  0.89649  0.41550  1.0000
  H   H20       1.0  0.51837  0.93636  0.36859  1.0000
  H   H21       1.0  0.44672  0.01811  0.18342  1.0000
  H   H22       1.0  0.39382  0.97788  0.23384  1.0000
  H   H23       1.0  0.50718  0.02092  0.12601  1.0000
  H   H24       1.0  0.53495  0.98218  0.13892  1.0000
  H   H25       1.0  0.03596  0.00861  0.89382  1.0000
  H   H26       1.0  0.00857  0.96965  0.89290  1.0000
  H   H27       1.0  0.24801  0.19178  0.48484  1.0000
  H   H28       1.0  0.25121  0.27361  0.45596  1.0000
  H   H29       1.0  0.29107  0.19157  0.77817  1.0000
  H   H30       1.0  0.26134  0.19549  0.94124  1.0000
  H   H31       1.0  0.29925  0.22488  0.93030  1.0000
  H   H32       1.0  0.10237  0.08197  0.52234  1.0000
  H   H33       1.0  0.15979  0.23609  0.67833  1.0000
  H   H34       1.0  0.12560  0.29201  0.75405  1.0000
  H   H35       1.0  0.16111  0.34454  0.33814  1.0000
  H   H36       1.0  0.19637  0.28868  0.26401  1.0000
  H   H37       1.0  0.21998  0.25187  0.96822  1.0000
  H   H38       1.0  0.21845  0.28347  0.81186  1.0000
  H   H39       1.0  0.25683  0.28225  0.94232  1.0000
  H   H40       1.0  0.10555  0.34985  0.71341  1.0000
  H   H41       1.0  0.34574  0.24607  0.17219  1.0000
  H   H42       1.0  0.39161  0.29454  0.13413  1.0000
  H   H43       1.0  0.35254  0.35255  0.54010  1.0000
  H   H44       1.0  0.30636  0.30433  0.57805  1.0000
  H   H45       1.0  0.41739  0.35219  0.20083  1.0000
  H   H46       1.0  0.40567  0.12966  0.72728  1.0000
  H   H47       1.0  0.25698  0.23288  0.24155  1.0000
  H   H48       1.0  0.20803  0.20145  0.21285  1.0000
  H   H49       1.0  0.00742  0.10493  0.20441  1.0000
  H   H50       1.0  0.96717  0.05236  0.13380  1.0000
  H   H51       1.0  0.04231  0.97993  0.36074  1.0000
  H   H52       1.0  0.08223  0.03138  0.42817  1.0000
  H   H53       1.0  0.03528  0.49505  0.91422  1.0000
  H   H54       1.0  0.99772  0.46624  0.88644  1.0000
  H   H55       1.0  0.47871  0.51247  0.12846  1.0000
  H   H56       1.0  0.51499  0.48244  0.09332  1.0000
  H   H57       1.0  0.94944  0.96886  0.78291  1.0000
  C   C58       1.0  0.73441  0.25799  0.48938  1.0000
  C   C59       1.0  0.76869  0.23353  0.49312  1.0000
  C   C60       1.0  0.75206  0.24478  0.23029  1.0000
  C   C61       1.0  0.77766  0.26816  0.13627  1.0000
  C   C62       1.0  0.76783  0.31748  0.55531  1.0000
  C   C63       1.0  0.76653  0.33817  0.41892  1.0000
  C   C64       1.0  0.79503  0.36126  0.38355  1.0000
  C   C65       1.0  0.82542  0.36478  0.48419  1.0000
  C   C66       1.0  0.82675  0.34388  0.62043  1.0000
  C   C67       1.0  0.79836  0.32043  0.65502  1.0000
  C   C68       1.0  0.73567  0.29337  0.59331  1.0000
  C   C69       1.0  0.85412  0.38996  0.44140  1.0000
  N   N9        1.0  0.88237  0.39717  0.52775  1.0000
  C   C70       1.0  0.70037  0.31516  0.58548  1.0000
  C   C71       1.0  0.66785  0.30111  0.52290  1.0000
  C   C72       1.0  0.63590  0.32166  0.53074  1.0000
  C   C73       1.0  0.63578  0.35681  0.59959  1.0000
  C   C74       1.0  0.66862  0.37095  0.66127  1.0000
  C   C75       1.0  0.70020  0.35044  0.65450  1.0000
  C   C76       1.0  0.72728  0.22085  0.12752  1.0000
  C   C77       1.0  0.60227  0.37825  0.60936  1.0000
  N   N10       1.0  0.60338  0.41174  0.65915  1.0000
  C   C78       1.0  0.57228  0.43347  0.67748  1.0000
  C   C79       1.0  0.73315  0.17601  0.55595  1.0000
  C   C80       1.0  0.70288  0.17481  0.65379  1.0000
  C   C81       1.0  0.67358  0.15204  0.61747  1.0000
  C   C82       1.0  0.67375  0.12996  0.48090  1.0000
  C   C83       1.0  0.70374  0.13183  0.38128  1.0000
  C   C84       1.0  0.73320  0.15415  0.41904  1.0000
  C   C85       1.0  0.76643  0.19936  0.59944  1.0000
  C   C86       1.0  0.64479  0.10436  0.43895  1.0000
  N   N11       1.0  0.61738  0.09747  0.52631  1.0000
  C   C87       1.0  0.80055  0.17549  0.58788  1.0000
  C   C88       1.0  0.80073  0.14228  0.66825  1.0000
  C   C89       1.0  0.83091  0.11957  0.66682  1.0000
  C   C90       1.0  0.86209  0.12925  0.58363  1.0000
  C   C91       1.0  0.86190  0.16235  0.50371  1.0000
  C   C92       1.0  0.83153  0.18525  0.50608  1.0000
  C   C93       1.0  0.89444  0.10609  0.58223  1.0000
  N   N12       1.0  0.89561  0.07597  0.65800  1.0000
  C   C94       1.0  0.92751  0.05534  0.67250  1.0000
  O   O9        1.0  0.73053  0.26840  0.33014  1.0000
  O   O10       1.0  0.76558  0.21146  0.76070  1.0000
  O   O11       1.0  0.77270  0.22190  0.33338  1.0000
  O   O12       1.0  0.73996  0.28133  0.75548  1.0000
  C   C95       1.0  0.96303  0.06940  0.66372  1.0000
  C   C96       1.0  0.99288  0.04773  0.70145  1.0000
  C   C97       1.0  0.98854  0.01153  0.74866  1.0000
  C   C98       1.0  0.92335  0.01857  0.71288  1.0000
  C   C99       1.0  0.53715  0.42575  0.61806  1.0000
  C   C100      1.0  0.50815  0.44875  0.65392  1.0000
  C   C101      1.0  0.51311  0.48005  0.74978  1.0000
  C   C102      1.0  0.54831  0.48850  0.80276  1.0000
  C   C103      1.0  0.57748  0.46583  0.76641  1.0000
  C   C104      1.0  0.48160  0.50256  0.80982  1.0000
  C   C105      1.0  0.98586  0.48039  0.19776  1.0000
  C   C106      1.0  0.76384  0.71887  0.46729  1.0000
  C   C107      1.0  0.73509  0.74943  0.48652  1.0000
  C   C108      1.0  0.74387  0.73596  0.21677  1.0000
  C   C109      1.0  0.72056  0.70736  0.13154  1.0000
  C   C110      1.0  0.79987  0.72458  0.56246  1.0000
  C   C111      1.0  0.89905  0.60112  0.54920  1.0000
  C   C112      1.0  0.95095  0.57174  0.65212  1.0000
  N   N13       1.0  0.92913  0.60259  0.62833  1.0000
  C   C113      1.0  0.76075  0.76343  0.10817  1.0000
  C   C114      1.0  0.88313  0.85196  0.40103  1.0000
  N   N14       1.0  0.88667  0.88185  0.48262  1.0000
  C   C115      1.0  0.91258  0.90668  0.42929  1.0000
  C   C116      1.0  0.70303  0.74033  0.59713  1.0000
  C   C117      1.0  0.59623  0.85570  0.68499  1.0000
  C   C118      1.0  0.56391  0.90793  0.62999  1.0000
  N   N15       1.0  0.59077  0.88223  0.58993  1.0000
  C   C119      1.0  0.68013  0.70808  0.53540  1.0000
  C   C120      1.0  0.68143  0.67450  0.61160  1.0000
  C   C121      1.0  0.65863  0.64589  0.56555  1.0000
  C   C122      1.0  0.63422  0.65009  0.43935  1.0000
  C   C123      1.0  0.63371  0.68338  0.35986  1.0000
  C   C124      1.0  0.65593  0.71218  0.40866  1.0000
  C   C125      1.0  0.60849  0.62182  0.39056  1.0000
  N   N16       1.0  0.60190  0.59319  0.47134  1.0000
  C   C126      1.0  0.57432  0.56978  0.41483  1.0000
  O   O13       1.0  0.77253  0.71852  0.30491  1.0000
  O   O14       1.0  0.71764  0.73164  0.74833  1.0000
  O   O15       1.0  0.72204  0.75537  0.33060  1.0000
  O   O16       1.0  0.79006  0.72758  0.72876  1.0000
  C   C127      1.0  0.98658  0.57820  0.70711  1.0000
  C   C128      1.0  0.00879  0.54944  0.75342  1.0000
  C   C129      1.0  0.99609  0.51340  0.74762  1.0000
  C   C130      1.0  0.96123  0.50676  0.68501  1.0000
  C   C131      1.0  0.93884  0.53531  0.63862  1.0000
  C   C132      1.0  0.53091  0.89861  0.69971  1.0000
  C   C133      1.0  0.50783  0.92593  0.75607  1.0000
  C   C134      1.0  0.51678  0.96287  0.74383  1.0000
  C   C135      1.0  0.54831  0.97203  0.66348  1.0000
  C   C136      1.0  0.57137  0.94499  0.60534  1.0000
  C   C137      1.0  0.54306  0.58253  0.33625  1.0000
  C   C138      1.0  0.51822  0.55785  0.27119  1.0000
  C   C139      1.0  0.52324  0.52005  0.28309  1.0000
  C   C140      1.0  0.55289  0.50754  0.37192  1.0000
  C   C141      1.0  0.57793  0.53202  0.43800  1.0000
  C   C142      1.0  0.94669  0.89506  0.37497  1.0000
  C   C143      1.0  0.96959  0.91966  0.30350  1.0000
  C   C144      1.0  0.95956  0.95628  0.28530  1.0000
  C   C145      1.0  0.92732  0.96850  0.35460  1.0000
  C   C146      1.0  0.90418  0.94415  0.42690  1.0000
  C   C147      1.0  0.98124  0.97973  0.17705  1.0000
  C   C148      1.0  0.49520  0.99193  0.82937  1.0000
  H   H58       1.0  0.71079  0.24189  0.52461  1.0000
  H   H59       1.0  0.79255  0.24947  0.53219  1.0000
  H   H60       1.0  0.79394  0.25063  0.05851  1.0000
  H   H61       1.0  0.79546  0.28385  0.21621  1.0000
  H   H62       1.0  0.76218  0.28732  0.06419  1.0000
  H   H63       1.0  0.74292  0.33623  0.34176  1.0000
  H   H64       1.0  0.79372  0.37733  0.27780  1.0000
  H   H65       1.0  0.85030  0.34654  0.69793  1.0000
  H   H66       1.0  0.79942  0.30464  0.76136  1.0000
  H   H67       1.0  0.85057  0.40232  0.32566  1.0000
  H   H68       1.0  0.66724  0.27427  0.46657  1.0000
  H   H69       1.0  0.61084  0.31035  0.48169  1.0000
  H   H70       1.0  0.66834  0.39821  0.71412  1.0000
  H   H71       1.0  0.72541  0.36159  0.70255  1.0000
  H   H72       1.0  0.70967  0.20441  0.20043  1.0000
  H   H73       1.0  0.74345  0.20285  0.05133  1.0000
  H   H74       1.0  0.71024  0.23818  0.05323  1.0000
  H   H75       1.0  0.57702  0.36398  0.57595  1.0000
  H   H76       1.0  0.70313  0.19115  0.76153  1.0000
  H   H77       1.0  0.65035  0.15056  0.69419  1.0000
  H   H78       1.0  0.70416  0.11489  0.27504  1.0000
  H   H79       1.0  0.75673  0.15442  0.34392  1.0000
  H   H80       1.0  0.64748  0.09075  0.32358  1.0000
  H   H81       1.0  0.77664  0.13435  0.73125  1.0000
  H   H82       1.0  0.83119  0.09389  0.72851  1.0000
  H   H83       1.0  0.88576  0.17026  0.43891  1.0000
  H   H84       1.0  0.83202  0.21038  0.44106  1.0000
  H   H85       1.0  0.91746  0.11614  0.51466  1.0000
  H   H86       1.0  0.75495  0.23619  0.76639  1.0000
  H   H87       1.0  0.71663  0.28518  0.80502  1.0000
  H   H88       1.0  0.96710  0.09788  0.63514  1.0000
  H   H89       1.0  0.01998  0.05942  0.69995  1.0000
  H   H90       1.0  0.89598  0.00778  0.71979  1.0000
  H   H91       1.0  0.53230  0.40184  0.54315  1.0000
  H   H92       1.0  0.48123  0.44226  0.60755  1.0000
  H   H93       1.0  0.55270  0.51289  0.87543  1.0000
  H   H94       1.0  0.60477  0.47203  0.80886  1.0000
  H   H95       1.0  0.49296  0.52408  0.88731  1.0000
  H   H96       1.0  0.46554  0.48507  0.88573  1.0000
  H   H97       1.0  0.97010  0.49595  0.11143  1.0000
  H   H98       1.0  0.99872  0.45791  0.13182  1.0000
  H   H99       1.0  0.75211  0.69252  0.50037  1.0000
  H   H100      1.0  0.74787  0.77468  0.53251  1.0000
  H   H101      1.0  0.70976  0.68805  0.21519  1.0000
  H   H102      1.0  0.73657  0.69257  0.04333  1.0000
  H   H103      1.0  0.69785  0.72061  0.07054  1.0000
  H   H104      1.0  0.88970  0.57643  0.48520  1.0000
  H   H105      1.0  0.77868  0.74965  0.02419  1.0000
  H   H106      1.0  0.77661  0.78345  0.17711  1.0000
  H   H107      1.0  0.73929  0.77738  0.04188  1.0000
  H   H108      1.0  0.89841  0.84754  0.29236  1.0000
  H   H109      1.0  0.58055  0.85358  0.79313  1.0000
  H   H110      1.0  0.69988  0.67182  0.71089  1.0000
  H   H111      1.0  0.65906  0.62009  0.62640  1.0000
  H   H112      1.0  0.61498  0.68685  0.26151  1.0000
  H   H113      1.0  0.65435  0.73817  0.35006  1.0000
  H   H114      1.0  0.59433  0.62658  0.27852  1.0000
  H   H115      1.0  0.74437  0.73234  0.74650  1.0000
  H   H116      1.0  0.79686  0.70445  0.77499  1.0000
  H   H117      1.0  0.99569  0.60635  0.71779  1.0000
  H   H118      1.0  0.03580  0.55506  0.80106  1.0000
  H   H119      1.0  0.95113  0.47887  0.67721  1.0000
  H   H120      1.0  0.91128  0.52934  0.59923  1.0000
  H   H121      1.0  0.52412  0.86998  0.71293  1.0000
  H   H122      1.0  0.48306  0.91854  0.81564  1.0000
  H   H123      1.0  0.55526  0.00064  0.64958  1.0000
  H   H124      1.0  0.59641  0.95211  0.54770  1.0000
  H   H125      1.0  0.53845  0.61173  0.32641  1.0000
  H   H126      1.0  0.49440  0.56793  0.20874  1.0000
  H   H127      1.0  0.55668  0.47840  0.38833  1.0000
  H   H128      1.0  0.60132  0.52225  0.50399  1.0000
  H   H129      1.0  0.95469  0.86666  0.38729  1.0000
  H   H130      1.0  0.99543  0.91023  0.25724  1.0000
  H   H131      1.0  0.91982  0.99719  0.34848  1.0000
  H   H132      1.0  0.87846  0.95337  0.47445  1.0000
  H   H133      1.0  0.96297  0.98900  0.08281  1.0000
  H   H134      1.0  0.00110  0.96153  0.12050  1.0000
  H   H135      1.0  0.51478  0.00894  0.89529  1.0000
  H   H136      1.0  0.47853  0.97857  0.91745  1.0000
  C   C149      1.0  0.60366  0.02909  0.37432  1.0000
  C   C150      1.0  0.59733  0.06276  0.44887  1.0000
  C  Sn1       1.0  0.56193  0.07580  0.46586  1.0000
  C  Sn2       1.0  0.53237  0.05467  0.40704  1.0000
  C   C151      1.0  0.53899  0.02101  0.33274  1.0000
  C   C152      1.0  0.57452  0.00823  0.31632  1.0000
  H   H137      1.0  0.63115  0.01919  0.36169  1.0000
  O  Te1       1.0  0.55609  0.10950  0.54060  1.0000
  O  Te2       1.0  0.49672  0.06704  0.42249  1.0000
  H   H138      1.0  0.57659  0.98215  0.25869  1.0000
  Mg  Mg1       1.0  0.50261  0.11469  0.53323  1.0000
  C   C153      1.0  0.43028  0.00688  0.64212  1.0000
  C   C154      1.0  0.46479  0.01310  0.70676  1.0000
  C  Sn3       1.0  0.47801  0.04866  0.72446  1.0000
  C  Sn4       1.0  0.45621  0.07848  0.67649  1.0000
  C   C155      1.0  0.42171  0.07197  0.61206  1.0000
  C   C156      1.0  0.40876  0.03628  0.59483  1.0000
  H   H139      1.0  0.41742  0.97927  0.62887  1.0000
  O  Te3       1.0  0.51256  0.05439  0.78921  1.0000
  O  Te4       1.0  0.46875  0.11430  0.69290  1.0000
  H   H140      1.0  0.38203  0.03147  0.54488  1.0000
  Mg  Mg2       1.0  0.51765  0.10817  0.78755  1.0000
  C   C157      1.0  0.95433  0.41441  0.46762  1.0000
  C   C158      1.0  0.91725  0.42109  0.48477  1.0000
  C  Sn5       1.0  0.90066  0.45007  0.40750  1.0000
  C  Sn6       1.0  0.92164  0.47273  0.31133  1.0000
  C   C159      1.0  0.95872  0.46580  0.29485  1.0000
  C   C160      1.0  0.97505  0.43674  0.37274  1.0000
  H   H141      1.0  0.96696  0.39191  0.52781  1.0000
  O  Te5       1.0  0.86358  0.45637  0.42597  1.0000
  O  Te6       1.0  0.90575  0.50187  0.23272  1.0000
  H   H142      1.0  0.00375  0.43156  0.35935  1.0000
  Mg  Mg3       1.0  0.85429  0.49945  0.29489  1.0000
  C   C161      1.0  0.02754  0.56353  0.33846  1.0000
  C   C162      1.0  0.06491  0.55700  0.34021  1.0000
  C  Sn7       1.0  0.07845  0.52268  0.29671  1.0000
  C  Sn8       1.0  0.05408  0.49444  0.25061  1.0000
  C   C163      1.0  0.01675  0.50125  0.24914  1.0000
  C   C164      1.0  0.00348  0.53569  0.29295  1.0000
  H   H143      1.0  0.01728  0.59018  0.37227  1.0000
  O  Te7       1.0  0.11586  0.51662  0.29918  1.0000
  O  Te8       1.0  0.06689  0.45988  0.20651  1.0000
  H   H144      1.0  0.97456  0.54075  0.29148  1.0000
  Mg  Mg4       1.0  0.12016  0.46496  0.22901  1.0000
  C   C165      1.0  0.86729  0.68995  0.64614  1.0000
  C   C166      1.0  0.83505  0.69431  0.56050  1.0000
  C  Sn9       1.0  0.82133  0.66555  0.46781  1.0000
  C  Sn10      1.0  0.84028  0.63182  0.46101  1.0000
  C   C167      1.0  0.87249  0.62772  0.54722  1.0000
  C   C168      1.0  0.88599  0.65669  0.63955  1.0000
  H   H145      1.0  0.87772  0.71236  0.71765  1.0000
  O  Te9       1.0  0.78910  0.67037  0.38294  1.0000
  O  Te10      1.0  0.82717  0.60261  0.36937  1.0000
  H   H146      1.0  0.91094  0.65329  0.70593  1.0000
  Mg  Mg5       1.0  0.78213  0.62251  0.27491  1.0000
  C   C169      1.0  0.13417  0.18782  0.32170  1.0000
  C   C170      1.0  0.16495  0.19348  0.41630  1.0000
  C  Sn11      1.0  0.17605  0.16696  0.52205  1.0000
  C  Sn12      1.0  0.15592  0.13420  0.53300  1.0000
  C   C171      1.0  0.12518  0.12879  0.43777  1.0000
  C   C172      1.0  0.11430  0.15551  0.33238  1.0000
  H   H147      1.0  0.12576  0.20848  0.24009  1.0000
  O  Te11      1.0  0.20686  0.17306  0.61573  1.0000
  O  Te12      1.0  0.16642  0.10724  0.63765  1.0000
  H   H148      1.0  0.09048  0.15111  0.25908  1.0000
  Mg  Mg6       1.0  0.21032  0.12819  0.74045  1.0000
  C   C173      1.0  0.43700  0.47029  0.36204  1.0000
  C   C174      1.0  0.47106  0.46804  0.29278  1.0000
  C  Sn13      1.0  0.48639  0.43404  0.25681  1.0000
  C  Sn14      1.0  0.46718  0.40173  0.29091  1.0000
  C   C175      1.0  0.43311  0.40427  0.36011  1.0000
  C   C176      1.0  0.41803  0.43844  0.39566  1.0000
  H   H149      1.0  0.42532  0.49673  0.38948  1.0000
  O  Te13      1.0  0.52045  0.43229  0.18768  1.0000
  O  Te14      1.0  0.48186  0.36739  0.25613  1.0000
  H   H150      1.0  0.39164  0.44017  0.44919  1.0000
  Mg  Mg7       1.0  0.52911  0.37914  0.16236  1.0000
  C   C177      1.0  0.84552  0.76432  0.35339  1.0000
  C   C178      1.0  0.82519  0.75828  0.48719  1.0000
  C  Sn15      1.0  0.82064  0.78618  0.59917  1.0000
  C  Sn16      1.0  0.83676  0.82074  0.57642  1.0000
  C   C179      1.0  0.85702  0.82652  0.44212  1.0000
  C   C180      1.0  0.86141  0.79840  0.33084  1.0000
  H   H151      1.0  0.84891  0.74258  0.26724  1.0000
  O  Te15      1.0  0.80026  0.77967  0.73220  1.0000
  O  Te16      1.0  0.83263  0.84911  0.68644  1.0000
  H   H152      1.0  0.87713  0.80310  0.22720  1.0000
  Mg  Mg8       1.0  0.80240  0.82692  0.84872  1.0000
  C   C181      1.0  0.40892  0.51414  0.69122  1.0000
  C   C182      1.0  0.44673  0.51655  0.69047  1.0000
  C  Sn17      1.0  0.46365  0.54475  0.61194  1.0000
  C  Sn18      1.0  0.44223  0.57100  0.53282  1.0000
  C   C183      1.0  0.40442  0.56837  0.53435  1.0000
  C   C184      1.0  0.38778  0.54002  0.61326  1.0000
  H   H153      1.0  0.39604  0.49222  0.75234  1.0000
  O  Te17      1.0  0.50146  0.54675  0.61231  1.0000
  O  Te18      1.0  0.45844  0.59948  0.45345  1.0000
  H   H154      1.0  0.35850  0.53818  0.61391  1.0000
  Mg  Mg9       1.0  0.51092  0.59058  0.48755  1.0000
  C   C185      1.0  0.31970  0.64951  0.34736  1.0000
  C   C186      1.0  0.32401  0.62868  0.48155  1.0000
  C  Sn19      1.0  0.29688  0.62834  0.59404  1.0000
  C  Sn20      1.0  0.26486  0.64925  0.57141  1.0000
  C   C187      1.0  0.26080  0.66998  0.43670  1.0000
  C   C188      1.0  0.28812  0.67014  0.32491  1.0000
  H   H155      1.0  0.34083  0.64961  0.26082  1.0000
  O  Te19      1.0  0.30163  0.60739  0.72746  1.0000
  O  Te20      1.0  0.23731  0.64940  0.68193  1.0000
  H   H156      1.0  0.28477  0.68625  0.22097  1.0000
  Mg  Mg10      1.0  0.25640  0.61647  0.84460  1.0000
  C   C189      1.0  0.34065  0.80660  0.50757  1.0000
  C   C190      1.0  0.30692  0.81190  0.43483  1.0000
  C  Sn21      1.0  0.30123  0.84171  0.33804  1.0000
  C  Sn22      1.0  0.32991  0.86661  0.31381  1.0000
  C   C191      1.0  0.36356  0.86105  0.38702  1.0000
  C   C192      1.0  0.36895  0.83115  0.48368  1.0000
  H   H157      1.0  0.34483  0.78345  0.58229  1.0000
  O  Te21      1.0  0.26736  0.84660  0.26632  1.0000
  O  Te22      1.0  0.32497  0.89662  0.21761  1.0000
  H   H158      1.0  0.39508  0.82704  0.53990  1.0000
  Mg  Mg11      1.0  0.27391  0.89164  0.14571  1.0000
  C   C193      1.0  0.19225  0.63509  0.29501  1.0000
  C   C194      1.0  0.19804  0.66911  0.36786  1.0000
  C  Sn23      1.0  0.17211  0.68396  0.46862  1.0000
  C  Sn24      1.0  0.13982  0.66433  0.49677  1.0000
  C   C195      1.0  0.13430  0.63030  0.42340  1.0000
  C   C196      1.0  0.16042  0.61570  0.32276  1.0000
  H   H159      1.0  0.21247  0.62378  0.21721  1.0000
  O  Te23      1.0  0.17832  0.71799  0.54039  1.0000
  O  Te24      1.0  0.11347  0.67853  0.59697  1.0000
  H   H160      1.0  0.15594  0.58935  0.26645  1.0000
  Mg  Mg12      1.0  0.13433  0.72592  0.66727  1.0000
  C   C197      1.0  0.36371  0.19514  0.64100  1.0000
  C   C198      1.0  0.36415  0.15847  0.59291  1.0000
  C  Sn25      1.0  0.34241  0.14650  0.46692  1.0000
  C  Sn26      1.0  0.31984  0.17178  0.38781  1.0000
  C   C199      1.0  0.31962  0.20842  0.43675  1.0000
  C   C200      1.0  0.34147  0.22010  0.56300  1.0000
  H   H161      1.0  0.38063  0.20419  0.73862  1.0000
  O  Te25      1.0  0.34316  0.10976  0.42044  1.0000
  O  Te26      1.0  0.29785  0.16055  0.26150  1.0000
  H   H162      1.0  0.34114  0.24850  0.60014  1.0000
  Mg  Mg13      1.0  0.30833  0.10765  0.24191  1.0000
  C   C201      1.0  0.63084  0.78990  0.77847  1.0000
  C   C202      1.0  0.62564  0.82213  0.69636  1.0000
  C  Sn27      1.0  0.64641  0.82917  0.56490  1.0000
  C  Sn28      1.0  0.67286  0.80342  0.51498  1.0000
  C   C203      1.0  0.67784  0.77125  0.59786  1.0000
  C   C204      1.0  0.65691  0.76448  0.72927  1.0000
  H   H163      1.0  0.61464  0.78465  0.88010  1.0000
  O  Te27      1.0  0.64088  0.86151  0.48425  1.0000
  O  Te28      1.0  0.69398  0.80976  0.38395  1.0000
  H   H164      1.0  0.66093  0.73952  0.79276  1.0000
  Mg  Mg14      1.0  0.67638  0.85782  0.31274  1.0000
  C   C205      1.0  0.10609  0.96513  0.65628  1.0000
  C   C206      1.0  0.10049  0.93213  0.57471  1.0000
  C  Sn29      1.0  0.06540  0.91858  0.55171  1.0000
  C  Sn30      1.0  0.03540  0.93850  0.61158  1.0000
  C   C207      1.0  0.04129  0.97149  0.69292  1.0000
  C   C208      1.0  0.07652  0.98480  0.71531  1.0000
  H   H165      1.0  0.13334  0.97543  0.67353  1.0000
  O  Te29      1.0  0.06029  0.88557  0.47000  1.0000
  O  Te30      1.0  0.00004  0.92559  0.59022  1.0000
  H   H166      1.0  0.08367  0.01035  0.77838  1.0000
  Mg  Mg15      1.0  0.00696  0.87925  0.47104  1.0000
  C   C209      1.0  0.03246  0.41019  0.70481  1.0000
  C   C210      1.0  0.03736  0.44771  0.72821  1.0000
  C  Sn31      1.0  0.06697  0.46521  0.66283  1.0000
  C  Sn32      1.0  0.09210  0.44470  0.57237  1.0000
  C   C211      1.0  0.08695  0.40718  0.54955  1.0000
  C   C212      1.0  0.05722  0.38993  0.61555  1.0000
  H   H167      1.0  0.00945  0.39685  0.75579  1.0000
  O  Te31      1.0  0.07147  0.50272  0.68742  1.0000
  O  Te32      1.0  0.12193  0.46151  0.50564  1.0000
  H   H168      1.0  0.05342  0.36088  0.59732  1.0000
  Mg  Mg16      1.0  0.11639  0.51326  0.57239  1.0000
