data_image0
_chemical_formula_structural       C6NC2NC2NCNO4C8NC2NC2NCNO4C2H36C6NC2NC2NCNO4C8NC2NC2NCNO4C2H36C2Sn2C2HTe2HMgC2Sn2C2HTe2HMgC2Sn2C2HTe2HMgC2Sn2C2HTe2HMgC2Sn2C2HTe2HMgC2Sn2C2HTe2HMgC2Sn2C2HTe2HMgC2Sn2C2HTe2HMgC2Sn2C2HTe2HMgC2Sn2C2HTe2HMgC2Sn2C2HTe2HMgC2Sn2C2HTe2HMgC2Sn2C2HTe2HMgC2Sn2C2HTe2HMgC2Sn2C2HTe2HMgC2Sn2C2HTe2HMgC2Sn2C2HTe2HMgC2Sn2C2HTe2HMgC2Sn2C2HTe2HMgC2Sn2C2HTe2HMgC2Sn2C2HTe2HMgC2Sn2C2HTe2HMgC2Sn2C2HTe2HMgC2Sn2C2HTe2HMgC2Sn2C2HTe2HMgC2Sn2C2HTe2HMgC2Sn2C2HTe2HMgC2Sn2C2HTe2HMgC2Sn2C2HTe2HMgC2Sn2C2HTe2HMgC2Sn2C2HTe2HMgC2Sn2C2HTe2HMg
_chemical_formula_sum              "C180 N16 O16 H136 Sn64 Te64 Mg32"
_cell_length_a       36.8719
_cell_length_b       36.6495
_cell_length_c       8.5437
_cell_angle_alpha    91.1851
_cell_angle_beta     90.8035
_cell_angle_gamma    89.8369

_symmetry_space_group_name_H-M    'P1'
_space_group_IT_number       1

loop_
  _space_group_symop_operation_xyz
  'x, y, z'

loop_
  _atom_site_type_symbol
  _atom_site_label
  _atom_site_symmetry_multiplicity
  _atom_site_fract_x
  _atom_site_fract_y
  _atom_site_fract_z
  _atom_site_occupancy
  C   C1        1.0  0.26784  0.75698  0.50267  1.0000
  C   C2        1.0  0.23350  0.73267  0.50349  1.0000
  C   C3        1.0  0.25328  0.74452  0.76394  1.0000
  C   C4        1.0  0.22982  0.76749  0.87374  1.0000
  C   C5        1.0  0.26543  0.79157  0.39901  1.0000
  C   C6        1.0  0.14936  0.89126  0.57635  1.0000
  N   N1        1.0  0.12089  0.89844  0.49228  1.0000
  C   C7        1.0  0.27972  0.71986  0.85145  1.0000
  C   C8        1.0  0.39382  0.88344  0.41472  1.0000
  N   N2        1.0  0.39486  0.91285  0.33421  1.0000
  C   C9        1.0  0.23411  0.69764  0.39534  1.0000
  C   C10       1.0  0.35033  0.59682  0.55942  1.0000
  N   N3        1.0  0.37876  0.58951  0.47750  1.0000
  C   C11       1.0  0.10499  0.60699  0.41060  1.0000
  N   N4        1.0  0.10410  0.57684  0.33006  1.0000
  O   O1        1.0  0.27267  0.76830  0.66286  1.0000
  O   O2        1.0  0.23632  0.70955  0.23508  1.0000
  O   O3        1.0  0.23045  0.72216  0.66280  1.0000
  O   O4        1.0  0.26193  0.77947  0.23781  1.0000
  C   C12       1.0  0.51826  0.00113  0.20896  1.0000
  C   C13       1.0  0.02004  0.99022  0.81642  1.0000
  C   C14       1.0  0.23601  0.21824  0.52007  1.0000
  C   C15       1.0  0.26430  0.24910  0.50404  1.0000
  C   C16       1.0  0.25463  0.23788  0.77277  1.0000
  C   C17       1.0  0.27821  0.21071  0.86053  1.0000
  C   C18       1.0  0.20019  0.22343  0.42281  1.0000
  C   C19       1.0  0.09700  0.10369  0.43781  1.0000
  N   N5        1.0  0.07007  0.10280  0.33946  1.0000
  C   C20       1.0  0.23619  0.26568  0.88057  1.0000
  C   C21       1.0  0.11794  0.35253  0.59768  1.0000
  N   N6        1.0  0.11130  0.38079  0.51400  1.0000
  C   C22       1.0  0.29721  0.23938  0.39707  1.0000
  C   C23       1.0  0.40218  0.35479  0.31051  1.0000
  N   N7        1.0  0.40712  0.38212  0.40635  1.0000
  C   C24       1.0  0.39030  0.12248  0.61958  1.0000
  N   N8        1.0  0.39481  0.09145  0.54768  1.0000
  O   O5        1.0  0.22722  0.21853  0.68224  1.0000
  O   O6        1.0  0.28351  0.22955  0.24415  1.0000
  O   O7        1.0  0.27613  0.25714  0.66106  1.0000
  O   O8        1.0  0.21077  0.22585  0.25824  1.0000
  C   C25       1.0  0.01721  0.48291  0.82368  1.0000
  C   C26       1.0  0.49868  0.49500  0.18715  1.0000
  H   H1        1.0  0.29143  0.74086  0.46306  1.0000
  H   H2        1.0  0.20952  0.74883  0.46839  1.0000
  H   H3        1.0  0.21472  0.74927  0.94970  1.0000
  H   H4        1.0  0.21057  0.78393  0.80611  1.0000
  H   H5        1.0  0.24687  0.78560  0.94722  1.0000
  H   H6        1.0  0.15357  0.90434  0.69236  1.0000
  H   H7        1.0  0.29715  0.70510  0.76862  1.0000
  H   H8        1.0  0.26445  0.69989  0.91814  1.0000
  H   H9        1.0  0.29660  0.73638  0.93246  1.0000
  H   H10       1.0  0.41640  0.87449  0.49049  1.0000
  H   H11       1.0  0.34645  0.58433  0.67405  1.0000
  H   H12       1.0  0.08286  0.61589  0.48795  1.0000
  H   H13       1.0  0.26131  0.71708  0.21837  1.0000
  H   H14       1.0  0.24017  0.76427  0.22780  1.0000
  H   H15       1.0  0.50718  0.02092  0.12601  1.0000
  H   H16       1.0  0.53495  0.98218  0.13892  1.0000
  H   H17       1.0  0.03596  0.00861  0.89382  1.0000
  H   H18       1.0  0.00857  0.96965  0.89290  1.0000
  H   H19       1.0  0.24801  0.19178  0.48484  1.0000
  H   H20       1.0  0.25121  0.27361  0.45596  1.0000
  H   H21       1.0  0.29107  0.19157  0.77817  1.0000
  H   H22       1.0  0.26134  0.19549  0.94124  1.0000
  H   H23       1.0  0.29925  0.22488  0.93030  1.0000
  H   H24       1.0  0.10237  0.08197  0.52234  1.0000
  H   H25       1.0  0.21998  0.25187  0.96822  1.0000
  H   H26       1.0  0.21845  0.28347  0.81186  1.0000
  H   H27       1.0  0.25683  0.28225  0.94232  1.0000
  H   H28       1.0  0.10555  0.34985  0.71341  1.0000
  H   H29       1.0  0.41739  0.35219  0.20083  1.0000
  H   H30       1.0  0.40567  0.12966  0.72728  1.0000
  H   H31       1.0  0.25698  0.23288  0.24155  1.0000
  H   H32       1.0  0.20803  0.20145  0.21285  1.0000
  H   H33       1.0  0.03528  0.49505  0.91422  1.0000
  H   H34       1.0  0.99772  0.46624  0.88644  1.0000
  H   H35       1.0  0.47871  0.51247  0.12846  1.0000
  H   H36       1.0  0.51499  0.48244  0.09332  1.0000
  C   C27       1.0  0.73441  0.25799  0.48938  1.0000
  C   C28       1.0  0.76869  0.23353  0.49312  1.0000
  C   C29       1.0  0.75206  0.24478  0.23029  1.0000
  C   C30       1.0  0.77766  0.26816  0.13627  1.0000
  C   C31       1.0  0.73567  0.29337  0.59331  1.0000
  C   C32       1.0  0.85412  0.38996  0.44140  1.0000
  N   N9        1.0  0.88237  0.39717  0.52775  1.0000
  C   C33       1.0  0.72728  0.22085  0.12752  1.0000
  C   C34       1.0  0.60227  0.37825  0.60936  1.0000
  N   N10       1.0  0.60338  0.41174  0.65915  1.0000
  C   C35       1.0  0.76643  0.19936  0.59944  1.0000
  C   C36       1.0  0.64479  0.10436  0.43895  1.0000
  N   N11       1.0  0.61738  0.09747  0.52631  1.0000
  C   C37       1.0  0.89444  0.10609  0.58223  1.0000
  N   N12       1.0  0.89561  0.07597  0.65800  1.0000
  O   O9        1.0  0.73053  0.26840  0.33014  1.0000
  O   O10       1.0  0.76558  0.21146  0.76070  1.0000
  O   O11       1.0  0.77270  0.22190  0.33338  1.0000
  O   O12       1.0  0.73996  0.28133  0.75548  1.0000
  C   C38       1.0  0.48160  0.50256  0.80982  1.0000
  C   C39       1.0  0.98586  0.48039  0.19776  1.0000
  C   C40       1.0  0.76384  0.71887  0.46729  1.0000
  C   C41       1.0  0.73509  0.74943  0.48652  1.0000
  C   C42       1.0  0.74387  0.73596  0.21677  1.0000
  C   C43       1.0  0.72056  0.70736  0.13154  1.0000
  C   C44       1.0  0.79987  0.72458  0.56246  1.0000
  C   C45       1.0  0.89905  0.60112  0.54920  1.0000
  N   N13       1.0  0.92913  0.60259  0.62833  1.0000
  C   C46       1.0  0.76075  0.76343  0.10817  1.0000
  C   C47       1.0  0.88313  0.85196  0.40103  1.0000
  N   N14       1.0  0.88667  0.88185  0.48262  1.0000
  C   C48       1.0  0.70303  0.74033  0.59713  1.0000
  C   C49       1.0  0.59623  0.85570  0.68499  1.0000
  N   N15       1.0  0.59077  0.88223  0.58993  1.0000
  C   C50       1.0  0.60849  0.62182  0.39056  1.0000
  N   N16       1.0  0.60190  0.59319  0.47134  1.0000
  O   O13       1.0  0.77253  0.71852  0.30491  1.0000
  O   O14       1.0  0.71764  0.73164  0.74833  1.0000
  O   O15       1.0  0.72204  0.75537  0.33060  1.0000
  O   O16       1.0  0.79006  0.72758  0.72876  1.0000
  C   C51       1.0  0.98124  0.97973  0.17705  1.0000
  C   C52       1.0  0.49520  0.99193  0.82937  1.0000
  H   H37       1.0  0.71079  0.24189  0.52461  1.0000
  H   H38       1.0  0.79255  0.24947  0.53219  1.0000
  H   H39       1.0  0.79394  0.25063  0.05851  1.0000
  H   H40       1.0  0.79546  0.28385  0.21621  1.0000
  H   H41       1.0  0.76218  0.28732  0.06419  1.0000
  H   H42       1.0  0.85057  0.40232  0.32566  1.0000
  H   H43       1.0  0.70967  0.20441  0.20043  1.0000
  H   H44       1.0  0.74345  0.20285  0.05133  1.0000
  H   H45       1.0  0.71024  0.23818  0.05323  1.0000
  H   H46       1.0  0.57702  0.36398  0.57595  1.0000
  H   H47       1.0  0.64748  0.09075  0.32358  1.0000
  H   H48       1.0  0.91746  0.11614  0.51466  1.0000
  H   H49       1.0  0.75495  0.23619  0.76639  1.0000
  H   H50       1.0  0.71663  0.28518  0.80502  1.0000
  H   H51       1.0  0.49296  0.52408  0.88731  1.0000
  H   H52       1.0  0.46554  0.48507  0.88573  1.0000
  H   H53       1.0  0.97010  0.49595  0.11143  1.0000
  H   H54       1.0  0.99872  0.45791  0.13182  1.0000
  H   H55       1.0  0.75211  0.69252  0.50037  1.0000
  H   H56       1.0  0.74787  0.77468  0.53251  1.0000
  H   H57       1.0  0.70976  0.68805  0.21519  1.0000
  H   H58       1.0  0.73657  0.69257  0.04333  1.0000
  H   H59       1.0  0.69785  0.72061  0.07054  1.0000
  H   H60       1.0  0.88970  0.57643  0.48520  1.0000
  H   H61       1.0  0.77868  0.74965  0.02419  1.0000
  H   H62       1.0  0.77661  0.78345  0.17711  1.0000
  H   H63       1.0  0.73929  0.77738  0.04188  1.0000
  H   H64       1.0  0.89841  0.84754  0.29236  1.0000
  H   H65       1.0  0.58055  0.85358  0.79313  1.0000
  H   H66       1.0  0.59433  0.62658  0.27852  1.0000
  H   H67       1.0  0.74437  0.73234  0.74650  1.0000
  H   H68       1.0  0.79686  0.70445  0.77499  1.0000
  H   H69       1.0  0.96297  0.98900  0.08281  1.0000
  H   H70       1.0  0.00110  0.96153  0.12050  1.0000
  H   H71       1.0  0.51478  0.00894  0.89529  1.0000
  H   H72       1.0  0.47853  0.97857  0.91745  1.0000
  C   C53       1.0  0.19391  0.82437  0.33981  1.0000
  C   C54       1.0  0.22721  0.81823  0.41496  1.0000
  C  Sn1       1.0  0.23508  0.83520  0.55935  1.0000
  C  Sn2       1.0  0.20906  0.85873  0.62952  1.0000
  C   C55       1.0  0.17582  0.86467  0.55344  1.0000
  C   C56       1.0  0.16823  0.84756  0.40897  1.0000
  H   H73       1.0  0.18803  0.81111  0.22807  1.0000
  O  Te1       1.0  0.26849  0.82878  0.63280  1.0000
  O  Te2       1.0  0.21622  0.87603  0.77378  1.0000
  H   H74       1.0  0.14243  0.85230  0.35086  1.0000
  Mg  Mg1       1.0  0.26562  0.85865  0.82812  1.0000
  C   C57       1.0  0.32228  0.86584  0.29776  1.0000
  C   C58       1.0  0.35391  0.86354  0.38911  1.0000
  C  Sn3       1.0  0.35935  0.83409  0.48807  1.0000
  C  Sn4       1.0  0.33259  0.80646  0.49542  1.0000
  C   C59       1.0  0.30105  0.80900  0.40348  1.0000
  C   C60       1.0  0.29588  0.83860  0.30490  1.0000
  H   H75       1.0  0.31829  0.88873  0.22142  1.0000
  O  Te3       1.0  0.39110  0.83222  0.57858  1.0000
  O  Te4       1.0  0.33734  0.77672  0.59327  1.0000
  H   H76       1.0  0.27140  0.84036  0.23411  1.0000
  Mg  Mg2       1.0  0.38515  0.78635  0.69397  1.0000
  C   C61       1.0  0.28297  0.63168  0.62077  1.0000
  C   C62       1.0  0.31380  0.62169  0.53663  1.0000
  C  Sn5       1.0  0.32171  0.63888  0.39677  1.0000
  C  Sn6       1.0  0.29828  0.66659  0.34041  1.0000
  C   C63       1.0  0.26751  0.67640  0.42551  1.0000
  C   C64       1.0  0.25985  0.65901  0.56530  1.0000
  H   H77       1.0  0.27705  0.61824  0.72897  1.0000
  O  Te5       1.0  0.35263  0.62856  0.31415  1.0000
  O  Te6       1.0  0.30555  0.68423  0.20100  1.0000
  H   H78       1.0  0.23598  0.66677  0.63047  1.0000
  Mg  Mg3       1.0  0.35097  0.66059  0.13023  1.0000
  C   C65       1.0  0.15942  0.68446  0.50535  1.0000
  C   C66       1.0  0.19239  0.67846  0.43022  1.0000
  C  Sn7       1.0  0.19686  0.64809  0.33073  1.0000
  C  Sn8       1.0  0.16772  0.62333  0.30620  1.0000
  C   C67       1.0  0.13483  0.62959  0.38183  1.0000
  C   C68       1.0  0.13066  0.66006  0.48118  1.0000
  H   H79       1.0  0.15619  0.70805  0.58215  1.0000
  O  Te7       1.0  0.22998  0.64249  0.25664  1.0000
  O  Te8       1.0  0.17144  0.59276  0.20733  1.0000
  H   H80       1.0  0.10512  0.66471  0.53925  1.0000
  Mg  Mg4       1.0  0.22184  0.59689  0.13284  1.0000
  C   C69       1.0  0.04952  0.91896  0.55246  1.0000
  C   C70       1.0  0.08686  0.92382  0.53680  1.0000
  C  Sn9       1.0  0.10435  0.95297  0.61372  1.0000
  C  Sn10      1.0  0.08400  0.97766  0.70803  1.0000
  C   C71       1.0  0.04666  0.97253  0.72303  1.0000
  C   C72       1.0  0.02943  0.94328  0.64550  1.0000
  H   H81       1.0  0.03619  0.89631  0.49255  1.0000
  O  Te9       1.0  0.14167  0.95744  0.59676  1.0000
  O  Te10      1.0  0.10363  0.00701  0.78626  1.0000
  H   H82       1.0  0.00053  0.93951  0.65773  1.0000
  Mg  Mg5       1.0  0.15226  0.00163  0.72661  1.0000
  C   C73       1.0  0.46463  0.55762  0.57764  1.0000
  C   C74       1.0  0.45924  0.52851  0.67776  1.0000
  C  Sn11      1.0  0.42434  0.51511  0.70118  1.0000
  C  Sn12      1.0  0.39433  0.53120  0.62273  1.0000
  C   C75       1.0  0.40001  0.56030  0.52273  1.0000
  C   C76       1.0  0.43505  0.57350  0.50017  1.0000
  H   H83       1.0  0.49174  0.56782  0.56011  1.0000
  O  Te11      1.0  0.41944  0.48602  0.80166  1.0000
  O  Te12      1.0  0.35917  0.51834  0.64398  1.0000
  H   H84       1.0  0.43921  0.59602  0.42257  1.0000
  Mg  Mg6       1.0  0.36633  0.47813  0.79264  1.0000
  C   C77       1.0  0.01222  0.54977  0.32899  1.0000
  C   C78       1.0  0.01351  0.51396  0.26989  1.0000
  C  Sn13      1.0  0.04687  0.49689  0.24380  1.0000
  C  Sn14      1.0  0.07950  0.51610  0.27766  1.0000
  C   C79       1.0  0.07792  0.55191  0.33685  1.0000
  C   C80       1.0  0.04438  0.56873  0.36247  1.0000
  H   H85       1.0  0.98627  0.56279  0.34889  1.0000
  O  Te13      1.0  0.04768  0.46110  0.18465  1.0000
  O  Te14      1.0  0.11322  0.49969  0.25275  1.0000
  H   H86       1.0  0.04339  0.59645  0.40832  1.0000
  Mg  Mg7       1.0  0.10024  0.45046  0.17046  1.0000
  C   C81       1.0  0.44103  0.98984  0.23086  1.0000
  C   C82       1.0  0.47761  0.98475  0.26970  1.0000
  C  Sn15      1.0  0.48926  0.95217  0.33623  1.0000
  C  Sn16      1.0  0.46376  0.92421  0.36422  1.0000
  C   C83       1.0  0.42722  0.92956  0.32484  1.0000
  C   C84       1.0  0.41585  0.96228  0.25837  1.0000
  H   H87       1.0  0.43506  0.01514  0.17935  1.0000
  O  Te15      1.0  0.52591  0.94753  0.37438  1.0000
  O  Te16      1.0  0.47467  0.89137  0.43052  1.0000
  H   H88       1.0  0.38753  0.96620  0.22822  1.0000
  Mg  Mg8       1.0  0.52756  0.89797  0.46239  1.0000
  C   C85       1.0  0.16328  0.13681  0.54661  1.0000
  C   C86       1.0  0.12953  0.13397  0.47093  1.0000
  C  Sn17      1.0  0.11807  0.16082  0.36745  1.0000
  C  Sn18      1.0  0.14088  0.19104  0.33942  1.0000
  C   C87       1.0  0.17461  0.19361  0.41563  1.0000
  C   C88       1.0  0.18580  0.16659  0.51899  1.0000
  H   H89       1.0  0.17195  0.11589  0.62652  1.0000
  O  Te17      1.0  0.08426  0.15757  0.29286  1.0000
  O  Te18      1.0  0.13010  0.21826  0.23652  1.0000
  H   H90       1.0  0.21194  0.16878  0.57749  1.0000
  Mg  Mg9       1.0  0.08161  0.20167  0.16294  1.0000
  C   C89       1.0  0.16826  0.31647  0.38652  1.0000
  C   C90       1.0  0.14443  0.32189  0.51067  1.0000
  C  Sn19      1.0  0.13999  0.29478  0.62136  1.0000
  C  Sn20      1.0  0.15982  0.26167  0.60721  1.0000
  C   C91       1.0  0.18361  0.25652  0.48263  1.0000
  C   C92       1.0  0.18784  0.28382  0.37250  1.0000
  H   H91       1.0  0.17155  0.33759  0.30135  1.0000
  O  Te19      1.0  0.11606  0.30064  0.74464  1.0000
  O  Te20      1.0  0.15591  0.23413  0.71622  1.0000
  H   H92       1.0  0.20630  0.27962  0.27645  1.0000
  Mg  Mg10      1.0  0.12002  0.25495  0.86361  1.0000
  C   C93       1.0  0.36946  0.28722  0.22031  1.0000
  C   C94       1.0  0.37402  0.32040  0.30166  1.0000
  C  Sn21      1.0  0.35280  0.32875  0.43185  1.0000
  C  Sn22      1.0  0.32656  0.30336  0.48126  1.0000
  C   C95       1.0  0.32222  0.27023  0.39915  1.0000
  C   C96       1.0  0.34359  0.26215  0.26900  1.0000
  H   H93       1.0  0.38600  0.28096  0.11967  1.0000
  O  Te21      1.0  0.35770  0.36203  0.51175  1.0000
  O  Te22      1.0  0.30500  0.31101  0.61102  1.0000
  H   H94       1.0  0.34007  0.23645  0.20610  1.0000
  Mg  Mg11      1.0  0.32178  0.35999  0.68159  1.0000
  C   C97       1.0  0.32219  0.16352  0.38067  1.0000
  C   C98       1.0  0.31741  0.19852  0.44523  1.0000
  C  Sn23      1.0  0.33863  0.21029  0.57321  1.0000
  C  Sn24      1.0  0.36510  0.18652  0.63747  1.0000
  C   C99       1.0  0.36969  0.15156  0.57197  1.0000
  C   C100      1.0  0.34830  0.14006  0.44394  1.0000
  H   H95       1.0  0.30566  0.15462  0.28156  1.0000
  O  Te23      1.0  0.33350  0.24534  0.63631  1.0000
  O  Te24      1.0  0.38669  0.19758  0.76533  1.0000
  H   H96       1.0  0.35202  0.11297  0.39392  1.0000
  Mg  Mg12      1.0  0.36952  0.24790  0.81035  1.0000
  C   C101      1.0  0.04321  0.01061  0.34348  1.0000
  C   C102      1.0  0.00872  0.01068  0.27359  1.0000
  C  Sn25      1.0  0.99359  0.04318  0.21986  1.0000
  C  Sn26      1.0  0.01344  0.07617  0.23654  1.0000
  C   C103      1.0  0.04794  0.07581  0.30652  1.0000
  C   C104      1.0  0.06281  0.04314  0.35992  1.0000
  H   H97       1.0  0.05190  0.98532  0.38472  1.0000
  O  Te25      1.0  0.95909  0.04276  0.15036  1.0000
  O  Te26      1.0  0.99898  0.10904  0.18382  1.0000
  H   H98       1.0  0.08953  0.04309  0.41393  1.0000
  Mg  Mg13      1.0  0.95095  0.09451  0.09705  1.0000
  C   C105      1.0  0.48686  0.41842  0.25060  1.0000
  C   C106      1.0  0.48048  0.45603  0.25302  1.0000
  C  Sn27      1.0  0.44977  0.47038  0.32613  1.0000
  C  Sn28      1.0  0.42504  0.44658  0.39810  1.0000
  C   C107      1.0  0.43168  0.40899  0.39515  1.0000
  C   C108      1.0  0.46249  0.39492  0.32162  1.0000
  H   H99       1.0  0.51070  0.40752  0.19379  1.0000
  O  Te27      1.0  0.44380  0.50803  0.32741  1.0000
  O  Te28      1.0  0.39414  0.46020  0.47205  1.0000
  H   H100      1.0  0.46743  0.36580  0.31986  1.0000
  Mg  Mg14      1.0  0.39783  0.51351  0.44283  1.0000
  C   C109      1.0  0.41799  0.02011  0.59833  1.0000
  C   C110      1.0  0.41900  0.05823  0.60334  1.0000
  C  Sn29      1.0  0.44885  0.07643  0.67007  1.0000
  C  Sn30      1.0  0.47819  0.05602  0.73282  1.0000
  C   C111      1.0  0.47693  0.01789  0.72714  1.0000
  C   C112      1.0  0.44409  0.99995  0.66014  1.0000
  H   H101      1.0  0.39479  0.00623  0.54641  1.0000
  O  Te29      1.0  0.44941  0.11453  0.67417  1.0000
  O  Te30      1.0  0.50835  0.07352  0.80014  1.0000
  H   H102      1.0  0.44333  0.97044  0.65618  1.0000
  Mg  Mg15      1.0  0.49650  0.12590  0.77815  1.0000
  C   C113      1.0  0.09046  0.45321  0.57547  1.0000
  C   C114      1.0  0.08875  0.41512  0.57459  1.0000
  C  Sn31      1.0  0.05952  0.39754  0.64270  1.0000
  C  Sn32      1.0  0.03151  0.41857  0.71286  1.0000
  C   C115      1.0  0.03346  0.45666  0.71303  1.0000
  C   C116      1.0  0.06284  0.47397  0.64459  1.0000
  H   H103      1.0  0.11317  0.46660  0.52244  1.0000
  O  Te31      1.0  0.05825  0.35946  0.64084  1.0000
  O  Te32      1.0  0.00198  0.40171  0.78171  1.0000
  H   H104      1.0  0.06414  0.50346  0.64520  1.0000
  Mg  Mg16      1.0  0.01246  0.34908  0.74973  1.0000
  C   C117      1.0  0.92702  0.00924  0.72067  1.0000
  C   C118      1.0  0.92567  0.04648  0.68919  1.0000
  C  Sn33      1.0  0.95768  0.06649  0.67771  1.0000
  C  Sn34      1.0  0.99165  0.04879  0.69815  1.0000
  C   C119      1.0  0.99271  0.01151  0.72949  1.0000
  C   C120      1.0  0.95768  0.99176  0.74078  1.0000
  H   H105      1.0  0.89927  0.99395  0.72932  1.0000
  O  Te33      1.0  0.95584  0.10369  0.64625  1.0000
  O  Te34      1.0  0.02407  0.06813  0.68724  1.0000
  H   H106      1.0  0.95873  0.96291  0.76505  1.0000
  Mg  Mg17      1.0  0.00749  0.11833  0.64249  1.0000
  C   C121      1.0  0.82245  0.33785  0.64972  1.0000
  C   C122      1.0  0.82735  0.35842  0.51576  1.0000
  C  Sn35      1.0  0.80027  0.35953  0.39989  1.0000
  C  Sn36      1.0  0.76771  0.33966  0.41883  1.0000
  C   C123      1.0  0.76306  0.31919  0.55332  1.0000
  C   C124      1.0  0.79033  0.31826  0.66852  1.0000
  H   H107      1.0  0.84354  0.33715  0.73889  1.0000
  O  Te35      1.0  0.80562  0.38020  0.26676  1.0000
  O  Te36      1.0  0.74021  0.34030  0.30487  1.0000
  H   H108      1.0  0.78652  0.30235  0.77227  1.0000
  Mg  Mg18      1.0  0.76021  0.37247  0.14411  1.0000
  C   C125      1.0  0.65775  0.30137  0.51792  1.0000
  C   C126      1.0  0.69307  0.31164  0.56035  1.0000
  C  Sn37      1.0  0.69960  0.34556  0.63279  1.0000
  C  Sn38      1.0  0.67017  0.36958  0.66321  1.0000
  C   C127      1.0  0.63493  0.35904  0.62041  1.0000
  C   C128      1.0  0.62870  0.32504  0.54794  1.0000
  H   H109      1.0  0.65292  0.27506  0.46193  1.0000
  O  Te37      1.0  0.73505  0.35539  0.67435  1.0000
  O  Te38      1.0  0.67592  0.40363  0.73551  1.0000
  H   H110      1.0  0.60135  0.31709  0.51519  1.0000
  Mg  Mg19      1.0  0.72912  0.40468  0.77019  1.0000
  C   C129      1.0  0.67820  0.15813  0.64723  1.0000
  C   C130      1.0  0.67208  0.13675  0.51216  1.0000
  C  Sn39      1.0  0.69867  0.13383  0.39764  1.0000
  C  Sn40      1.0  0.73198  0.15267  0.41909  1.0000
  C   C131      1.0  0.73786  0.17397  0.55469  1.0000
  C   C132      1.0  0.71106  0.17672  0.66851  1.0000
  H   H111      1.0  0.65748  0.16024  0.73535  1.0000
  O  Te39      1.0  0.69210  0.11236  0.26336  1.0000
  O  Te40      1.0  0.75903  0.15021  0.30652  1.0000
  H   H112      1.0  0.71582  0.19325  0.77313  1.0000
  Mg  Mg20      1.0  0.73730  0.11758  0.14338  1.0000
  C   C133      1.0  0.85711  0.17049  0.48750  1.0000
  C   C134      1.0  0.86359  0.13842  0.56911  1.0000
  C  Sn41      1.0  0.83630  0.12329  0.65903  1.0000
  C  Sn42      1.0  0.80192  0.14067  0.66713  1.0000
  C   C135      1.0  0.79570  0.17273  0.58496  1.0000
  C   C136      1.0  0.82320  0.18764  0.49538  1.0000
  H   H113      1.0  0.87838  0.18202  0.41812  1.0000
  O  Te41      1.0  0.84323  0.09124  0.73987  1.0000
  O  Te42      1.0  0.77416  0.12613  0.75607  1.0000
  H   H114      1.0  0.81817  0.21246  0.43213  1.0000
  Mg  Mg21      1.0  0.79675  0.08197  0.84536  1.0000
  C   C137      1.0  0.95433  0.41441  0.46762  1.0000
  C   C138      1.0  0.91725  0.42109  0.48477  1.0000
  C  Sn43      1.0  0.90066  0.45007  0.40750  1.0000
  C  Sn44      1.0  0.92164  0.47273  0.31133  1.0000
  C   C139      1.0  0.95872  0.46580  0.29485  1.0000
  C   C140      1.0  0.97505  0.43674  0.37274  1.0000
  H   H115      1.0  0.96696  0.39191  0.52781  1.0000
  O  Te43      1.0  0.86358  0.45637  0.42597  1.0000
  O  Te44      1.0  0.90575  0.50187  0.23272  1.0000
  H   H116      1.0  0.00375  0.43156  0.35935  1.0000
  Mg  Mg22      1.0  0.85429  0.49945  0.29489  1.0000
  C   C141      1.0  0.59026  0.01724  0.32770  1.0000
  C   C142      1.0  0.55237  0.01846  0.32642  1.0000
  C  Sn45      1.0  0.53421  0.04769  0.39818  1.0000
  C  Sn46      1.0  0.55443  0.07619  0.47247  1.0000
  C   C143      1.0  0.59232  0.07473  0.47302  1.0000
  C   C144      1.0  0.61022  0.04534  0.40090  1.0000
  H   H117      1.0  0.60128  0.99452  0.27183  1.0000
  O  Te45      1.0  0.49634  0.04848  0.39587  1.0000
  O  Te46      1.0  0.53697  0.10573  0.54503  1.0000
  H   H118      1.0  0.63955  0.04442  0.40182  1.0000
  Mg  Mg23      1.0  0.48493  0.09449  0.51077  1.0000
  C   C145      1.0  0.51168  0.44084  0.63015  1.0000
  C   C146      1.0  0.51084  0.47155  0.72980  1.0000
  C  Sn47      1.0  0.54283  0.48483  0.79922  1.0000
  C  Sn48      1.0  0.57624  0.46700  0.76805  1.0000
  C   C147      1.0  0.57679  0.43632  0.66811  1.0000
  C   C148      1.0  0.54462  0.42325  0.59930  1.0000
  H   H119      1.0  0.48679  0.43074  0.57684  1.0000
  O  Te47      1.0  0.54150  0.51553  0.89854  1.0000
  O  Te48      1.0  0.60862  0.47971  0.83584  1.0000
  H   H120      1.0  0.54528  0.39949  0.52207  1.0000
  Mg  Mg24      1.0  0.59286  0.52251  0.96303  1.0000
  C   C149      1.0  0.82015  0.65108  0.44253  1.0000
  C   C150      1.0  0.82219  0.68408  0.52705  1.0000
  C  Sn49      1.0  0.85267  0.69211  0.62036  1.0000
  C  Sn50      1.0  0.88160  0.66658  0.62893  1.0000
  C   C151      1.0  0.87930  0.63366  0.54384  1.0000
  C   C152      1.0  0.84867  0.62589  0.45088  1.0000
  H   H121      1.0  0.79646  0.64507  0.37053  1.0000
  O  Te49      1.0  0.85427  0.72521  0.70409  1.0000
  O  Te50      1.0  0.91238  0.67393  0.72123  1.0000
  H   H122      1.0  0.84710  0.60034  0.38537  1.0000
  Mg  Mg25      1.0  0.90189  0.72275  0.81363  1.0000
  C   C153      1.0  0.85778  0.78036  0.33725  1.0000
  C   C154      1.0  0.85866  0.81483  0.41020  1.0000
  C  Sn51      1.0  0.83968  0.82134  0.54843  1.0000
  C  Sn52      1.0  0.81948  0.79275  0.61460  1.0000
  C   C155      1.0  0.81880  0.75835  0.54078  1.0000
  C   C156      1.0  0.83788  0.75214  0.40247  1.0000
  H   H123      1.0  0.87256  0.77554  0.23028  1.0000
  O  Te51      1.0  0.84084  0.85595  0.61976  1.0000
  O  Te52      1.0  0.80028  0.79851  0.75270  1.0000
  H   H124      1.0  0.83721  0.72544  0.34606  1.0000
  Mg  Mg26      1.0  0.81020  0.85037  0.80630  1.0000
  C   C157      1.0  0.66965  0.81013  0.49982  1.0000
  C   C158      1.0  0.67882  0.78120  0.59691  1.0000
  C  Sn53      1.0  0.65853  0.77456  0.73019  1.0000
  C  Sn54      1.0  0.62851  0.79734  0.76661  1.0000
  C   C159      1.0  0.61953  0.82619  0.66868  1.0000
  C   C160      1.0  0.64003  0.83260  0.53563  1.0000
  H   H125      1.0  0.68549  0.81508  0.39683  1.0000
  O  Te53      1.0  0.66808  0.74555  0.82595  1.0000
  O  Te54      1.0  0.60776  0.79131  0.89906  1.0000
  H   H126      1.0  0.63290  0.85499  0.46043  1.0000
  Mg  Mg27      1.0  0.63150  0.74834  0.99339  1.0000
  C   C161      1.0  0.63598  0.69330  0.35729  1.0000
  C   C162      1.0  0.63546  0.65741  0.40933  1.0000
  C  Sn55      1.0  0.65733  0.64717  0.53595  1.0000
  C  Sn56      1.0  0.68011  0.67342  0.61167  1.0000
  C   C163      1.0  0.68042  0.70926  0.55880  1.0000
  C   C164      1.0  0.65843  0.71921  0.43195  1.0000
  H   H127      1.0  0.61896  0.70100  0.25921  1.0000
  O  Te55      1.0  0.65649  0.61119  0.58639  1.0000
  O  Te56      1.0  0.70224  0.66393  0.73854  1.0000
  H   H128      1.0  0.65883  0.74700  0.39176  1.0000
  Mg  Mg28      1.0  0.69157  0.61149  0.76411  1.0000
  C   C165      1.0  0.94050  0.52523  0.63923  1.0000
  C   C166      1.0  0.94637  0.56281  0.65336  1.0000
  C  Sn57      1.0  0.97981  0.57616  0.70759  1.0000
  C  Sn58      1.0  0.00784  0.55135  0.74829  1.0000
  C   C167      1.0  0.00170  0.51380  0.73363  1.0000
  C   C168      1.0  0.96813  0.50074  0.67929  1.0000
  H   H129      1.0  0.91454  0.51512  0.59711  1.0000
  O  Te57      1.0  0.98522  0.61379  0.72105  1.0000
  O  Te58      1.0  0.04152  0.56395  0.80274  1.0000
  H   H130      1.0  0.96360  0.47164  0.66827  1.0000
  Mg  Mg29      1.0  0.03578  0.61768  0.80088  1.0000
  C   C169      1.0  0.50931  0.91601  0.74682  1.0000
  C   C170      1.0  0.51431  0.95380  0.75226  1.0000
  C  Sn59      1.0  0.54457  0.96924  0.68294  1.0000
  C  Sn60      1.0  0.57025  0.94636  0.60681  1.0000
  C   C171      1.0  0.56499  0.90859  0.60192  1.0000
  C   C172      1.0  0.53461  0.89342  0.67171  1.0000
  H   H131      1.0  0.48580  0.90428  0.80074  1.0000
  O  Te59      1.0  0.55198  0.00705  0.68950  1.0000
  O  Te60      1.0  0.60073  0.96107  0.53652  1.0000
  H   H132      1.0  0.53074  0.86416  0.66739  1.0000
  Mg  Mg30      1.0  0.59788  0.01418  0.57650  1.0000
  C   C173      1.0  0.57455  0.52240  0.43490  1.0000
  C   C174      1.0  0.57619  0.56028  0.42060  1.0000
  C  Sn61      1.0  0.54857  0.57891  0.34185  1.0000
  C  Sn62      1.0  0.51878  0.55918  0.27636  1.0000
  C   C175      1.0  0.51737  0.52130  0.29139  1.0000
  C   C176      1.0  0.54517  0.50293  0.37039  1.0000
  H   H133      1.0  0.59604  0.50819  0.49609  1.0000
  O  Te61      1.0  0.55065  0.61675  0.32860  1.0000
  O  Te62      1.0  0.49079  0.57711  0.19711  1.0000
  H   H134      1.0  0.54387  0.47361  0.38152  1.0000
  Mg  Mg31      1.0  0.50587  0.62891  0.20976  1.0000
  C   C177      1.0  0.95490  0.89646  0.35054  1.0000
  C   C178      1.0  0.92270  0.90347  0.43020  1.0000
  C  Sn63      1.0  0.90784  0.93859  0.43363  1.0000
  C  Sn64      1.0  0.92560  0.96715  0.35572  1.0000
  C   C179      1.0  0.95780  0.95985  0.27625  1.0000
  C   C180      1.0  0.97244  0.92462  0.27361  1.0000
  H   H135      1.0  0.96622  0.86920  0.34842  1.0000
  O  Te63      1.0  0.87565  0.94512  0.51382  1.0000
  O  Te64      1.0  0.91417  0.00249  0.35723  1.0000
  H   H136      1.0  0.99736  0.91919  0.21184  1.0000
  Mg  Mg32      1.0  0.86686  0.99783  0.48240  1.0000
