data_image0
_chemical_formula_structural       BCONCH4BCONCH3C6H5BCONCH4BCONCH3C6H5BCONCH3C6H5BCONCH3C6H5BCONCH3C6H5BCONCH4BCONCH3C6H5BCONCH4BCONCH4BCONCH4C18SnCSn2CSnTe4Mg2SnCSn2CSnTe4Mg2SnCSn2CSnTe4Mg2SnCSn2CSnTe4Mg2SnCSn2CSnTe4Mg2SnCSn2CSnTe4Mg2
_chemical_formula_sum              "B12 C90 O12 N12 H72 Sn24 Te24 Mg12"
_cell_length_a       26.5042
_cell_length_b       26.2453
_cell_length_c       26.3838
_cell_angle_alpha    90.6474
_cell_angle_beta     89.7256
_cell_angle_gamma    89.8774

_symmetry_space_group_name_H-M    'P1'
_space_group_IT_number       1

loop_
  _space_group_symop_operation_xyz
  'x, y, z'

loop_
  _atom_site_type_symbol
  _atom_site_label
  _atom_site_symmetry_multiplicity
  _atom_site_fract_x
  _atom_site_fract_y
  _atom_site_fract_z
  _atom_site_occupancy
  B   B1        1.0  0.19026  0.81927  0.75115  1.0000
  C   C1        1.0  0.93835  0.41656  0.89571  1.0000
  O   O1        1.0  0.83321  0.22464  0.76782  1.0000
  N   N1        1.0  0.06048  0.06962  0.43418  1.0000
  C   C2        1.0  0.03523  0.03436  0.46864  1.0000
  H   H1        1.0  0.02865  0.52625  0.09067  1.0000
  H   H2        1.0  0.02444  0.40757  0.97681  1.0000
  H   H3        1.0  0.91123  0.52614  0.97769  1.0000
  H   H4        1.0  0.96846  0.43086  0.87081  1.0000
  B   B2        1.0  0.80703  0.18202  0.75016  1.0000
  C   C3        1.0  0.06041  0.58401  0.89244  1.0000
  O   O2        1.0  0.16653  0.77428  0.76513  1.0000
  N   N2        1.0  0.94110  0.93076  0.43307  1.0000
  C   C4        1.0  0.96814  0.96557  0.46740  1.0000
  H   H5        1.0  0.97951  0.48037  0.09277  1.0000
  H   H6        1.0  0.97837  0.59272  0.97508  1.0000
  H   H7        1.0  0.09207  0.47468  0.97395  1.0000
  C   C5        1.0  0.16853  0.85145  0.70754  1.0000
  C   C6        1.0  0.18528  0.90166  0.69997  1.0000
  C   C7        1.0  0.16314  0.93223  0.66331  1.0000
  C   C8        1.0  0.12411  0.91302  0.63273  1.0000
  C   C9        1.0  0.12939  0.83247  0.67652  1.0000
  C   C10       1.0  0.10764  0.86253  0.63952  1.0000
  H   H8        1.0  0.02780  0.57160  0.86983  1.0000
  H   H9        1.0  0.21532  0.91671  0.72376  1.0000
  H   H10       1.0  0.17553  0.97143  0.65851  1.0000
  H   H11       1.0  0.11601  0.79375  0.68228  1.0000
  H   H12       1.0  0.07717  0.84841  0.61576  1.0000
  B   B3        1.0  0.80966  0.82149  0.24945  1.0000
  C   C11       1.0  0.05583  0.40936  0.09948  1.0000
  O   O3        1.0  0.16161  0.22199  0.23216  1.0000
  N   N3        1.0  0.94151  0.06666  0.57293  1.0000
  C   C12       1.0  0.96738  0.03264  0.53708  1.0000
  H   H13       1.0  0.97631  0.52213  0.90696  1.0000
  H   H14       1.0  0.97743  0.40975  0.02465  1.0000
  H   H15       1.0  0.09407  0.52435  0.01972  1.0000
  H   H16       1.0  0.01790  0.41415  0.11617  1.0000
  B   B4        1.0  0.18684  0.17831  0.24800  1.0000
  C   C13       1.0  0.94011  0.58373  0.10682  1.0000
  O   O4        1.0  0.83341  0.77603  0.23515  1.0000
  N   N4        1.0  0.06386  0.93002  0.56746  1.0000
  C   C14       1.0  0.03620  0.96533  0.53482  1.0000
  H   H17       1.0  0.02489  0.47523  0.90667  1.0000
  H   H18       1.0  0.02725  0.59374  0.02073  1.0000
  H   H19       1.0  0.91102  0.47859  0.02462  1.0000
  C   C15       1.0  0.83181  0.85416  0.29346  1.0000
  C   C16       1.0  0.81747  0.90537  0.30147  1.0000
  C   C17       1.0  0.84024  0.93503  0.33916  1.0000
  C   C18       1.0  0.87788  0.91420  0.37013  1.0000
  C   C19       1.0  0.86920  0.83359  0.32534  1.0000
  C   C20       1.0  0.89178  0.86276  0.36316  1.0000
  H   H20       1.0  0.96839  0.56657  0.13189  1.0000
  H   H21       1.0  0.78883  0.92216  0.27737  1.0000
  H   H22       1.0  0.82958  0.97489  0.34447  1.0000
  H   H23       1.0  0.88053  0.79405  0.31967  1.0000
  H   H24       1.0  0.92078  0.84707  0.38758  1.0000
  B   B5        1.0  0.74716  0.19204  0.81896  1.0000
  C   C21       1.0  0.90300  0.94679  0.40799  1.0000
  O   O5        1.0  0.76779  0.83815  0.22250  1.0000
  N   N5        1.0  0.43076  0.05887  0.06696  1.0000
  C   C22       1.0  0.46640  0.03323  0.03262  1.0000
  H   H25       1.0  0.09389  0.02446  0.52473  1.0000
  H   H26       1.0  0.97754  0.02526  0.41134  1.0000
  H   H27       1.0  0.98000  0.90685  0.52340  1.0000
  C   C23       1.0  0.70838  0.83316  0.14668  1.0000
  C   C24       1.0  0.69711  0.81263  0.09848  1.0000
  C   C25       1.0  0.65834  0.83298  0.06930  1.0000
  C   C26       1.0  0.62970  0.87452  0.08757  1.0000
  C   C27       1.0  0.67902  0.87460  0.16473  1.0000
  C   C28       1.0  0.64022  0.89487  0.13598  1.0000
  H   H28       1.0  0.88777  0.98575  0.41200  1.0000
  H   H29       1.0  0.71931  0.78073  0.08380  1.0000
  H   H30       1.0  0.65038  0.81722  0.03179  1.0000
  H   H31       1.0  0.68728  0.89075  0.20195  1.0000
  H   H32       1.0  0.61746  0.92677  0.14969  1.0000
  B   B6        1.0  0.75233  0.81201  0.17898  1.0000
  C   C29       1.0  0.89536  0.05973  0.58589  1.0000
  O   O6        1.0  0.76322  0.16680  0.77504  1.0000
  N   N6        1.0  0.43407  0.93710  0.92993  1.0000
  C   C30       1.0  0.46822  0.96379  0.96473  1.0000
  H   H33       1.0  0.09364  0.97560  0.47748  1.0000
  H   H34       1.0  0.97912  0.97401  0.59366  1.0000
  H   H35       1.0  0.97719  0.09118  0.48002  1.0000
  C   C31       1.0  0.70204  0.17095  0.84961  1.0000
  C   C32       1.0  0.68716  0.19376  0.89586  1.0000
  C   C33       1.0  0.64828  0.17302  0.92479  1.0000
  C   C34       1.0  0.62376  0.12839  0.90851  1.0000
  C   C35       1.0  0.67618  0.12688  0.83295  1.0000
  C   C36       1.0  0.63782  0.10576  0.86191  1.0000
  H   H36       1.0  0.87161  0.02905  0.57030  1.0000
  H   H37       1.0  0.70681  0.22766  0.90921  1.0000
  H   H38       1.0  0.63731  0.19053  0.96081  1.0000
  H   H39       1.0  0.68701  0.10918  0.79700  1.0000
  H   H40       1.0  0.61829  0.07126  0.85003  1.0000
  B   B7        1.0  0.24847  0.81034  0.82079  1.0000
  C   C37       1.0  0.10285  0.05796  0.41338  1.0000
  O   O7        1.0  0.22977  0.16185  0.22187  1.0000
  N   N7        1.0  0.56963  0.93970  0.06767  1.0000
  C   C38       1.0  0.53507  0.96534  0.03298  1.0000
  H   H41       1.0  0.91095  0.97267  0.52563  1.0000
  H   H42       1.0  0.02476  0.97748  0.40892  1.0000
  H   H43       1.0  0.02352  0.09156  0.52808  1.0000
  C   C39       1.0  0.29192  0.16671  0.14772  1.0000
  C   C40       1.0  0.30773  0.19013  0.10257  1.0000
  C   C41       1.0  0.34776  0.17015  0.07404  1.0000
  C   C42       1.0  0.37281  0.12572  0.08962  1.0000
  C   C43       1.0  0.31812  0.12277  0.16351  1.0000
  C   C44       1.0  0.35776  0.10248  0.13510  1.0000
  H   H44       1.0  0.12394  0.02298  0.42212  1.0000
  H   H45       1.0  0.28798  0.22398  0.08972  1.0000
  H   H46       1.0  0.35928  0.18843  0.03898  1.0000
  H   H47       1.0  0.30640  0.10443  0.19843  1.0000
  H   H48       1.0  0.37763  0.06828  0.14679  1.0000
  B   B8        1.0  0.24600  0.18716  0.17853  1.0000
  C   C45       1.0  0.09967  0.94641  0.59576  1.0000
  O   O8        1.0  0.23230  0.83607  0.77790  1.0000
  N   N8        1.0  0.56935  0.05967  0.93133  1.0000
  C   C46       1.0  0.53475  0.03344  0.96551  1.0000
  H   H49       1.0  0.90876  0.02272  0.48087  1.0000
  H   H50       1.0  0.02520  0.02291  0.59413  1.0000
  H   H51       1.0  0.02638  0.90850  0.47522  1.0000
  H   H52       1.0  0.11338  0.98604  0.59543  1.0000
  B   B9        1.0  0.81857  0.74988  0.19160  1.0000
  C   C47       1.0  0.41358  0.89459  0.94171  1.0000
  O   O9        1.0  0.22256  0.76707  0.83602  1.0000
  N   N9        1.0  0.07086  0.43343  0.06014  1.0000
  C   C48       1.0  0.03613  0.46728  0.03315  1.0000
  H   H53       1.0  0.52209  0.09259  0.02375  1.0000
  H   H54       1.0  0.40989  0.97419  0.02232  1.0000
  H   H55       1.0  0.52691  0.97495  0.90788  1.0000
  C   C49       1.0  0.15119  0.70257  0.82814  1.0000
  C   C50       1.0  0.10713  0.68555  0.80365  1.0000
  C   C51       1.0  0.07844  0.64603  0.82380  1.0000
  C   C52       1.0  0.09290  0.62285  0.86928  1.0000
  C   C53       1.0  0.16596  0.67809  0.87312  1.0000
  C   C54       1.0  0.13739  0.63901  0.89349  1.0000
  H   H56       1.0  0.42210  0.87396  0.97680  1.0000
  H   H57       1.0  0.09516  0.70407  0.76899  1.0000
  H   H58       1.0  0.04402  0.63352  0.80505  1.0000
  H   H59       1.0  0.20007  0.69086  0.89219  1.0000
  H   H60       1.0  0.14794  0.62060  0.92862  1.0000
  B   B10       1.0  0.18135  0.74897  0.80867  1.0000
  C   C55       1.0  0.59083  0.89734  0.05521  1.0000
  O   O10       1.0  0.77764  0.76780  0.16409  1.0000
  N   N10       1.0  0.93233  0.43113  0.94195  1.0000
  C   C56       1.0  0.96750  0.46650  0.96629  1.0000
  H   H61       1.0  0.47704  0.09116  0.97399  1.0000
  H   H62       1.0  0.59338  0.97656  0.97561  1.0000
  H   H63       1.0  0.47686  0.97676  0.09069  1.0000
  H   H64       1.0  0.58285  0.87657  0.01963  1.0000
  B   B11       1.0  0.81672  0.25085  0.81099  1.0000
  C   C57       1.0  0.41261  0.10303  0.05733  1.0000
  O   O11       1.0  0.21973  0.23001  0.16241  1.0000
  N   N11       1.0  0.06960  0.56804  0.93724  1.0000
  C   C58       1.0  0.03547  0.53378  0.96389  1.0000
  H   H65       1.0  0.52578  0.90625  0.97408  1.0000
  H   H66       1.0  0.40957  0.02102  0.97438  1.0000
  H   H67       1.0  0.52434  0.02400  0.08997  1.0000
  H   H68       1.0  0.42398  0.12566  0.02431  1.0000
  B   B12       1.0  0.17711  0.24727  0.18868  1.0000
  C   C59       1.0  0.58533  0.10478  0.94108  1.0000
  O   O12       1.0  0.77305  0.23502  0.83584  1.0000
  N   N12       1.0  0.93573  0.57240  0.05965  1.0000
  C   C60       1.0  0.96941  0.53634  0.03391  1.0000
  H   H69       1.0  0.47956  0.90581  0.02310  1.0000
  H   H70       1.0  0.59185  0.02404  0.02376  1.0000
  H   H71       1.0  0.47815  0.02093  0.90721  1.0000
  H   H72       1.0  0.57312  0.12741  0.97436  1.0000
  C   C61       1.0  0.00129  0.00064  0.43477  1.0000
  C   C62       1.0  0.00207  0.99864  0.56929  1.0000
  C   C63       1.0  0.43420  0.99800  0.99850  1.0000
  C   C64       1.0  0.56808  0.99986  0.99950  1.0000
  C   C65       1.0  0.00137  0.43343  0.00036  1.0000
  C   C66       1.0  0.00267  0.56854  0.99838  1.0000
  C   C67       1.0  0.00083  0.06656  0.50358  1.0000
  C   C68       1.0  0.00275  0.93258  0.50008  1.0000
  C   C69       1.0  0.50059  0.99982  0.06564  1.0000
  C   C70       1.0  0.50203  0.99820  0.93227  1.0000
  C   C71       1.0  0.06849  0.49997  0.99763  1.0000
  C   C72       1.0  0.93568  0.50192  0.00073  1.0000
  C   C73       1.0  0.06937  0.00008  0.50136  1.0000
  C   C74       1.0  0.93426  0.99844  0.50283  1.0000
  C   C75       1.0  0.49995  0.06723  0.99899  1.0000
  C   C76       1.0  0.50219  0.93067  0.99871  1.0000
  C   C77       1.0  0.00343  0.50274  0.06717  1.0000
  C   C78       1.0  0.00093  0.49929  0.93135  1.0000
  C  Sn1       1.0  0.30611  0.81956  0.91385  1.0000
  C   C79       1.0  0.28870  0.83579  0.86678  1.0000
  C  Sn2       1.0  0.31796  0.86832  0.83721  1.0000
  C  Sn3       1.0  0.36564  0.88495  0.85503  1.0000
  C   C80       1.0  0.38303  0.86872  0.90206  1.0000
  C  Sn4       1.0  0.35379  0.83619  0.93167  1.0000
  O  Te1       1.0  0.27623  0.78704  0.94278  1.0000
  O  Te2       1.0  0.29975  0.88404  0.79028  1.0000
  O  Te3       1.0  0.39552  0.91750  0.82605  1.0000
  O  Te4       1.0  0.37198  0.82046  0.97856  1.0000
  Mg  Mg1       1.0  0.35434  0.92840  0.76471  1.0000
  Mg  Mg2       1.0  0.32222  0.76472  0.00415  1.0000
  C  Sn5       1.0  0.90722  0.64307  0.19207  1.0000
  C   C81       1.0  0.90026  0.61704  0.14614  1.0000
  C  Sn6       1.0  0.86864  0.63702  0.10908  1.0000
  C  Sn7       1.0  0.84348  0.68403  0.11808  1.0000
  C   C82       1.0  0.85045  0.71004  0.16398  1.0000
  C  Sn8       1.0  0.88206  0.69008  0.20107  1.0000
  O  Te5       1.0  0.93901  0.62239  0.22858  1.0000
  O  Te6       1.0  0.86226  0.61029  0.06347  1.0000
  O  Te7       1.0  0.81168  0.70471  0.08152  1.0000
  O  Te8       1.0  0.88845  0.71680  0.24665  1.0000
  Mg  Mg3       1.0  0.81511  0.65406  0.02544  1.0000
  Mg  Mg4       1.0  0.93561  0.67307  0.28469  1.0000
  C  Sn9       1.0  0.90943  0.30923  0.81930  1.0000
  C   C83       1.0  0.86334  0.29062  0.83707  1.0000
  C  Sn10      1.0  0.83448  0.31919  0.87157  1.0000
  C  Sn11      1.0  0.85203  0.36740  0.88863  1.0000
  C   C84       1.0  0.89809  0.38600  0.87086  1.0000
  C  Sn12      1.0  0.92698  0.35744  0.83637  1.0000
  O  Te9       1.0  0.93766  0.28001  0.78483  1.0000
  O  Te10      1.0  0.78853  0.29978  0.88881  1.0000
  O  Te11      1.0  0.82376  0.39662  0.92313  1.0000
  O  Te12      1.0  0.97290  0.37684  0.81912  1.0000
  Mg  Mg5       1.0  0.76365  0.35384  0.93558  1.0000
  Mg  Mg6       1.0  0.99780  0.32282  0.77233  1.0000
  C  Sn13      1.0  0.08328  0.30190  0.17463  1.0000
  C   C85       1.0  0.13259  0.28730  0.16223  1.0000
  C  Sn14      1.0  0.16301  0.31876  0.13267  1.0000
  C  Sn15      1.0  0.14374  0.36581  0.11516  1.0000
  C   C86       1.0  0.09446  0.38039  0.12756  1.0000
  C  Sn16      1.0  0.06401  0.34895  0.15711  1.0000
  O  Te13      1.0  0.05354  0.26985  0.20423  1.0000
  O  Te14      1.0  0.21218  0.30334  0.12076  1.0000
  O  Te15      1.0  0.17353  0.39786  0.08553  1.0000
  O  Te16      1.0  0.01487  0.36435  0.16903  1.0000
  Mg  Mg7       1.0  0.23806  0.36015  0.07938  1.0000
  Mg  Mg8       1.0  0.98897  0.30758  0.21043  1.0000
  C  Sn17      1.0  0.90083  0.13906  0.65915  1.0000
  C   C87       1.0  0.88269  0.09372  0.63784  1.0000
  C  Sn18      1.0  0.83298  0.07846  0.64660  1.0000
  C  Sn19      1.0  0.80071  0.10917  0.67727  1.0000
  C   C88       1.0  0.81885  0.15448  0.69856  1.0000
  C  Sn20      1.0  0.86857  0.16977  0.68982  1.0000
  O  Te17      1.0  0.95066  0.15358  0.64988  1.0000
  O  Te18      1.0  0.81571  0.03297  0.62490  1.0000
  O  Te19      1.0  0.75085  0.09461  0.68653  1.0000
  O  Te20      1.0  0.88584  0.21523  0.71150  1.0000
  Mg  Mg9       1.0  0.74482  0.02944  0.64859  1.0000
  Mg  Mg10      1.0  0.95671  0.21881  0.68782  1.0000
  C  Sn21      1.0  0.09557  0.13766  0.34221  1.0000
  C   C89       1.0  0.11362  0.09182  0.36164  1.0000
  C  Sn22      1.0  0.16241  0.07505  0.34997  1.0000
  C  Sn23      1.0  0.19382  0.10472  0.31823  1.0000
  C   C90       1.0  0.17576  0.15053  0.29882  1.0000
  C  Sn24      1.0  0.12698  0.16733  0.31047  1.0000
  O  Te21      1.0  0.04667  0.15369  0.35438  1.0000
  O  Te22      1.0  0.17962  0.02908  0.36983  1.0000
  O  Te23      1.0  0.24275  0.08865  0.30606  1.0000
  O  Te24      1.0  0.10977  0.21327  0.29063  1.0000
  Mg  Mg11      1.0  0.24907  0.02337  0.34236  1.0000
  Mg  Mg12      1.0  0.04034  0.21903  0.31809  1.0000
