data_image0
_chemical_formula_structural       BCONCH4BCONCH4BCONCH4BCONCH4BCONCH4BCONCH4BCONCH4BCONCH4BCONCH4BCONCH4BCONCH4BCONCH4C18SnCSn2CSnTe4Mg2SnCSn2CSnTe4Mg2SnCSn2CSnTe4Mg2SnCSn2CSnTe4Mg2SnCSn2CSnTe4Mg2SnCSn2CSnTe4Mg2SnCSn2CSnTe4Mg2SnCSn2CSnTe4Mg2SnCSn2CSnTe4Mg2SnCSn2CSnTe4Mg2SnCSn2CSnTe4Mg2SnCSn2CSnTe4Mg2
_chemical_formula_sum              "B12 C66 O12 N12 H48 Sn48 Te48 Mg24"
_cell_length_a       26.5042
_cell_length_b       26.2453
_cell_length_c       26.3838
_cell_angle_alpha    90.6474
_cell_angle_beta     89.7256
_cell_angle_gamma    89.8774

_symmetry_space_group_name_H-M    'P1'
_space_group_IT_number       1

loop_
  _space_group_symop_operation_xyz
  'x, y, z'

loop_
  _atom_site_type_symbol
  _atom_site_label
  _atom_site_symmetry_multiplicity
  _atom_site_fract_x
  _atom_site_fract_y
  _atom_site_fract_z
  _atom_site_occupancy
  B   B1        1.0  0.19026  0.81927  0.75115  1.0000
  C   C1        1.0  0.93835  0.41656  0.89571  1.0000
  O   O1        1.0  0.83321  0.22464  0.76782  1.0000
  N   N1        1.0  0.06048  0.06962  0.43418  1.0000
  C   C2        1.0  0.03523  0.03436  0.46864  1.0000
  H   H1        1.0  0.02865  0.52625  0.09067  1.0000
  H   H2        1.0  0.02444  0.40757  0.97681  1.0000
  H   H3        1.0  0.91123  0.52614  0.97769  1.0000
  H   H4        1.0  0.96846  0.43086  0.87081  1.0000
  B   B2        1.0  0.80703  0.18202  0.75016  1.0000
  C   C3        1.0  0.06041  0.58401  0.89244  1.0000
  O   O2        1.0  0.16653  0.77428  0.76513  1.0000
  N   N2        1.0  0.94110  0.93076  0.43307  1.0000
  C   C4        1.0  0.96814  0.96557  0.46740  1.0000
  H   H5        1.0  0.97951  0.48037  0.09277  1.0000
  H   H6        1.0  0.97837  0.59272  0.97508  1.0000
  H   H7        1.0  0.09207  0.47468  0.97395  1.0000
  H   H8        1.0  0.02780  0.57160  0.86983  1.0000
  B   B3        1.0  0.80966  0.82149  0.24945  1.0000
  C   C5        1.0  0.05583  0.40936  0.09948  1.0000
  O   O3        1.0  0.16161  0.22199  0.23216  1.0000
  N   N3        1.0  0.94151  0.06666  0.57293  1.0000
  C   C6        1.0  0.96738  0.03264  0.53708  1.0000
  H   H9        1.0  0.97631  0.52213  0.90696  1.0000
  H   H10       1.0  0.97743  0.40975  0.02465  1.0000
  H   H11       1.0  0.09407  0.52435  0.01972  1.0000
  H   H12       1.0  0.01790  0.41415  0.11617  1.0000
  B   B4        1.0  0.18684  0.17831  0.24800  1.0000
  C   C7        1.0  0.94011  0.58373  0.10682  1.0000
  O   O4        1.0  0.83341  0.77603  0.23515  1.0000
  N   N4        1.0  0.06386  0.93002  0.56746  1.0000
  C   C8        1.0  0.03620  0.96533  0.53482  1.0000
  H   H13       1.0  0.02489  0.47523  0.90667  1.0000
  H   H14       1.0  0.02725  0.59374  0.02073  1.0000
  H   H15       1.0  0.91102  0.47859  0.02462  1.0000
  H   H16       1.0  0.96839  0.56657  0.13189  1.0000
  B   B5        1.0  0.74716  0.19204  0.81896  1.0000
  C   C9        1.0  0.90300  0.94679  0.40799  1.0000
  O   O5        1.0  0.76779  0.83815  0.22250  1.0000
  N   N5        1.0  0.43076  0.05887  0.06696  1.0000
  C   C10       1.0  0.46640  0.03323  0.03262  1.0000
  H   H17       1.0  0.09389  0.02446  0.52473  1.0000
  H   H18       1.0  0.97754  0.02526  0.41134  1.0000
  H   H19       1.0  0.98000  0.90685  0.52340  1.0000
  H   H20       1.0  0.88777  0.98575  0.41200  1.0000
  B   B6        1.0  0.75233  0.81201  0.17898  1.0000
  C   C11       1.0  0.89536  0.05973  0.58589  1.0000
  O   O6        1.0  0.76322  0.16680  0.77504  1.0000
  N   N6        1.0  0.43407  0.93710  0.92993  1.0000
  C   C12       1.0  0.46822  0.96379  0.96473  1.0000
  H   H21       1.0  0.09364  0.97560  0.47748  1.0000
  H   H22       1.0  0.97912  0.97401  0.59366  1.0000
  H   H23       1.0  0.97719  0.09118  0.48002  1.0000
  H   H24       1.0  0.87161  0.02905  0.57030  1.0000
  B   B7        1.0  0.24847  0.81034  0.82079  1.0000
  C   C13       1.0  0.10285  0.05796  0.41338  1.0000
  O   O7        1.0  0.22977  0.16185  0.22187  1.0000
  N   N7        1.0  0.56963  0.93970  0.06767  1.0000
  C   C14       1.0  0.53507  0.96534  0.03298  1.0000
  H   H25       1.0  0.91095  0.97267  0.52563  1.0000
  H   H26       1.0  0.02476  0.97748  0.40892  1.0000
  H   H27       1.0  0.02352  0.09156  0.52808  1.0000
  H   H28       1.0  0.12394  0.02298  0.42212  1.0000
  B   B8        1.0  0.24600  0.18716  0.17853  1.0000
  C   C15       1.0  0.09967  0.94641  0.59576  1.0000
  O   O8        1.0  0.23230  0.83607  0.77790  1.0000
  N   N8        1.0  0.56935  0.05967  0.93133  1.0000
  C   C16       1.0  0.53475  0.03344  0.96551  1.0000
  H   H29       1.0  0.90876  0.02272  0.48087  1.0000
  H   H30       1.0  0.02520  0.02291  0.59413  1.0000
  H   H31       1.0  0.02638  0.90850  0.47522  1.0000
  H   H32       1.0  0.11338  0.98604  0.59543  1.0000
  B   B9        1.0  0.81857  0.74988  0.19160  1.0000
  C   C17       1.0  0.41358  0.89459  0.94171  1.0000
  O   O9        1.0  0.22256  0.76707  0.83602  1.0000
  N   N9        1.0  0.07086  0.43343  0.06014  1.0000
  C   C18       1.0  0.03613  0.46728  0.03315  1.0000
  H   H33       1.0  0.52209  0.09259  0.02375  1.0000
  H   H34       1.0  0.40989  0.97419  0.02232  1.0000
  H   H35       1.0  0.52691  0.97495  0.90788  1.0000
  H   H36       1.0  0.42210  0.87396  0.97680  1.0000
  B   B10       1.0  0.18135  0.74897  0.80867  1.0000
  C   C19       1.0  0.59083  0.89734  0.05521  1.0000
  O   O10       1.0  0.77764  0.76780  0.16409  1.0000
  N   N10       1.0  0.93233  0.43113  0.94195  1.0000
  C   C20       1.0  0.96750  0.46650  0.96629  1.0000
  H   H37       1.0  0.47704  0.09116  0.97399  1.0000
  H   H38       1.0  0.59338  0.97656  0.97561  1.0000
  H   H39       1.0  0.47686  0.97676  0.09069  1.0000
  H   H40       1.0  0.58285  0.87657  0.01963  1.0000
  B   B11       1.0  0.81672  0.25085  0.81099  1.0000
  C   C21       1.0  0.41261  0.10303  0.05733  1.0000
  O   O11       1.0  0.21973  0.23001  0.16241  1.0000
  N   N11       1.0  0.06960  0.56804  0.93724  1.0000
  C   C22       1.0  0.03547  0.53378  0.96389  1.0000
  H   H41       1.0  0.52578  0.90625  0.97408  1.0000
  H   H42       1.0  0.40957  0.02102  0.97438  1.0000
  H   H43       1.0  0.52434  0.02400  0.08997  1.0000
  H   H44       1.0  0.42398  0.12566  0.02431  1.0000
  B   B12       1.0  0.17711  0.24727  0.18868  1.0000
  C   C23       1.0  0.58533  0.10478  0.94108  1.0000
  O   O12       1.0  0.77305  0.23502  0.83584  1.0000
  N   N12       1.0  0.93573  0.57240  0.05965  1.0000
  C   C24       1.0  0.96941  0.53634  0.03391  1.0000
  H   H45       1.0  0.47956  0.90581  0.02310  1.0000
  H   H46       1.0  0.59185  0.02404  0.02376  1.0000
  H   H47       1.0  0.47815  0.02093  0.90721  1.0000
  H   H48       1.0  0.57312  0.12741  0.97436  1.0000
  C   C25       1.0  0.00129  0.00064  0.43477  1.0000
  C   C26       1.0  0.00207  0.99864  0.56929  1.0000
  C   C27       1.0  0.43420  0.99800  0.99850  1.0000
  C   C28       1.0  0.56808  0.99986  0.99950  1.0000
  C   C29       1.0  0.00137  0.43343  0.00036  1.0000
  C   C30       1.0  0.00267  0.56854  0.99838  1.0000
  C   C31       1.0  0.00083  0.06656  0.50358  1.0000
  C   C32       1.0  0.00275  0.93258  0.50008  1.0000
  C   C33       1.0  0.50059  0.99982  0.06564  1.0000
  C   C34       1.0  0.50203  0.99820  0.93227  1.0000
  C   C35       1.0  0.06849  0.49997  0.99763  1.0000
  C   C36       1.0  0.93568  0.50192  0.00073  1.0000
  C   C37       1.0  0.06937  0.00008  0.50136  1.0000
  C   C38       1.0  0.93426  0.99844  0.50283  1.0000
  C   C39       1.0  0.49995  0.06723  0.99899  1.0000
  C   C40       1.0  0.50219  0.93067  0.99871  1.0000
  C   C41       1.0  0.00343  0.50274  0.06717  1.0000
  C   C42       1.0  0.00093  0.49929  0.93135  1.0000
  C  Sn1       1.0  0.81086  0.08844  0.64674  1.0000
  C   C43       1.0  0.85516  0.09798  0.61957  1.0000
  C  Sn2       1.0  0.89029  0.13320  0.63784  1.0000
  C  Sn3       1.0  0.88095  0.15941  0.68425  1.0000
  C   C44       1.0  0.83667  0.14986  0.71141  1.0000
  C  Sn4       1.0  0.80152  0.11465  0.69316  1.0000
  O  Te1       1.0  0.77627  0.05307  0.62776  1.0000
  O  Te2       1.0  0.93430  0.14211  0.60999  1.0000
  O  Te3       1.0  0.91558  0.19480  0.70322  1.0000
  O  Te4       1.0  0.75753  0.10573  0.72099  1.0000
  Mg  Mg1       1.0  0.96997  0.19381  0.65155  1.0000
  Mg  Mg2       1.0  0.72185  0.05402  0.67948  1.0000
  C  Sn5       1.0  0.17250  0.91584  0.70358  1.0000
  C   C45       1.0  0.16195  0.86492  0.71427  1.0000
  C  Sn6       1.0  0.13429  0.83514  0.68015  1.0000
  C  Sn7       1.0  0.11684  0.85670  0.63438  1.0000
  C   C46       1.0  0.12740  0.90758  0.62372  1.0000
  C  Sn8       1.0  0.15505  0.93740  0.65782  1.0000
  O  Te5       1.0  0.20022  0.94490  0.73824  1.0000
  O  Te6       1.0  0.12420  0.78433  0.69167  1.0000
  O  Te7       1.0  0.08911  0.82759  0.59972  1.0000
  O  Te8       1.0  0.16515  0.98817  0.64631  1.0000
  Mg  Mg3       1.0  0.08501  0.76021  0.63242  1.0000
  Mg  Mg4       1.0  0.20648  0.01233  0.70552  1.0000
  C  Sn9       1.0  0.17803  0.08517  0.30583  1.0000
  C   C47       1.0  0.16141  0.13222  0.28799  1.0000
  C  Sn10      1.0  0.12805  0.16202  0.31688  1.0000
  C  Sn11      1.0  0.11097  0.14444  0.36461  1.0000
  C   C48       1.0  0.12760  0.09742  0.38242  1.0000
  C  Sn12      1.0  0.16095  0.06759  0.35355  1.0000
  O  Te9       1.0  0.21137  0.05601  0.27631  1.0000
  O  Te10      1.0  0.11195  0.20892  0.29825  1.0000
  O  Te11      1.0  0.07760  0.17365  0.39412  1.0000
  O  Te12      1.0  0.17705  0.02072  0.37216  1.0000
  Mg  Mg5       1.0  0.06646  0.23486  0.35245  1.0000
  Mg  Mg6       1.0  0.22044  0.99477  0.31801  1.0000
  C  Sn13      1.0  0.89991  0.85802  0.34617  1.0000
  C   C49       1.0  0.88934  0.90860  0.35958  1.0000
  C  Sn14      1.0  0.84531  0.93212  0.34262  1.0000
  C  Sn15      1.0  0.81111  0.90450  0.31164  1.0000
  C   C50       1.0  0.82169  0.85394  0.29825  1.0000
  C  Sn16      1.0  0.86572  0.83039  0.31519  1.0000
  O  Te13      1.0  0.94416  0.83527  0.36356  1.0000
  O  Te14      1.0  0.83556  0.98274  0.35651  1.0000
  O  Te15      1.0  0.76685  0.92729  0.29425  1.0000
  O  Te16      1.0  0.87546  0.77981  0.30132  1.0000
  Mg  Mg7       1.0  0.77025  0.99703  0.32338  1.0000
  Mg  Mg8       1.0  0.94075  0.76547  0.33445  1.0000
  C  Sn17      1.0  0.69961  0.82430  0.08333  1.0000
  C   C51       1.0  0.71419  0.83889  0.13220  1.0000
  C  Sn18      1.0  0.68264  0.86959  0.16221  1.0000
  C  Sn19      1.0  0.63553  0.88602  0.14299  1.0000
  C   C52       1.0  0.62096  0.87142  0.09415  1.0000
  C  Sn20      1.0  0.65249  0.84073  0.06410  1.0000
  O  Te17      1.0  0.73174  0.79360  0.05399  1.0000
  O  Te18      1.0  0.69805  0.88369  0.21095  1.0000
  O  Te19      1.0  0.60339  0.91675  0.17237  1.0000
  O  Te20      1.0  0.63710  0.82662  0.01540  1.0000
  Mg  Mg9       1.0  0.64111  0.92588  0.23639  1.0000
  Mg  Mg10      1.0  0.68920  0.79579  0.98994  1.0000
  C  Sn21      1.0  0.64681  0.18890  0.91389  1.0000
  C   C53       1.0  0.61865  0.14503  0.90371  1.0000
  C  Sn22      1.0  0.63505  0.10980  0.86709  1.0000
  C  Sn23      1.0  0.68056  0.11858  0.84011  1.0000
  C   C54       1.0  0.70870  0.16241  0.85030  1.0000
  C  Sn24      1.0  0.69233  0.19767  0.88690  1.0000
  O  Te21      1.0  0.62970  0.22360  0.95066  1.0000
  O  Te22      1.0  0.60625  0.06624  0.85757  1.0000
  O  Te23      1.0  0.69766  0.08383  0.80331  1.0000
  O  Te24      1.0  0.72111  0.24121  0.89644  1.0000
  Mg  Mg11      1.0  0.64528  0.03019  0.80393  1.0000
  Mg  Mg12      1.0  0.68212  0.27727  0.95009  1.0000
  C  Sn25      1.0  0.33681  0.12452  0.16777  1.0000
  C   C55       1.0  0.30680  0.16690  0.15718  1.0000
  C  Sn26      1.0  0.30669  0.18765  0.10865  1.0000
  C  Sn27      1.0  0.33717  0.16556  0.06989  1.0000
  C   C56       1.0  0.36715  0.12320  0.08049  1.0000
  C  Sn28      1.0  0.36730  0.10243  0.12901  1.0000
  O  Te25      1.0  0.33633  0.10441  0.21655  1.0000
  O  Te26      1.0  0.27639  0.23004  0.09898  1.0000
  O  Te27      1.0  0.33763  0.18571  0.02108  1.0000
  O  Te28      1.0  0.39756  0.06006  0.13868  1.0000
  Mg  Mg13      1.0  0.28992  0.24365  0.02653  1.0000
  Mg  Mg14      1.0  0.38405  0.04640  0.21111  1.0000
  C  Sn29      1.0  0.34862  0.81244  0.91548  1.0000
  C   C57       1.0  0.37838  0.85495  0.90492  1.0000
  C  Sn30      1.0  0.36328  0.88984  0.86835  1.0000
  C  Sn31      1.0  0.31748  0.88209  0.84180  1.0000
  C   C58       1.0  0.28775  0.83961  0.85238  1.0000
  C  Sn32      1.0  0.30282  0.80470  0.88894  1.0000
  O  Te29      1.0  0.36445  0.77806  0.95220  1.0000
  O  Te30      1.0  0.39367  0.93204  0.85843  1.0000
  O  Te31      1.0  0.30167  0.91652  0.80507  1.0000
  O  Te32      1.0  0.27245  0.76252  0.89887  1.0000
  Mg  Mg15      1.0  0.35598  0.96816  0.80504  1.0000
  Mg  Mg16      1.0  0.31009  0.72639  0.95226  1.0000
  C  Sn33      1.0  0.09030  0.64441  0.80856  1.0000
  C   C59       1.0  0.09869  0.61758  0.85320  1.0000
  C  Sn34      1.0  0.13235  0.63623  0.88949  1.0000
  C  Sn35      1.0  0.15812  0.68268  0.88101  1.0000
  C   C60       1.0  0.14972  0.70949  0.83639  1.0000
  C  Sn36      1.0  0.11608  0.69086  0.80008  1.0000
  O  Te33      1.0  0.05649  0.62505  0.77280  1.0000
  O  Te34      1.0  0.14013  0.60872  0.93382  1.0000
  O  Te35      1.0  0.19195  0.70203  0.91681  1.0000
  O  Te36      1.0  0.10828  0.71835  0.75578  1.0000
  Mg  Mg17      1.0  0.18986  0.65073  0.97120  1.0000
  Mg  Mg18      1.0  0.05854  0.67639  0.71839  1.0000
  C  Sn37      1.0  0.90815  0.68635  0.18914  1.0000
  C   C61       1.0  0.86453  0.70819  0.16916  1.0000
  C  Sn38      1.0  0.83802  0.68338  0.13051  1.0000
  C  Sn39      1.0  0.85546  0.63573  0.11145  1.0000
  C   C62       1.0  0.89905  0.61391  0.13143  1.0000
  C  Sn40      1.0  0.92559  0.63870  0.17007  1.0000
  O  Te37      1.0  0.93406  0.71183  0.22777  1.0000
  O  Te38      1.0  0.79451  0.70597  0.11114  1.0000
  O  Te39      1.0  0.82951  0.61025  0.07279  1.0000
  O  Te40      1.0  0.96907  0.61612  0.18945  1.0000
  Mg  Mg19      1.0  0.77225  0.65643  0.05874  1.0000
  Mg  Mg20      1.0  0.99135  0.66561  0.24186  1.0000
  C  Sn41      1.0  0.07830  0.34474  0.18188  1.0000
  C   C63       1.0  0.09063  0.37530  0.14062  1.0000
  C  Sn42      1.0  0.13087  0.36214  0.10866  1.0000
  C  Sn43      1.0  0.15938  0.31748  0.11813  1.0000
  C   C64       1.0  0.14704  0.28694  0.15937  1.0000
  C  Sn44      1.0  0.10680  0.30008  0.19135  1.0000
  O  Te41      1.0  0.03790  0.35863  0.21333  1.0000
  O  Te42      1.0  0.14249  0.39330  0.06765  1.0000
  O  Te43      1.0  0.19980  0.30360  0.08664  1.0000
  O  Te44      1.0  0.09518  0.26894  0.23233  1.0000
  Mg  Mg21      1.0  0.20094  0.35832  0.03563  1.0000
  Mg  Mg22      1.0  0.03673  0.30387  0.26436  1.0000
  C  Sn45      1.0  0.90943  0.30923  0.81930  1.0000
  C   C65       1.0  0.86334  0.29062  0.83707  1.0000
  C  Sn46      1.0  0.83448  0.31919  0.87157  1.0000
  C  Sn47      1.0  0.85203  0.36740  0.88863  1.0000
  C   C66       1.0  0.89809  0.38600  0.87086  1.0000
  C  Sn48      1.0  0.92698  0.35744  0.83637  1.0000
  O  Te45      1.0  0.93766  0.28001  0.78483  1.0000
  O  Te46      1.0  0.78853  0.29978  0.88881  1.0000
  O  Te47      1.0  0.82376  0.39662  0.92313  1.0000
  O  Te48      1.0  0.97290  0.37684  0.81912  1.0000
  Mg  Mg23      1.0  0.76365  0.35384  0.93558  1.0000
  Mg  Mg24      1.0  0.99780  0.32282  0.77233  1.0000
