data_image0
_chemical_formula_structural       BCONCH4BCONCH4BCONCH4BCONCH4BCONCH4BCONCH4BCONCH4BCONCH4BCONCH4BCONCH4BCONCH4BCONCH4C20Sn2C2HTe2HMgC2Sn2C2HTe2HMgC2Sn2C2HTe2HMgC2Sn2C2HTe2HMgC2Sn2C2HTe2HMgC2Sn2C2HTe2HMgC2Sn2C2HTe2HMgC2Sn2C2HTe2HMgC2Sn2C2HTe2HMgC2Sn2C2HTe2HMgC2Sn2C2HTe2HMgC2Sn2C2HTe2HMg
_chemical_formula_sum              "B12 C90 O12 N12 H72 Sn24 Te24 Mg12"
_cell_length_a       26.5042
_cell_length_b       26.2453
_cell_length_c       26.3838
_cell_angle_alpha    90.6474
_cell_angle_beta     89.7256
_cell_angle_gamma    89.8774

_symmetry_space_group_name_H-M    'P1'
_space_group_IT_number       1

loop_
  _space_group_symop_operation_xyz
  'x, y, z'

loop_
  _atom_site_type_symbol
  _atom_site_label
  _atom_site_symmetry_multiplicity
  _atom_site_fract_x
  _atom_site_fract_y
  _atom_site_fract_z
  _atom_site_occupancy
  B   B1        1.0  0.19026  0.81927  0.75115  1.0000
  C   C1        1.0  0.93835  0.41656  0.89571  1.0000
  O   O1        1.0  0.83321  0.22464  0.76782  1.0000
  N   N1        1.0  0.06048  0.06962  0.43418  1.0000
  C   C2        1.0  0.03523  0.03436  0.46864  1.0000
  H   H1        1.0  0.02865  0.52625  0.09067  1.0000
  H   H2        1.0  0.02444  0.40757  0.97681  1.0000
  H   H3        1.0  0.91123  0.52614  0.97769  1.0000
  H   H4        1.0  0.96846  0.43086  0.87081  1.0000
  B   B2        1.0  0.80703  0.18202  0.75016  1.0000
  C   C3        1.0  0.06041  0.58401  0.89244  1.0000
  O   O2        1.0  0.16653  0.77428  0.76513  1.0000
  N   N2        1.0  0.94110  0.93076  0.43307  1.0000
  C   C4        1.0  0.96814  0.96557  0.46740  1.0000
  H   H5        1.0  0.97951  0.48037  0.09277  1.0000
  H   H6        1.0  0.97837  0.59272  0.97508  1.0000
  H   H7        1.0  0.09207  0.47468  0.97395  1.0000
  H   H8        1.0  0.02780  0.57160  0.86983  1.0000
  B   B3        1.0  0.80966  0.82149  0.24945  1.0000
  C   C5        1.0  0.05583  0.40936  0.09948  1.0000
  O   O3        1.0  0.16161  0.22199  0.23216  1.0000
  N   N3        1.0  0.94151  0.06666  0.57293  1.0000
  C   C6        1.0  0.96738  0.03264  0.53708  1.0000
  H   H9        1.0  0.97631  0.52213  0.90696  1.0000
  H   H10       1.0  0.97743  0.40975  0.02465  1.0000
  H   H11       1.0  0.09407  0.52435  0.01972  1.0000
  H   H12       1.0  0.01790  0.41415  0.11617  1.0000
  B   B4        1.0  0.18684  0.17831  0.24800  1.0000
  C   C7        1.0  0.94011  0.58373  0.10682  1.0000
  O   O4        1.0  0.83341  0.77603  0.23515  1.0000
  N   N4        1.0  0.06386  0.93002  0.56746  1.0000
  C   C8        1.0  0.03620  0.96533  0.53482  1.0000
  H   H13       1.0  0.02489  0.47523  0.90667  1.0000
  H   H14       1.0  0.02725  0.59374  0.02073  1.0000
  H   H15       1.0  0.91102  0.47859  0.02462  1.0000
  H   H16       1.0  0.96839  0.56657  0.13189  1.0000
  B   B5        1.0  0.74716  0.19204  0.81896  1.0000
  C   C9        1.0  0.90300  0.94679  0.40799  1.0000
  O   O5        1.0  0.76779  0.83815  0.22250  1.0000
  N   N5        1.0  0.43076  0.05887  0.06696  1.0000
  C   C10       1.0  0.46640  0.03323  0.03262  1.0000
  H   H17       1.0  0.09389  0.02446  0.52473  1.0000
  H   H18       1.0  0.97754  0.02526  0.41134  1.0000
  H   H19       1.0  0.98000  0.90685  0.52340  1.0000
  H   H20       1.0  0.88777  0.98575  0.41200  1.0000
  B   B6        1.0  0.75233  0.81201  0.17898  1.0000
  C   C11       1.0  0.89536  0.05973  0.58589  1.0000
  O   O6        1.0  0.76322  0.16680  0.77504  1.0000
  N   N6        1.0  0.43407  0.93710  0.92993  1.0000
  C   C12       1.0  0.46822  0.96379  0.96473  1.0000
  H   H21       1.0  0.09364  0.97560  0.47748  1.0000
  H   H22       1.0  0.97912  0.97401  0.59366  1.0000
  H   H23       1.0  0.97719  0.09118  0.48002  1.0000
  H   H24       1.0  0.87161  0.02905  0.57030  1.0000
  B   B7        1.0  0.24847  0.81034  0.82079  1.0000
  C   C13       1.0  0.10285  0.05796  0.41338  1.0000
  O   O7        1.0  0.22977  0.16185  0.22187  1.0000
  N   N7        1.0  0.56963  0.93970  0.06767  1.0000
  C   C14       1.0  0.53507  0.96534  0.03298  1.0000
  H   H25       1.0  0.91095  0.97267  0.52563  1.0000
  H   H26       1.0  0.02476  0.97748  0.40892  1.0000
  H   H27       1.0  0.02352  0.09156  0.52808  1.0000
  H   H28       1.0  0.12394  0.02298  0.42212  1.0000
  B   B8        1.0  0.24600  0.18716  0.17853  1.0000
  C   C15       1.0  0.09967  0.94641  0.59576  1.0000
  O   O8        1.0  0.23230  0.83607  0.77790  1.0000
  N   N8        1.0  0.56935  0.05967  0.93133  1.0000
  C   C16       1.0  0.53475  0.03344  0.96551  1.0000
  H   H29       1.0  0.90876  0.02272  0.48087  1.0000
  H   H30       1.0  0.02520  0.02291  0.59413  1.0000
  H   H31       1.0  0.02638  0.90850  0.47522  1.0000
  H   H32       1.0  0.11338  0.98604  0.59543  1.0000
  B   B9        1.0  0.81857  0.74988  0.19160  1.0000
  C   C17       1.0  0.41358  0.89459  0.94171  1.0000
  O   O9        1.0  0.22256  0.76707  0.83602  1.0000
  N   N9        1.0  0.07086  0.43343  0.06014  1.0000
  C   C18       1.0  0.03613  0.46728  0.03315  1.0000
  H   H33       1.0  0.52209  0.09259  0.02375  1.0000
  H   H34       1.0  0.40989  0.97419  0.02232  1.0000
  H   H35       1.0  0.52691  0.97495  0.90788  1.0000
  H   H36       1.0  0.42210  0.87396  0.97680  1.0000
  B   B10       1.0  0.18135  0.74897  0.80867  1.0000
  C   C19       1.0  0.59083  0.89734  0.05521  1.0000
  O   O10       1.0  0.77764  0.76780  0.16409  1.0000
  N   N10       1.0  0.93233  0.43113  0.94195  1.0000
  C   C20       1.0  0.96750  0.46650  0.96629  1.0000
  H   H37       1.0  0.47704  0.09116  0.97399  1.0000
  H   H38       1.0  0.59338  0.97656  0.97561  1.0000
  H   H39       1.0  0.47686  0.97676  0.09069  1.0000
  H   H40       1.0  0.58285  0.87657  0.01963  1.0000
  B   B11       1.0  0.81672  0.25085  0.81099  1.0000
  C   C21       1.0  0.41261  0.10303  0.05733  1.0000
  O   O11       1.0  0.21973  0.23001  0.16241  1.0000
  N   N11       1.0  0.06960  0.56804  0.93724  1.0000
  C   C22       1.0  0.03547  0.53378  0.96389  1.0000
  H   H41       1.0  0.52578  0.90625  0.97408  1.0000
  H   H42       1.0  0.40957  0.02102  0.97438  1.0000
  H   H43       1.0  0.52434  0.02400  0.08997  1.0000
  H   H44       1.0  0.42398  0.12566  0.02431  1.0000
  B   B12       1.0  0.17711  0.24727  0.18868  1.0000
  C   C23       1.0  0.58533  0.10478  0.94108  1.0000
  O   O12       1.0  0.77305  0.23502  0.83584  1.0000
  N   N12       1.0  0.93573  0.57240  0.05965  1.0000
  C   C24       1.0  0.96941  0.53634  0.03391  1.0000
  H   H45       1.0  0.47956  0.90581  0.02310  1.0000
  H   H46       1.0  0.59185  0.02404  0.02376  1.0000
  H   H47       1.0  0.47815  0.02093  0.90721  1.0000
  H   H48       1.0  0.57312  0.12741  0.97436  1.0000
  C   C25       1.0  0.00129  0.00064  0.43477  1.0000
  C   C26       1.0  0.00207  0.99864  0.56929  1.0000
  C   C27       1.0  0.43420  0.99800  0.99850  1.0000
  C   C28       1.0  0.56808  0.99986  0.99950  1.0000
  C   C29       1.0  0.00137  0.43343  0.00036  1.0000
  C   C30       1.0  0.00267  0.56854  0.99838  1.0000
  C   C31       1.0  0.00083  0.06656  0.50358  1.0000
  C   C32       1.0  0.00275  0.93258  0.50008  1.0000
  C   C33       1.0  0.50059  0.99982  0.06564  1.0000
  C   C34       1.0  0.50203  0.99820  0.93227  1.0000
  C   C35       1.0  0.06849  0.49997  0.99763  1.0000
  C   C36       1.0  0.93568  0.50192  0.00073  1.0000
  C   C37       1.0  0.06937  0.00008  0.50136  1.0000
  C   C38       1.0  0.93426  0.99844  0.50283  1.0000
  C   C39       1.0  0.49995  0.06723  0.99899  1.0000
  C   C40       1.0  0.50219  0.93067  0.99871  1.0000
  C   C41       1.0  0.00343  0.50274  0.06717  1.0000
  C   C42       1.0  0.00093  0.49929  0.93135  1.0000
  C   C43       1.0  0.81685  0.07779  0.65867  1.0000
  C   C44       1.0  0.85803  0.08916  0.62756  1.0000
  C  Sn1       1.0  0.88684  0.13276  0.63690  1.0000
  C  Sn2       1.0  0.87409  0.16550  0.67818  1.0000
  C   C45       1.0  0.83283  0.15377  0.70910  1.0000
  C   C46       1.0  0.80425  0.11005  0.69941  1.0000
  H   H49       1.0  0.79475  0.04395  0.65119  1.0000
  O  Te1       1.0  0.92786  0.14356  0.60543  1.0000
  O  Te2       1.0  0.90225  0.20931  0.68838  1.0000
  H   H50       1.0  0.77239  0.10124  0.72352  1.0000
  Mg  Mg1       1.0  0.95471  0.20776  0.63470  1.0000
  C   C47       1.0  0.10894  0.84956  0.64515  1.0000
  C   C48       1.0  0.11765  0.90092  0.63485  1.0000
  C  Sn3       1.0  0.15517  0.92768  0.66086  1.0000
  C  Sn4       1.0  0.18448  0.90244  0.69784  1.0000
  C   C49       1.0  0.17550  0.85105  0.70784  1.0000
  C   C50       1.0  0.13784  0.82464  0.68160  1.0000
  H   H51       1.0  0.07982  0.82912  0.62483  1.0000
  O  Te3       1.0  0.16336  0.97898  0.65012  1.0000
  O  Te4       1.0  0.22224  0.92827  0.72438  1.0000
  H   H52       1.0  0.13113  0.78487  0.68956  1.0000
  Mg  Mg2       1.0  0.21914  0.99786  0.69632  1.0000
  C   C51       1.0  0.17751  0.07360  0.33666  1.0000
  C   C52       1.0  0.13799  0.08604  0.36983  1.0000
  C  Sn5       1.0  0.11005  0.13062  0.36302  1.0000
  C  Sn6       1.0  0.12198  0.16327  0.32220  1.0000
  C   C53       1.0  0.16156  0.15047  0.28920  1.0000
  C   C54       1.0  0.18928  0.10578  0.29638  1.0000
  H   H53       1.0  0.19894  0.03901  0.34219  1.0000
  O  Te5       1.0  0.07070  0.14248  0.39652  1.0000
  O  Te6       1.0  0.09465  0.20806  0.31450  1.0000
  H   H54       1.0  0.21986  0.09614  0.27067  1.0000
  Mg  Mg3       1.0  0.04445  0.20776  0.37032  1.0000
  C   C55       1.0  0.87941  0.83486  0.33503  1.0000
  C   C56       1.0  0.83959  0.84731  0.30289  1.0000
  C  Sn7       1.0  0.81945  0.89655  0.30346  1.0000
  C  Sn8       1.0  0.83964  0.93395  0.33686  1.0000
  C   C57       1.0  0.87950  0.92112  0.36884  1.0000
  C   C58       1.0  0.89935  0.87173  0.36797  1.0000
  H   H55       1.0  0.89479  0.79665  0.33434  1.0000
  O  Te7       1.0  0.77966  0.90834  0.27112  1.0000
  O  Te8       1.0  0.82023  0.98346  0.33820  1.0000
  H   H56       1.0  0.93020  0.86211  0.39284  1.0000
  Mg  Mg4       1.0  0.76600  0.98105  0.28688  1.0000
  C   C59       1.0  0.66946  0.82420  0.07003  1.0000
  C   C60       1.0  0.63449  0.86220  0.08282  1.0000
  C  Sn9       1.0  0.63801  0.88820  0.12917  1.0000
  C  Sn10      1.0  0.67732  0.87585  0.16326  1.0000
  C   C61       1.0  0.71213  0.83779  0.15009  1.0000
  C   C62       1.0  0.70825  0.81201  0.10362  1.0000
  H   H57       1.0  0.66648  0.80427  0.03406  1.0000
  O  Te9       1.0  0.60275  0.92604  0.14136  1.0000
  O  Te10      1.0  0.68173  0.90124  0.20982  1.0000
  H   H58       1.0  0.73535  0.78261  0.09371  1.0000
  Mg  Mg5       1.0  0.62454  0.94990  0.20929  1.0000
  C   C63       1.0  0.67830  0.19528  0.90687  1.0000
  C   C64       1.0  0.70061  0.17602  0.86252  1.0000
  C  Sn11      1.0  0.68145  0.13216  0.83917  1.0000
  C  Sn12      1.0  0.63916  0.10721  0.86070  1.0000
  C   C65       1.0  0.61708  0.12681  0.90505  1.0000
  C   C66       1.0  0.63657  0.17071  0.92811  1.0000
  H   H59       1.0  0.69335  0.22927  0.92470  1.0000
  O  Te11      1.0  0.70421  0.11342  0.79490  1.0000
  O  Te12      1.0  0.61924  0.06332  0.83813  1.0000
  H   H60       1.0  0.61926  0.18563  0.96243  1.0000
  Mg  Mg6       1.0  0.66336  0.05245  0.77819  1.0000
  C   C67       1.0  0.33696  0.17934  0.07489  1.0000
  C   C68       1.0  0.36935  0.13899  0.08618  1.0000
  C  Sn13      1.0  0.36123  0.10988  0.12945  1.0000
  C  Sn14      1.0  0.31987  0.12145  0.16195  1.0000
  C   C69       1.0  0.28765  0.16187  0.15031  1.0000
  C   C70       1.0  0.29614  0.19077  0.10692  1.0000
  H   H61       1.0  0.34350  0.20169  0.04131  1.0000
  O  Te13      1.0  0.39398  0.06971  0.14017  1.0000
  O  Te14      1.0  0.31087  0.09295  0.20544  1.0000
  H   H62       1.0  0.27103  0.22198  0.09818  1.0000
  Mg  Mg7       1.0  0.36604  0.04197  0.20390  1.0000
  C   C71       1.0  0.35411  0.89320  0.85051  1.0000
  C   C72       1.0  0.37049  0.87937  0.89871  1.0000
  C  Sn15      1.0  0.34892  0.83771  0.92313  1.0000
  C  Sn16      1.0  0.31026  0.80945  0.89873  1.0000
  C   C73       1.0  0.29417  0.82358  0.85049  1.0000
  C   C74       1.0  0.31599  0.86534  0.82641  1.0000
  H   H63       1.0  0.37101  0.92550  0.83186  1.0000
  O  Te15      1.0  0.36572  0.82442  0.97129  1.0000
  O  Te16      1.0  0.28807  0.76764  0.92227  1.0000
  H   H64       1.0  0.30332  0.87602  0.78907  1.0000
  Mg  Mg8       1.0  0.32380  0.76443  0.98790  1.0000
  C   C75       1.0  0.14947  0.64638  0.89377  1.0000
  C   C76       1.0  0.10280  0.62773  0.87766  1.0000
  C  Sn17      1.0  0.08095  0.64589  0.83328  1.0000
  C  Sn18      1.0  0.10638  0.68342  0.80456  1.0000
  C   C77       1.0  0.15307  0.70181  0.82098  1.0000
  C   C78       1.0  0.17458  0.68338  0.86546  1.0000
  H   H65       1.0  0.16613  0.63211  0.92817  1.0000
  O  Te17      1.0  0.03429  0.62686  0.81774  1.0000
  O  Te18      1.0  0.08540  0.70223  0.76005  1.0000
  H   H66       1.0  0.21073  0.69781  0.87791  1.0000
  Mg  Mg9       1.0  0.02106  0.66442  0.75446  1.0000
  C   C79       1.0  0.91854  0.65495  0.18720  1.0000
  C   C80       1.0  0.90942  0.62493  0.14414  1.0000
  C  Sn19      1.0  0.86879  0.63599  0.11253  1.0000
  C  Sn20      1.0  0.83678  0.67791  0.12433  1.0000
  C   C81       1.0  0.84624  0.70773  0.16747  1.0000
  C   C82       1.0  0.88699  0.69632  0.19885  1.0000
  H   H67       1.0  0.95008  0.64615  0.21147  1.0000
  O  Te19      1.0  0.86021  0.60559  0.06967  1.0000
  O  Te20      1.0  0.79592  0.68982  0.09338  1.0000
  H   H68       1.0  0.89406  0.71959  0.23217  1.0000
  Mg  Mg10      1.0  0.79970  0.63710  0.03921  1.0000
  C   C83       1.0  0.08632  0.31297  0.18751  1.0000
  C   C84       1.0  0.13350  0.29418  0.17246  1.0000
  C  Sn21      1.0  0.15986  0.31700  0.13278  1.0000
  C  Sn22      1.0  0.13849  0.35942  0.10778  1.0000
  C   C85       1.0  0.09128  0.37796  0.12314  1.0000
  C   C86       1.0  0.06523  0.35482  0.16289  1.0000
  H   H69       1.0  0.06617  0.29509  0.21828  1.0000
  O  Te21      1.0  0.20695  0.29773  0.11822  1.0000
  O  Te22      1.0  0.16403  0.38297  0.06801  1.0000
  H   H70       1.0  0.02871  0.36940  0.17455  1.0000
  Mg  Mg11      1.0  0.22713  0.34280  0.06195  1.0000
  C   C87       1.0  0.92092  0.34020  0.81983  1.0000
  C   C88       1.0  0.90922  0.37369  0.85976  1.0000
  C  Sn23      1.0  0.86551  0.36662  0.88861  1.0000
  C  Sn24      1.0  0.83298  0.32523  0.87720  1.0000
  C   C89       1.0  0.84504  0.29192  0.83720  1.0000
  C   C90       1.0  0.88888  0.29935  0.80856  1.0000
  H   H71       1.0  0.95485  0.34593  0.79769  1.0000
  O  Te23      1.0  0.85437  0.40045  0.92836  1.0000
  O  Te24      1.0  0.78906  0.31727  0.90544  1.0000
  H   H72       1.0  0.89794  0.27340  0.77767  1.0000
  Mg  Mg12      1.0  0.79013  0.37370  0.95587  1.0000
