data_image0
_chemical_formula_structural       C6N6C2H2C3H3C2H2C2H2C3H3C2H2CHCHCHCHC8H8C8H8C20H6C6N6H6C4H4C4H4C16H6C2Sn2C2HTe2HMgC2Sn2C2HTe2HMgC2Sn2C2HTe2HMgC2Sn2C2HTe2HMgC2Sn2C2HTe2HMgC2Sn2C2HTe2HMgC2Sn2C2HTe2HMgC2Sn2C2HTe2HMgC2Sn2C2HTe2HMg
_chemical_formula_sum              "C126 N12 H78 Sn18 Te18 Mg9"
_cell_length_a       37.3702
_cell_length_b       37.2291
_cell_length_c       8.36198
_cell_angle_alpha    65.3662
_cell_angle_beta     119.748
_cell_angle_gamma    120.071

_symmetry_space_group_name_H-M    'P1'
_space_group_IT_number       1

loop_
  _space_group_symop_operation_xyz
  'x, y, z'

loop_
  _atom_site_type_symbol
  _atom_site_label
  _atom_site_symmetry_multiplicity
  _atom_site_fract_x
  _atom_site_fract_y
  _atom_site_fract_z
  _atom_site_occupancy
  C   C1        1.0  0.89160  0.45780  0.26745  1.0000
  C   C2        1.0  0.54325  0.43036  0.24519  1.0000
  C   C3        1.0  0.56770  0.11373  0.20055  1.0000
  C   C4        1.0  0.11040  0.53328  0.22518  1.0000
  C   C5        1.0  0.46926  0.57823  0.26294  1.0000
  C   C6        1.0  0.41705  0.88805  0.22858  1.0000
  N   N1        1.0  0.91201  0.44625  0.22095  1.0000
  N   N2        1.0  0.55981  0.46753  0.27922  1.0000
  N   N3        1.0  0.53667  0.08555  0.26589  1.0000
  N   N4        1.0  0.08928  0.54416  0.27061  1.0000
  N   N5        1.0  0.45467  0.53921  0.25362  1.0000
  N   N6        1.0  0.45722  0.91297  0.23585  1.0000
  C   C7        1.0  0.95580  0.47191  0.23181  1.0000
  C   C8        1.0  0.98206  0.45145  0.25801  1.0000
  H   H1        1.0  0.90804  0.48677  0.32126  1.0000
  H   H2        1.0  0.96670  0.41733  0.26675  1.0000
  C   C9        1.0  0.53217  0.48415  0.26913  1.0000
  C   C10       1.0  0.55343  0.52043  0.34441  1.0000
  C   C11       1.0  0.52922  0.53949  0.34185  1.0000
  H   H3        1.0  0.50770  0.41036  0.21046  1.0000
  H   H4        1.0  0.58953  0.53265  0.40743  1.0000
  H   H5        1.0  0.54652  0.56659  0.40659  1.0000
  C   C12       1.0  0.51733  0.04344  0.24856  1.0000
  C   C13       1.0  0.47420  0.01952  0.25431  1.0000
  H   H6        1.0  0.57863  0.10669  0.12026  1.0000
  H   H7        1.0  0.45844  0.03531  0.26861  1.0000
  C   C14       1.0  0.04567  0.51828  0.26104  1.0000
  C   C15       1.0  0.01952  0.53868  0.23630  1.0000
  H   H8        1.0  0.09493  0.50429  0.17260  1.0000
  H   H9        1.0  0.03492  0.57280  0.22764  1.0000
  C   C16       1.0  0.48235  0.52299  0.26230  1.0000
  C   C17       1.0  0.46107  0.48653  0.18812  1.0000
  C   C18       1.0  0.48527  0.46772  0.18958  1.0000
  H   H10       1.0  0.50326  0.60066  0.27184  1.0000
  H   H11       1.0  0.42496  0.47418  0.12590  1.0000
  H   H12       1.0  0.46762  0.44065  0.12444  1.0000
  C   C19       1.0  0.47432  0.95611  0.23581  1.0000
  C   C20       1.0  0.51754  0.97997  0.23169  1.0000
  H   H13       1.0  0.39324  0.89899  0.21672  1.0000
  H   H14       1.0  0.53390  0.96369  0.22445  1.0000
  C   C21       1.0  0.02627  0.47391  0.27491  1.0000
  H   H15       1.0  0.04595  0.45711  0.29879  1.0000
  C   C22       1.0  0.45296  0.97695  0.24627  1.0000
  H   H16       1.0  0.42010  0.95939  0.25443  1.0000
  C   C23       1.0  0.97534  0.51620  0.21967  1.0000
  H   H17       1.0  0.95572  0.53293  0.19708  1.0000
  C   C24       1.0  0.53877  0.02272  0.23827  1.0000
  H   H18       1.0  0.57251  0.04011  0.23954  1.0000
  C   C25       1.0  0.17710  0.60054  0.27343  1.0000
  C   C26       1.0  0.22045  0.62528  0.28198  1.0000
  C   C27       1.0  0.39576  0.57217  0.22365  1.0000
  C   C28       1.0  0.36953  0.58984  0.21367  1.0000
  C   C29       1.0  0.42873  0.82367  0.27051  1.0000
  C   C30       1.0  0.41247  0.78065  0.27693  1.0000
  C   C31       1.0  0.57176  0.17274  0.28656  1.0000
  C   C32       1.0  0.59206  0.21458  0.30474  1.0000
  H   H19       1.0  0.15856  0.61214  0.29465  1.0000
  H   H20       1.0  0.23550  0.65659  0.31125  1.0000
  H   H21       1.0  0.38174  0.54020  0.20235  1.0000
  H   H22       1.0  0.33420  0.57125  0.18095  1.0000
  H   H23       1.0  0.46352  0.84351  0.29263  1.0000
  H   H24       1.0  0.43528  0.76673  0.30670  1.0000
  H   H25       1.0  0.54206  0.15098  0.31970  1.0000
  H   H26       1.0  0.57795  0.22527  0.35469  1.0000
  C   C33       1.0  0.35571  0.81713  0.20972  1.0000
  C   C34       1.0  0.33940  0.77412  0.21298  1.0000
  C   C35       1.0  0.18044  0.54425  0.21480  1.0000
  C   C36       1.0  0.22407  0.56908  0.22493  1.0000
  C   C37       1.0  0.45939  0.63713  0.28316  1.0000
  C   C38       1.0  0.43309  0.65439  0.27702  1.0000
  C   C39       1.0  0.62811  0.18512  0.18547  1.0000
  C   C40       1.0  0.64857  0.22695  0.20568  1.0000
  H   H27       1.0  0.33343  0.83111  0.18587  1.0000
  H   H28       1.0  0.30429  0.75559  0.18783  1.0000
  H   H29       1.0  0.16450  0.51277  0.18520  1.0000
  H   H30       1.0  0.24109  0.55658  0.19943  1.0000
  H   H31       1.0  0.49459  0.65583  0.30898  1.0000
  H   H32       1.0  0.44861  0.68611  0.30297  1.0000
  H   H33       1.0  0.64186  0.17404  0.13516  1.0000
  H   H34       1.0  0.67773  0.24800  0.16810  1.0000
  C   C41       1.0  0.34988  0.70922  0.24450  1.0000
  C   C42       1.0  0.40056  0.84292  0.23560  1.0000
  C   C43       1.0  0.36722  0.75467  0.24574  1.0000
  C   C44       1.0  0.37439  0.69262  0.23021  1.0000
  C   C45       1.0  0.29044  0.63833  0.25421  1.0000
  C   C46       1.0  0.15609  0.55954  0.23784  1.0000
  C   C47       1.0  0.24514  0.61052  0.25665  1.0000
  C   C48       1.0  0.30804  0.68151  0.25606  1.0000
  C   C49       1.0  0.35927  0.64911  0.23854  1.0000
  C   C50       1.0  0.44135  0.59563  0.25779  1.0000
  C   C51       1.0  0.38734  0.63129  0.24149  1.0000
  C   C52       1.0  0.31715  0.62265  0.24999  1.0000
  C   C53       1.0  0.65177  0.28795  0.27650  1.0000
  C   C54       1.0  0.58929  0.15725  0.22548  1.0000
  C   C55       1.0  0.63102  0.24284  0.26482  1.0000
  C   C56       1.0  0.62763  0.30762  0.27313  1.0000
  C   C57       1.0  0.71439  0.35660  0.27562  1.0000
  C   C58       1.0  0.69564  0.31273  0.28375  1.0000
  C   C59       1.0  0.64573  0.35105  0.27209  1.0000
  C   C60       1.0  0.68888  0.37509  0.27003  1.0000
  H   H35       1.0  0.28917  0.69382  0.27038  1.0000
  H   H36       1.0  0.30536  0.58888  0.26006  1.0000
  H   H37       1.0  0.40550  0.71406  0.20905  1.0000
  H   H38       1.0  0.71560  0.29771  0.29543  1.0000
  H   H39       1.0  0.70238  0.40918  0.25794  1.0000
  H   H40       1.0  0.59397  0.28875  0.27093  1.0000
  C   C61       1.0  0.88697  0.46887  0.75407  1.0000
  C   C62       1.0  0.53164  0.42610  0.70952  1.0000
  C   C63       1.0  0.57968  0.11297  0.75102  1.0000
  C   C64       1.0  0.10825  0.53948  0.73296  1.0000
  C   C65       1.0  0.45796  0.56823  0.76710  1.0000
  C   C66       1.0  0.43187  0.88669  0.78291  1.0000
  N   N7        1.0  0.91196  0.45411  0.75521  1.0000
  N   N8        1.0  0.54757  0.45708  0.78808  1.0000
  N   N9        1.0  0.53953  0.08774  0.74248  1.0000
  N   N10       1.0  0.08436  0.55391  0.74241  1.0000
  N   N11       1.0  0.44101  0.53314  0.71442  1.0000
  N   N12       1.0  0.46311  0.91479  0.71856  1.0000
  H   H41       1.0  0.89695  0.50280  0.74367  1.0000
  H   H42       1.0  0.49640  0.41327  0.62016  1.0000
  H   H43       1.0  0.60347  0.10254  0.75914  1.0000
  H   H44       1.0  0.09627  0.50646  0.72378  1.0000
  H   H45       1.0  0.49400  0.58509  0.82972  1.0000
  H   H46       1.0  0.42053  0.89415  0.86009  1.0000
  C   C67       1.0  0.42744  0.82669  0.70113  1.0000
  C   C68       1.0  0.40739  0.78439  0.68925  1.0000
  C   C69       1.0  0.82651  0.39719  0.77830  1.0000
  C   C70       1.0  0.78353  0.37183  0.77333  1.0000
  H   H47       1.0  0.45654  0.84824  0.66307  1.0000
  H   H48       1.0  0.42110  0.77321  0.63945  1.0000
  H   H49       1.0  0.84878  0.38363  0.79899  1.0000
  H   H50       1.0  0.77255  0.33766  0.79457  1.0000
  C   C71       1.0  0.37228  0.81511  0.80762  1.0000
  C   C72       1.0  0.35198  0.77282  0.79326  1.0000
  C   C73       1.0  0.81363  0.45915  0.72669  1.0000
  C   C74       1.0  0.77019  0.43360  0.71836  1.0000
  H   H51       1.0  0.35889  0.82666  0.85773  1.0000
  H   H52       1.0  0.32342  0.75199  0.83539  1.0000
  H   H53       1.0  0.82531  0.49342  0.70759  1.0000
  H   H54       1.0  0.74864  0.44856  0.69226  1.0000
  C   C75       1.0  0.34889  0.71064  0.73084  1.0000
  C   C76       1.0  0.41046  0.84280  0.76223  1.0000
  C   C77       1.0  0.36914  0.75624  0.73525  1.0000
  C   C78       1.0  0.37310  0.69106  0.73418  1.0000
  C   C79       1.0  0.28722  0.64129  0.74341  1.0000
  C   C80       1.0  0.30544  0.68545  0.72903  1.0000
  C   C81       1.0  0.35561  0.64732  0.74190  1.0000
  C   C82       1.0  0.31318  0.62291  0.75167  1.0000
  C   C83       1.0  0.64892  0.29083  0.75372  1.0000
  C   C84       1.0  0.62530  0.30730  0.77478  1.0000
  C   C85       1.0  0.70927  0.36120  0.75032  1.0000
  C   C86       1.0  0.84258  0.44148  0.75659  1.0000
  C   C87       1.0  0.75412  0.38913  0.74419  1.0000
  C   C88       1.0  0.69037  0.31858  0.73746  1.0000
  C   C89       1.0  0.64164  0.35051  0.77412  1.0000
  C   C90       1.0  0.68423  0.37654  0.76834  1.0000
  H   H55       1.0  0.28552  0.70061  0.71635  1.0000
  H   H56       1.0  0.30060  0.58868  0.77000  1.0000
  H   H57       1.0  0.40627  0.71025  0.73083  1.0000
  H   H58       1.0  0.70733  0.30720  0.70596  1.0000
  H   H59       1.0  0.69755  0.40964  0.77373  1.0000
  H   H60       1.0  0.59406  0.28618  0.79565  1.0000
  C   C91       1.0  0.54683  0.01410  0.74364  1.0000
  C   C92       1.0  0.52930  0.04090  0.73278  1.0000
  C  Sn1       1.0  0.48613  0.02456  0.72850  1.0000
  C  Sn2       1.0  0.46010  0.98056  0.73528  1.0000
  C   C93       1.0  0.97713  0.95401  0.74626  1.0000
  C   C94       1.0  0.52119  0.97070  0.75040  1.0000
  H   H61       1.0  0.58029  0.02700  0.74695  1.0000
  O  Te1       1.0  0.46913  0.05178  0.71757  1.0000
  O  Te2       1.0  0.41685  0.96339  0.73128  1.0000
  H   H62       1.0  0.03394  0.94994  0.75893  1.0000
  Mg  Mg1       1.0  0.40844  0.01335  0.71581  1.0000
  C   C95       1.0  0.18548  0.61709  0.77871  1.0000
  C   C96       1.0  0.15683  0.57763  0.73083  1.0000
  C  Sn3       1.0  0.17221  0.55479  0.69916  1.0000
  C  Sn4       1.0  0.21712  0.57184  0.71589  1.0000
  C   C97       1.0  0.24553  0.61133  0.76399  1.0000
  C   C98       1.0  0.22979  0.63392  0.79532  1.0000
  H   H63       1.0  0.17331  0.63456  0.80305  1.0000
  O  Te3       1.0  0.14313  0.51543  0.65136  1.0000
  O  Te4       1.0  0.23337  0.54968  0.68508  1.0000
  H   H64       1.0  0.25199  0.66445  0.83251  1.0000
  Mg  Mg2       1.0  0.18089  0.49728  0.62310  1.0000
  C   C99       1.0  0.61768  0.42457  0.83489  1.0000
  C   C100      1.0  0.57169  0.41332  0.74489  1.0000
  C  Sn5       1.0  0.54555  0.37723  0.66823  1.0000
  C  Sn6       1.0  0.56591  0.35198  0.68220  1.0000
  C   C101      1.0  0.61194  0.36349  0.77263  1.0000
  C   C102      1.0  0.63779  0.39968  0.84879  1.0000
  H   H65       1.0  0.63768  0.45256  0.89391  1.0000
  O  Te5       1.0  0.49965  0.36645  0.57873  1.0000
  O  Te6       1.0  0.54057  0.31574  0.60688  1.0000
  H   H66       1.0  0.67339  0.40836  0.91857  1.0000
  Mg  Mg3       1.0  0.47927  0.31414  0.49825  1.0000
  C   C103      1.0  0.81188  0.38268  0.20291  1.0000
  C   C104      1.0  0.84049  0.42301  0.24129  1.0000
  C  Sn7       1.0  0.82838  0.44362  0.30197  1.0000
  C  Sn8       1.0  0.78684  0.42340  0.32454  1.0000
  C   C105      1.0  0.75847  0.38304  0.28590  1.0000
  C   C106      1.0  0.77091  0.36271  0.22521  1.0000
  H   H67       1.0  0.82152  0.36693  0.15605  1.0000
  O  Te7       1.0  0.85735  0.48392  0.33963  1.0000
  O  Te8       1.0  0.77391  0.44328  0.38506  1.0000
  H   H68       1.0  0.74877  0.33147  0.19561  1.0000
  Mg  Mg4       1.0  0.82482  0.49811  0.41860  1.0000
  C   C107      1.0  0.64049  0.42042  0.32135  1.0000
  C   C108      1.0  0.62592  0.38036  0.29066  1.0000
  C  Sn9       1.0  0.58057  0.35568  0.22661  1.0000
  C  Sn10      1.0  0.54931  0.37149  0.19273  1.0000
  C   C109      1.0  0.56422  0.41161  0.22373  1.0000
  C   C110      1.0  0.60967  0.43604  0.28790  1.0000
  H   H69       1.0  0.67565  0.43933  0.37090  1.0000
  O  Te9       1.0  0.56659  0.31572  0.19675  1.0000
  O  Te10      1.0  0.50379  0.34749  0.12861  1.0000
  H   H70       1.0  0.62094  0.46706  0.31153  1.0000
  Mg  Mg5       1.0  0.50107  0.29493  0.10883  1.0000
  C   C111      1.0  0.43899  0.64708  0.80688  1.0000
  C   C112      1.0  0.39301  0.63392  0.74775  1.0000
  C  Sn11      1.0  0.36484  0.59501  0.69418  1.0000
  C  Sn12      1.0  0.38316  0.56885  0.70013  1.0000
  C   C113      1.0  0.42921  0.58229  0.75962  1.0000
  C   C114      1.0  0.45709  0.62129  0.81286  1.0000
  H   H71       1.0  0.46057  0.67725  0.84817  1.0000
  O  Te11      1.0  0.31897  0.58236  0.63539  1.0000
  O  Te12      1.0  0.35577  0.52981  0.64743  1.0000
  H   H72       1.0  0.49269  0.63146  0.85875  1.0000
  Mg  Mg6       1.0  0.29537  0.52644  0.57744  1.0000
  C   C115      1.0  0.46284  0.45220  0.72673  1.0000
  C   C116      1.0  0.50767  0.46824  0.75297  1.0000
  C  Sn13      1.0  0.53496  0.50979  0.77767  1.0000
  C  Sn14      1.0  0.51695  0.53569  0.77606  1.0000
  C   C117      1.0  0.47207  0.51933  0.74984  1.0000
  C   C118      1.0  0.44505  0.47772  0.72519  1.0000
  H   H73       1.0  0.44195  0.41999  0.70776  1.0000
  O  Te13      1.0  0.57967  0.52532  0.80364  1.0000
  O  Te14      1.0  0.54348  0.57732  0.80048  1.0000
  H   H74       1.0  0.41036  0.46530  0.70500  1.0000
  Mg  Mg7       1.0  0.60242  0.58410  0.83091  1.0000
  C   C119      1.0  0.65114  0.19356  0.78277  1.0000
  C   C120      1.0  0.60825  0.16311  0.76267  1.0000
  C  Sn15      1.0  0.57430  0.17486  0.72577  1.0000
  C  Sn16      1.0  0.58355  0.21793  0.70870  1.0000
  C   C121      1.0  0.62656  0.24816  0.72892  1.0000
  C   C122      1.0  0.66029  0.23605  0.76588  1.0000
  H   H75       1.0  0.67724  0.18420  0.81127  1.0000
  O  Te15      1.0  0.53164  0.14403  0.70617  1.0000
  O  Te16      1.0  0.55023  0.23054  0.67180  1.0000
  H   H76       1.0  0.69349  0.25964  0.78131  1.0000
  Mg  Mg8       1.0  0.49737  0.17684  0.65662  1.0000
  C   C123      1.0  0.99055  0.52989  0.81006  1.0000
  C   C124      1.0  0.95869  0.49208  0.75179  1.0000
  C  Sn17      1.0  0.96889  0.47037  0.68805  1.0000
  C  Sn18      1.0  0.01182  0.48690  0.68276  1.0000
  C   C125      1.0  0.04348  0.52473  0.74148  1.0000
  C   C126      1.0  0.03291  0.54620  0.80495  1.0000
  H   H77       1.0  0.98239  0.54649  0.85926  1.0000
  O  Te17      1.0  0.93666  0.43265  0.63028  1.0000
  O  Te18      1.0  0.02291  0.46584  0.61976  1.0000
  H   H78       1.0  0.05760  0.57546  0.85018  1.0000
  Mg  Mg9       1.0  0.96766  0.41555  0.55572  1.0000
