data_image0
_chemical_formula_structural       C6N6C6N6C6O12H12C6N6C6N6C6O12H12SnCSn2CSnTe4Mg2SnCSn2CSnTe4Mg2SnCSn2CSnTe4Mg2SnCSn2CSnTe4Mg2SnCSn2CSnTe4Mg2SnCSn2CSnTe4Mg2SnCSn2CSnTe4Mg2SnCSn2CSnTe4Mg2SnCSn2CSnTe4Mg2SnCSn2CSnTe4Mg2SnCSn2CSnTe4Mg2SnCSn2CSnTe4Mg2SnCSn2CSnTe4Mg2SnCSn2CSnTe4Mg2SnCSn2CSnTe4Mg2SnCSn2CSnTe4Mg2SnCSn2CSnTe4Mg2SnCSn2CSnTe4Mg2SnCSn2CSnTe4Mg2SnCSn2CSnTe4Mg2SnCSn2CSnTe4Mg2SnCSn2CSnTe4Mg2SnCSn2CSnTe4Mg2SnCSn2CSnTe4Mg2SnCSn2CSnTe4Mg2SnCSn2CSnTe4Mg2SnCSn2CSnTe4Mg2SnCSn2CSnTe4Mg2SnCSn2CSnTe4Mg2SnCSn2CSnTe4Mg2SnCSn2CSnTe4Mg2SnCSn2CSnTe4Mg2SnCSn2CSnTe4Mg2SnCSn2CSnTe4Mg2SnCSn2CSnTe4Mg2SnCSn2CSnTe4Mg2
_chemical_formula_sum              "C108 N24 O24 H24 Sn144 Te144 Mg72"
_cell_length_a       39.0566
_cell_length_b       38.8034
_cell_length_c       9.64206
_cell_angle_alpha    101.372
_cell_angle_beta     92.469
_cell_angle_gamma    120.36

_symmetry_space_group_name_H-M    'P1'
_space_group_IT_number       1

loop_
  _space_group_symop_operation_xyz
  'x, y, z'

loop_
  _atom_site_type_symbol
  _atom_site_label
  _atom_site_symmetry_multiplicity
  _atom_site_fract_x
  _atom_site_fract_y
  _atom_site_fract_z
  _atom_site_occupancy
  C   C1        1.0  0.48889  0.48505  0.26601  1.0000
  C   C2        1.0  0.52382  0.00423  0.28105  1.0000
  C   C3        1.0  0.00629  0.52003  0.29736  1.0000
  C   C4        1.0  0.52531  0.52174  0.28524  1.0000
  C   C5        1.0  0.48779  0.00311  0.28120  1.0000
  C   C6        1.0  0.00811  0.48489  0.28123  1.0000
  N   N1        1.0  0.33917  0.47914  0.23296  1.0000
  N   N2        1.0  0.52619  0.85959  0.31132  1.0000
  N   N3        1.0  0.14717  0.67481  0.30608  1.0000
  N   N4        1.0  0.67540  0.52918  0.32766  1.0000
  N   N5        1.0  0.48294  0.14621  0.24815  1.0000
  N   N6        1.0  0.86128  0.33459  0.26881  1.0000
  C   C7        1.0  0.30003  0.44703  0.17708  1.0000
  C   C8        1.0  0.52885  0.83393  0.19881  1.0000
  C   C9        1.0  0.15418  0.69977  0.21325  1.0000
  C   C10       1.0  0.70065  0.53638  0.22977  1.0000
  C   C11       1.0  0.45241  0.14903  0.18308  1.0000
  C   C12       1.0  0.83388  0.30784  0.14829  1.0000
  N   N7        1.0  0.48067  0.33165  0.22792  1.0000
  N   N8        1.0  0.66924  0.14654  0.22480  1.0000
  N   N9        1.0  0.86373  0.52813  0.29697  1.0000
  N   N10       1.0  0.53175  0.67201  0.27872  1.0000
  N   N11       1.0  0.33363  0.85624  0.22884  1.0000
  N   N12       1.0  0.15122  0.47950  0.24710  1.0000
  C   C13       1.0  0.48705  0.30822  0.11861  1.0000
  C   C14       1.0  0.67369  0.18289  0.20333  1.0000
  C   C15       1.0  0.82385  0.49648  0.27740  1.0000
  C   C16       1.0  0.49831  0.67582  0.26510  1.0000
  C   C17       1.0  0.31932  0.81514  0.16463  1.0000
  C   C18       1.0  0.17696  0.48824  0.15075  1.0000
  O   O1        1.0  0.29000  0.41089  0.12613  1.0000
  O   O2        1.0  0.53633  0.84193  0.08051  1.0000
  O   O3        1.0  0.12726  0.69732  0.13180  1.0000
  O   O4        1.0  0.69667  0.54744  0.11974  1.0000
  O   O5        1.0  0.41804  0.11942  0.13347  1.0000
  O   O6        1.0  0.84026  0.30934  0.02325  1.0000
  O   O7        1.0  0.49769  0.31803  0.00537  1.0000
  O   O8        1.0  0.64588  0.18896  0.18874  1.0000
  O   O9        1.0  0.81266  0.45980  0.26102  1.0000
  O   O10       1.0  0.46375  0.64759  0.26319  1.0000
  O   O11       1.0  0.33861  0.80237  0.09779  1.0000
  O   O12       1.0  0.17368  0.50168  0.04637  1.0000
  H   H1        1.0  0.69524  0.14842  0.25926  1.0000
  H   H2        1.0  0.85419  0.32779  0.36564  1.0000
  H   H3        1.0  0.86906  0.55716  0.33110  1.0000
  H   H4        1.0  0.68421  0.52641  0.42520  1.0000
  H   H5        1.0  0.47705  0.32275  0.32266  1.0000
  H   H6        1.0  0.34244  0.50650  0.28333  1.0000
  H   H7        1.0  0.16011  0.47624  0.34346  1.0000
  H   H8        1.0  0.17105  0.68319  0.38044  1.0000
  H   H9        1.0  0.31549  0.86118  0.29166  1.0000
  H   H10       1.0  0.52436  0.85227  0.40897  1.0000
  H   H11       1.0  0.55910  0.69862  0.30679  1.0000
  H   H12       1.0  0.50837  0.17344  0.29835  1.0000
  C   C19       1.0  0.48187  0.48370  0.76685  1.0000
  C   C20       1.0  0.52157  0.00479  0.78148  1.0000
  C   C21       1.0  0.00077  0.52153  0.79000  1.0000
  C   C22       1.0  0.51793  0.52053  0.78257  1.0000
  C   C23       1.0  0.48584  0.00431  0.77911  1.0000
  C   C24       1.0  0.00133  0.48584  0.78093  1.0000
  N   N13       1.0  0.33128  0.47636  0.74411  1.0000
  N   N14       1.0  0.52581  0.86114  0.81230  1.0000
  N   N15       1.0  0.14440  0.67393  0.79777  1.0000
  N   N16       1.0  0.66840  0.52809  0.83384  1.0000
  N   N17       1.0  0.48047  0.14865  0.77066  1.0000
  N   N18       1.0  0.85695  0.33364  0.76748  1.0000
  C   C25       1.0  0.29194  0.44441  0.69032  1.0000
  C   C26       1.0  0.52950  0.83643  0.69950  1.0000
  C   C27       1.0  0.15141  0.70333  0.72385  1.0000
  C   C28       1.0  0.69277  0.53286  0.73339  1.0000
  C   C29       1.0  0.44875  0.15154  0.71665  1.0000
  C   C30       1.0  0.83431  0.30415  0.64382  1.0000
  N   N19       1.0  0.47728  0.33237  0.73570  1.0000
  N   N20       1.0  0.66753  0.14353  0.71020  1.0000
  N   N21       1.0  0.85748  0.52805  0.80483  1.0000
  N   N22       1.0  0.52722  0.67169  0.77067  1.0000
  N   N23       1.0  0.33231  0.85842  0.74182  1.0000
  N   N24       1.0  0.14558  0.48191  0.75543  1.0000
  C   C31       1.0  0.48168  0.30784  0.62389  1.0000
  C   C32       1.0  0.67216  0.17897  0.67922  1.0000
  C   C33       1.0  0.81789  0.49539  0.78329  1.0000
  C   C34       1.0  0.49444  0.67646  0.75457  1.0000
  C   C35       1.0  0.31696  0.81725  0.67537  1.0000
  C   C36       1.0  0.16954  0.48638  0.65343  1.0000
  O   O13       1.0  0.28148  0.40810  0.64115  1.0000
  O   O14       1.0  0.53824  0.84553  0.58347  1.0000
  O   O15       1.0  0.12468  0.70524  0.65901  1.0000
  O   O16       1.0  0.68783  0.54155  0.61882  1.0000
  O   O17       1.0  0.41371  0.12215  0.68077  1.0000
  O   O18       1.0  0.84542  0.30390  0.52435  1.0000
  O   O19       1.0  0.48954  0.31599  0.50628  1.0000
  O   O20       1.0  0.64436  0.18485  0.65971  1.0000
  O   O21       1.0  0.80791  0.45896  0.76405  1.0000
  O   O22       1.0  0.45943  0.64862  0.74904  1.0000
  O   O23       1.0  0.33535  0.80406  0.60419  1.0000
  O   O24       1.0  0.16437  0.49544  0.54014  1.0000
  H   H13       1.0  0.69340  0.14560  0.74739  1.0000
  H   H14       1.0  0.84716  0.32794  0.86277  1.0000
  H   H15       1.0  0.86227  0.55677  0.84199  1.0000
  H   H16       1.0  0.67889  0.52828  0.93449  1.0000
  H   H17       1.0  0.47623  0.32454  0.83208  1.0000
  H   H18       1.0  0.33474  0.50386  0.79370  1.0000
  H   H19       1.0  0.15632  0.48186  0.85514  1.0000
  H   H20       1.0  0.16862  0.67951  0.86371  1.0000
  H   H21       1.0  0.31535  0.86383  0.80947  1.0000
  H   H22       1.0  0.52304  0.85282  0.90817  1.0000
  H   H23       1.0  0.55475  0.69799  0.80266  1.0000
  H   H24       1.0  0.50674  0.17575  0.81434  1.0000
  C  Sn1       1.0  0.38133  0.43772  0.19170  1.0000
  C   C37       1.0  0.37299  0.46742  0.25842  1.0000
  C  Sn2       1.0  0.40430  0.50794  0.32125  1.0000
  C  Sn3       1.0  0.44479  0.51902  0.31724  1.0000
  C   C38       1.0  0.45311  0.48933  0.25053  1.0000
  C  Sn4       1.0  0.42182  0.44880  0.18769  1.0000
  O  Te1       1.0  0.34956  0.39740  0.12957  1.0000
  O  Te2       1.0  0.39522  0.53709  0.38738  1.0000
  O  Te3       1.0  0.47657  0.55937  0.37944  1.0000
  O  Te4       1.0  0.43088  0.41967  0.12157  1.0000
  Mg  Mg1       1.0  0.44890  0.58803  0.45682  1.0000
  Mg  Mg2       1.0  0.37722  0.36872  0.05203  1.0000
  C  Sn5       1.0  0.56252  0.93686  0.24325  1.0000
  C   C39       1.0  0.54242  0.90896  0.32563  1.0000
  C  Sn6       1.0  0.51094  0.90872  0.38986  1.0000
  C  Sn7       1.0  0.49930  0.93694  0.37129  1.0000
  C   C40       1.0  0.51939  0.96481  0.28893  1.0000
  C  Sn8       1.0  0.55088  0.96508  0.22468  1.0000
  O  Te5       1.0  0.59391  0.93655  0.18003  1.0000
  O  Te6       1.0  0.49131  0.88055  0.47177  1.0000
  O  Te7       1.0  0.46789  0.93723  0.43460  1.0000
  O  Te8       1.0  0.57050  0.99323  0.14279  1.0000
  Mg  Mg3       1.0  0.45036  0.89293  0.53627  1.0000
  Mg  Mg4       1.0  0.61144  0.98086  0.07818  1.0000
  C  Sn9       1.0  0.06265  0.62083  0.23639  1.0000
  C   C41       1.0  0.10064  0.64120  0.32152  1.0000
  C  Sn10      1.0  0.11165  0.62005  0.39685  1.0000
  C  Sn11      1.0  0.08415  0.57765  0.38682  1.0000
  C   C42       1.0  0.04619  0.55731  0.30171  1.0000
  C  Sn12      1.0  0.03515  0.57844  0.22636  1.0000
  O  Te9       1.0  0.05228  0.64259  0.16201  1.0000
  O  Te10      1.0  0.14979  0.64107  0.48131  1.0000
  O  Te11      1.0  0.09455  0.55591  0.46129  1.0000
  O  Te12      1.0  0.99704  0.55744  0.14192  1.0000
  Mg  Mg5       1.0  0.14995  0.59805  0.56224  1.0000
  Mg  Mg6       1.0  0.99685  0.60042  0.06089  1.0000
  C  Sn13      1.0  0.60029  0.54477  0.19965  1.0000
  C   C43       1.0  0.56738  0.52185  0.26364  1.0000
  C  Sn14      1.0  0.57170  0.50480  0.37303  1.0000
  C  Sn15      1.0  0.60971  0.51080  0.41949  1.0000
  C   C44       1.0  0.64260  0.53371  0.35553  1.0000
  C  Sn16      1.0  0.63831  0.55077  0.24611  1.0000
  O  Te13      1.0  0.59528  0.56153  0.09048  1.0000
  O  Te14      1.0  0.53835  0.48200  0.43534  1.0000
  O  Te15      1.0  0.61470  0.49401  0.52875  1.0000
  O  Te16      1.0  0.67162  0.57356  0.18383  1.0000
  Mg  Mg7       1.0  0.56031  0.46536  0.58034  1.0000
  Mg  Mg8       1.0  0.64970  0.59023  0.03888  1.0000
  C  Sn17      1.0  0.50984  0.08768  0.40600  1.0000
  C   C45       1.0  0.48341  0.04645  0.33175  1.0000
  C  Sn18      1.0  0.45602  0.03639  0.21062  1.0000
  C  Sn19      1.0  0.45504  0.06821  0.16263  1.0000
  C   C46       1.0  0.48146  0.10941  0.23684  1.0000
  C  Sn20      1.0  0.50886  0.11950  0.35801  1.0000
  O  Te17      1.0  0.53697  0.09702  0.52682  1.0000
  O  Te18      1.0  0.93205  0.99494  0.13820  1.0000
  O  Te19      1.0  0.42788  0.05883  0.04171  1.0000
  O  Te20      1.0  0.53498  0.16092  0.43040  1.0000
  Mg  Mg9       1.0  0.94787  0.07088  0.97920  1.0000
  Mg  Mg10      1.0  0.56651  0.15809  0.58936  1.0000
  C  Sn21      1.0  0.94799  0.43064  0.42466  1.0000
  C   C47       1.0  0.97355  0.43900  0.32262  1.0000
  C  Sn22      1.0  0.96018  0.41310  0.18389  1.0000
  C  Sn23      1.0  0.92043  0.37812  0.14631  1.0000
  C   C48       1.0  0.89488  0.36978  0.24830  1.0000
  C  Sn24      1.0  0.90823  0.39566  0.38708  1.0000
  O  Te21      1.0  0.96199  0.45695  0.56271  1.0000
  O  Te22      1.0  0.98630  0.42208  0.08374  1.0000
  O  Te23      1.0  0.90644  0.35180  0.00813  1.0000
  O  Te24      1.0  0.88214  0.38670  0.48718  1.0000
  Mg  Mg11      1.0  0.00062  0.45009  0.90945  1.0000
  Mg  Mg12      1.0  0.91511  0.43175  0.66147  1.0000
  C  Sn25      1.0  0.46955  0.41437  0.36564  1.0000
  C   C49       1.0  0.49055  0.44419  0.29080  1.0000
  C  Sn26      1.0  0.50570  0.43488  0.16980  1.0000
  C  Sn27      1.0  0.49972  0.39493  0.12256  1.0000
  C   C50       1.0  0.47872  0.36514  0.19736  1.0000
  C  Sn28      1.0  0.46356  0.37442  0.31839  1.0000
  O  Te25      1.0  0.45466  0.42435  0.48631  1.0000
  O  Te26      1.0  0.52661  0.46520  0.09678  1.0000
  O  Te27      1.0  0.51463  0.38496  0.00178  1.0000
  O  Te28      1.0  0.44266  0.34412  0.39138  1.0000
  Mg  Mg13      1.0  0.58844  0.50979  0.93826  1.0000
  Mg  Mg14      1.0  0.42813  0.37256  0.54986  1.0000
  C  Sn29      1.0  0.60644  0.06604  0.37290  1.0000
  C   C51       1.0  0.56737  0.04931  0.30172  1.0000
  C  Sn30      1.0  0.56095  0.06142  0.18089  1.0000
  C  Sn31      1.0  0.59428  0.09086  0.13008  1.0000
  C   C52       1.0  0.63331  0.10757  0.20123  1.0000
  C  Sn32      1.0  0.63976  0.09548  0.32209  1.0000
  O  Te29      1.0  0.61214  0.05348  0.49349  1.0000
  O  Te30      1.0  0.52162  0.04427  0.11155  1.0000
  O  Te31      1.0  0.58854  0.10342  0.00939  1.0000
  O  Te32      1.0  0.67906  0.11261  0.39140  1.0000
  Mg  Mg15      1.0  0.57662  0.14429  0.95162  1.0000
  Mg  Mg16      1.0  0.67143  0.08567  0.55129  1.0000
  C  Sn33      1.0  0.94591  0.56492  0.34709  1.0000
  C   C53       1.0  0.90650  0.53441  0.28095  1.0000
  C  Sn34      1.0  0.89606  0.49352  0.22861  1.0000
  C  Sn35      1.0  0.92562  0.48289  0.24276  1.0000
  C   C54       1.0  0.96500  0.51338  0.30890  1.0000
  C  Sn36      1.0  0.97547  0.55429  0.36125  1.0000
  O  Te33      1.0  0.95567  0.60560  0.39863  1.0000
  O  Te34      1.0  0.85647  0.46356  0.16284  1.0000
  O  Te35      1.0  0.91583  0.44216  0.19115  1.0000
  O  Te36      1.0  0.01503  0.58423  0.42700  1.0000
  Mg  Mg17      1.0  0.85789  0.41239  0.10985  1.0000
  Mg  Mg18      1.0  0.01365  0.63541  0.48009  1.0000
  C  Sn37      1.0  0.54779  0.60385  0.42089  1.0000
  C   C55       1.0  0.52515  0.56556  0.32086  1.0000
  C  Sn38      1.0  0.50678  0.56232  0.18744  1.0000
  C  Sn39      1.0  0.51113  0.59809  0.15324  1.0000
  C   C56       1.0  0.53377  0.63636  0.25323  1.0000
  C  Sn40      1.0  0.55215  0.63963  0.38669  1.0000
  O  Te37      1.0  0.56590  0.60637  0.55362  1.0000
  O  Te38      1.0  0.48428  0.52370  0.08921  1.0000
  O  Te39      1.0  0.49300  0.59555  0.02039  1.0000
  O  Te40      1.0  0.57464  0.67822  0.48488  1.0000
  Mg  Mg19      1.0  0.51273  0.60915  0.92246  1.0000
  Mg  Mg20      1.0  0.59355  0.66588  0.65162  1.0000
  C  Sn41      1.0  0.41497  0.95547  0.38232  1.0000
  C   C57       1.0  0.44630  0.96082  0.30657  1.0000
  C  Sn42      1.0  0.43948  0.93110  0.18244  1.0000
  C  Sn43      1.0  0.40054  0.89529  0.13293  1.0000
  C   C58       1.0  0.36924  0.88995  0.20864  1.0000
  C  Sn44      1.0  0.37603  0.91965  0.33280  1.0000
  O  Te41      1.0  0.42247  0.98558  0.50614  1.0000
  O  Te42      1.0  0.47127  0.93714  0.10856  1.0000
  O  Te43      1.0  0.39306  0.86517  0.00900  1.0000
  O  Te44      1.0  0.34426  0.91364  0.40665  1.0000
  Mg  Mg21      1.0  0.49340  0.96043  0.94548  1.0000
  Mg  Mg22      1.0  0.36943  0.96341  0.56969  1.0000
  C  Sn45      1.0  0.07768  0.50142  0.14481  1.0000
  C   C59       1.0  0.04568  0.47919  0.21361  1.0000
  C  Sn46      1.0  0.04999  0.45927  0.31288  1.0000
  C  Sn47      1.0  0.08705  0.46163  0.34411  1.0000
  C   C60       1.0  0.11902  0.48386  0.27535  1.0000
  C  Sn48      1.0  0.11474  0.50379  0.17604  1.0000
  O  Te45      1.0  0.07270  0.52109  0.04595  1.0000
  O  Te46      1.0  0.01757  0.43721  0.38026  1.0000
  O  Te47      1.0  0.09201  0.44193  0.44306  1.0000
  O  Te48      1.0  0.14713  0.52583  0.10870  1.0000
  Mg  Mg23      1.0  0.03909  0.41569  0.50695  1.0000
  Mg  Mg24      1.0  0.17299  0.62046  0.98205  1.0000
  C  Sn49      1.0  0.21322  0.44852  0.26991  1.0000
  C   C61       1.0  0.21385  0.48073  0.22351  1.0000
  C  Sn50      1.0  0.24215  0.50173  0.14041  1.0000
  C  Sn51      1.0  0.27040  0.49029  0.10281  1.0000
  C   C62       1.0  0.26975  0.45810  0.14918  1.0000
  C  Sn52      1.0  0.24146  0.43708  0.23232  1.0000
  O  Te49      1.0  0.18466  0.42795  0.35289  1.0000
  O  Te50      1.0  0.24220  0.53384  0.09532  1.0000
  O  Te51      1.0  0.29897  0.51089  0.01977  1.0000
  O  Te52      1.0  0.24140  0.40499  0.27737  1.0000
  Mg  Mg25      1.0  0.33430  0.62560  0.98412  1.0000
  Mg  Mg26      1.0  0.19663  0.38626  0.38851  1.0000
  C  Sn53      1.0  0.47651  0.73587  0.28567  1.0000
  C   C63       1.0  0.49518  0.71512  0.22656  1.0000
  C  Sn54      1.0  0.53103  0.73605  0.17398  1.0000
  C  Sn55      1.0  0.54860  0.77862  0.18069  1.0000
  C   C64       1.0  0.52994  0.79934  0.23979  1.0000
  C  Sn56      1.0  0.49408  0.77843  0.29238  1.0000
  O  Te53      1.0  0.44068  0.71432  0.33759  1.0000
  O  Te54      1.0  0.54913  0.71464  0.11533  1.0000
  O  Te55      1.0  0.58446  0.80015  0.12869  1.0000
  O  Te56      1.0  0.47599  0.79982  0.35102  1.0000
  Mg  Mg27      1.0  0.59770  0.75749  0.05873  1.0000
  Mg  Mg28      1.0  0.42743  0.75701  0.40772  1.0000
  C  Sn57      1.0  0.23775  0.79432  0.18287  1.0000
  C   C65       1.0  0.27269  0.79382  0.21544  1.0000
  C  Sn58      1.0  0.27014  0.75788  0.23458  1.0000
  C  Sn59      1.0  0.23187  0.72168  0.22079  1.0000
  C   C66       1.0  0.19696  0.72219  0.18821  1.0000
  C  Sn60      1.0  0.19948  0.75812  0.16908  1.0000
  O  Te57      1.0  0.24101  0.83059  0.16418  1.0000
  O  Te58      1.0  0.30548  0.75814  0.26713  1.0000
  O  Te59      1.0  0.22863  0.68540  0.23951  1.0000
  O  Te60      1.0  0.16416  0.75787  0.13652  1.0000
  Mg  Mg29      1.0  0.28543  0.70112  0.28261  1.0000
  Mg  Mg30      1.0  0.18419  0.81487  0.12095  1.0000
  C  Sn61      1.0  0.74549  0.47956  0.29489  1.0000
  C   C67       1.0  0.78240  0.49831  0.24680  1.0000
  C  Sn62      1.0  0.79749  0.53644  0.21438  1.0000
  C  Sn63      1.0  0.77522  0.55626  0.23043  1.0000
  C   C68       1.0  0.73834  0.53751  0.27852  1.0000
  C  Sn64      1.0  0.72323  0.49937  0.31095  1.0000
  O  Te61      1.0  0.73100  0.44143  0.32668  1.0000
  O  Te62      1.0  0.83445  0.55458  0.16643  1.0000
  O  Te63      1.0  0.78975  0.59441  0.19859  1.0000
  O  Te64      1.0  0.68629  0.48124  0.35889  1.0000
  Mg  Mg31      1.0  0.84158  0.60675  0.13690  1.0000
  Mg  Mg32      1.0  0.67914  0.42909  0.38852  1.0000
  C  Sn65      1.0  0.50269  0.24311  0.07226  1.0000
  C   C69       1.0  0.47818  0.25959  0.09444  1.0000
  C  Sn66      1.0  0.44709  0.24344  0.17370  1.0000
  C  Sn67      1.0  0.44036  0.21014  0.23209  1.0000
  C   C70       1.0  0.46486  0.19369  0.20993  1.0000
  C  Sn68      1.0  0.49597  0.20982  0.13066  1.0000
  O  Te65      1.0  0.58094  0.33282  0.99269  1.0000
  O  Te66      1.0  0.42297  0.26041  0.19439  1.0000
  O  Te67      1.0  0.40942  0.19352  0.31171  1.0000
  O  Te68      1.0  0.52008  0.19286  0.10998  1.0000
  Mg  Mg33      1.0  0.38468  0.22716  0.31057  1.0000
  Mg  Mg34      1.0  0.60572  0.29918  0.99389  1.0000
  C  Sn69      1.0  0.76173  0.23040  0.04560  1.0000
  C   C71       1.0  0.78463  0.27141  0.12658  1.0000
  C  Sn70      1.0  0.77487  0.28367  0.25742  1.0000
  C  Sn71      1.0  0.74153  0.25431  0.30845  1.0000
  C   C72       1.0  0.71866  0.21333  0.22751  1.0000
  C  Sn72      1.0  0.72840  0.20105  0.09663  1.0000
  O  Te69      1.0  0.81937  0.29191  0.91510  1.0000
  O  Te70      1.0  0.79820  0.32484  0.33644  1.0000
  O  Te71      1.0  0.73124  0.26591  0.43906  1.0000
  O  Te72      1.0  0.70509  0.15990  0.01764  1.0000
  Mg  Mg35      1.0  0.77218  0.32557  0.50783  1.0000
  Mg  Mg36      1.0  0.77843  0.23220  0.84629  1.0000
  C  Sn73      1.0  0.41246  0.51792  0.82190  1.0000
  C   C73       1.0  0.37522  0.48594  0.74179  1.0000
  C  Sn74      1.0  0.36964  0.44749  0.67778  1.0000
  C  Sn75      1.0  0.40195  0.44085  0.69427  1.0000
  C   C74       1.0  0.43916  0.47281  0.77437  1.0000
  C  Sn76      1.0  0.44477  0.51128  0.83839  1.0000
  O  Te73      1.0  0.41736  0.55612  0.88495  1.0000
  O  Te74      1.0  0.33213  0.41600  0.59815  1.0000
  O  Te75      1.0  0.39702  0.40262  0.63114  1.0000
  O  Te76      1.0  0.48225  0.54276  0.91800  1.0000
  Mg  Mg37      1.0  0.34029  0.36938  0.53297  1.0000
  Mg  Mg38      1.0  0.47412  0.58938  0.98329  1.0000
  C  Sn77      1.0  0.54344  0.94608  0.68495  1.0000
  C   C75       1.0  0.52122  0.96080  0.75663  1.0000
  C  Sn78      1.0  0.50399  0.94610  0.87236  1.0000
  C  Sn79      1.0  0.50908  0.91608  0.91745  1.0000
  C   C76       1.0  0.53128  0.90139  0.84581  1.0000
  C  Sn80      1.0  0.54852  0.91607  0.73005  1.0000
  O  Te77      1.0  0.56040  0.96122  0.56953  1.0000
  O  Te78      1.0  0.48190  0.96127  0.94230  1.0000
  O  Te79      1.0  0.44476  0.82788  0.03297  1.0000
  O  Te80      1.0  0.57061  0.90092  0.66014  1.0000
  Mg  Mg39      1.0  0.41731  0.85806  0.09388  1.0000
  Mg  Mg40      1.0  0.58790  0.93105  0.50861  1.0000
  C  Sn81      1.0  0.05937  0.62491  0.74990  1.0000
  C   C77       1.0  0.09847  0.64162  0.82066  1.0000
  C  Sn82      1.0  0.10900  0.61687  0.87549  1.0000
  C  Sn83      1.0  0.07985  0.57454  0.85919  1.0000
  C   C78       1.0  0.04078  0.55785  0.78845  1.0000
  C  Sn84      1.0  0.03022  0.58257  0.73360  1.0000
  O  Te81      1.0  0.04950  0.65022  0.69593  1.0000
  O  Te82      1.0  0.14828  0.63428  0.94586  1.0000
  O  Te83      1.0  0.08975  0.54923  0.91324  1.0000
  O  Te84      1.0  0.99097  0.56519  0.66325  1.0000
  Mg  Mg41      1.0  0.09983  0.51414  0.00073  1.0000
  Mg  Mg42      1.0  0.99206  0.61222  0.60828  1.0000
  C  Sn85      1.0  0.59157  0.53927  0.68926  1.0000
  C   C79       1.0  0.55969  0.51940  0.76191  1.0000
  C  Sn86      1.0  0.56544  0.50655  0.88171  1.0000
  C  Sn87      1.0  0.60385  0.51372  0.92996  1.0000
  C   C80       1.0  0.63570  0.53358  0.85734  1.0000
  C  Sn88      1.0  0.62999  0.54644  0.73751  1.0000
  O  Te85      1.0  0.58515  0.55186  0.56975  1.0000
  O  Te86      1.0  0.53310  0.48674  0.95255  1.0000
  O  Te87      1.0  0.56293  0.42804  0.04957  1.0000
  O  Te88      1.0  0.66229  0.56625  0.66670  1.0000
  Mg  Mg43      1.0  0.50953  0.40231  0.11016  1.0000
  Mg  Mg44      1.0  0.63858  0.57763  0.50914  1.0000
  C  Sn89      1.0  0.95663  0.04603  0.66452  1.0000
  C   C81       1.0  0.98559  0.04377  0.74584  1.0000
  C  Sn90      1.0  0.51020  0.07675  0.86104  1.0000
  C  Sn91      1.0  0.50795  0.11274  0.89575  1.0000
  C   C82       1.0  0.47900  0.11499  0.81447  1.0000
  C  Sn92      1.0  0.45223  0.08202  0.69923  1.0000
  O  Te89      1.0  0.93018  0.01269  0.54983  1.0000
  O  Te90      1.0  0.53890  0.07378  0.94074  1.0000
  O  Te91      1.0  0.48711  0.07302  0.01055  1.0000
  O  Te92      1.0  0.42354  0.08498  0.61958  1.0000
  Mg  Mg45      1.0  0.52092  0.05426  0.08705  1.0000
  Mg  Mg46      1.0  0.89632  0.03143  0.47329  1.0000
  C  Sn93      1.0  0.93672  0.37599  0.71589  1.0000
  C   C83       1.0  0.90526  0.36896  0.79277  1.0000
  C  Sn94      1.0  0.90187  0.40187  0.86381  1.0000
  C  Sn95      1.0  0.93051  0.44266  0.85783  1.0000
  C   C84       1.0  0.96194  0.44967  0.78098  1.0000
  C  Sn96      1.0  0.96536  0.41678  0.70991  1.0000
  O  Te93      1.0  0.93951  0.34262  0.64568  1.0000
  O  Te94      1.0  0.87016  0.39408  0.94002  1.0000
  O  Te95      1.0  0.92769  0.47604  0.92814  1.0000
  O  Te96      1.0  0.99704  0.42456  0.63373  1.0000
  Mg  Mg47      1.0  0.83183  0.37664  0.01791  1.0000
  Mg  Mg48      1.0  0.98806  0.36894  0.55574  1.0000
  C  Sn97      1.0  0.49489  0.41998  0.62268  1.0000
  C   C85       1.0  0.47544  0.43587  0.70742  1.0000
  C  Sn98      1.0  0.45901  0.41972  0.82194  1.0000
  C  Sn99      1.0  0.46212  0.38701  0.85247  1.0000
  C   C86       1.0  0.48156  0.37114  0.76778  1.0000
  C  Sn100     1.0  0.49799  0.38728  0.65322  1.0000
  O  Te97      1.0  0.51108  0.43661  0.50874  1.0000
  O  Te98      1.0  0.43970  0.43610  0.90511  1.0000
  O  Te99      1.0  0.44590  0.37039  0.96652  1.0000
  O  Te100     1.0  0.51730  0.37092  0.57010  1.0000
  Mg  Mg49      1.0  0.37514  0.33003  0.04878  1.0000
  Mg  Mg50      1.0  0.53456  0.40390  0.42645  1.0000
  C  Sn101     1.0  0.62790  0.07219  0.80401  1.0000
  C   C87       1.0  0.63263  0.09800  0.71432  1.0000
  C  Sn102     1.0  0.59934  0.09758  0.65274  1.0000
  C  Sn103     1.0  0.56052  0.07083  0.68147  1.0000
  C   C88       1.0  0.05797  0.04505  0.77112  1.0000
  C  Sn104     1.0  0.09124  0.04544  0.83274  1.0000
  O  Te101     1.0  0.66160  0.07312  0.86442  1.0000
  O  Te102     1.0  0.60482  0.12365  0.56339  1.0000
  O  Te103     1.0  0.52681  0.06991  0.62096  1.0000
  O  Te104     1.0  0.08578  0.01939  0.92206  1.0000
  Mg  Mg51      1.0  0.54964  0.11118  0.50645  1.0000
  Mg  Mg52      1.0  0.14094  0.03185  0.97911  1.0000
  C  Sn105     1.0  0.95456  0.55170  0.92196  1.0000
  C   C89       1.0  0.96005  0.52283  0.83016  1.0000
  C  Sn106     1.0  0.93130  0.49550  0.70864  1.0000
  C  Sn107     1.0  0.89634  0.49707  0.67819  1.0000
  C   C90       1.0  0.89085  0.52593  0.76994  1.0000
  C  Sn108     1.0  0.91959  0.55327  0.89150  1.0000
  O  Te105     1.0  0.93636  0.50565  0.04282  1.0000
  O  Te106     1.0  0.93746  0.46690  0.61849  1.0000
  O  Te107     1.0  0.86719  0.47001  0.55721  1.0000
  O  Te108     1.0  0.91345  0.58186  0.98161  1.0000
  Mg  Mg53      1.0  0.88915  0.43660  0.46692  1.0000
  Mg  Mg54      1.0  0.91441  0.53911  0.13316  1.0000
  C  Sn109     1.0  0.49884  0.56879  0.64416  1.0000
  C   C91       1.0  0.52285  0.56264  0.73567  1.0000
  C  Sn110     1.0  0.54706  0.59309  0.86054  1.0000
  C  Sn111     1.0  0.54726  0.63046  0.89472  1.0000
  C   C92       1.0  0.52325  0.63660  0.80325  1.0000
  C  Sn112     1.0  0.49904  0.60616  0.67833  1.0000
  O  Te109     1.0  0.47487  0.53793  0.51990  1.0000
  O  Te110     1.0  0.57082  0.58624  0.95034  1.0000
  O  Te111     1.0  0.52392  0.58826  0.01909  1.0000
  O  Te112     1.0  0.47529  0.61300  0.58858  1.0000
  Mg  Mg55      1.0  0.55103  0.56447  0.10739  1.0000
  Mg  Mg56      1.0  0.44772  0.56170  0.43156  1.0000
  C  Sn113     1.0  0.41428  0.95757  0.88466  1.0000
  C   C93       1.0  0.44435  0.96265  0.80254  1.0000
  C  Sn114     1.0  0.43609  0.93266  0.67720  1.0000
  C  Sn115     1.0  0.39696  0.89686  0.63295  1.0000
  C   C94       1.0  0.36691  0.89181  0.71502  1.0000
  C  Sn116     1.0  0.37514  0.92178  0.84041  1.0000
  O  Te113     1.0  0.37587  0.91488  0.00959  1.0000
  O  Te114     1.0  0.46665  0.93841  0.59691  1.0000
  O  Te115     1.0  0.38805  0.86648  0.50791  1.0000
  O  Te116     1.0  0.34461  0.91605  0.92066  1.0000
  Mg  Mg57      1.0  0.43973  0.88833  0.43480  1.0000
  Mg  Mg58      1.0  0.32416  0.89304  0.08274  1.0000
  C  Sn117     1.0  0.09856  0.51432  0.68673  1.0000
  C   C95       1.0  0.11279  0.49540  0.76143  1.0000
  C  Sn118     1.0  0.08721  0.46595  0.83052  1.0000
  C  Sn119     1.0  0.04655  0.45516  0.82475  1.0000
  C   C96       1.0  0.03234  0.47407  0.75007  1.0000
  C  Sn120     1.0  0.05790  0.50353  0.68097  1.0000
  O  Te117     1.0  0.12467  0.54367  0.61845  1.0000
  O  Te118     1.0  0.10213  0.44746  0.90457  1.0000
  O  Te119     1.0  0.02044  0.42578  0.89312  1.0000
  O  Te120     1.0  0.04300  0.52200  0.60693  1.0000
  Mg  Mg59      1.0  0.05485  0.40919  0.98032  1.0000
  Mg  Mg60      1.0  0.09024  0.56025  0.53108  1.0000
  C  Sn121     1.0  0.21389  0.42894  0.72138  1.0000
  C   C97       1.0  0.24999  0.44619  0.66744  1.0000
  C  Sn122     1.0  0.26501  0.48360  0.62962  1.0000
  C  Sn123     1.0  0.24350  0.50423  0.64613  1.0000
  C   C98       1.0  0.20743  0.48698  0.70005  1.0000
  C  Sn124     1.0  0.19238  0.44956  0.73789  1.0000
  O  Te121     1.0  0.19944  0.39151  0.75851  1.0000
  O  Te122     1.0  0.30116  0.50023  0.57588  1.0000
  O  Te123     1.0  0.25798  0.54169  0.60894  1.0000
  O  Te124     1.0  0.15626  0.43294  0.79162  1.0000
  Mg  Mg61      1.0  0.30855  0.55195  0.54042  1.0000
  Mg  Mg62      1.0  0.14885  0.38124  0.82718  1.0000
  C  Sn125     1.0  0.54797  0.75571  0.69961  1.0000
  C   C99       1.0  0.51895  0.72861  0.76770  1.0000
  C  Sn126     1.0  0.48703  0.73337  0.80338  1.0000
  C  Sn127     1.0  0.48403  0.76588  0.77025  1.0000
  C   C100      1.0  0.51304  0.79295  0.70218  1.0000
  C  Sn128     1.0  0.54498  0.78822  0.66648  1.0000
  O  Te125     1.0  0.57962  0.75037  0.66492  1.0000
  O  Te126     1.0  0.45839  0.70590  0.87146  1.0000
  O  Te127     1.0  0.45235  0.77120  0.80501  1.0000
  O  Te128     1.0  0.57360  0.81566  0.59842  1.0000
  Mg  Mg63      1.0  0.42082  0.72587  0.89704  1.0000
  Mg  Mg64      1.0  0.61117  0.79571  0.57273  1.0000
  C  Sn129     1.0  0.25368  0.73737  0.67673  1.0000
  C   C101      1.0  0.26937  0.77709  0.65757  1.0000
  C  Sn130     1.0  0.24807  0.79710  0.68350  1.0000
  C  Sn131     1.0  0.21031  0.77699  0.72963  1.0000
  C   C102      1.0  0.19465  0.73729  0.74879  1.0000
  C  Sn132     1.0  0.21592  0.71726  0.72286  1.0000
  O  Te129     1.0  0.27550  0.71795  0.65018  1.0000
  O  Te130     1.0  0.26437  0.83681  0.66355  1.0000
  O  Te131     1.0  0.18850  0.79644  0.75617  1.0000
  O  Te132     1.0  0.19965  0.67758  0.74281  1.0000
  Mg  Mg65      1.0  0.22327  0.85049  0.71371  1.0000
  Mg  Mg66      1.0  0.24073  0.66388  0.69275  1.0000
  C  Sn133     1.0  0.73222  0.49933  0.87536  1.0000
  C   C103      1.0  0.73104  0.52853  0.81386  1.0000
  C  Sn134     1.0  0.75744  0.54604  0.72034  1.0000
  C  Sn135     1.0  0.78560  0.53409  0.68752  1.0000
  C   C104      1.0  0.78676  0.50490  0.74898  1.0000
  C  Sn136     1.0  0.76038  0.48738  0.84254  1.0000
  O  Te133     1.0  0.70555  0.48224  0.96856  1.0000
  O  Te134     1.0  0.75570  0.57518  0.66022  1.0000
  O  Te135     1.0  0.81228  0.55122  0.59424  1.0000
  O  Te136     1.0  0.76210  0.45825  0.90262  1.0000
  Mg  Mg67      1.0  0.79828  0.58967  0.53934  1.0000
  Mg  Mg68      1.0  0.67220  0.37066  0.02345  1.0000
  C  Sn137     1.0  0.44196  0.24073  0.75638  1.0000
  C   C105      1.0  0.47477  0.26956  0.70570  1.0000
  C  Sn138     1.0  0.49977  0.25851  0.63635  1.0000
  C  Sn139     1.0  0.49180  0.21778  0.61719  1.0000
  C   C106      1.0  0.45901  0.18897  0.66783  1.0000
  C  Sn140     1.0  0.43399  0.20000  0.73722  1.0000
  O  Te137     1.0  0.41736  0.25246  0.82538  1.0000
  O  Te138     1.0  0.53240  0.28788  0.58665  1.0000
  O  Te139     1.0  0.51644  0.20607  0.54812  1.0000
  O  Te140     1.0  0.40137  0.17066  0.78688  1.0000
  Mg  Mg69      1.0  0.55719  0.25706  0.49933  1.0000
  Mg  Mg70      1.0  0.37656  0.20143  0.87415  1.0000
  C  Sn141     1.0  0.75240  0.20251  0.62231  1.0000
  C   C107      1.0  0.72428  0.20697  0.69609  1.0000
  C  Sn142     1.0  0.72899  0.24579  0.74272  1.0000
  C  Sn143     1.0  0.76249  0.28090  0.71496  1.0000
  C   C108      1.0  0.79059  0.27643  0.64121  1.0000
  C  Sn144     1.0  0.78590  0.23761  0.59455  1.0000
  O  Te141     1.0  0.74709  0.16340  0.57668  1.0000
  O  Te142     1.0  0.70049  0.24948  0.81632  1.0000
  O  Te143     1.0  0.76779  0.32003  0.76067  1.0000
  O  Te144     1.0  0.81438  0.23392  0.52098  1.0000
  Mg  Mg71      1.0  0.72085  0.30928  0.85673  1.0000
  Mg  Mg72      1.0  0.79403  0.17413  0.48046  1.0000
