data_image0
_chemical_formula_structural       C6NHNHNHNHNHNHO6C12H6C6NHNHNHNHNHNHO6C12H6SnCSn2CSnTe4Mg2SnCSn2CSnTe4Mg2SnCSn2CSnTe4Mg2SnCSn2CSnTe4Mg2SnCSn2CSnTe4Mg2SnCSn2CSnTe4Mg2SnCSn2CSnTe4Mg2SnCSn2CSnTe4Mg2SnCSn2CSnTe4Mg2SnCSn2CSnTe4Mg2SnCSn2CSnTe4Mg2SnCSn2CSnTe4Mg2SnCSn2CSnTe4Mg2SnCSn2CSnTe4Mg2SnCSn2CSnTe4Mg2SnCSn2CSnTe4Mg2SnCSn2CSnTe4Mg2SnCSn2CSnTe4Mg2
_chemical_formula_sum              "C72 N12 H24 O12 Sn72 Te72 Mg36"
_cell_length_a       37.3788
_cell_length_b       37.4259
_cell_length_c       8.47027
_cell_angle_alpha    121.68
_cell_angle_beta     85.2412
_cell_angle_gamma    119.968

_symmetry_space_group_name_H-M    'P1'
_space_group_IT_number       1

loop_
  _space_group_symop_operation_xyz
  'x, y, z'

loop_
  _atom_site_type_symbol
  _atom_site_label
  _atom_site_symmetry_multiplicity
  _atom_site_fract_x
  _atom_site_fract_y
  _atom_site_fract_z
  _atom_site_occupancy
  C   C1        1.0  0.88663  0.47430  0.23836  1.0000
  C   C2        1.0  0.52323  0.40827  0.25970  1.0000
  C   C3        1.0  0.58975  0.11030  0.23685  1.0000
  C   C4        1.0  0.11596  0.53358  0.28805  1.0000
  C   C5        1.0  0.47559  0.58581  0.25525  1.0000
  C   C6        1.0  0.41368  0.88341  0.23436  1.0000
  N   N1        1.0  0.91548  0.46558  0.27731  1.0000
  H   H1        1.0  0.90677  0.44859  0.34835  1.0000
  N   N2        1.0  0.53804  0.44796  0.24419  1.0000
  H   H2        1.0  0.56666  0.46009  0.21078  1.0000
  N   N3        1.0  0.54810  0.08549  0.24696  1.0000
  H   H3        1.0  0.52926  0.09554  0.22520  1.0000
  N   N4        1.0  0.08735  0.54167  0.24200  1.0000
  H   H4        1.0  0.09746  0.56233  0.18581  1.0000
  N   N5        1.0  0.45957  0.54420  0.25939  1.0000
  H   H5        1.0  0.42856  0.52745  0.26353  1.0000
  N   N6        1.0  0.45643  0.91184  0.24686  1.0000
  H   H6        1.0  0.47568  0.90368  0.27952  1.0000
  O   O1        1.0  0.89559  0.50305  0.18883  1.0000
  O   O2        1.0  0.48686  0.38492  0.27470  1.0000
  O   O3        1.0  0.61444  0.09665  0.22685  1.0000
  O   O4        1.0  0.10627  0.50652  0.34688  1.0000
  O   O5        1.0  0.51272  0.61037  0.25064  1.0000
  O   O6        1.0  0.38753  0.89309  0.21876  1.0000
  C   C7        1.0  0.35079  0.70699  0.24115  1.0000
  C   C8        1.0  0.29062  0.63606  0.23592  1.0000
  C   C9        1.0  0.36015  0.64520  0.22873  1.0000
  C   C10       1.0  0.37647  0.68940  0.23875  1.0000
  C   C11       1.0  0.30824  0.68032  0.24503  1.0000
  C   C12       1.0  0.31674  0.61811  0.22136  1.0000
  C   C13       1.0  0.65321  0.29230  0.27526  1.0000
  C   C14       1.0  0.71141  0.36145  0.26502  1.0000
  C   C15       1.0  0.63986  0.34746  0.25277  1.0000
  C   C16       1.0  0.62585  0.30694  0.26634  1.0000
  C   C17       1.0  0.69626  0.32131  0.28285  1.0000
  C   C18       1.0  0.68243  0.37329  0.24673  1.0000
  H   H7        1.0  0.28814  0.69438  0.25787  1.0000
  H   H8        1.0  0.30317  0.58275  0.20533  1.0000
  H   H9        1.0  0.41021  0.71095  0.24900  1.0000
  H   H10       1.0  0.71830  0.31255  0.30458  1.0000
  H   H11       1.0  0.69269  0.40176  0.21891  1.0000
  H   H12       1.0  0.59282  0.28571  0.26678  1.0000
  C   C19       1.0  0.88426  0.46917  0.72818  1.0000
  C   C20       1.0  0.52416  0.41360  0.74760  1.0000
  C   C21       1.0  0.58454  0.11236  0.74177  1.0000
  C   C22       1.0  0.11329  0.52662  0.76630  1.0000
  C   C23       1.0  0.47708  0.59153  0.74229  1.0000
  C   C24       1.0  0.40742  0.88564  0.73802  1.0000
  N   N7        1.0  0.91301  0.46104  0.77258  1.0000
  H   H13       1.0  0.90387  0.44314  0.83993  1.0000
  N   N8        1.0  0.54033  0.45532  0.74407  1.0000
  H   H14       1.0  0.57149  0.47240  0.74231  1.0000
  N   N9        1.0  0.54236  0.08678  0.74423  1.0000
  H   H15       1.0  0.52375  0.09668  0.71929  1.0000
  N   N10       1.0  0.08558  0.53907  0.74658  1.0000
  H   H16       1.0  0.09516  0.55938  0.68889  1.0000
  N   N11       1.0  0.46207  0.55174  0.75751  1.0000
  H   H17       1.0  0.43353  0.53993  0.79184  1.0000
  N   N12       1.0  0.45014  0.91396  0.74942  1.0000
  H   H18       1.0  0.46942  0.90638  0.78610  1.0000
  O   O7        1.0  0.89345  0.49599  0.66861  1.0000
  O   O8        1.0  0.48712  0.38945  0.75407  1.0000
  O   O9        1.0  0.60936  0.09931  0.73755  1.0000
  O   O10       1.0  0.10337  0.49435  0.79718  1.0000
  O   O11       1.0  0.51365  0.61529  0.73021  1.0000
  O   O12       1.0  0.38123  0.89557  0.72539  1.0000
  C   C25       1.0  0.34696  0.70822  0.73394  1.0000
  C   C26       1.0  0.28981  0.64100  0.75851  1.0000
  C   C27       1.0  0.36048  0.65299  0.75634  1.0000
  C   C28       1.0  0.37402  0.69276  0.73821  1.0000
  C   C29       1.0  0.30447  0.68041  0.73669  1.0000
  C   C30       1.0  0.31859  0.62850  0.77246  1.0000
  C   C31       1.0  0.64944  0.29322  0.76967  1.0000
  C   C32       1.0  0.70989  0.36535  0.78372  1.0000
  C   C33       1.0  0.63899  0.35328  0.77376  1.0000
  C   C34       1.0  0.62292  0.30907  0.76348  1.0000
  C   C35       1.0  0.69261  0.32158  0.77819  1.0000
  C   C36       1.0  0.68269  0.38140  0.78810  1.0000
  H   H19       1.0  0.28195  0.68891  0.71798  1.0000
  H   H20       1.0  0.30884  0.60081  0.80441  1.0000
  H   H21       1.0  0.40642  0.71202  0.72690  1.0000
  H   H22       1.0  0.71303  0.30907  0.78142  1.0000
  H   H23       1.0  0.69545  0.41622  0.80082  1.0000
  H   H24       1.0  0.58892  0.28563  0.74345  1.0000
  C  Sn1       1.0  0.01881  0.55226  0.30192  1.0000
  C   C37       1.0  0.04360  0.53421  0.30365  1.0000
  C  Sn2       1.0  0.02441  0.48704  0.26992  1.0000
  C  Sn3       1.0  0.97949  0.45728  0.23357  1.0000
  C   C38       1.0  0.95472  0.47532  0.23183  1.0000
  C  Sn4       1.0  0.97390  0.52249  0.26558  1.0000
  O  Te1       1.0  0.03868  0.59952  0.33600  1.0000
  O  Te2       1.0  0.04986  0.46981  0.27244  1.0000
  O  Te3       1.0  0.95963  0.40999  0.19948  1.0000
  O  Te4       1.0  0.94847  0.53972  0.26304  1.0000
  Mg  Mg1       1.0  0.00792  0.40293  0.21778  1.0000
  Mg  Mg2       1.0  0.99037  0.60658  0.31757  1.0000
  C  Sn5       1.0  0.54319  0.52894  0.29468  1.0000
  C   C39       1.0  0.52447  0.48644  0.29802  1.0000
  C  Sn6       1.0  0.48028  0.45690  0.26283  1.0000
  C  Sn7       1.0  0.45423  0.47010  0.22335  1.0000
  C   C40       1.0  0.47295  0.51258  0.21999  1.0000
  C  Sn8       1.0  0.51714  0.54214  0.25520  1.0000
  O  Te5       1.0  0.58744  0.55792  0.33026  1.0000
  O  Te6       1.0  0.46230  0.41459  0.26702  1.0000
  O  Te7       1.0  0.40995  0.44108  0.18776  1.0000
  O  Te8       1.0  0.53512  0.58442  0.25099  1.0000
  Mg  Mg3       1.0  0.40047  0.38699  0.20930  1.0000
  Mg  Mg4       1.0  0.59694  0.61204  0.30858  1.0000
  C  Sn9       1.0  0.04297  0.00475  0.21980  1.0000
  C   C41       1.0  0.52818  0.03021  0.19899  1.0000
  C  Sn10      1.0  0.98767  0.02084  0.21980  1.0000
  C  Sn11      1.0  0.96110  0.98529  0.26241  1.0000
  C   C42       1.0  0.97575  0.95985  0.28323  1.0000
  C  Sn12      1.0  0.01640  0.96920  0.26242  1.0000
  O  Te9       1.0  0.08372  0.01472  0.19840  1.0000
  O  Te10      1.0  0.47358  0.04676  0.19827  1.0000
  O  Te11      1.0  0.92032  0.97533  0.28381  1.0000
  O  Te12      1.0  0.03035  0.94331  0.28396  1.0000
  Mg  Mg5       1.0  0.91568  0.02018  0.24107  1.0000
  Mg  Mg6       1.0  0.08839  0.96987  0.24129  1.0000
  C  Sn13      1.0  0.20194  0.56667  0.36800  1.0000
  C   C43       1.0  0.16853  0.56920  0.32249  1.0000
  C  Sn14      1.0  0.17238  0.58969  0.21905  1.0000
  C  Sn15      1.0  0.21040  0.60801  0.15973  1.0000
  C   C44       1.0  0.24377  0.60546  0.20520  1.0000
  C  Sn16      1.0  0.23995  0.58498  0.30868  1.0000
  O  Te13      1.0  0.19739  0.54603  0.47153  1.0000
  O  Te14      1.0  0.13856  0.59184  0.17531  1.0000
  O  Te15      1.0  0.21492  0.62866  0.05612  1.0000
  O  Te16      1.0  0.27374  0.58282  0.35239  1.0000
  Mg  Mg7       1.0  0.15997  0.62329  0.03126  1.0000
  Mg  Mg8       1.0  0.25236  0.55136  0.49634  1.0000
  C  Sn17      1.0  0.45726  0.64937  0.24607  1.0000
  C   C45       1.0  0.45106  0.61748  0.29931  1.0000
  C  Sn18      1.0  0.41043  0.58577  0.30354  1.0000
  C  Sn19      1.0  0.37525  0.58591  0.25340  1.0000
  C   C46       1.0  0.38145  0.61778  0.20017  1.0000
  C  Sn20      1.0  0.42207  0.64951  0.19593  1.0000
  O  Te17      1.0  0.49815  0.68075  0.24283  1.0000
  O  Te18      1.0  0.40504  0.55424  0.35730  1.0000
  O  Te19      1.0  0.33433  0.55449  0.25668  1.0000
  O  Te20      1.0  0.42748  0.68102  0.14217  1.0000
  Mg  Mg9       1.0  0.34315  0.51831  0.33954  1.0000
  Mg  Mg10      1.0  0.48934  0.71695  0.15979  1.0000
  C  Sn21      1.0  0.42008  0.79494  0.27643  1.0000
  C   C47       1.0  0.37965  0.76595  0.29148  1.0000
  C  Sn22      1.0  0.34634  0.77067  0.26339  1.0000
  C  Sn23      1.0  0.35359  0.80507  0.21921  1.0000
  C   C48       1.0  0.39400  0.83403  0.20414  1.0000
  C  Sn24      1.0  0.42733  0.82934  0.23225  1.0000
  O  Te21      1.0  0.45291  0.78959  0.30508  1.0000
  O  Te22      1.0  0.30619  0.74129  0.27925  1.0000
  O  Te23      1.0  0.32072  0.81040  0.19056  1.0000
  O  Te24      1.0  0.46746  0.85869  0.21637  1.0000
  Mg  Mg11      1.0  0.27165  0.76207  0.22748  1.0000
  Mg  Mg12      1.0  0.50202  0.83792  0.26801  1.0000
  C  Sn25      1.0  0.77825  0.43617  0.22299  1.0000
  C   C49       1.0  0.75683  0.39176  0.21367  1.0000
  C  Sn26      1.0  0.77946  0.37359  0.23607  1.0000
  C  Sn27      1.0  0.82445  0.40038  0.26860  1.0000
  C   C50       1.0  0.84586  0.44477  0.27794  1.0000
  C  Sn28      1.0  0.82324  0.46296  0.25552  1.0000
  O  Te25      1.0  0.75498  0.45364  0.20020  1.0000
  O  Te26      1.0  0.75734  0.32909  0.22611  1.0000
  O  Te27      1.0  0.84772  0.38287  0.29139  1.0000
  O  Te28      1.0  0.84534  0.50743  0.26550  1.0000
  Mg  Mg13      1.0  0.80321  0.32051  0.26620  1.0000
  Mg  Mg14      1.0  0.79951  0.51607  0.22553  1.0000
  C  Sn29      1.0  0.54312  0.34502  0.26196  1.0000
  C   C51       1.0  0.55390  0.39111  0.30356  1.0000
  C  Sn30      1.0  0.59413  0.42322  0.29788  1.0000
  C  Sn31      1.0  0.62422  0.40895  0.24949  1.0000
  C   C52       1.0  0.61343  0.36288  0.20788  1.0000
  C  Sn32      1.0  0.57320  0.33075  0.21356  1.0000
  O  Te29      1.0  0.50271  0.31352  0.26851  1.0000
  O  Te30      1.0  0.60418  0.46912  0.34009  1.0000
  O  Te31      1.0  0.66465  0.44050  0.24297  1.0000
  O  Te32      1.0  0.56315  0.28488  0.17135  1.0000
  Mg  Mg15      1.0  0.66332  0.49913  0.31186  1.0000
  Mg  Mg16      1.0  0.50401  0.25482  0.19944  1.0000
  C  Sn33      1.0  0.59923  0.22411  0.37490  1.0000
  C   C53       1.0  0.63530  0.24803  0.32074  1.0000
  C  Sn34      1.0  0.65478  0.22310  0.20646  1.0000
  C  Sn35      1.0  0.63784  0.17319  0.14493  1.0000
  C   C54       1.0  0.60178  0.14929  0.19906  1.0000
  C  Sn36      1.0  0.58228  0.17420  0.31337  1.0000
  O  Te33      1.0  0.58027  0.24975  0.48920  1.0000
  O  Te34      1.0  0.69082  0.24780  0.15420  1.0000
  O  Te35      1.0  0.65683  0.14755  0.03055  1.0000
  O  Te36      1.0  0.54626  0.14952  0.36560  1.0000
  Mg  Mg17      1.0  0.75948  0.34299  0.99687  1.0000
  Mg  Mg18      1.0  0.53173  0.20016  0.52283  1.0000
  C  Sn37      1.0  0.00630  0.46114  0.70779  1.0000
  C   C55       1.0  0.03459  0.50271  0.70325  1.0000
  C  Sn38      1.0  0.02468  0.53784  0.74747  1.0000
  C  Sn39      1.0  0.98570  0.53129  0.79738  1.0000
  C   C56       1.0  0.95744  0.48974  0.80193  1.0000
  C  Sn40      1.0  0.96732  0.45459  0.75770  1.0000
  O  Te37      1.0  0.01686  0.42650  0.66308  1.0000
  O  Te38      1.0  0.05346  0.57909  0.74189  1.0000
  O  Te39      1.0  0.97516  0.56597  0.84210  1.0000
  O  Te40      1.0  0.93857  0.41336  0.76330  1.0000
  Mg  Mg19      1.0  0.02474  0.61601  0.81451  1.0000
  Mg  Mg20      1.0  0.96726  0.37643  0.69080  1.0000
  C  Sn41      1.0  0.46658  0.45561  0.70396  1.0000
  C   C57       1.0  0.50816  0.46719  0.69457  1.0000
  C  Sn42      1.0  0.53971  0.51374  0.73252  1.0000
  C  Sn43      1.0  0.52948  0.54948  0.78099  1.0000
  C   C58       1.0  0.48792  0.53790  0.79040  1.0000
  C  Sn44      1.0  0.45635  0.49135  0.75243  1.0000
  O  Te41      1.0  0.43555  0.40884  0.66547  1.0000
  O  Te42      1.0  0.58105  0.52445  0.72217  1.0000
  O  Te43      1.0  0.56056  0.59627  0.81949  1.0000
  O  Te44      1.0  0.41503  0.48064  0.76280  1.0000
  Mg  Mg21      1.0  0.61226  0.59331  0.78705  1.0000
  Mg  Mg22      1.0  0.38380  0.41181  0.69805  1.0000
  C  Sn45      1.0  0.96937  0.01843  0.76884  1.0000
  C   C59       1.0  0.01334  0.04658  0.79288  1.0000
  C  Sn46      1.0  0.03819  0.02745  0.77961  1.0000
  C  Sn47      1.0  0.01869  0.97915  0.74138  1.0000
  C   C60       1.0  0.97474  0.95102  0.71733  1.0000
  C  Sn48      1.0  0.94987  0.97014  0.73061  1.0000
  O  Te45      1.0  0.94515  0.03831  0.78270  1.0000
  O  Te46      1.0  0.08210  0.05630  0.80424  1.0000
  O  Te47      1.0  0.04295  0.95929  0.72753  1.0000
  O  Te48      1.0  0.90599  0.94131  0.70597  1.0000
  Mg  Mg23      1.0  0.10154  0.01291  0.77196  1.0000
  Mg  Mg24      1.0  0.88651  0.98465  0.73812  1.0000
  C  Sn49      1.0  0.19649  0.54612  0.77313  1.0000
  C   C61       1.0  0.16702  0.56042  0.81091  1.0000
  C  Sn50      1.0  0.17494  0.60074  0.80836  1.0000
  C  Sn51      1.0  0.21311  0.62730  0.76706  1.0000
  C   C62       1.0  0.24256  0.61299  0.72928  1.0000
  C  Sn52      1.0  0.23466  0.57268  0.73184  1.0000
  O  Te49      1.0  0.18790  0.50570  0.77644  1.0000
  O  Te50      1.0  0.14501  0.61434  0.84664  1.0000
  O  Te51      1.0  0.22168  0.66775  0.76378  1.0000
  O  Te52      1.0  0.26457  0.55907  0.69355  1.0000
  Mg  Mg25      1.0  0.17112  0.67199  0.82515  1.0000
  Mg  Mg26      1.0  0.23848  0.50142  0.71490  1.0000
  C  Sn53      1.0  0.39218  0.56850  0.64685  1.0000
  C   C63       1.0  0.43665  0.59535  0.68852  1.0000
  C  Sn54      1.0  0.46001  0.64716  0.78566  1.0000
  C  Sn55      1.0  0.43848  0.67267  0.84247  1.0000
  C   C64       1.0  0.39404  0.64583  0.80084  1.0000
  C  Sn56      1.0  0.37065  0.59401  0.70366  1.0000
  O  Te53      1.0  0.36948  0.51672  0.54960  1.0000
  O  Te54      1.0  0.50444  0.67319  0.82565  1.0000
  O  Te55      1.0  0.46123  0.72449  0.93979  1.0000
  O  Te56      1.0  0.32625  0.56798  0.66370  1.0000
  Mg  Mg27      1.0  0.52128  0.74343  0.96143  1.0000
  Mg  Mg28      1.0  0.30937  0.49775  0.52803  1.0000
  C  Sn57      1.0  0.41329  0.80296  0.64813  1.0000
  C   C65       1.0  0.39410  0.82952  0.68407  1.0000
  C  Sn58      1.0  0.35923  0.82125  0.76618  1.0000
  C  Sn59      1.0  0.34321  0.78572  0.81349  1.0000
  C   C66       1.0  0.36240  0.75920  0.77759  1.0000
  C  Sn60      1.0  0.39727  0.76743  0.69544  1.0000
  O  Te57      1.0  0.44812  0.81183  0.56595  1.0000
  O  Te58      1.0  0.34057  0.84824  0.80070  1.0000
  O  Te59      1.0  0.30835  0.77687  0.89573  1.0000
  O  Te60      1.0  0.41593  0.74047  0.66096  1.0000
  Mg  Mg29      1.0  0.29382  0.82294  0.91516  1.0000
  Mg  Mg30      1.0  0.46269  0.76576  0.54660  1.0000
  C  Sn61      1.0  0.79639  0.39129  0.84026  1.0000
  C   C67       1.0  0.76479  0.40045  0.83331  1.0000
  C  Sn62      1.0  0.76910  0.42823  0.76184  1.0000
  C  Sn63      1.0  0.80574  0.44723  0.69581  1.0000
  C   C68       1.0  0.83730  0.43806  0.70275  1.0000
  C  Sn64      1.0  0.83302  0.41029  0.77423  1.0000
  O  Te61      1.0  0.79141  0.36342  0.91227  1.0000
  O  Te62      1.0  0.73709  0.43692  0.75639  1.0000
  O  Te63      1.0  0.81069  0.47512  0.62377  1.0000
  O  Te64      1.0  0.86500  0.40159  0.77967  1.0000
  Mg  Mg31      1.0  0.75841  0.47695  0.64561  1.0000
  Mg  Mg32      1.0  0.84371  0.36155  0.89032  1.0000
  C  Sn65      1.0  0.55263  0.37228  0.85975  1.0000
  C   C69       1.0  0.55828  0.40262  0.79912  1.0000
  C  Sn66      1.0  0.58950  0.41372  0.70047  1.0000
  C  Sn67      1.0  0.61561  0.39406  0.66148  1.0000
  C   C70       1.0  0.60995  0.36373  0.72206  1.0000
  C  Sn68      1.0  0.57874  0.35261  0.82076  1.0000
  O  Te65      1.0  0.52122  0.36167  0.95814  1.0000
  O  Te66      1.0  0.59455  0.44416  0.64136  1.0000
  O  Te67      1.0  0.64703  0.40470  0.56301  1.0000
  O  Te68      1.0  0.57367  0.32219  0.87982  1.0000
  Mg  Mg33      1.0  0.64168  0.44792  0.51187  1.0000
  Mg  Mg34      1.0  0.47238  0.17251  0.00923  1.0000
  C  Sn69      1.0  0.57187  0.18520  0.76256  1.0000
  C   C71       1.0  0.58837  0.15513  0.70533  1.0000
  C  Sn70      1.0  0.63023  0.17254  0.68594  1.0000
  C  Sn71      1.0  0.65616  0.22104  0.72466  1.0000
  C   C72       1.0  0.63967  0.25109  0.78188  1.0000
  C  Sn72      1.0  0.59780  0.23371  0.80128  1.0000
  O  Te69      1.0  0.52993  0.16703  0.78102  1.0000
  O  Te70      1.0  0.64601  0.14178  0.62847  1.0000
  O  Te71      1.0  0.69813  0.23920  0.70615  1.0000
  O  Te72      1.0  0.58203  0.26444  0.85874  1.0000
  Mg  Mg35      1.0  0.70515  0.18330  0.62391  1.0000
  Mg  Mg36      1.0  0.52290  0.22297  0.86344  1.0000
