data_image0
_chemical_formula_structural       C6NHNHNHNHNHNHC6O6H4C4H4C4H4C16H6C6NHNHNHNHNHNHC12O6H8C8H8C8H8C20H6SnCSn2CSnTe4Mg2SnCSn2CSnTe4Mg2SnCSn2CSnTe4Mg2SnCSn2CSnTe4Mg2SnCSn2CSnTe4Mg2SnCSn2CSnTe4Mg2SnCSn2CSnTe4Mg2SnCSn2CSnTe4Mg2SnCSn2CSnTe4Mg2
_chemical_formula_sum              "C108 N12 H60 O12 Sn36 Te36 Mg18"
_cell_length_a       37.3788
_cell_length_b       37.4259
_cell_length_c       8.47027
_cell_angle_alpha    121.68
_cell_angle_beta     85.2412
_cell_angle_gamma    119.968

_symmetry_space_group_name_H-M    'P1'
_space_group_IT_number       1

loop_
  _space_group_symop_operation_xyz
  'x, y, z'

loop_
  _atom_site_type_symbol
  _atom_site_label
  _atom_site_symmetry_multiplicity
  _atom_site_fract_x
  _atom_site_fract_y
  _atom_site_fract_z
  _atom_site_occupancy
  C   C1        1.0  0.88663  0.47430  0.23836  1.0000
  C   C2        1.0  0.52323  0.40827  0.25970  1.0000
  C   C3        1.0  0.58975  0.11030  0.23685  1.0000
  C   C4        1.0  0.11596  0.53358  0.28805  1.0000
  C   C5        1.0  0.47559  0.58581  0.25525  1.0000
  C   C6        1.0  0.41368  0.88341  0.23436  1.0000
  N   N1        1.0  0.91548  0.46558  0.27731  1.0000
  H   H1        1.0  0.90677  0.44859  0.34835  1.0000
  N   N2        1.0  0.53804  0.44796  0.24419  1.0000
  H   H2        1.0  0.56666  0.46009  0.21078  1.0000
  N   N3        1.0  0.54810  0.08549  0.24696  1.0000
  H   H3        1.0  0.52926  0.09554  0.22520  1.0000
  N   N4        1.0  0.08735  0.54167  0.24200  1.0000
  H   H4        1.0  0.09746  0.56233  0.18581  1.0000
  N   N5        1.0  0.45957  0.54420  0.25939  1.0000
  H   H5        1.0  0.42856  0.52745  0.26353  1.0000
  N   N6        1.0  0.45643  0.91184  0.24686  1.0000
  H   H6        1.0  0.47568  0.90368  0.27952  1.0000
  C   C7        1.0  0.95844  0.48582  0.26727  1.0000
  C   C8        1.0  0.04443  0.52202  0.25202  1.0000
  C   C9        1.0  0.97886  0.46371  0.27545  1.0000
  C   C10       1.0  0.02403  0.54411  0.24353  1.0000
  C   C11       1.0  0.02123  0.48123  0.26774  1.0000
  C   C12       1.0  0.98157  0.52652  0.25097  1.0000
  O   O1        1.0  0.89559  0.50305  0.18883  1.0000
  O   O2        1.0  0.48686  0.38492  0.27470  1.0000
  O   O3        1.0  0.61444  0.09665  0.22685  1.0000
  O   O4        1.0  0.10627  0.50652  0.34688  1.0000
  O   O5        1.0  0.51272  0.61037  0.25064  1.0000
  O   O6        1.0  0.38753  0.89309  0.21876  1.0000
  H   H7        1.0  0.96141  0.43234  0.28916  1.0000
  H   H8        1.0  0.04151  0.57545  0.22951  1.0000
  H   H9        1.0  0.03671  0.46407  0.27544  1.0000
  H   H10       1.0  0.96602  0.54362  0.24329  1.0000
  C   C13       1.0  0.82551  0.39889  0.22967  1.0000
  C   C14       1.0  0.78323  0.37194  0.23266  1.0000
  C   C15       1.0  0.59915  0.42600  0.29235  1.0000
  C   C16       1.0  0.62629  0.41029  0.28776  1.0000
  H   H11       1.0  0.84483  0.38309  0.20463  1.0000
  H   H12       1.0  0.77098  0.33618  0.21124  1.0000
  H   H13       1.0  0.61331  0.46382  0.33062  1.0000
  H   H14       1.0  0.66045  0.43623  0.32305  1.0000
  C   C17       1.0  0.81564  0.46214  0.27389  1.0000
  C   C18       1.0  0.77375  0.43565  0.28069  1.0000
  C   C19       1.0  0.53885  0.34673  0.21172  1.0000
  C   C20       1.0  0.56596  0.33079  0.20339  1.0000
  H   H15       1.0  0.82852  0.49690  0.28534  1.0000
  H   H16       1.0  0.75430  0.45111  0.30304  1.0000
  H   H17       1.0  0.50456  0.32260  0.18440  1.0000
  H   H18       1.0  0.55210  0.29309  0.16534  1.0000
  C   C21       1.0  0.35079  0.70699  0.24115  1.0000
  C   C22       1.0  0.29062  0.63606  0.23592  1.0000
  C   C23       1.0  0.36015  0.64520  0.22873  1.0000
  C   C24       1.0  0.37647  0.68940  0.23875  1.0000
  C   C25       1.0  0.30824  0.68032  0.24503  1.0000
  C   C26       1.0  0.31674  0.61811  0.22136  1.0000
  C   C27       1.0  0.65321  0.29230  0.27526  1.0000
  C   C28       1.0  0.71141  0.36145  0.26502  1.0000
  C   C29       1.0  0.63986  0.34746  0.25277  1.0000
  C   C30       1.0  0.84243  0.44455  0.25098  1.0000
  C   C31       1.0  0.55493  0.39458  0.25565  1.0000
  C   C32       1.0  0.75628  0.38978  0.25992  1.0000
  C   C33       1.0  0.61049  0.36240  0.24431  1.0000
  C   C34       1.0  0.62585  0.30694  0.26634  1.0000
  C   C35       1.0  0.69626  0.32131  0.28285  1.0000
  C   C36       1.0  0.68243  0.37329  0.24673  1.0000
  H   H19       1.0  0.28814  0.69438  0.25787  1.0000
  H   H20       1.0  0.30317  0.58275  0.20533  1.0000
  H   H21       1.0  0.41021  0.71095  0.24900  1.0000
  H   H22       1.0  0.71830  0.31255  0.30458  1.0000
  H   H23       1.0  0.69269  0.40176  0.21891  1.0000
  H   H24       1.0  0.59282  0.28571  0.26678  1.0000
  C   C37       1.0  0.88426  0.46917  0.72818  1.0000
  C   C38       1.0  0.52416  0.41360  0.74760  1.0000
  C   C39       1.0  0.58454  0.11236  0.74177  1.0000
  C   C40       1.0  0.11329  0.52662  0.76630  1.0000
  C   C41       1.0  0.47708  0.59153  0.74229  1.0000
  C   C42       1.0  0.40742  0.88564  0.73802  1.0000
  N   N7        1.0  0.91301  0.46104  0.77258  1.0000
  H   H25       1.0  0.90387  0.44314  0.83993  1.0000
  N   N8        1.0  0.54033  0.45532  0.74407  1.0000
  H   H26       1.0  0.57149  0.47240  0.74231  1.0000
  N   N9        1.0  0.54236  0.08678  0.74423  1.0000
  H   H27       1.0  0.52375  0.09668  0.71929  1.0000
  N   N10       1.0  0.08558  0.53907  0.74658  1.0000
  H   H28       1.0  0.09516  0.55938  0.68889  1.0000
  N   N11       1.0  0.46207  0.55174  0.75751  1.0000
  H   H29       1.0  0.43353  0.53993  0.79184  1.0000
  N   N12       1.0  0.45014  0.91396  0.74942  1.0000
  H   H30       1.0  0.46942  0.90638  0.78610  1.0000
  C   C43       1.0  0.95610  0.48130  0.76421  1.0000
  C   C44       1.0  0.51957  0.47810  0.74534  1.0000
  C   C45       1.0  0.04243  0.51845  0.75412  1.0000
  C   C46       1.0  0.48294  0.52884  0.75427  1.0000
  C   C47       1.0  0.97633  0.45864  0.76877  1.0000
  C   C48       1.0  0.54294  0.51969  0.73451  1.0000
  C   C49       1.0  0.02222  0.54126  0.75072  1.0000
  C   C50       1.0  0.45948  0.48710  0.76403  1.0000
  C   C51       1.0  0.01895  0.47670  0.76405  1.0000
  C   C52       1.0  0.52520  0.54509  0.73871  1.0000
  C   C53       1.0  0.97963  0.52324  0.75567  1.0000
  C   C54       1.0  0.47719  0.46169  0.75977  1.0000
  O   O7        1.0  0.89345  0.49599  0.66861  1.0000
  O   O8        1.0  0.48712  0.38945  0.75407  1.0000
  O   O9        1.0  0.60936  0.09931  0.73755  1.0000
  O   O10       1.0  0.10337  0.49435  0.79718  1.0000
  O   O11       1.0  0.51365  0.61529  0.73021  1.0000
  O   O12       1.0  0.38123  0.89557  0.72539  1.0000
  H   H31       1.0  0.95849  0.42641  0.77735  1.0000
  H   H32       1.0  0.57570  0.53245  0.72166  1.0000
  H   H33       1.0  0.04001  0.57357  0.74266  1.0000
  H   H34       1.0  0.42662  0.47413  0.77528  1.0000
  H   H35       1.0  0.03441  0.45916  0.76847  1.0000
  H   H36       1.0  0.54336  0.57701  0.72923  1.0000
  H   H37       1.0  0.96430  0.54095  0.75164  1.0000
  H   H38       1.0  0.45894  0.42949  0.76748  1.0000
  C   C55       1.0  0.17640  0.60519  0.80153  1.0000
  C   C56       1.0  0.21923  0.63273  0.80625  1.0000
  C   C57       1.0  0.40108  0.57330  0.70509  1.0000
  C   C58       1.0  0.37391  0.58911  0.71131  1.0000
  C   C59       1.0  0.41925  0.82047  0.70819  1.0000
  C   C60       1.0  0.40379  0.77747  0.70385  1.0000
  C   C61       1.0  0.59504  0.41777  0.70468  1.0000
  C   C62       1.0  0.62170  0.40225  0.70990  1.0000
  H   H39       1.0  0.15797  0.62240  0.83710  1.0000
  H   H40       1.0  0.23288  0.67042  0.84504  1.0000
  H   H41       1.0  0.38711  0.53538  0.66517  1.0000
  H   H42       1.0  0.33975  0.56317  0.67546  1.0000
  H   H43       1.0  0.45039  0.83650  0.67911  1.0000
  H   H44       1.0  0.42370  0.76230  0.67404  1.0000
  H   H45       1.0  0.60519  0.44262  0.65733  1.0000
  H   H46       1.0  0.65121  0.41524  0.66572  1.0000
  C   C63       1.0  0.35380  0.81677  0.76566  1.0000
  C   C64       1.0  0.33859  0.77408  0.76266  1.0000
  C   C65       1.0  0.18353  0.53745  0.72142  1.0000
  C   C66       1.0  0.22592  0.56456  0.72171  1.0000
  C   C67       1.0  0.46132  0.65264  0.78640  1.0000
  C   C68       1.0  0.43418  0.66863  0.79609  1.0000
  C   C69       1.0  0.54334  0.36537  0.79782  1.0000
  C   C70       1.0  0.57037  0.35082  0.80719  1.0000
  H   H47       1.0  0.33457  0.83257  0.79000  1.0000
  H   H48       1.0  0.30730  0.75756  0.78912  1.0000
  H   H49       1.0  0.16931  0.50044  0.69146  1.0000
  H   H50       1.0  0.24442  0.54746  0.68522  1.0000
  H   H51       1.0  0.49558  0.67670  0.81297  1.0000
  H   H52       1.0  0.44782  0.70630  0.83441  1.0000
  H   H53       1.0  0.51250  0.35128  0.83135  1.0000
  H   H54       1.0  0.56070  0.32602  0.85424  1.0000
  C   C71       1.0  0.34696  0.70822  0.73394  1.0000
  C   C72       1.0  0.28981  0.64100  0.75851  1.0000
  C   C73       1.0  0.36048  0.65299  0.75634  1.0000
  C   C74       1.0  0.39450  0.84099  0.73931  1.0000
  C   C75       1.0  0.15787  0.55707  0.75893  1.0000
  C   C76       1.0  0.44530  0.60487  0.74322  1.0000
  C   C77       1.0  0.36303  0.75306  0.73140  1.0000
  C   C78       1.0  0.24500  0.61295  0.76428  1.0000
  C   C79       1.0  0.38971  0.63727  0.75783  1.0000
  C   C80       1.0  0.37402  0.69276  0.73821  1.0000
  C   C81       1.0  0.30447  0.68041  0.73669  1.0000
  C   C82       1.0  0.31859  0.62850  0.77246  1.0000
  C   C83       1.0  0.64944  0.29322  0.76967  1.0000
  C   C84       1.0  0.70989  0.36535  0.78372  1.0000
  C   C85       1.0  0.63899  0.35328  0.77376  1.0000
  C   C86       1.0  0.55539  0.39967  0.74914  1.0000
  C   C87       1.0  0.61036  0.36898  0.76402  1.0000
  C   C88       1.0  0.62292  0.30907  0.76348  1.0000
  C   C89       1.0  0.69261  0.32158  0.77819  1.0000
  C   C90       1.0  0.68269  0.38140  0.78810  1.0000
  H   H55       1.0  0.28195  0.68891  0.71798  1.0000
  H   H56       1.0  0.30884  0.60081  0.80441  1.0000
  H   H57       1.0  0.40642  0.71202  0.72690  1.0000
  H   H58       1.0  0.71303  0.30907  0.78142  1.0000
  H   H59       1.0  0.69545  0.41622  0.80082  1.0000
  H   H60       1.0  0.58892  0.28563  0.74345  1.0000
  C  Sn1       1.0  0.64932  0.19426  0.73907  1.0000
  C   C91       1.0  0.61264  0.17068  0.79113  1.0000
  C  Sn2       1.0  0.58180  0.18258  0.81333  1.0000
  C  Sn3       1.0  0.58774  0.21879  0.78274  1.0000
  C   C92       1.0  0.62440  0.24235  0.73067  1.0000
  C  Sn4       1.0  0.65526  0.23047  0.70847  1.0000
  O  Te1       1.0  0.67973  0.18178  0.71767  1.0000
  O  Te2       1.0  0.54540  0.15852  0.86553  1.0000
  O  Te3       1.0  0.55729  0.23126  0.80418  1.0000
  O  Te4       1.0  0.69164  0.25451  0.65628  1.0000
  Mg  Mg1       1.0  0.51307  0.18825  0.87692  1.0000
  Mg  Mg2       1.0  0.72398  0.22478  0.64475  1.0000
  C  Sn5       1.0  0.38660  0.60185  0.34800  1.0000
  C   C93       1.0  0.39272  0.63360  0.29409  1.0000
  C  Sn6       1.0  0.42390  0.64528  0.19598  1.0000
  C  Sn7       1.0  0.44946  0.62478  0.15070  1.0000
  C   C94       1.0  0.44333  0.59305  0.20457  1.0000
  C  Sn8       1.0  0.41217  0.58135  0.30272  1.0000
  O  Te5       1.0  0.35525  0.59069  0.44598  1.0000
  O  Te6       1.0  0.42944  0.67711  0.14365  1.0000
  O  Te7       1.0  0.48083  0.63597  0.05264  1.0000
  O  Te8       1.0  0.40662  0.54953  0.35501  1.0000
  Mg  Mg3       1.0  0.47626  0.68116  0.01195  1.0000
  Mg  Mg4       1.0  0.35979  0.54545  0.48662  1.0000
  C  Sn9       1.0  0.17942  0.59006  0.15690  1.0000
  C   C95       1.0  0.16030  0.55777  0.21701  1.0000
  C  Sn10      1.0  0.18525  0.55361  0.31253  1.0000
  C  Sn11      1.0  0.23025  0.58234  0.34883  1.0000
  C   C96       1.0  0.24934  0.61460  0.28876  1.0000
  C  Sn12      1.0  0.22442  0.61878  0.19320  1.0000
  O  Te9       1.0  0.15385  0.59363  0.06166  1.0000
  O  Te10      1.0  0.16541  0.52107  0.37119  1.0000
  O  Te11      1.0  0.25581  0.57874  0.44414  1.0000
  O  Te12      1.0  0.24424  0.65131  0.13459  1.0000
  Mg  Mg5       1.0  0.21390  0.52924  0.49591  1.0000
  Mg  Mg6       1.0  0.19578  0.64318  0.00995  1.0000
  C  Sn13      1.0  0.81223  0.38538  0.71840  1.0000
  C   C97       1.0  0.83310  0.42493  0.69594  1.0000
  C  Sn14      1.0  0.81631  0.45384  0.73319  1.0000
  C  Sn15      1.0  0.77787  0.44302  0.79426  1.0000
  C   C98       1.0  0.75702  0.40350  0.81672  1.0000
  C  Sn16      1.0  0.77378  0.37456  0.77947  1.0000
  O  Te13      1.0  0.82959  0.35697  0.68036  1.0000
  O  Te14      1.0  0.83774  0.49317  0.70966  1.0000
  O  Te15      1.0  0.76051  0.47147  0.83229  1.0000
  O  Te16      1.0  0.75238  0.33525  0.80300  1.0000
  Mg  Mg7       1.0  0.80145  0.52114  0.77939  1.0000
  Mg  Mg8       1.0  0.78865  0.30728  0.73342  1.0000
  C  Sn17      1.0  0.33948  0.77254  0.20486  1.0000
  C   C99       1.0  0.35989  0.74879  0.19302  1.0000
  C  Sn18      1.0  0.40405  0.77264  0.21936  1.0000
  C  Sn19      1.0  0.42833  0.82126  0.25848  1.0000
  C   C100      1.0  0.40793  0.84500  0.27034  1.0000
  C  Sn20      1.0  0.36377  0.82117  0.24398  1.0000
  O  Te17      1.0  0.29530  0.74800  0.17804  1.0000
  O  Te18      1.0  0.42373  0.74813  0.20678  1.0000
  O  Te19      1.0  0.47255  0.84580  0.28530  1.0000
  O  Te20      1.0  0.34409  0.84565  0.25658  1.0000
  Mg  Mg9       1.0  0.48473  0.79702  0.25429  1.0000
  Mg  Mg10      1.0  0.28309  0.79682  0.20919  1.0000
  C  Sn21      1.0  0.97599  0.01768  0.27680  1.0000
  C   C101      1.0  0.51967  0.04526  0.29619  1.0000
  C  Sn22      1.0  0.04434  0.02531  0.27617  1.0000
  C  Sn23      1.0  0.02465  0.97678  0.23581  1.0000
  C   C102      1.0  0.98085  0.94923  0.21641  1.0000
  C  Sn24      1.0  0.95630  0.96915  0.23644  1.0000
  O  Te21      1.0  0.95209  0.03836  0.29738  1.0000
  O  Te22      1.0  0.58795  0.05360  0.29625  1.0000
  O  Te23      1.0  0.04859  0.95612  0.21524  1.0000
  O  Te24      1.0  0.91257  0.94089  0.21635  1.0000
  Mg  Mg11      1.0  0.10709  0.00919  0.25535  1.0000
  Mg  Mg12      1.0  0.89354  0.98525  0.25712  1.0000
  C  Sn25      1.0  0.52506  0.52576  0.18165  1.0000
  C   C103      1.0  0.48415  0.51557  0.20133  1.0000
  C  Sn26      1.0  0.45983  0.48454  0.26299  1.0000
  C  Sn27      1.0  0.47675  0.46328  0.30599  1.0000
  C   C104      1.0  0.51764  0.47347  0.28633  1.0000
  C  Sn28      1.0  0.54198  0.50449  0.22465  1.0000
  O  Te25      1.0  0.54881  0.55688  0.11980  1.0000
  O  Te26      1.0  0.41901  0.47489  0.28151  1.0000
  O  Te27      1.0  0.45296  0.43213  0.36787  1.0000
  O  Te28      1.0  0.58278  0.51416  0.20615  1.0000
  Mg  Mg13      1.0  0.39901  0.43016  0.37083  1.0000
  Mg  Mg14      1.0  0.60282  0.55890  0.11694  1.0000
  C  Sn29      1.0  0.03702  0.00670  0.72414  1.0000
  C   C105      1.0  0.02232  0.03122  0.69623  1.0000
  C  Sn30      1.0  0.98134  0.02134  0.71163  1.0000
  C  Sn31      1.0  0.95451  0.98625  0.75597  1.0000
  C   C106      1.0  0.96921  0.96176  0.78388  1.0000
  C  Sn32      1.0  0.01018  0.97161  0.76848  1.0000
  O  Te29      1.0  0.07810  0.01716  0.70805  1.0000
  O  Te30      1.0  0.96735  0.04631  0.68304  1.0000
  O  Te31      1.0  0.91340  0.97580  0.77204  1.0000
  O  Te32      1.0  0.02418  0.94667  0.79707  1.0000
  Mg  Mg15      1.0  0.90882  0.01937  0.72048  1.0000
  Mg  Mg16      1.0  0.08270  0.97359  0.75977  1.0000
  C  Sn33      1.0  0.59923  0.22411  0.37490  1.0000
  C   C107      1.0  0.63530  0.24803  0.32074  1.0000
  C  Sn34      1.0  0.65478  0.22310  0.20646  1.0000
  C  Sn35      1.0  0.63784  0.17319  0.14493  1.0000
  C   C108      1.0  0.60178  0.14929  0.19906  1.0000
  C  Sn36      1.0  0.58228  0.17420  0.31337  1.0000
  O  Te33      1.0  0.58027  0.24975  0.48920  1.0000
  O  Te34      1.0  0.69082  0.24780  0.15420  1.0000
  O  Te35      1.0  0.65683  0.14755  0.03055  1.0000
  O  Te36      1.0  0.54626  0.14952  0.36560  1.0000
  Mg  Mg17      1.0  0.75948  0.34299  0.99687  1.0000
  Mg  Mg18      1.0  0.53173  0.20016  0.52283  1.0000
