data_image0
_chemical_formula_structural       C6N6C2H2C3H3C2H2C2H2C3H3C2H2CHCHCHCHC4H4C4H4C16H6C6N6C2H3C2H2C2H3C2H2CHCHCHCHC4H4C4H4C16H6SnCSn2CSnTe4Mg2SnCSn2CSnTe4Mg2SnCSn2CSnTe4Mg2SnCSn2CSnTe4Mg2SnCSn2CSnTe4Mg2SnCSn2CSnTe4Mg2SnCSn2CSnTe4Mg2SnCSn2CSnTe4Mg2SnCSn2CSnTe4Mg2
_chemical_formula_sum              "C108 N12 H60 Sn36 Te36 Mg18"
_cell_length_a       37.3702
_cell_length_b       37.2291
_cell_length_c       8.36198
_cell_angle_alpha    65.3662
_cell_angle_beta     119.748
_cell_angle_gamma    120.071

_symmetry_space_group_name_H-M    'P1'
_space_group_IT_number       1

loop_
  _space_group_symop_operation_xyz
  'x, y, z'

loop_
  _atom_site_type_symbol
  _atom_site_label
  _atom_site_symmetry_multiplicity
  _atom_site_fract_x
  _atom_site_fract_y
  _atom_site_fract_z
  _atom_site_occupancy
  C   C1        1.0  0.89160  0.45780  0.26745  1.0000
  C   C2        1.0  0.54325  0.43036  0.24519  1.0000
  C   C3        1.0  0.56770  0.11373  0.20055  1.0000
  C   C4        1.0  0.11040  0.53328  0.22518  1.0000
  C   C5        1.0  0.46926  0.57823  0.26294  1.0000
  C   C6        1.0  0.41705  0.88805  0.22858  1.0000
  N   N1        1.0  0.91201  0.44625  0.22095  1.0000
  N   N2        1.0  0.55981  0.46753  0.27922  1.0000
  N   N3        1.0  0.53667  0.08555  0.26589  1.0000
  N   N4        1.0  0.08928  0.54416  0.27061  1.0000
  N   N5        1.0  0.45467  0.53921  0.25362  1.0000
  N   N6        1.0  0.45722  0.91297  0.23585  1.0000
  C   C7        1.0  0.95580  0.47191  0.23181  1.0000
  C   C8        1.0  0.98206  0.45145  0.25801  1.0000
  H   H1        1.0  0.90804  0.48677  0.32126  1.0000
  H   H2        1.0  0.96670  0.41733  0.26675  1.0000
  C   C9        1.0  0.53217  0.48415  0.26913  1.0000
  C   C10       1.0  0.55343  0.52043  0.34441  1.0000
  C   C11       1.0  0.52922  0.53949  0.34185  1.0000
  H   H3        1.0  0.50770  0.41036  0.21046  1.0000
  H   H4        1.0  0.58953  0.53265  0.40743  1.0000
  H   H5        1.0  0.54652  0.56659  0.40659  1.0000
  C   C12       1.0  0.51733  0.04344  0.24856  1.0000
  C   C13       1.0  0.47420  0.01952  0.25431  1.0000
  H   H6        1.0  0.57863  0.10669  0.12026  1.0000
  H   H7        1.0  0.45844  0.03531  0.26861  1.0000
  C   C14       1.0  0.04567  0.51828  0.26104  1.0000
  C   C15       1.0  0.01952  0.53868  0.23630  1.0000
  H   H8        1.0  0.09493  0.50429  0.17260  1.0000
  H   H9        1.0  0.03492  0.57280  0.22764  1.0000
  C   C16       1.0  0.48235  0.52299  0.26230  1.0000
  C   C17       1.0  0.46107  0.48653  0.18812  1.0000
  C   C18       1.0  0.48527  0.46772  0.18958  1.0000
  H   H10       1.0  0.50326  0.60066  0.27184  1.0000
  H   H11       1.0  0.42496  0.47418  0.12590  1.0000
  H   H12       1.0  0.46762  0.44065  0.12444  1.0000
  C   C19       1.0  0.47432  0.95611  0.23581  1.0000
  C   C20       1.0  0.51754  0.97997  0.23169  1.0000
  H   H13       1.0  0.39324  0.89899  0.21672  1.0000
  H   H14       1.0  0.53390  0.96369  0.22445  1.0000
  C   C21       1.0  0.02627  0.47391  0.27491  1.0000
  H   H15       1.0  0.04595  0.45711  0.29879  1.0000
  C   C22       1.0  0.45296  0.97695  0.24627  1.0000
  H   H16       1.0  0.42010  0.95939  0.25443  1.0000
  C   C23       1.0  0.97534  0.51620  0.21967  1.0000
  H   H17       1.0  0.95572  0.53293  0.19708  1.0000
  C   C24       1.0  0.53877  0.02272  0.23827  1.0000
  H   H18       1.0  0.57251  0.04011  0.23954  1.0000
  C   C25       1.0  0.82174  0.39293  0.20769  1.0000
  C   C26       1.0  0.77909  0.36902  0.20989  1.0000
  C   C27       1.0  0.57176  0.17274  0.28656  1.0000
  C   C28       1.0  0.59206  0.21458  0.30474  1.0000
  H   H19       1.0  0.83685  0.38182  0.16458  1.0000
  H   H20       1.0  0.76035  0.33937  0.16245  1.0000
  H   H21       1.0  0.54206  0.15098  0.31970  1.0000
  H   H22       1.0  0.57795  0.22527  0.35469  1.0000
  C   C29       1.0  0.62811  0.18512  0.18547  1.0000
  C   C30       1.0  0.64857  0.22695  0.20568  1.0000
  C   C31       1.0  0.82627  0.44693  0.31320  1.0000
  C   C32       1.0  0.78381  0.42260  0.31804  1.0000
  H   H23       1.0  0.64186  0.17404  0.13516  1.0000
  H   H24       1.0  0.67773  0.24800  0.16810  1.0000
  H   H25       1.0  0.84507  0.47709  0.35676  1.0000
  H   H26       1.0  0.77038  0.43395  0.36854  1.0000
  C   C33       1.0  0.34988  0.70922  0.24450  1.0000
  C   C34       1.0  0.37439  0.69262  0.23021  1.0000
  C   C35       1.0  0.29044  0.63833  0.25421  1.0000
  C   C36       1.0  0.30804  0.68151  0.25606  1.0000
  C   C37       1.0  0.35927  0.64911  0.23854  1.0000
  C   C38       1.0  0.31715  0.62265  0.24999  1.0000
  C   C39       1.0  0.65177  0.28795  0.27650  1.0000
  C   C40       1.0  0.58929  0.15725  0.22548  1.0000
  C   C41       1.0  0.63102  0.24284  0.26482  1.0000
  C   C42       1.0  0.62763  0.30762  0.27313  1.0000
  C   C43       1.0  0.71439  0.35660  0.27562  1.0000
  C   C44       1.0  0.84622  0.43242  0.26027  1.0000
  C   C45       1.0  0.75927  0.38286  0.26780  1.0000
  C   C46       1.0  0.69564  0.31273  0.28375  1.0000
  C   C47       1.0  0.64573  0.35105  0.27209  1.0000
  C   C48       1.0  0.68888  0.37509  0.27003  1.0000
  H   H27       1.0  0.28917  0.69382  0.27038  1.0000
  H   H28       1.0  0.30536  0.58888  0.26006  1.0000
  H   H29       1.0  0.40550  0.71406  0.20905  1.0000
  H   H30       1.0  0.71560  0.29771  0.29543  1.0000
  H   H31       1.0  0.70238  0.40918  0.25794  1.0000
  H   H32       1.0  0.59397  0.28875  0.27093  1.0000
  C   C49       1.0  0.88697  0.46887  0.75407  1.0000
  C   C50       1.0  0.53164  0.42610  0.70952  1.0000
  C   C51       1.0  0.57968  0.11297  0.75102  1.0000
  C   C52       1.0  0.10825  0.53948  0.73296  1.0000
  C   C53       1.0  0.45796  0.56823  0.76710  1.0000
  C   C54       1.0  0.43187  0.88669  0.78291  1.0000
  N   N7        1.0  0.91196  0.45411  0.75521  1.0000
  N   N8        1.0  0.54757  0.45708  0.78808  1.0000
  N   N9        1.0  0.53953  0.08774  0.74248  1.0000
  N   N10       1.0  0.08436  0.55391  0.74241  1.0000
  N   N11       1.0  0.44101  0.53314  0.71442  1.0000
  N   N12       1.0  0.46311  0.91479  0.71856  1.0000
  C   C55       1.0  0.95443  0.48057  0.75040  1.0000
  C   C56       1.0  0.97315  0.46494  0.69525  1.0000
  H   H33       1.0  0.89695  0.50280  0.74367  1.0000
  H   H34       1.0  0.95311  0.43431  0.65561  1.0000
  H   H35       1.0  0.49640  0.41327  0.62016  1.0000
  C   C57       1.0  0.52305  0.04471  0.74124  1.0000
  C   C58       1.0  0.47922  0.02064  0.73767  1.0000
  H   H36       1.0  0.60347  0.10254  0.75914  1.0000
  H   H37       1.0  0.46174  0.03686  0.73732  1.0000
  C   C59       1.0  0.04108  0.52794  0.73890  1.0000
  C   C60       1.0  0.02214  0.54365  0.79234  1.0000
  H   H38       1.0  0.09627  0.50646  0.72378  1.0000
  H   H39       1.0  0.04243  0.57411  0.83335  1.0000
  H   H40       1.0  0.49400  0.58509  0.82972  1.0000
  C   C61       1.0  0.48165  0.95710  0.73254  1.0000
  C   C62       1.0  0.52539  0.98127  0.73397  1.0000
  H   H41       1.0  0.42053  0.89415  0.86009  1.0000
  H   H42       1.0  0.54242  0.96558  0.72738  1.0000
  C   C63       1.0  0.01530  0.48823  0.68681  1.0000
  H   H43       1.0  0.02789  0.47571  0.63744  1.0000
  C   C64       1.0  0.45878  0.97778  0.73307  1.0000
  H   H44       1.0  0.42460  0.96030  0.72606  1.0000
  C   C65       1.0  0.97976  0.52068  0.79808  1.0000
  H   H45       1.0  0.96699  0.53316  0.84666  1.0000
  C   C66       1.0  0.54582  0.02395  0.74000  1.0000
  H   H46       1.0  0.57932  0.04145  0.73861  1.0000
  C   C67       1.0  0.17515  0.60748  0.76661  1.0000
  C   C68       1.0  0.21858  0.63111  0.77404  1.0000
  C   C69       1.0  0.82651  0.39719  0.77830  1.0000
  C   C70       1.0  0.78353  0.37183  0.77333  1.0000
  H   H47       1.0  0.15752  0.62023  0.78722  1.0000
  H   H48       1.0  0.23502  0.66249  0.80460  1.0000
  H   H49       1.0  0.84878  0.38363  0.79899  1.0000
  H   H50       1.0  0.77255  0.33766  0.79457  1.0000
  C   C71       1.0  0.17691  0.54881  0.71866  1.0000
  C   C72       1.0  0.22000  0.57303  0.72115  1.0000
  C   C73       1.0  0.81363  0.45915  0.72669  1.0000
  C   C74       1.0  0.77019  0.43360  0.71836  1.0000
  H   H51       1.0  0.16047  0.51672  0.69491  1.0000
  H   H52       1.0  0.23605  0.55962  0.69468  1.0000
  H   H53       1.0  0.82531  0.49342  0.70759  1.0000
  H   H54       1.0  0.74864  0.44856  0.69226  1.0000
  C   C75       1.0  0.34889  0.71064  0.73084  1.0000
  C   C76       1.0  0.37310  0.69106  0.73418  1.0000
  C   C77       1.0  0.28722  0.64129  0.74341  1.0000
  C   C78       1.0  0.15342  0.56572  0.73825  1.0000
  C   C79       1.0  0.24200  0.61496  0.74817  1.0000
  C   C80       1.0  0.30544  0.68545  0.72903  1.0000
  C   C81       1.0  0.35561  0.64732  0.74190  1.0000
  C   C82       1.0  0.31318  0.62291  0.75167  1.0000
  C   C83       1.0  0.64892  0.29083  0.75372  1.0000
  C   C84       1.0  0.62530  0.30730  0.77478  1.0000
  C   C85       1.0  0.70927  0.36120  0.75032  1.0000
  C   C86       1.0  0.84258  0.44148  0.75659  1.0000
  C   C87       1.0  0.75412  0.38913  0.74419  1.0000
  C   C88       1.0  0.69037  0.31858  0.73746  1.0000
  C   C89       1.0  0.64164  0.35051  0.77412  1.0000
  C   C90       1.0  0.68423  0.37654  0.76834  1.0000
  H   H55       1.0  0.28552  0.70061  0.71635  1.0000
  H   H56       1.0  0.30060  0.58868  0.77000  1.0000
  H   H57       1.0  0.40627  0.71025  0.73083  1.0000
  H   H58       1.0  0.70733  0.30720  0.70596  1.0000
  H   H59       1.0  0.69755  0.40964  0.77373  1.0000
  H   H60       1.0  0.59406  0.28618  0.79565  1.0000
  C  Sn1       1.0  0.63896  0.41098  0.37548  1.0000
  C   C91       1.0  0.62324  0.37285  0.32523  1.0000
  C  Sn2       1.0  0.57861  0.35469  0.21520  1.0000
  C  Sn3       1.0  0.54907  0.37507  0.15401  1.0000
  C   C92       1.0  0.56478  0.41317  0.20422  1.0000
  C  Sn4       1.0  0.60941  0.43136  0.31429  1.0000
  O  Te1       1.0  0.68371  0.42856  0.48557  1.0000
  O  Te2       1.0  0.56368  0.31655  0.16681  1.0000
  O  Te3       1.0  0.50428  0.35744  0.04384  1.0000
  O  Te4       1.0  0.62435  0.46948  0.36264  1.0000
  Mg  Mg1       1.0  0.49978  0.30509  0.01445  1.0000
  Mg  Mg2       1.0  0.68824  0.48098  0.51491  1.0000
  C  Sn5       1.0  0.45116  0.62815  0.85672  1.0000
  C   C93       1.0  0.43543  0.58989  0.80757  1.0000
  C  Sn6       1.0  0.39034  0.57048  0.70642  1.0000
  C  Sn7       1.0  0.36036  0.58974  0.65317  1.0000
  C   C94       1.0  0.37609  0.62798  0.70229  1.0000
  C  Sn8       1.0  0.42117  0.64741  0.80348  1.0000
  O  Te5       1.0  0.49636  0.64699  0.95787  1.0000
  O  Te6       1.0  0.37540  0.53222  0.65895  1.0000
  O  Te7       1.0  0.31512  0.57086  0.55195  1.0000
  O  Te8       1.0  0.43612  0.68564  0.85091  1.0000
  Mg  Mg3       1.0  0.31079  0.51885  0.52022  1.0000
  Mg  Mg4       1.0  0.50071  0.69905  0.98954  1.0000
  C  Sn9       1.0  0.56663  0.18899  0.65611  1.0000
  C   C95       1.0  0.58998  0.16445  0.69719  1.0000
  C  Sn10      1.0  0.63626  0.17968  0.78205  1.0000
  C  Sn11      1.0  0.65970  0.22028  0.82690  1.0000
  C   C96       1.0  0.63636  0.24478  0.78585  1.0000
  C  Sn12      1.0  0.59008  0.22958  0.70096  1.0000
  O  Te9       1.0  0.52036  0.17312  0.57125  1.0000
  O  Te10      1.0  0.65887  0.15458  0.82171  1.0000
  O  Te11      1.0  0.70601  0.23613  0.91182  1.0000
  O  Te12      1.0  0.56747  0.25466  0.66134  1.0000
  Mg  Mg5       1.0  0.72190  0.19006  0.93818  1.0000
  Mg  Mg6       1.0  0.50444  0.21919  0.54496  1.0000
  C  Sn13      1.0  0.18172  0.61310  0.22162  1.0000
  C   C97       1.0  0.15639  0.57170  0.19251  1.0000
  C  Sn14      1.0  0.17674  0.54655  0.21149  1.0000
  C  Sn15      1.0  0.22340  0.56311  0.26071  1.0000
  C   C98       1.0  0.24871  0.60448  0.28983  1.0000
  C  Sn16      1.0  0.22837  0.62966  0.27084  1.0000
  O  Te13      1.0  0.16067  0.63768  0.20189  1.0000
  O  Te14      1.0  0.15072  0.50525  0.18161  1.0000
  O  Te15      1.0  0.24444  0.53849  0.28043  1.0000
  O  Te16      1.0  0.25437  0.67093  0.30072  1.0000
  Mg  Mg7       1.0  0.19475  0.48413  0.22531  1.0000
  Mg  Mg8       1.0  0.21038  0.69207  0.25717  1.0000
  C  Sn17      1.0  0.33714  0.78601  0.15395  1.0000
  C   C99       1.0  0.36036  0.76209  0.18699  1.0000
  C  Sn18      1.0  0.40672  0.77764  0.26678  1.0000
  C  Sn19      1.0  0.43036  0.81793  0.31465  1.0000
  C   C100      1.0  0.40715  0.84181  0.28163  1.0000
  C  Sn20      1.0  0.36079  0.82629  0.20182  1.0000
  O  Te17      1.0  0.29080  0.76983  0.07406  1.0000
  O  Te18      1.0  0.42920  0.75316  0.29843  1.0000
  O  Te19      1.0  0.47674  0.83409  0.39459  1.0000
  O  Te20      1.0  0.33831  0.85075  0.17020  1.0000
  Mg  Mg9       1.0  0.49240  0.78887  0.41050  1.0000
  Mg  Mg10      1.0  0.27511  0.81506  0.05823  1.0000
  C  Sn21      1.0  0.38522  0.57821  0.16240  1.0000
  C   C101      1.0  0.43108  0.59600  0.20580  1.0000
  C  Sn22      1.0  0.45754  0.63158  0.28594  1.0000
  C  Sn23      1.0  0.43777  0.64974  0.32362  1.0000
  C   C102      1.0  0.39194  0.63195  0.28026  1.0000
  C  Sn24      1.0  0.36544  0.59637  0.20007  1.0000
  O  Te21      1.0  0.35940  0.54264  0.08235  1.0000
  O  Te22      1.0  0.50332  0.64882  0.32804  1.0000
  O  Te23      1.0  0.46364  0.68534  0.40373  1.0000
  O  Te24      1.0  0.31970  0.57913  0.15802  1.0000
  Mg  Mg11      1.0  0.52448  0.69732  0.43594  1.0000
  Mg  Mg12      1.0  0.29851  0.53061  0.05020  1.0000
  C  Sn25      1.0  0.61521  0.43051  0.77274  1.0000
  C   C103      1.0  0.56886  0.41607  0.69937  1.0000
  C  Sn26      1.0  0.54326  0.37463  0.67125  1.0000
  C  Sn27      1.0  0.56443  0.34702  0.71753  1.0000
  C   C104      1.0  0.61075  0.36145  0.79089  1.0000
  C  Sn28      1.0  0.63638  0.40289  0.81903  1.0000
  O  Te25      1.0  0.64014  0.47206  0.79969  1.0000
  O  Te26      1.0  0.49697  0.36093  0.59765  1.0000
  O  Te27      1.0  0.53945  0.30543  0.69051  1.0000
  O  Te28      1.0  0.68264  0.41659  0.89260  1.0000
  Mg  Mg13      1.0  0.47742  0.30151  0.58658  1.0000
  Mg  Mg14      1.0  0.70222  0.47600  0.90382  1.0000
  C  Sn29      1.0  0.53958  0.51891  0.84933  1.0000
  C   C105      1.0  0.52440  0.47768  0.82938  1.0000
  C  Sn30      1.0  0.47916  0.45567  0.74127  1.0000
  C  Sn31      1.0  0.44845  0.47530  0.67154  1.0000
  C   C106      1.0  0.46364  0.51651  0.69147  1.0000
  C  Sn32      1.0  0.50888  0.53854  0.77959  1.0000
  O  Te29      1.0  0.58496  0.54031  0.93788  1.0000
  O  Te30      1.0  0.46477  0.41447  0.72303  1.0000
  O  Te31      1.0  0.40305  0.45385  0.58294  1.0000
  O  Te32      1.0  0.52327  0.57971  0.79782  1.0000
  Mg  Mg15      1.0  0.39966  0.39831  0.59171  1.0000
  Mg  Mg16      1.0  0.58836  0.59591  0.92902  1.0000
  C  Sn33      1.0  0.42172  0.79060  0.74184  1.0000
  C   C107      1.0  0.38367  0.75907  0.77842  1.0000
  C  Sn34      1.0  0.35495  0.77003  0.79350  1.0000
  C  Sn35      1.0  0.36444  0.81342  0.77145  1.0000
  C   C108      1.0  0.40246  0.84493  0.73486  1.0000
  C  Sn36      1.0  0.43121  0.83399  0.71978  1.0000
  O  Te33      1.0  0.44997  0.77890  0.72733  1.0000
  O  Te34      1.0  0.31712  0.73795  0.83021  1.0000
  O  Te35      1.0  0.33615  0.82510  0.78600  1.0000
  O  Te36      1.0  0.46902  0.86605  0.68307  1.0000
  Mg  Mg17      1.0  0.28878  0.76986  0.83736  1.0000
  Mg  Mg18      1.0  0.49737  0.83417  0.67580  1.0000
