data_image0
_chemical_formula_structural       C6N6C6N6C6O12H12C6N6C6N6C6O12H12C2Sn2C2HTe2HMgC2Sn2C2HTe2HMgC2Sn2C2HTe2HMgC2Sn2C2HTe2HMgC2Sn2C2HTe2HMgC2Sn2C2HTe2HMgC2Sn2C2HTe2HMgC2Sn2C2HTe2HMgC2Sn2C2HTe2HMgC2Sn2C2HTe2HMgC2Sn2C2HTe2HMgC2Sn2C2HTe2HMgC2Sn2C2HTe2HMgC2Sn2C2HTe2HMgC2Sn2C2HTe2HMgC2Sn2C2HTe2HMgC2Sn2C2HTe2HMgC2Sn2C2HTe2HMgC2Sn2C2HTe2HMgC2Sn2C2HTe2HMgC2Sn2C2HTe2HMgC2Sn2C2HTe2HMgC2Sn2C2HTe2HMgC2Sn2C2HTe2HMgC2Sn2C2HTe2HMgC2Sn2C2HTe2HMgC2Sn2C2HTe2HMgC2Sn2C2HTe2HMgC2Sn2C2HTe2HMgC2Sn2C2HTe2HMgC2Sn2C2HTe2HMgC2Sn2C2HTe2HMgC2Sn2C2HTe2HMgC2Sn2C2HTe2HMgC2Sn2C2HTe2HMgC2Sn2C2HTe2HMg
_chemical_formula_sum              "C180 N24 O24 H96 Sn72 Te72 Mg36"
_cell_length_a       39.0566
_cell_length_b       38.8034
_cell_length_c       9.64206
_cell_angle_alpha    101.372
_cell_angle_beta     92.469
_cell_angle_gamma    120.36

_symmetry_space_group_name_H-M    'P1'
_space_group_IT_number       1

loop_
  _space_group_symop_operation_xyz
  'x, y, z'

loop_
  _atom_site_type_symbol
  _atom_site_label
  _atom_site_symmetry_multiplicity
  _atom_site_fract_x
  _atom_site_fract_y
  _atom_site_fract_z
  _atom_site_occupancy
  C   C1        1.0  0.48889  0.48505  0.26601  1.0000
  C   C2        1.0  0.52382  0.00423  0.28105  1.0000
  C   C3        1.0  0.00629  0.52003  0.29736  1.0000
  C   C4        1.0  0.52531  0.52174  0.28524  1.0000
  C   C5        1.0  0.48779  0.00311  0.28120  1.0000
  C   C6        1.0  0.00811  0.48489  0.28123  1.0000
  N   N1        1.0  0.33917  0.47914  0.23296  1.0000
  N   N2        1.0  0.52619  0.85959  0.31132  1.0000
  N   N3        1.0  0.14717  0.67481  0.30608  1.0000
  N   N4        1.0  0.67540  0.52918  0.32766  1.0000
  N   N5        1.0  0.48294  0.14621  0.24815  1.0000
  N   N6        1.0  0.86128  0.33459  0.26881  1.0000
  C   C7        1.0  0.30003  0.44703  0.17708  1.0000
  C   C8        1.0  0.52885  0.83393  0.19881  1.0000
  C   C9        1.0  0.15418  0.69977  0.21325  1.0000
  C   C10       1.0  0.70065  0.53638  0.22977  1.0000
  C   C11       1.0  0.45241  0.14903  0.18308  1.0000
  C   C12       1.0  0.83388  0.30784  0.14829  1.0000
  N   N7        1.0  0.48067  0.33165  0.22792  1.0000
  N   N8        1.0  0.66924  0.14654  0.22480  1.0000
  N   N9        1.0  0.86373  0.52813  0.29697  1.0000
  N   N10       1.0  0.53175  0.67201  0.27872  1.0000
  N   N11       1.0  0.33363  0.85624  0.22884  1.0000
  N   N12       1.0  0.15122  0.47950  0.24710  1.0000
  C   C13       1.0  0.48705  0.30822  0.11861  1.0000
  C   C14       1.0  0.67369  0.18289  0.20333  1.0000
  C   C15       1.0  0.82385  0.49648  0.27740  1.0000
  C   C16       1.0  0.49831  0.67582  0.26510  1.0000
  C   C17       1.0  0.31932  0.81514  0.16463  1.0000
  C   C18       1.0  0.17696  0.48824  0.15075  1.0000
  O   O1        1.0  0.29000  0.41089  0.12613  1.0000
  O   O2        1.0  0.53633  0.84193  0.08051  1.0000
  O   O3        1.0  0.12726  0.69732  0.13180  1.0000
  O   O4        1.0  0.69667  0.54744  0.11974  1.0000
  O   O5        1.0  0.41804  0.11942  0.13347  1.0000
  O   O6        1.0  0.84026  0.30934  0.02325  1.0000
  O   O7        1.0  0.49769  0.31803  0.00537  1.0000
  O   O8        1.0  0.64588  0.18896  0.18874  1.0000
  O   O9        1.0  0.81266  0.45980  0.26102  1.0000
  O   O10       1.0  0.46375  0.64759  0.26319  1.0000
  O   O11       1.0  0.33861  0.80237  0.09779  1.0000
  O   O12       1.0  0.17368  0.50168  0.04637  1.0000
  H   H1        1.0  0.69524  0.14842  0.25926  1.0000
  H   H2        1.0  0.85419  0.32779  0.36564  1.0000
  H   H3        1.0  0.86906  0.55716  0.33110  1.0000
  H   H4        1.0  0.68421  0.52641  0.42520  1.0000
  H   H5        1.0  0.47705  0.32275  0.32266  1.0000
  H   H6        1.0  0.34244  0.50650  0.28333  1.0000
  H   H7        1.0  0.16011  0.47624  0.34346  1.0000
  H   H8        1.0  0.17105  0.68319  0.38044  1.0000
  H   H9        1.0  0.31549  0.86118  0.29166  1.0000
  H   H10       1.0  0.52436  0.85227  0.40897  1.0000
  H   H11       1.0  0.55910  0.69862  0.30679  1.0000
  H   H12       1.0  0.50837  0.17344  0.29835  1.0000
  C   C19       1.0  0.48187  0.48370  0.76685  1.0000
  C   C20       1.0  0.52157  0.00479  0.78148  1.0000
  C   C21       1.0  0.00077  0.52153  0.79000  1.0000
  C   C22       1.0  0.51793  0.52053  0.78257  1.0000
  C   C23       1.0  0.48584  0.00431  0.77911  1.0000
  C   C24       1.0  0.00133  0.48584  0.78093  1.0000
  N   N13       1.0  0.33128  0.47636  0.74411  1.0000
  N   N14       1.0  0.52581  0.86114  0.81230  1.0000
  N   N15       1.0  0.14440  0.67393  0.79777  1.0000
  N   N16       1.0  0.66840  0.52809  0.83384  1.0000
  N   N17       1.0  0.48047  0.14865  0.77066  1.0000
  N   N18       1.0  0.85695  0.33364  0.76748  1.0000
  C   C25       1.0  0.29194  0.44441  0.69032  1.0000
  C   C26       1.0  0.52950  0.83643  0.69950  1.0000
  C   C27       1.0  0.15141  0.70333  0.72385  1.0000
  C   C28       1.0  0.69277  0.53286  0.73339  1.0000
  C   C29       1.0  0.44875  0.15154  0.71665  1.0000
  C   C30       1.0  0.83431  0.30415  0.64382  1.0000
  N   N19       1.0  0.47728  0.33237  0.73570  1.0000
  N   N20       1.0  0.66753  0.14353  0.71020  1.0000
  N   N21       1.0  0.85748  0.52805  0.80483  1.0000
  N   N22       1.0  0.52722  0.67169  0.77067  1.0000
  N   N23       1.0  0.33231  0.85842  0.74182  1.0000
  N   N24       1.0  0.14558  0.48191  0.75543  1.0000
  C   C31       1.0  0.48168  0.30784  0.62389  1.0000
  C   C32       1.0  0.67216  0.17897  0.67922  1.0000
  C   C33       1.0  0.81789  0.49539  0.78329  1.0000
  C   C34       1.0  0.49444  0.67646  0.75457  1.0000
  C   C35       1.0  0.31696  0.81725  0.67537  1.0000
  C   C36       1.0  0.16954  0.48638  0.65343  1.0000
  O   O13       1.0  0.28148  0.40810  0.64115  1.0000
  O   O14       1.0  0.53824  0.84553  0.58347  1.0000
  O   O15       1.0  0.12468  0.70524  0.65901  1.0000
  O   O16       1.0  0.68783  0.54155  0.61882  1.0000
  O   O17       1.0  0.41371  0.12215  0.68077  1.0000
  O   O18       1.0  0.84542  0.30390  0.52435  1.0000
  O   O19       1.0  0.48954  0.31599  0.50628  1.0000
  O   O20       1.0  0.64436  0.18485  0.65971  1.0000
  O   O21       1.0  0.80791  0.45896  0.76405  1.0000
  O   O22       1.0  0.45943  0.64862  0.74904  1.0000
  O   O23       1.0  0.33535  0.80406  0.60419  1.0000
  O   O24       1.0  0.16437  0.49544  0.54014  1.0000
  H   H13       1.0  0.69340  0.14560  0.74739  1.0000
  H   H14       1.0  0.84716  0.32794  0.86277  1.0000
  H   H15       1.0  0.86227  0.55677  0.84199  1.0000
  H   H16       1.0  0.67889  0.52828  0.93449  1.0000
  H   H17       1.0  0.47623  0.32454  0.83208  1.0000
  H   H18       1.0  0.33474  0.50386  0.79370  1.0000
  H   H19       1.0  0.15632  0.48186  0.85514  1.0000
  H   H20       1.0  0.16862  0.67951  0.86371  1.0000
  H   H21       1.0  0.31535  0.86383  0.80947  1.0000
  H   H22       1.0  0.52304  0.85282  0.90817  1.0000
  H   H23       1.0  0.55475  0.69799  0.80266  1.0000
  H   H24       1.0  0.50674  0.17575  0.81434  1.0000
  C   C37       1.0  0.43987  0.51973  0.35101  1.0000
  C   C38       1.0  0.44874  0.49007  0.28876  1.0000
  C  Sn1       1.0  0.41897  0.45291  0.19472  1.0000
  C  Sn2       1.0  0.37962  0.44540  0.16259  1.0000
  C   C39       1.0  0.37106  0.47527  0.22535  1.0000
  C   C40       1.0  0.40107  0.51235  0.31933  1.0000
  H   H25       1.0  0.46309  0.54842  0.42367  1.0000
  O  Te1       1.0  0.42834  0.42361  0.13351  1.0000
  O  Te2       1.0  0.34930  0.40853  0.06893  1.0000
  H   H26       1.0  0.39420  0.53531  0.36744  1.0000
  Mg  Mg1       1.0  0.37680  0.37813  0.01244  1.0000
  C   C41       1.0  0.55497  0.95084  0.20563  1.0000
  C   C42       1.0  0.53222  0.96568  0.27205  1.0000
  C  Sn3       1.0  0.50820  0.94632  0.36872  1.0000
  C  Sn4       1.0  0.50701  0.91147  0.39926  1.0000
  C   C43       1.0  0.52991  0.89687  0.33233  1.0000
  C   C44       1.0  0.55383  0.91647  0.23574  1.0000
  H   H27       1.0  0.57349  0.96601  0.13095  1.0000
  O  Te3       1.0  0.48565  0.96155  0.43409  1.0000
  O  Te4       1.0  0.48328  0.89154  0.49548  1.0000
  H   H28       1.0  0.57146  0.90498  0.18440  1.0000
  Mg  Mg2       1.0  0.45791  0.92384  0.55742  1.0000
  C   C45       1.0  0.08927  0.58603  0.41940  1.0000
  C   C46       1.0  0.05046  0.56615  0.34106  1.0000
  C  Sn5       1.0  0.04213  0.58281  0.23787  1.0000
  C  Sn6       1.0  0.07329  0.62006  0.21287  1.0000
  C   C47       1.0  0.11203  0.63970  0.29174  1.0000
  C   C48       1.0  0.12003  0.62277  0.39477  1.0000
  H   H29       1.0  0.09547  0.57292  0.49906  1.0000
  O  Te5       1.0  0.00318  0.56256  0.16060  1.0000
  O  Te6       1.0  0.06580  0.63738  0.11035  1.0000
  H   H30       1.0  0.15009  0.63815  0.45534  1.0000
  Mg  Mg3       1.0  0.00786  0.59829  0.03240  1.0000
  C   C49       1.0  0.62590  0.55673  0.22976  1.0000
  C   C50       1.0  0.64013  0.53857  0.30853  1.0000
  C  Sn7       1.0  0.61502  0.51146  0.38577  1.0000
  C  Sn8       1.0  0.57494  0.50240  0.38386  1.0000
  C   C51       1.0  0.56099  0.52071  0.30463  1.0000
  C   C52       1.0  0.58637  0.54781  0.22777  1.0000
  H   H31       1.0  0.64553  0.57768  0.17022  1.0000
  O  Te7       1.0  0.62972  0.49359  0.46395  1.0000
  O  Te8       1.0  0.54921  0.47540  0.46004  1.0000
  H   H32       1.0  0.57534  0.56185  0.16671  1.0000
  Mg  Mg4       1.0  0.58314  0.45878  0.55054  1.0000
  C   C53       1.0  0.44686  0.04072  0.18640  1.0000
  C   C54       1.0  0.47683  0.03862  0.26188  1.0000
  C  Sn9       1.0  0.51010  0.07447  0.34951  1.0000
  C  Sn10      1.0  0.51333  0.11308  0.36160  1.0000
  C   C55       1.0  0.48317  0.11485  0.28573  1.0000
  C   C56       1.0  0.45002  0.07879  0.19831  1.0000
  H   H33       1.0  0.42119  0.01282  0.11882  1.0000
  O  Te9       1.0  0.53978  0.07183  0.42413  1.0000
  O  Te10      1.0  0.54626  0.14939  0.44847  1.0000
  H   H34       1.0  0.42680  0.08042  0.13996  1.0000
  Mg  Mg5       1.0  0.57892  0.12991  0.52887  1.0000
  C   C57       1.0  0.92187  0.41523  0.41206  1.0000
  C   C58       1.0  0.90114  0.37897  0.30158  1.0000
  C  Sn11      1.0  0.91805  0.37466  0.17944  1.0000
  C  Sn12      1.0  0.95642  0.40731  0.16801  1.0000
  C   C59       1.0  0.97692  0.44345  0.27916  1.0000
  C   C60       1.0  0.95972  0.44744  0.40090  1.0000
  H   H35       1.0  0.90857  0.41831  0.50628  1.0000
  O  Te11      1.0  0.89693  0.33823  0.07003  1.0000
  O  Te12      1.0  0.97403  0.40382  0.04714  1.0000
  H   H36       1.0  0.97578  0.47551  0.48646  1.0000
  Mg  Mg6       1.0  0.98079  0.42121  0.92653  1.0000
  C   C61       1.0  0.50990  0.40550  0.13418  1.0000
  C   C62       1.0  0.49075  0.37621  0.21270  1.0000
  C  Sn13      1.0  0.46683  0.38066  0.30972  1.0000
  C  Sn14      1.0  0.46204  0.41508  0.32821  1.0000
  C   C63       1.0  0.48130  0.44420  0.24907  1.0000
  C   C64       1.0  0.50518  0.43945  0.15230  1.0000
  H   H37       1.0  0.52835  0.40182  0.05925  1.0000
  O  Te13      1.0  0.44793  0.35112  0.38735  1.0000
  O  Te14      1.0  0.43830  0.42027  0.42442  1.0000
  H   H38       1.0  0.51997  0.46212  0.09145  1.0000
  Mg  Mg7       1.0  0.41867  0.37174  0.50559  1.0000
  C   C65       1.0  0.56601  0.07356  0.15515  1.0000
  C   C66       1.0  0.56115  0.04399  0.22786  1.0000
  C  Sn15      1.0  0.59410  0.04965  0.31454  1.0000
  C  Sn16      1.0  0.63259  0.08561  0.32852  1.0000
  C   C67       1.0  0.63713  0.11503  0.25542  1.0000
  C   C68       1.0  0.60396  0.10906  0.16892  1.0000
  H   H39       1.0  0.54035  0.06896  0.08829  1.0000
  O  Te15      1.0  0.09087  0.01978  0.38638  1.0000
  O  Te16      1.0  0.66602  0.09205  0.41449  1.0000
  H   H40       1.0  0.60773  0.13197  0.11272  1.0000
  Mg  Mg8       1.0  0.64346  0.04248  0.49091  1.0000
  C   C69       1.0  0.96479  0.56214  0.38527  1.0000
  C   C70       1.0  0.96901  0.52911  0.32254  1.0000
  C  Sn17      1.0  0.93589  0.49231  0.23882  1.0000
  C  Sn18      1.0  0.89788  0.48861  0.21766  1.0000
  C   C71       1.0  0.89398  0.52185  0.28080  1.0000
  C   C72       1.0  0.92731  0.55853  0.36441  1.0000
  H   H41       1.0  0.99058  0.59053  0.44990  1.0000
  O  Te17      1.0  0.94064  0.45960  0.17697  1.0000
  O  Te18      1.0  0.86429  0.45219  0.13444  1.0000
  H   H42       1.0  0.92403  0.58411  0.41289  1.0000
  Mg  Mg9       1.0  0.88592  0.41625  0.07255  1.0000
  C   C73       1.0  0.49919  0.56780  0.15960  1.0000
  C   C74       1.0  0.52320  0.56144  0.25025  1.0000
  C  Sn19      1.0  0.55109  0.59355  0.36552  1.0000
  C  Sn20      1.0  0.55494  0.63272  0.39024  1.0000
  C   C75       1.0  0.53076  0.63877  0.29900  1.0000
  C   C76       1.0  0.50296  0.60643  0.18395  1.0000
  H   H43       1.0  0.47766  0.54277  0.07063  1.0000
  O  Te19      1.0  0.57485  0.58666  0.45500  1.0000
  O  Te20      1.0  0.58257  0.66535  0.50469  1.0000
  H   H44       1.0  0.48436  0.61136  0.11384  1.0000
  Mg  Mg10      1.0  0.60818  0.64077  0.59676  1.0000
  C   C77       1.0  0.38900  0.93961  0.35277  1.0000
  C   C78       1.0  0.37287  0.90055  0.25932  1.0000
  C  Sn21      1.0  0.39622  0.89250  0.16808  1.0000
  C  Sn22      1.0  0.43646  0.92419  0.17072  1.0000
  C   C79       1.0  0.45232  0.96315  0.26468  1.0000
  C   C80       1.0  0.42869  0.97088  0.35548  1.0000
  H   H45       1.0  0.37073  0.94559  0.42309  1.0000
  O  Te21      1.0  0.37963  0.85331  0.07534  1.0000
  O  Te22      1.0  0.46046  0.91697  0.08071  1.0000
  H   H46       1.0  0.44120  0.00111  0.42789  1.0000
  Mg  Mg11      1.0  0.47163  0.93161  0.97321  1.0000
  C   C81       1.0  0.08511  0.51326  0.17975  1.0000
  C   C82       1.0  0.05097  0.48839  0.23480  1.0000
  C  Sn23      1.0  0.05019  0.45950  0.30323  1.0000
  C  Sn24      1.0  0.08426  0.45550  0.31666  1.0000
  C   C83       1.0  0.11827  0.48054  0.26131  1.0000
  C   C84       1.0  0.11873  0.50935  0.19300  1.0000
  H   H47       1.0  0.08548  0.53556  0.12697  1.0000
  O  Te23      1.0  0.01583  0.43489  0.35757  1.0000
  O  Te24      1.0  0.08429  0.42688  0.38459  1.0000
  H   H48       1.0  0.14518  0.52862  0.15047  1.0000
  Mg  Mg12      1.0  0.03037  0.40036  0.44117  1.0000
  C   C85       1.0  0.27233  0.50050  0.12097  1.0000
  C   C86       1.0  0.27411  0.47136  0.18108  1.0000
  C  Sn25      1.0  0.24095  0.44360  0.23335  1.0000
  C  Sn26      1.0  0.20538  0.44510  0.22511  1.0000
  C   C87       1.0  0.20390  0.47434  0.16469  1.0000
  C   C88       1.0  0.23726  0.50199  0.11275  1.0000
  H   H49       1.0  0.29814  0.52187  0.08071  1.0000
  O  Te25      1.0  0.24324  0.41470  0.29312  1.0000
  O  Te26      1.0  0.17179  0.41771  0.27649  1.0000
  H   H50       1.0  0.23587  0.52452  0.06613  1.0000
  Mg  Mg13      1.0  0.18957  0.38394  0.34858  1.0000
  C   C89       1.0  0.54119  0.74816  0.15257  1.0000
  C   C90       1.0  0.51758  0.72365  0.23955  1.0000
  C  Sn27      1.0  0.49327  0.73412  0.31682  1.0000
  C  Sn28      1.0  0.49266  0.76979  0.30656  1.0000
  C   C91       1.0  0.51638  0.79408  0.21917  1.0000
  C   C92       1.0  0.54060  0.78333  0.14235  1.0000
  H   H51       1.0  0.55992  0.73983  0.09307  1.0000
  O  Te27      1.0  0.46987  0.70930  0.40326  1.0000
  O  Te28      1.0  0.46864  0.78095  0.38258  1.0000
  H   H52       1.0  0.55886  0.80230  0.07494  1.0000
  Mg  Mg14      1.0  0.44207  0.73731  0.48611  1.0000
  C   C93       1.0  0.23999  0.72716  0.25213  1.0000
  C   C94       1.0  0.20520  0.72865  0.23051  1.0000
  C  Sn29      1.0  0.20622  0.75997  0.17648  1.0000
  C  Sn30      1.0  0.24279  0.79030  0.14354  1.0000
  C   C95       1.0  0.27742  0.78852  0.16546  1.0000
  C   C96       1.0  0.27607  0.75706  0.21963  1.0000
  H   H53       1.0  0.23894  0.70281  0.29397  1.0000
  O  Te29      1.0  0.17119  0.76101  0.15557  1.0000
  O  Te30      1.0  0.24465  0.82193  0.08936  1.0000
  H   H54       1.0  0.30300  0.75589  0.23627  1.0000
  Mg  Mg15      1.0  0.18891  0.81021  0.07944  1.0000
  C   C97       1.0  0.74933  0.48672  0.34150  1.0000
  C   C98       1.0  0.78446  0.50203  0.28130  1.0000
  C  Sn31      1.0  0.79523  0.53368  0.21226  1.0000
  C  Sn32      1.0  0.77032  0.55024  0.20355  1.0000
  C   C99       1.0  0.73526  0.53473  0.26421  1.0000
  C   C100      1.0  0.72475  0.50305  0.33300  1.0000
  H   H55       1.0  0.74121  0.46223  0.39480  1.0000
  O  Te31      1.0  0.83042  0.54861  0.15265  1.0000
  O  Te32      1.0  0.78039  0.58189  0.13521  1.0000
  H   H56       1.0  0.69757  0.49122  0.37969  1.0000
  Mg  Mg16      1.0  0.83135  0.59195  0.07053  1.0000
  C   C101      1.0  0.50600  0.22761  0.11758  1.0000
  C   C102      1.0  0.47527  0.19924  0.17698  1.0000
  C  Sn33      1.0  0.44396  0.20494  0.21403  1.0000
  C  Sn34      1.0  0.44348  0.23970  0.19101  1.0000
  C   C103      1.0  0.47435  0.26790  0.13143  1.0000
  C   C104      1.0  0.50554  0.26191  0.09479  1.0000
  H   H57       1.0  0.53013  0.22297  0.08916  1.0000
  O  Te33      1.0  0.41350  0.17630  0.27332  1.0000
  O  Te34      1.0  0.41253  0.24614  0.22701  1.0000
  H   H58       1.0  0.52932  0.28387  0.04872  1.0000
  Mg  Mg17      1.0  0.37781  0.19849  0.30483  1.0000
  C   C105      1.0  0.76687  0.22462  0.06930  1.0000
  C   C106      1.0  0.78852  0.26670  0.13864  1.0000
  C  Sn35      1.0  0.77385  0.28239  0.24743  1.0000
  C  Sn36      1.0  0.73681  0.25538  0.28733  1.0000
  C   C107      1.0  0.71540  0.21333  0.21737  1.0000
  C   C108      1.0  0.73035  0.19796  0.10863  1.0000
  H   H59       1.0  0.82578  0.28579  0.98521  1.0000
  O  Te35      1.0  0.79585  0.32451  0.31556  1.0000
  O  Te36      1.0  0.72146  0.27024  0.39573  1.0000
  H   H60       1.0  0.71360  0.16537  0.05502  1.0000
  Mg  Mg18      1.0  0.76246  0.33005  0.45685  1.0000
  C   C109      1.0  0.39621  0.44018  0.66124  1.0000
  C   C110      1.0  0.43397  0.47219  0.73749  1.0000
  C  Sn37      1.0  0.43787  0.50678  0.83174  1.0000
  C  Sn38      1.0  0.40326  0.50929  0.84980  1.0000
  C   C111      1.0  0.36561  0.47710  0.77310  1.0000
  C   C112      1.0  0.36206  0.44262  0.67903  1.0000
  H   H61       1.0  0.39345  0.41349  0.58851  1.0000
  O  Te37      1.0  0.47582  0.53849  0.90704  1.0000
  O  Te38      1.0  0.40629  0.54351  0.94335  1.0000
  H   H62       1.0  0.33282  0.41783  0.62008  1.0000
  Mg  Mg19      1.0  0.41723  0.50574  0.02199  1.0000
  C   C113      1.0  0.55528  0.95360  0.71567  1.0000
  C   C114      1.0  0.53034  0.96658  0.77424  1.0000
  C  Sn39      1.0  0.50412  0.94529  0.86248  1.0000
  C  Sn40      1.0  0.50292  0.91037  0.89247  1.0000
  C   C115      1.0  0.52802  0.89765  0.83343  1.0000
  C   C116      1.0  0.55413  0.91917  0.74524  1.0000
  H   H63       1.0  0.57550  0.97026  0.64750  1.0000
  O  Te39      1.0  0.47940  0.95867  0.92007  1.0000
  O  Te40      1.0  0.47701  0.88854  0.98035  1.0000
  H   H64       1.0  0.57346  0.90912  0.69998  1.0000
  Mg  Mg20      1.0  0.40184  0.84568  0.03361  1.0000
  C   C117      1.0  0.08607  0.58235  0.89237  1.0000
  C   C118      1.0  0.04637  0.56604  0.82892  1.0000
  C  Sn41      1.0  0.03745  0.58645  0.74273  1.0000
  C  Sn42      1.0  0.06893  0.62385  0.71981  1.0000
  C   C119      1.0  0.10855  0.63989  0.78369  1.0000
  C   C120      1.0  0.11713  0.61923  0.86978  1.0000
  H   H65       1.0  0.09271  0.56635  0.95892  1.0000
  O  Te41      1.0  0.99762  0.56974  0.68018  1.0000
  O  Te42      1.0  0.06086  0.64487  0.63411  1.0000
  H   H66       1.0  0.14788  0.63185  0.91882  1.0000
  Mg  Mg21      1.0  0.00177  0.60979  0.57217  1.0000
  C   C121      1.0  0.57296  0.50055  0.90532  1.0000
  C   C122      1.0  0.56023  0.52096  0.83261  1.0000
  C  Sn43      1.0  0.58453  0.54520  0.74630  1.0000
  C  Sn44      1.0  0.62224  0.54900  0.73271  1.0000
  C   C123      1.0  0.63469  0.52843  0.80580  1.0000
  C   C124      1.0  0.61014  0.50426  0.89192  1.0000
  H   H67       1.0  0.55396  0.48183  0.97189  1.0000
  O  Te43      1.0  0.57136  0.56540  0.67446  1.0000
  O  Te44      1.0  0.64711  0.57301  0.64711  1.0000
  H   H68       1.0  0.61999  0.48844  0.94812  1.0000
  Mg  Mg22      1.0  0.61596  0.59456  0.57053  1.0000
  C   C125      1.0  0.44466  0.06181  0.68443  1.0000
  C   C126      1.0  0.46983  0.10265  0.76470  1.0000
  C  Sn45      1.0  0.50432  0.11392  0.85743  1.0000
  C  Sn46      1.0  0.51371  0.08367  0.86979  1.0000
  C   C127      1.0  0.99051  0.04290  0.78895  1.0000
  C   C128      1.0  0.95607  0.03196  0.69651  1.0000
  H   H69       1.0  0.41802  0.05335  0.61285  1.0000
  O  Te45      1.0  0.52913  0.15486  0.93688  1.0000
  O  Te46      1.0  0.54800  0.09409  0.96163  1.0000
  H   H70       1.0  0.93660  0.00034  0.63432  1.0000
  Mg  Mg23      1.0  0.52512  0.08085  0.04749  1.0000
  C   C129      1.0  0.92752  0.43853  0.88974  1.0000
  C   C130      1.0  0.96040  0.44595  0.82053  1.0000
  C  Sn47      1.0  0.95921  0.41379  0.72052  1.0000
  C  Sn48      1.0  0.92442  0.37350  0.68941  1.0000
  C   C131      1.0  0.89168  0.36641  0.75916  1.0000
  C   C132      1.0  0.89319  0.39880  0.85908  1.0000
  H   H71       1.0  0.92868  0.46360  0.96700  1.0000
  O  Te47      1.0  0.99233  0.42174  0.65239  1.0000
  O  Te48      1.0  0.92243  0.34081  0.58988  1.0000
  H   H72       1.0  0.86772  0.39306  0.91258  1.0000
  Mg  Mg24      1.0  0.97523  0.36708  0.52502  1.0000
  C   C133      1.0  0.50700  0.42644  0.65136  1.0000
  C   C134      1.0  0.48470  0.44094  0.72357  1.0000
  C  Sn49      1.0  0.45899  0.41903  0.81186  1.0000
  C  Sn50      1.0  0.45561  0.38192  0.82798  1.0000
  C   C135      1.0  0.47807  0.36768  0.75537  1.0000
  C   C136      1.0  0.50369  0.38985  0.66725  1.0000
  H   H73       1.0  0.52684  0.44360  0.58325  1.0000
  O  Te49      1.0  0.43692  0.43395  0.88317  1.0000
  O  Te50      1.0  0.43016  0.35941  0.91559  1.0000
  H   H74       1.0  0.52097  0.37862  0.61144  1.0000
  Mg  Mg25      1.0  0.40628  0.39233  0.99048  1.0000
  C   C137      1.0  0.62711  0.07948  0.84525  1.0000
  C   C138      1.0  0.63318  0.10308  0.74617  1.0000
  C  Sn51      1.0  0.60043  0.09590  0.65371  1.0000
  C  Sn52      1.0  0.56091  0.06449  0.66084  1.0000
  C   C139      1.0  0.05731  0.04106  0.76041  1.0000
  C   C140      1.0  0.09030  0.04850  0.85240  1.0000
  H   H75       1.0  0.65263  0.08525  0.91648  1.0000
  O  Te51      1.0  0.60702  0.11975  0.55532  1.0000
  O  Te52      1.0  0.52764  0.05666  0.56973  1.0000
  H   H76       1.0  0.08559  0.03024  0.92916  1.0000
  Mg  Mg26      1.0  0.55203  0.09740  0.45384  1.0000
  C   C141      1.0  0.95841  0.56142  0.89695  1.0000
  C   C142      1.0  0.96375  0.53080  0.81689  1.0000
  C  Sn53      1.0  0.93170  0.49645  0.71883  1.0000
  C  Sn54      1.0  0.89365  0.49276  0.70079  1.0000
  C   C143      1.0  0.88862  0.52357  0.78132  1.0000
  C   C144      1.0  0.92089  0.55782  0.87918  1.0000
  H   H77       1.0  0.98338  0.58792  0.97261  1.0000
  O  Te53      1.0  0.93755  0.46614  0.63976  1.0000
  O  Te54      1.0  0.86111  0.45876  0.60349  1.0000
  H   H78       1.0  0.91676  0.58153  0.94108  1.0000
  Mg  Mg27      1.0  0.88402  0.42557  0.52051  1.0000
  C   C145      1.0  0.48838  0.56588  0.66808  1.0000
  C   C146      1.0  0.51448  0.55956  0.74805  1.0000
  C  Sn55      1.0  0.54647  0.59255  0.85036  1.0000
  C  Sn56      1.0  0.55236  0.63257  0.87282  1.0000
  C   C147      1.0  0.52607  0.63857  0.79233  1.0000
  C   C148      1.0  0.49417  0.60534  0.69020  1.0000
  H   H79       1.0  0.46368  0.54017  0.58911  1.0000
  O  Te55      1.0  0.57227  0.58570  0.92929  1.0000
  O  Te56      1.0  0.58409  0.66608  0.97442  1.0000
  H   H80       1.0  0.47395  0.61024  0.62836  1.0000
  Mg  Mg28      1.0  0.56384  0.56811  0.05535  1.0000
  C   C149      1.0  0.40747  0.96145  0.85887  1.0000
  C   C150      1.0  0.43965  0.96640  0.78881  1.0000
  C  Sn57      1.0  0.43604  0.93312  0.68726  1.0000
  C  Sn58      1.0  0.39949  0.89419  0.65546  1.0000
  C   C151      1.0  0.36746  0.88957  0.72607  1.0000
  C   C152      1.0  0.37141  0.92308  0.82753  1.0000
  H   H81       1.0  0.41052  0.98739  0.93732  1.0000
  O  Te57      1.0  0.46848  0.93859  0.61830  1.0000
  O  Te58      1.0  0.39505  0.86041  0.55440  1.0000
  H   H82       1.0  0.34648  0.91924  0.88169  1.0000
  Mg  Mg29      1.0  0.44784  0.88327  0.48887  1.0000
  C   C153      1.0  0.07418  0.46025  0.85785  1.0000
  C   C154      1.0  0.10205  0.47454  0.76551  1.0000
  C  Sn59      1.0  0.09813  0.49553  0.66966  1.0000
  C  Sn60      1.0  0.06568  0.50231  0.66648  1.0000
  C   C155      1.0  0.03798  0.48792  0.75937  1.0000
  C   C156      1.0  0.04218  0.46694  0.85482  1.0000
  H   H83       1.0  0.07744  0.44404  0.93176  1.0000
  O  Te59      1.0  0.12623  0.50958  0.57811  1.0000
  O  Te60      1.0  0.06106  0.52322  0.57179  1.0000
  H   H84       1.0  0.02061  0.45591  0.92636  1.0000
  Mg  Mg30      1.0  0.10710  0.53644  0.46813  1.0000
  C   C157      1.0  0.24766  0.50159  0.61525  1.0000
  C   C158      1.0  0.20961  0.48185  0.65469  1.0000
  C  Sn61      1.0  0.19880  0.45046  0.72500  1.0000
  C  Sn62      1.0  0.22668  0.43869  0.75629  1.0000
  C   C159      1.0  0.26468  0.45866  0.71648  1.0000
  C   C160      1.0  0.27518  0.49002  0.64612  1.0000
  H   H85       1.0  0.25579  0.52588  0.56088  1.0000
  O  Te61      1.0  0.16066  0.43104  0.76360  1.0000
  O  Te62      1.0  0.21667  0.40743  0.82651  1.0000
  H   H86       1.0  0.30465  0.50532  0.61568  1.0000
  Mg  Mg31      1.0  0.16105  0.39017  0.85742  1.0000
  C   C161      1.0  0.54702  0.77230  0.65320  1.0000
  C   C162      1.0  0.52559  0.79148  0.69424  1.0000
  C  Sn63      1.0  0.49382  0.77374  0.76955  1.0000
  C  Sn64      1.0  0.48339  0.73612  0.80430  1.0000
  C   C163      1.0  0.50503  0.71719  0.76285  1.0000
  C   C164      1.0  0.53676  0.73520  0.68748  1.0000
  H   H87       1.0  0.57158  0.78624  0.59495  1.0000
  O  Te63      1.0  0.47271  0.79330  0.80969  1.0000
  O  Te64      1.0  0.45178  0.71773  0.87954  1.0000
  H   H88       1.0  0.55337  0.72036  0.65580  1.0000
  Mg  Mg32      1.0  0.43201  0.75618  0.91074  1.0000
  C   C165      1.0  0.21334  0.78234  0.69884  1.0000
  C   C166      1.0  0.19630  0.74142  0.70656  1.0000
  C  Sn65      1.0  0.22048  0.72476  0.71626  1.0000
  C  Sn66      1.0  0.26249  0.74961  0.71828  1.0000
  C   C167      1.0  0.27925  0.79053  0.71060  1.0000
  C   C168      1.0  0.25478  0.80688  0.70088  1.0000
  H   H89       1.0  0.19440  0.79501  0.69139  1.0000
  O  Te65      1.0  0.20296  0.68381  0.72384  1.0000
  O  Te66      1.0  0.28736  0.73375  0.72796  1.0000
  H   H90       1.0  0.26798  0.83858  0.69499  1.0000
  Mg  Mg33      1.0  0.24938  0.67620  0.73575  1.0000
  C   C169      1.0  0.72531  0.48794  0.83833  1.0000
  C   C170      1.0  0.72523  0.51970  0.79096  1.0000
  C  Sn67      1.0  0.75730  0.54560  0.72975  1.0000
  C  Sn68      1.0  0.79000  0.53950  0.71582  1.0000
  C   C171      1.0  0.78978  0.50762  0.76345  1.0000
  C   C172      1.0  0.75754  0.48190  0.82458  1.0000
  H   H91       1.0  0.70035  0.46802  0.88555  1.0000
  O  Te67      1.0  0.75674  0.57719  0.68303  1.0000
  O  Te68      1.0  0.82243  0.56492  0.65500  1.0000
  H   H92       1.0  0.75760  0.45730  0.86116  1.0000
  Mg  Mg34      1.0  0.80787  0.60375  0.60739  1.0000
  C   C173      1.0  0.50109  0.22766  0.63356  1.0000
  C   C174      1.0  0.47108  0.20081  0.69941  1.0000
  C  Sn69      1.0  0.44037  0.20746  0.73729  1.0000
  C  Sn70      1.0  0.43977  0.24165  0.70855  1.0000
  C   C175      1.0  0.46992  0.26832  0.64254  1.0000
  C   C176      1.0  0.50051  0.26138  0.60512  1.0000
  H   H93       1.0  0.52475  0.22228  0.60454  1.0000
  O  Te69      1.0  0.41064  0.18034  0.80306  1.0000
  O  Te70      1.0  0.40942  0.24901  0.74523  1.0000
  H   H94       1.0  0.52373  0.28216  0.55405  1.0000
  Mg  Mg35      1.0  0.37558  0.20336  0.83293  1.0000
  C   C177      1.0  0.74829  0.20264  0.57795  1.0000
  C   C178      1.0  0.72132  0.20572  0.66259  1.0000
  C  Sn71      1.0  0.73026  0.24426  0.74318  1.0000
  C  Sn72      1.0  0.76691  0.28032  0.73869  1.0000
  C   C179      1.0  0.79368  0.27692  0.65359  1.0000
  C   C180      1.0  0.78443  0.23820  0.57342  1.0000
  H   H95       1.0  0.74113  0.17270  0.51585  1.0000
  O  Te71      1.0  0.70299  0.24678  0.82722  1.0000
  O  Te72      1.0  0.77659  0.31922  0.81813  1.0000
  H   H96       1.0  0.80531  0.23583  0.50782  1.0000
  Mg  Mg36      1.0  0.72971  0.30675  0.91644  1.0000
