data_image0
_chemical_formula_structural       C6NHNHNHNHNHNHC12O6H8C8H8C8H8C20H6C6NHNHNHNHNHNHC6O6H4C4H4C4H4C16H6C2Sn2C2HTe2HMgC2Sn2C2HTe2HMgC2Sn2C2HTe2HMgC2Sn2C2HTe2HMgC2Sn2C2HTe2HMgC2Sn2C2HTe2HMgC2Sn2C2HTe2HMgC2Sn2C2HTe2HMgC2Sn2C2HTe2HMg
_chemical_formula_sum              "C126 N12 H78 O12 Sn18 Te18 Mg9"
_cell_length_a       37.3788
_cell_length_b       37.4259
_cell_length_c       8.47027
_cell_angle_alpha    121.68
_cell_angle_beta     85.2412
_cell_angle_gamma    119.968

_symmetry_space_group_name_H-M    'P1'
_space_group_IT_number       1

loop_
  _space_group_symop_operation_xyz
  'x, y, z'

loop_
  _atom_site_type_symbol
  _atom_site_label
  _atom_site_symmetry_multiplicity
  _atom_site_fract_x
  _atom_site_fract_y
  _atom_site_fract_z
  _atom_site_occupancy
  C   C1        1.0  0.88663  0.47430  0.23836  1.0000
  C   C2        1.0  0.52323  0.40827  0.25970  1.0000
  C   C3        1.0  0.58975  0.11030  0.23685  1.0000
  C   C4        1.0  0.11596  0.53358  0.28805  1.0000
  C   C5        1.0  0.47559  0.58581  0.25525  1.0000
  C   C6        1.0  0.41368  0.88341  0.23436  1.0000
  N   N1        1.0  0.91548  0.46558  0.27731  1.0000
  H   H1        1.0  0.90677  0.44859  0.34835  1.0000
  N   N2        1.0  0.53804  0.44796  0.24419  1.0000
  H   H2        1.0  0.56666  0.46009  0.21078  1.0000
  N   N3        1.0  0.54810  0.08549  0.24696  1.0000
  H   H3        1.0  0.52926  0.09554  0.22520  1.0000
  N   N4        1.0  0.08735  0.54167  0.24200  1.0000
  H   H4        1.0  0.09746  0.56233  0.18581  1.0000
  N   N5        1.0  0.45957  0.54420  0.25939  1.0000
  H   H5        1.0  0.42856  0.52745  0.26353  1.0000
  N   N6        1.0  0.45643  0.91184  0.24686  1.0000
  H   H6        1.0  0.47568  0.90368  0.27952  1.0000
  C   C7        1.0  0.95844  0.48582  0.26727  1.0000
  C   C8        1.0  0.52633  0.04224  0.24765  1.0000
  C   C9        1.0  0.04443  0.52202  0.25202  1.0000
  C   C10       1.0  0.47809  0.95513  0.24629  1.0000
  C   C11       1.0  0.97886  0.46371  0.27545  1.0000
  C   C12       1.0  0.48194  0.01836  0.22155  1.0000
  C   C13       1.0  0.02403  0.54411  0.24353  1.0000
  C   C14       1.0  0.52253  0.97918  0.27340  1.0000
  C   C15       1.0  0.02123  0.48123  0.26774  1.0000
  C   C16       1.0  0.45777  0.97536  0.22033  1.0000
  C   C17       1.0  0.98157  0.52652  0.25097  1.0000
  C   C18       1.0  0.54668  0.02217  0.27457  1.0000
  O   O1        1.0  0.89559  0.50305  0.18883  1.0000
  O   O2        1.0  0.48686  0.38492  0.27470  1.0000
  O   O3        1.0  0.61444  0.09665  0.22685  1.0000
  O   O4        1.0  0.10627  0.50652  0.34688  1.0000
  O   O5        1.0  0.51272  0.61037  0.25064  1.0000
  O   O6        1.0  0.38753  0.89309  0.21876  1.0000
  H   H7        1.0  0.96141  0.43234  0.28916  1.0000
  H   H8        1.0  0.46568  0.03299  0.19697  1.0000
  H   H9        1.0  0.04151  0.57545  0.22951  1.0000
  H   H10       1.0  0.53882  0.96450  0.29742  1.0000
  H   H11       1.0  0.03671  0.46407  0.27544  1.0000
  H   H12       1.0  0.42349  0.95707  0.19864  1.0000
  H   H13       1.0  0.96602  0.54362  0.24329  1.0000
  H   H14       1.0  0.58094  0.04034  0.29576  1.0000
  C   C19       1.0  0.40424  0.58045  0.29368  1.0000
  C   C20       1.0  0.37733  0.59555  0.28729  1.0000
  C   C21       1.0  0.42549  0.81957  0.22039  1.0000
  C   C22       1.0  0.40950  0.77710  0.22091  1.0000
  C   C23       1.0  0.82551  0.39889  0.22967  1.0000
  C   C24       1.0  0.78323  0.37194  0.23266  1.0000
  C   C25       1.0  0.58199  0.18112  0.30623  1.0000
  C   C26       1.0  0.59809  0.22516  0.31801  1.0000
  H   H15       1.0  0.39425  0.55587  0.34224  1.0000
  H   H16       1.0  0.34783  0.58249  0.33151  1.0000
  H   H17       1.0  0.45743  0.83615  0.19875  1.0000
  H   H18       1.0  0.42969  0.76266  0.20152  1.0000
  H   H19       1.0  0.84483  0.38309  0.20463  1.0000
  H   H20       1.0  0.77098  0.33618  0.21124  1.0000
  H   H21       1.0  0.55346  0.16800  0.35693  1.0000
  H   H22       1.0  0.58140  0.24450  0.37413  1.0000
  C   C27       1.0  0.35905  0.81471  0.25965  1.0000
  C   C28       1.0  0.34331  0.77259  0.26147  1.0000
  C   C29       1.0  0.45562  0.63258  0.19855  1.0000
  C   C30       1.0  0.42826  0.64657  0.18736  1.0000
  C   C31       1.0  0.64160  0.17644  0.19048  1.0000
  C   C32       1.0  0.65752  0.22039  0.20187  1.0000
  C   C33       1.0  0.81564  0.46214  0.27389  1.0000
  C   C34       1.0  0.77375  0.43565  0.28069  1.0000
  H   H23       1.0  0.33972  0.82989  0.27399  1.0000
  H   H24       1.0  0.31124  0.75552  0.28031  1.0000
  H   H25       1.0  0.48642  0.64685  0.16489  1.0000
  H   H26       1.0  0.43766  0.67095  0.13846  1.0000
  H   H27       1.0  0.65801  0.15671  0.13892  1.0000
  H   H28       1.0  0.68618  0.23428  0.15338  1.0000
  H   H29       1.0  0.82852  0.49690  0.28534  1.0000
  H   H30       1.0  0.75430  0.45111  0.30304  1.0000
  C   C35       1.0  0.35079  0.70699  0.24115  1.0000
  C   C36       1.0  0.29062  0.63606  0.23592  1.0000
  C   C37       1.0  0.36015  0.64520  0.22873  1.0000
  C   C38       1.0  0.40048  0.83918  0.23970  1.0000
  C   C39       1.0  0.44397  0.59889  0.25013  1.0000
  C   C40       1.0  0.36802  0.75251  0.24233  1.0000
  C   C41       1.0  0.38850  0.62867  0.23264  1.0000
  C   C42       1.0  0.37647  0.68940  0.23875  1.0000
  C   C43       1.0  0.30824  0.68032  0.24503  1.0000
  C   C44       1.0  0.31674  0.61811  0.22136  1.0000
  C   C45       1.0  0.65321  0.29230  0.27526  1.0000
  C   C46       1.0  0.71141  0.36145  0.26502  1.0000
  C   C47       1.0  0.63986  0.34746  0.25277  1.0000
  C   C48       1.0  0.60353  0.15602  0.24248  1.0000
  C   C49       1.0  0.84243  0.44455  0.25098  1.0000
  C   C50       1.0  0.63643  0.24613  0.26766  1.0000
  C   C51       1.0  0.75628  0.38978  0.25992  1.0000
  C   C52       1.0  0.62585  0.30694  0.26634  1.0000
  C   C53       1.0  0.69626  0.32131  0.28285  1.0000
  C   C54       1.0  0.68243  0.37329  0.24673  1.0000
  H   H31       1.0  0.28814  0.69438  0.25787  1.0000
  H   H32       1.0  0.30317  0.58275  0.20533  1.0000
  H   H33       1.0  0.41021  0.71095  0.24900  1.0000
  H   H34       1.0  0.71830  0.31255  0.30458  1.0000
  H   H35       1.0  0.69269  0.40176  0.21891  1.0000
  H   H36       1.0  0.59282  0.28571  0.26678  1.0000
  C   C55       1.0  0.88426  0.46917  0.72818  1.0000
  C   C56       1.0  0.52416  0.41360  0.74760  1.0000
  C   C57       1.0  0.58454  0.11236  0.74177  1.0000
  C   C58       1.0  0.11329  0.52662  0.76630  1.0000
  C   C59       1.0  0.47708  0.59153  0.74229  1.0000
  C   C60       1.0  0.40742  0.88564  0.73802  1.0000
  N   N7        1.0  0.91301  0.46104  0.77258  1.0000
  H   H37       1.0  0.90387  0.44314  0.83993  1.0000
  N   N8        1.0  0.54033  0.45532  0.74407  1.0000
  H   H38       1.0  0.57149  0.47240  0.74231  1.0000
  N   N9        1.0  0.54236  0.08678  0.74423  1.0000
  H   H39       1.0  0.52375  0.09668  0.71929  1.0000
  N   N10       1.0  0.08558  0.53907  0.74658  1.0000
  H   H40       1.0  0.09516  0.55938  0.68889  1.0000
  N   N11       1.0  0.46207  0.55174  0.75751  1.0000
  H   H41       1.0  0.43353  0.53993  0.79184  1.0000
  N   N12       1.0  0.45014  0.91396  0.74942  1.0000
  H   H42       1.0  0.46942  0.90638  0.78610  1.0000
  C   C61       1.0  0.52017  0.04350  0.74483  1.0000
  C   C62       1.0  0.47176  0.95693  0.74696  1.0000
  C   C63       1.0  0.47568  0.01909  0.71418  1.0000
  C   C64       1.0  0.51628  0.98151  0.77844  1.0000
  C   C65       1.0  0.45142  0.97629  0.71436  1.0000
  C   C66       1.0  0.54047  0.02413  0.77747  1.0000
  O   O7        1.0  0.89345  0.49599  0.66861  1.0000
  O   O8        1.0  0.48712  0.38945  0.75407  1.0000
  O   O9        1.0  0.60936  0.09931  0.73755  1.0000
  O   O10       1.0  0.10337  0.49435  0.79718  1.0000
  O   O11       1.0  0.51365  0.61529  0.73021  1.0000
  O   O12       1.0  0.38123  0.89557  0.72539  1.0000
  H   H43       1.0  0.45939  0.03324  0.68621  1.0000
  H   H44       1.0  0.53259  0.96773  0.80909  1.0000
  H   H45       1.0  0.41709  0.95761  0.68972  1.0000
  H   H46       1.0  0.57480  0.04276  0.80241  1.0000
  C   C67       1.0  0.41925  0.82047  0.70819  1.0000
  C   C68       1.0  0.40379  0.77747  0.70385  1.0000
  C   C69       1.0  0.82465  0.40249  0.77051  1.0000
  C   C70       1.0  0.78300  0.37854  0.78551  1.0000
  H   H47       1.0  0.45039  0.83650  0.67911  1.0000
  H   H48       1.0  0.42370  0.76230  0.67404  1.0000
  H   H49       1.0  0.84451  0.38920  0.77362  1.0000
  H   H50       1.0  0.77267  0.34879  0.80569  1.0000
  C   C71       1.0  0.35380  0.81677  0.76566  1.0000
  C   C72       1.0  0.33859  0.77408  0.76266  1.0000
  C   C73       1.0  0.81262  0.45628  0.74038  1.0000
  C   C74       1.0  0.77090  0.43200  0.75383  1.0000
  H   H51       1.0  0.33457  0.83257  0.79000  1.0000
  H   H52       1.0  0.30730  0.75756  0.78912  1.0000
  H   H53       1.0  0.82451  0.48640  0.72059  1.0000
  H   H54       1.0  0.75038  0.44370  0.74273  1.0000
  C   C75       1.0  0.34696  0.70822  0.73394  1.0000
  C   C76       1.0  0.28981  0.64100  0.75851  1.0000
  C   C77       1.0  0.36048  0.65299  0.75634  1.0000
  C   C78       1.0  0.39450  0.84099  0.73931  1.0000
  C   C79       1.0  0.36303  0.75306  0.73140  1.0000
  C   C80       1.0  0.37402  0.69276  0.73821  1.0000
  C   C81       1.0  0.30447  0.68041  0.73669  1.0000
  C   C82       1.0  0.31859  0.62850  0.77246  1.0000
  C   C83       1.0  0.64944  0.29322  0.76967  1.0000
  C   C84       1.0  0.70989  0.36535  0.78372  1.0000
  C   C85       1.0  0.63899  0.35328  0.77376  1.0000
  C   C86       1.0  0.84035  0.44204  0.74909  1.0000
  C   C87       1.0  0.75486  0.39250  0.77710  1.0000
  C   C88       1.0  0.62292  0.30907  0.76348  1.0000
  C   C89       1.0  0.69261  0.32158  0.77819  1.0000
  C   C90       1.0  0.68269  0.38140  0.78810  1.0000
  H   H55       1.0  0.28195  0.68891  0.71798  1.0000
  H   H56       1.0  0.30884  0.60081  0.80441  1.0000
  H   H57       1.0  0.40642  0.71202  0.72690  1.0000
  H   H58       1.0  0.71303  0.30907  0.78142  1.0000
  H   H59       1.0  0.69545  0.41622  0.80082  1.0000
  H   H60       1.0  0.58892  0.28563  0.74345  1.0000
  C   C91       1.0  0.53505  0.54487  0.74072  1.0000
  C   C92       1.0  0.49306  0.53258  0.74026  1.0000
  C  Sn1       1.0  0.46382  0.49236  0.75098  1.0000
  C  Sn2       1.0  0.47695  0.46400  0.76242  1.0000
  C   C93       1.0  0.51904  0.47662  0.76292  1.0000
  C   C94       1.0  0.54804  0.51693  0.75207  1.0000
  H   H61       1.0  0.55750  0.57607  0.73243  1.0000
  O  Te1       1.0  0.42198  0.48058  0.75029  1.0000
  O  Te2       1.0  0.44838  0.42363  0.77335  1.0000
  H   H62       1.0  0.58055  0.52646  0.75255  1.0000
  Mg  Mg1       1.0  0.39481  0.42219  0.76764  1.0000
  C   C95       1.0  0.45552  0.46843  0.26230  1.0000
  C   C96       1.0  0.47410  0.51223  0.26834  1.0000
  C  Sn3       1.0  0.51621  0.53517  0.25471  1.0000
  C  Sn4       1.0  0.54008  0.51376  0.23461  1.0000
  C   C97       1.0  0.52119  0.46991  0.22857  1.0000
  C   C98       1.0  0.47904  0.44728  0.24240  1.0000
  H   H63       1.0  0.42289  0.45090  0.27289  1.0000
  O  Te3       1.0  0.53429  0.57893  0.26107  1.0000
  O  Te4       1.0  0.58222  0.53589  0.22060  1.0000
  H   H64       1.0  0.46465  0.41334  0.23759  1.0000
  Mg  Mg2       1.0  0.59279  0.59520  0.23650  1.0000
  C   C99       1.0  0.60568  0.41918  0.70220  1.0000
  C   C100      1.0  0.56467  0.40410  0.73199  1.0000
  C  Sn5       1.0  0.54588  0.37124  0.78944  1.0000
  C  Sn6       1.0  0.56866  0.35320  0.81752  1.0000
  C   C101      1.0  0.60968  0.36853  0.78747  1.0000
  C   C102      1.0  0.62817  0.40142  0.72993  1.0000
  H   H65       1.0  0.62000  0.44464  0.65778  1.0000
  O  Te5       1.0  0.50488  0.35654  0.81851  1.0000
  O  Te6       1.0  0.55065  0.32033  0.87499  1.0000
  H   H66       1.0  0.65993  0.41311  0.70700  1.0000
  Mg  Mg3       1.0  0.49392  0.31116  0.89632  1.0000
  C   C103      1.0  0.00926  0.46806  0.77145  1.0000
  C   C104      1.0  0.03690  0.50626  0.74709  1.0000
  C  Sn7       1.0  0.02371  0.53439  0.73930  1.0000
  C  Sn8       1.0  0.98205  0.52399  0.75633  1.0000
  C   C105      1.0  0.95464  0.48572  0.78079  1.0000
  C   C106      1.0  0.96817  0.45780  0.78832  1.0000
  H   H67       1.0  0.01972  0.44648  0.77738  1.0000
  O  Te7       1.0  0.05173  0.57240  0.71483  1.0000
  O  Te8       1.0  0.96805  0.55153  0.74911  1.0000
  H   H68       1.0  0.94677  0.42825  0.80731  1.0000
  Mg  Mg4       1.0  0.01792  0.59955  0.71375  1.0000
  C   C107      1.0  0.20864  0.63146  0.80685  1.0000
  C   C108      1.0  0.23964  0.61989  0.78758  1.0000
  C  Sn9       1.0  0.22855  0.57347  0.74327  1.0000
  C  Sn10      1.0  0.18558  0.53805  0.71781  1.0000
  C   C109      1.0  0.15480  0.54997  0.73726  1.0000
  C   C110      1.0  0.16625  0.59654  0.78169  1.0000
  H   H69       1.0  0.21749  0.66748  0.84112  1.0000
  O  Te9       1.0  0.25993  0.56253  0.72461  1.0000
  O  Te10      1.0  0.17362  0.49137  0.67339  1.0000
  H   H70       1.0  0.14223  0.60547  0.79647  1.0000
  Mg  Mg5       1.0  0.22790  0.49392  0.66287  1.0000
  C   C111      1.0  0.22310  0.56799  0.31410  1.0000
  C   C112      1.0  0.24290  0.60007  0.25332  1.0000
  C  Sn11      1.0  0.22048  0.61484  0.20356  1.0000
  C  Sn12      1.0  0.17744  0.59711  0.21504  1.0000
  C   C113      1.0  0.15793  0.56506  0.27615  1.0000
  C   C114      1.0  0.18065  0.55050  0.32554  1.0000
  H   H71       1.0  0.24069  0.55674  0.35242  1.0000
  O  Te11      1.0  0.24075  0.64690  0.14305  1.0000
  O  Te12      1.0  0.15429  0.61130  0.16624  1.0000
  H   H72       1.0  0.16532  0.52568  0.37271  1.0000
  Mg  Mg6       1.0  0.19586  0.65561  0.09192  1.0000
  C   C115      1.0  0.54002  0.33611  0.19731  1.0000
  C   C116      1.0  0.55028  0.38348  0.25755  1.0000
  C  Sn13      1.0  0.59267  0.42140  0.30347  1.0000
  C  Sn14      1.0  0.62532  0.41161  0.28862  1.0000
  C   C117      1.0  0.61473  0.36409  0.22809  1.0000
  C   C118      1.0  0.57221  0.32642  0.18255  1.0000
  H   H73       1.0  0.50712  0.30696  0.16198  1.0000
  O  Te13      1.0  0.60236  0.46851  0.36349  1.0000
  O  Te14      1.0  0.66795  0.44882  0.33356  1.0000
  H   H74       1.0  0.56428  0.28974  0.13580  1.0000
  Mg  Mg7       1.0  0.66516  0.50703  0.40875  1.0000
  C   C119      1.0  0.39009  0.57095  0.70422  1.0000
  C   C120      1.0  0.43417  0.59522  0.72586  1.0000
  C  Sn15      1.0  0.45783  0.64412  0.77467  1.0000
  C  Sn16      1.0  0.43688  0.66911  0.80227  1.0000
  C   C121      1.0  0.39278  0.64452  0.78041  1.0000
  C   C122      1.0  0.36942  0.59558  0.73149  1.0000
  H   H75       1.0  0.37201  0.53309  0.66647  1.0000
  O  Te15      1.0  0.50183  0.66781  0.79566  1.0000
  O  Te16      1.0  0.45976  0.71800  0.85119  1.0000
  H   H76       1.0  0.33530  0.57681  0.71486  1.0000
  Mg  Mg8       1.0  0.51915  0.73452  0.86346  1.0000
  C   C123      1.0  0.58528  0.21751  0.82171  1.0000
  C   C124      1.0  0.62324  0.24351  0.78246  1.0000
  C  Sn17      1.0  0.64911  0.22431  0.71347  1.0000
  C  Sn18      1.0  0.63665  0.17821  0.68330  1.0000
  C   C125      1.0  0.59860  0.15246  0.72287  1.0000
  C   C126      1.0  0.57296  0.17202  0.79193  1.0000
  H   H77       1.0  0.56543  0.23262  0.87504  1.0000
  O  Te17      1.0  0.68694  0.25078  0.67506  1.0000
  O  Te18      1.0  0.66190  0.15816  0.61438  1.0000
  H   H78       1.0  0.54356  0.15187  0.82218  1.0000
  Mg  Mg9       1.0  0.71059  0.20815  0.58323  1.0000
