data_image0
_chemical_formula_structural       C6N6H6C12H6C6N6H6C12H6SnCSn2CSnTe4Mg2SnCSn2CSnTe4Mg2SnCSn2CSnTe4Mg2SnCSn2CSnTe4Mg2SnCSn2CSnTe4Mg2SnCSn2CSnTe4Mg2SnCSn2CSnTe4Mg2SnCSn2CSnTe4Mg2SnCSn2CSnTe4Mg2SnCSn2CSnTe4Mg2SnCSn2CSnTe4Mg2SnCSn2CSnTe4Mg2SnCSn2CSnTe4Mg2SnCSn2CSnTe4Mg2SnCSn2CSnTe4Mg2SnCSn2CSnTe4Mg2SnCSn2CSnTe4Mg2SnCSn2CSnTe4Mg2
_chemical_formula_sum              "C72 N12 H24 Sn72 Te72 Mg36"
_cell_length_a       37.3702
_cell_length_b       37.2291
_cell_length_c       8.36198
_cell_angle_alpha    65.3662
_cell_angle_beta     119.748
_cell_angle_gamma    120.071

_symmetry_space_group_name_H-M    'P1'
_space_group_IT_number       1

loop_
  _space_group_symop_operation_xyz
  'x, y, z'

loop_
  _atom_site_type_symbol
  _atom_site_label
  _atom_site_symmetry_multiplicity
  _atom_site_fract_x
  _atom_site_fract_y
  _atom_site_fract_z
  _atom_site_occupancy
  C   C1        1.0  0.89160  0.45780  0.26745  1.0000
  C   C2        1.0  0.54325  0.43036  0.24519  1.0000
  C   C3        1.0  0.56770  0.11373  0.20055  1.0000
  C   C4        1.0  0.11040  0.53328  0.22518  1.0000
  C   C5        1.0  0.46926  0.57823  0.26294  1.0000
  C   C6        1.0  0.41705  0.88805  0.22858  1.0000
  N   N1        1.0  0.91201  0.44625  0.22095  1.0000
  N   N2        1.0  0.55981  0.46753  0.27922  1.0000
  N   N3        1.0  0.53667  0.08555  0.26589  1.0000
  N   N4        1.0  0.08928  0.54416  0.27061  1.0000
  N   N5        1.0  0.45467  0.53921  0.25362  1.0000
  N   N6        1.0  0.45722  0.91297  0.23585  1.0000
  H   H1        1.0  0.90804  0.48677  0.32126  1.0000
  H   H2        1.0  0.50770  0.41036  0.21046  1.0000
  H   H3        1.0  0.57863  0.10669  0.12026  1.0000
  H   H4        1.0  0.09493  0.50429  0.17260  1.0000
  H   H5        1.0  0.50326  0.60066  0.27184  1.0000
  H   H6        1.0  0.39324  0.89899  0.21672  1.0000
  C   C7        1.0  0.34988  0.70922  0.24450  1.0000
  C   C8        1.0  0.37439  0.69262  0.23021  1.0000
  C   C9        1.0  0.29044  0.63833  0.25421  1.0000
  C   C10       1.0  0.30804  0.68151  0.25606  1.0000
  C   C11       1.0  0.35927  0.64911  0.23854  1.0000
  C   C12       1.0  0.31715  0.62265  0.24999  1.0000
  C   C13       1.0  0.65177  0.28795  0.27650  1.0000
  C   C14       1.0  0.62763  0.30762  0.27313  1.0000
  C   C15       1.0  0.71439  0.35660  0.27562  1.0000
  C   C16       1.0  0.69564  0.31273  0.28375  1.0000
  C   C17       1.0  0.64573  0.35105  0.27209  1.0000
  C   C18       1.0  0.68888  0.37509  0.27003  1.0000
  H   H7        1.0  0.28917  0.69382  0.27038  1.0000
  H   H8        1.0  0.30536  0.58888  0.26006  1.0000
  H   H9        1.0  0.40550  0.71406  0.20905  1.0000
  H   H10       1.0  0.71560  0.29771  0.29543  1.0000
  H   H11       1.0  0.70238  0.40918  0.25794  1.0000
  H   H12       1.0  0.59397  0.28875  0.27093  1.0000
  C   C19       1.0  0.88697  0.46887  0.75407  1.0000
  C   C20       1.0  0.53164  0.42610  0.70952  1.0000
  C   C21       1.0  0.57968  0.11297  0.75102  1.0000
  C   C22       1.0  0.10825  0.53948  0.73296  1.0000
  C   C23       1.0  0.45796  0.56823  0.76710  1.0000
  C   C24       1.0  0.43187  0.88669  0.78291  1.0000
  N   N7        1.0  0.91196  0.45411  0.75521  1.0000
  N   N8        1.0  0.54757  0.45708  0.78808  1.0000
  N   N9        1.0  0.53953  0.08774  0.74248  1.0000
  N   N10       1.0  0.08436  0.55391  0.74241  1.0000
  N   N11       1.0  0.44101  0.53314  0.71442  1.0000
  N   N12       1.0  0.46311  0.91479  0.71856  1.0000
  H   H13       1.0  0.89695  0.50280  0.74367  1.0000
  H   H14       1.0  0.49640  0.41327  0.62016  1.0000
  H   H15       1.0  0.60347  0.10254  0.75914  1.0000
  H   H16       1.0  0.09627  0.50646  0.72378  1.0000
  H   H17       1.0  0.49400  0.58509  0.82972  1.0000
  H   H18       1.0  0.42053  0.89415  0.86009  1.0000
  C   C25       1.0  0.34889  0.71064  0.73084  1.0000
  C   C26       1.0  0.37310  0.69106  0.73418  1.0000
  C   C27       1.0  0.28722  0.64129  0.74341  1.0000
  C   C28       1.0  0.30544  0.68545  0.72903  1.0000
  C   C29       1.0  0.35561  0.64732  0.74190  1.0000
  C   C30       1.0  0.31318  0.62291  0.75167  1.0000
  C   C31       1.0  0.64892  0.29083  0.75372  1.0000
  C   C32       1.0  0.62530  0.30730  0.77478  1.0000
  C   C33       1.0  0.70927  0.36120  0.75032  1.0000
  C   C34       1.0  0.69037  0.31858  0.73746  1.0000
  C   C35       1.0  0.64164  0.35051  0.77412  1.0000
  C   C36       1.0  0.68423  0.37654  0.76834  1.0000
  H   H19       1.0  0.28552  0.70061  0.71635  1.0000
  H   H20       1.0  0.30060  0.58868  0.77000  1.0000
  H   H21       1.0  0.40627  0.71025  0.73083  1.0000
  H   H22       1.0  0.70733  0.30720  0.70596  1.0000
  H   H23       1.0  0.69755  0.40964  0.77373  1.0000
  H   H24       1.0  0.59406  0.28618  0.79565  1.0000
  C  Sn1       1.0  0.99536  0.45135  0.32005  1.0000
  C   C37       1.0  0.96480  0.46731  0.28577  1.0000
  C  Sn2       1.0  0.97378  0.51101  0.22208  1.0000
  C  Sn3       1.0  0.01413  0.53935  0.19192  1.0000
  C   C38       1.0  0.04466  0.52338  0.22616  1.0000
  C  Sn4       1.0  0.03571  0.47968  0.28988  1.0000
  O  Te1       1.0  0.98570  0.40754  0.38366  1.0000
  O  Te2       1.0  0.94272  0.52622  0.18885  1.0000
  O  Te3       1.0  0.02377  0.58319  0.12826  1.0000
  O  Te4       1.0  0.06674  0.46447  0.32307  1.0000
  Mg  Mg1       1.0  0.97100  0.58852  0.10299  1.0000
  Mg  Mg2       1.0  0.03849  0.40218  0.40884  1.0000
  C  Sn5       1.0  0.55061  0.51875  0.40141  1.0000
  C   C39       1.0  0.53445  0.48410  0.32547  1.0000
  C  Sn6       1.0  0.49073  0.47022  0.19881  1.0000
  C  Sn7       1.0  0.46257  0.49142  0.14686  1.0000
  C   C40       1.0  0.47873  0.52605  0.22275  1.0000
  C  Sn8       1.0  0.52245  0.53995  0.34946  1.0000
  O  Te5       1.0  0.59443  0.53208  0.52778  1.0000
  O  Te6       1.0  0.47532  0.43550  0.12481  1.0000
  O  Te7       1.0  0.41872  0.47805  0.02038  1.0000
  O  Te8       1.0  0.53786  0.57465  0.42341  1.0000
  Mg  Mg3       1.0  0.49893  0.37883  0.95773  1.0000
  Mg  Mg4       1.0  0.60009  0.58092  0.59042  1.0000
  C  Sn9       1.0  0.44976  0.98929  0.19146  1.0000
  C   C41       1.0  0.46600  0.96361  0.18412  1.0000
  C  Sn10      1.0  0.51137  0.97672  0.22773  1.0000
  C  Sn11      1.0  0.04196  0.01631  0.27987  1.0000
  C   C42       1.0  0.02572  0.04197  0.28721  1.0000
  C  Sn12      1.0  0.98036  0.02889  0.24360  1.0000
  O  Te9       1.0  0.40428  0.97555  0.14730  1.0000
  O  Te10      1.0  0.52681  0.95050  0.21934  1.0000
  O  Te11      1.0  0.08747  0.03004  0.32404  1.0000
  O  Te12      1.0  0.96491  0.05508  0.25200  1.0000
  Mg  Mg5       1.0  0.59164  0.98313  0.29228  1.0000
  Mg  Mg6       1.0  0.90009  0.02247  0.17919  1.0000
  C  Sn13      1.0  0.18172  0.61310  0.22162  1.0000
  C   C43       1.0  0.15639  0.57170  0.19251  1.0000
  C  Sn14      1.0  0.17674  0.54655  0.21149  1.0000
  C  Sn15      1.0  0.22340  0.56311  0.26071  1.0000
  C   C44       1.0  0.24871  0.60448  0.28983  1.0000
  C  Sn16      1.0  0.22837  0.62966  0.27084  1.0000
  O  Te13      1.0  0.16067  0.63768  0.20189  1.0000
  O  Te14      1.0  0.15072  0.50525  0.18161  1.0000
  O  Te15      1.0  0.24444  0.53849  0.28043  1.0000
  O  Te16      1.0  0.25437  0.67093  0.30072  1.0000
  Mg  Mg7       1.0  0.19475  0.48413  0.22531  1.0000
  Mg  Mg8       1.0  0.21038  0.69207  0.25717  1.0000
  C  Sn17      1.0  0.43824  0.65818  0.22379  1.0000
  C   C45       1.0  0.39327  0.63876  0.19930  1.0000
  C  Sn18      1.0  0.37145  0.59472  0.21778  1.0000
  C  Sn19      1.0  0.39507  0.56955  0.26178  1.0000
  C   C46       1.0  0.44001  0.58896  0.28628  1.0000
  C  Sn20      1.0  0.46186  0.63301  0.26779  1.0000
  O  Te17      1.0  0.45939  0.70226  0.20466  1.0000
  O  Te18      1.0  0.32647  0.57603  0.19258  1.0000
  O  Te19      1.0  0.37388  0.52543  0.28089  1.0000
  O  Te20      1.0  0.50681  0.65169  0.29300  1.0000
  Mg  Mg9       1.0  0.31231  0.51477  0.23336  1.0000
  Mg  Mg10      1.0  0.52101  0.71295  0.25235  1.0000
  C  Sn21      1.0  0.35193  0.80470  0.26354  1.0000
  C   C47       1.0  0.39519  0.83460  0.28793  1.0000
  C  Sn22      1.0  0.42584  0.82598  0.27470  1.0000
  C  Sn23      1.0  0.41298  0.78666  0.23617  1.0000
  C   C48       1.0  0.36974  0.75679  0.21177  1.0000
  C  Sn24      1.0  0.33907  0.76538  0.22500  1.0000
  O  Te21      1.0  0.32183  0.81399  0.27736  1.0000
  O  Te22      1.0  0.46891  0.85636  0.29969  1.0000
  O  Te23      1.0  0.44312  0.77739  0.22236  1.0000
  O  Te24      1.0  0.29602  0.73503  0.20001  1.0000
  Mg  Mg11      1.0  0.49792  0.82895  0.26732  1.0000
  Mg  Mg12      1.0  0.26698  0.76242  0.23225  1.0000
  C  Sn25      1.0  0.79287  0.36585  0.26016  1.0000
  C   C49       1.0  0.76784  0.37593  0.30373  1.0000
  C  Sn26      1.0  0.78091  0.41750  0.31381  1.0000
  C  Sn27      1.0  0.81980  0.44968  0.27951  1.0000
  C   C50       1.0  0.84480  0.43959  0.23594  1.0000
  C  Sn28      1.0  0.83176  0.39802  0.22586  1.0000
  O  Te25      1.0  0.77918  0.32408  0.25083  1.0000
  O  Te26      1.0  0.75535  0.42681  0.35767  1.0000
  O  Te27      1.0  0.83347  0.49147  0.28888  1.0000
  O  Te28      1.0  0.85729  0.38871  0.18199  1.0000
  Mg  Mg13      1.0  0.78762  0.48842  0.35365  1.0000
  Mg  Mg14      1.0  0.82504  0.32712  0.18587  1.0000
  C  Sn29      1.0  0.63896  0.41098  0.37548  1.0000
  C   C51       1.0  0.62324  0.37285  0.32523  1.0000
  C  Sn30      1.0  0.57861  0.35469  0.21520  1.0000
  C  Sn31      1.0  0.54907  0.37507  0.15401  1.0000
  C   C52       1.0  0.56478  0.41317  0.20422  1.0000
  C  Sn32      1.0  0.60941  0.43136  0.31429  1.0000
  O  Te29      1.0  0.68371  0.42856  0.48557  1.0000
  O  Te30      1.0  0.56368  0.31655  0.16681  1.0000
  O  Te31      1.0  0.50428  0.35744  0.04384  1.0000
  O  Te32      1.0  0.62435  0.46948  0.36264  1.0000
  Mg  Mg15      1.0  0.49978  0.30509  0.01445  1.0000
  Mg  Mg16      1.0  0.68824  0.48098  0.51491  1.0000
  C  Sn33      1.0  0.59312  0.20155  0.35898  1.0000
  C   C53       1.0  0.63054  0.23377  0.31918  1.0000
  C  Sn34      1.0  0.64642  0.22932  0.21114  1.0000
  C  Sn35      1.0  0.62443  0.19190  0.14132  1.0000
  C   C54       1.0  0.58703  0.15971  0.18110  1.0000
  C  Sn36      1.0  0.57113  0.16413  0.28916  1.0000
  O  Te33      1.0  0.57782  0.20668  0.46726  1.0000
  O  Te34      1.0  0.68390  0.26196  0.17327  1.0000
  O  Te35      1.0  0.63977  0.18679  0.03297  1.0000
  O  Te36      1.0  0.53367  0.13152  0.32701  1.0000
  Mg  Mg17      1.0  0.69205  0.24013  0.01930  1.0000
  Mg  Mg18      1.0  0.52548  0.15332  0.48087  1.0000
  C  Sn37      1.0  0.98714  0.46185  0.74289  1.0000
  C   C55       1.0  0.96425  0.47294  0.79425  1.0000
  C  Sn38      1.0  0.97835  0.51497  0.80157  1.0000
  C  Sn39      1.0  0.01611  0.54658  0.75651  1.0000
  C   C56       1.0  0.03897  0.53549  0.70516  1.0000
  C  Sn40      1.0  0.02489  0.49346  0.69783  1.0000
  O  Te37      1.0  0.97245  0.41964  0.73650  1.0000
  O  Te38      1.0  0.95494  0.52529  0.85337  1.0000
  O  Te39      1.0  0.03079  0.58882  0.76295  1.0000
  O  Te40      1.0  0.04828  0.48314  0.64604  1.0000
  Mg  Mg19      1.0  0.98787  0.58716  0.84140  1.0000
  Mg  Mg20      1.0  0.01537  0.42129  0.65787  1.0000
  C  Sn41      1.0  0.45356  0.46235  0.76890  1.0000
  C   C57       1.0  0.46840  0.50426  0.77998  1.0000
  C  Sn42      1.0  0.50991  0.53363  0.77148  1.0000
  C  Sn43      1.0  0.53713  0.52086  0.75136  1.0000
  C   C58       1.0  0.52229  0.47897  0.74026  1.0000
  C  Sn44      1.0  0.48079  0.44958  0.74878  1.0000
  O  Te41      1.0  0.41195  0.43353  0.77769  1.0000
  O  Te42      1.0  0.52403  0.57535  0.78293  1.0000
  O  Te43      1.0  0.57877  0.54972  0.74258  1.0000
  O  Te44      1.0  0.46666  0.40788  0.73731  1.0000
  Mg  Mg21      1.0  0.58333  0.60295  0.76418  1.0000
  Mg  Mg22      1.0  0.40736  0.38027  0.75594  1.0000
  C  Sn45      1.0  0.47690  0.00816  0.79356  1.0000
  C   C59       1.0  0.51934  0.03628  0.79270  1.0000
  C  Sn46      1.0  0.54273  0.02582  0.74142  1.0000
  C  Sn47      1.0  0.52327  0.98644  0.68980  1.0000
  C   C60       1.0  0.98003  0.95835  0.69064  1.0000
  C  Sn48      1.0  0.45744  0.96879  0.74194  1.0000
  O  Te45      1.0  0.45413  0.01928  0.84530  1.0000
  O  Te46      1.0  0.58513  0.05444  0.74169  1.0000
  O  Te47      1.0  0.54608  0.97534  0.63804  1.0000
  O  Te48      1.0  0.91425  0.94020  0.74165  1.0000
  Mg  Mg23      1.0  0.60292  0.02491  0.66028  1.0000
  Mg  Mg24      1.0  0.39723  0.96970  0.82293  1.0000
  C  Sn49      1.0  0.20594  0.56994  0.66247  1.0000
  C   C61       1.0  0.23247  0.61130  0.69108  1.0000
  C  Sn50      1.0  0.22140  0.62967  0.76720  1.0000
  C  Sn51      1.0  0.18303  0.60619  0.81587  1.0000
  C   C62       1.0  0.15654  0.56486  0.78729  1.0000
  C  Sn52      1.0  0.16758  0.54647  0.71114  1.0000
  O  Te49      1.0  0.21764  0.55222  0.58619  1.0000
  O  Te50      1.0  0.24842  0.67107  0.79444  1.0000
  O  Te51      1.0  0.17135  0.62396  0.89220  1.0000
  O  Te52      1.0  0.14059  0.50509  0.68393  1.0000
  Mg  Mg25      1.0  0.21866  0.68137  0.90271  1.0000
  Mg  Mg26      1.0  0.17033  0.49475  0.57576  1.0000
  C  Sn53      1.0  0.43404  0.65140  0.74316  1.0000
  C   C63       1.0  0.38841  0.63547  0.70211  1.0000
  C  Sn54      1.0  0.36285  0.59248  0.69941  1.0000
  C  Sn55      1.0  0.38332  0.56483  0.73866  1.0000
  C   C64       1.0  0.42893  0.58076  0.77971  1.0000
  C  Sn56      1.0  0.45452  0.62375  0.78241  1.0000
  O  Te53      1.0  0.45895  0.69449  0.74509  1.0000
  O  Te54      1.0  0.31728  0.57729  0.65793  1.0000
  O  Te55      1.0  0.35837  0.52171  0.73670  1.0000
  O  Te56      1.0  0.50006  0.63894  0.82389  1.0000
  Mg  Mg27      1.0  0.29746  0.51610  0.67254  1.0000
  Mg  Mg28      1.0  0.51991  0.70012  0.80941  1.0000
  C  Sn57      1.0  0.34614  0.78457  0.74620  1.0000
  C   C65       1.0  0.35922  0.76331  0.69336  1.0000
  C  Sn58      1.0  0.40161  0.78124  0.68718  1.0000
  C  Sn59      1.0  0.43159  0.82124  0.73493  1.0000
  C   C66       1.0  0.41851  0.84247  0.78776  1.0000
  C  Sn60      1.0  0.37611  0.82456  0.79395  1.0000
  O  Te57      1.0  0.30360  0.76604  0.75140  1.0000
  O  Te58      1.0  0.41392  0.75940  0.63386  1.0000
  O  Te59      1.0  0.47416  0.83976  0.72967  1.0000
  O  Te60      1.0  0.36380  0.84638  0.84726  1.0000
  Mg  Mg29      1.0  0.47548  0.79768  0.64834  1.0000
  Mg  Mg30      1.0  0.30226  0.80812  0.83292  1.0000
  C  Sn61      1.0  0.81350  0.39051  0.72357  1.0000
  C   C67       1.0  0.83449  0.43463  0.70416  1.0000
  C  Sn62      1.0  0.81656  0.45726  0.72203  1.0000
  C  Sn63      1.0  0.77682  0.43532  0.76022  1.0000
  C   C68       1.0  0.75586  0.39122  0.77964  1.0000
  C  Sn64      1.0  0.77377  0.36857  0.76176  1.0000
  O  Te61      1.0  0.83202  0.36853  0.70516  1.0000
  O  Te62      1.0  0.83814  0.50136  0.70198  1.0000
  O  Te63      1.0  0.75831  0.45734  0.77862  1.0000
  O  Te64      1.0  0.75221  0.32449  0.78182  1.0000
  Mg  Mg31      1.0  0.79997  0.51719  0.73946  1.0000
  Mg  Mg32      1.0  0.79036  0.30863  0.74447  1.0000
  C  Sn65      1.0  0.61521  0.43051  0.77274  1.0000
  C   C69       1.0  0.56886  0.41607  0.69937  1.0000
  C  Sn66      1.0  0.54326  0.37463  0.67125  1.0000
  C  Sn67      1.0  0.56443  0.34702  0.71753  1.0000
  C   C70       1.0  0.61075  0.36145  0.79089  1.0000
  C  Sn68      1.0  0.63638  0.40289  0.81903  1.0000
  O  Te65      1.0  0.64014  0.47206  0.79969  1.0000
  O  Te66      1.0  0.49697  0.36093  0.59765  1.0000
  O  Te67      1.0  0.53945  0.30543  0.69051  1.0000
  O  Te68      1.0  0.68264  0.41659  0.89260  1.0000
  Mg  Mg33      1.0  0.47742  0.30151  0.58658  1.0000
  Mg  Mg34      1.0  0.70222  0.47600  0.90382  1.0000
  C  Sn69      1.0  0.56663  0.18899  0.65611  1.0000
  C   C71       1.0  0.58998  0.16445  0.69719  1.0000
  C  Sn70      1.0  0.63626  0.17968  0.78205  1.0000
  C  Sn71      1.0  0.65970  0.22028  0.82690  1.0000
  C   C72       1.0  0.63636  0.24478  0.78585  1.0000
  C  Sn72      1.0  0.59008  0.22958  0.70096  1.0000
  O  Te69      1.0  0.52036  0.17312  0.57125  1.0000
  O  Te70      1.0  0.65887  0.15458  0.82171  1.0000
  O  Te71      1.0  0.70601  0.23613  0.91182  1.0000
  O  Te72      1.0  0.56747  0.25466  0.66134  1.0000
  Mg  Mg35      1.0  0.72190  0.19006  0.93818  1.0000
  Mg  Mg36      1.0  0.50444  0.21919  0.54496  1.0000
