data_image0
_chemical_formula_structural       C6N6H6C12H6C6N6H6C12H6C2Sn2C2HTe2HMgC2Sn2C2HTe2HMgC2Sn2C2HTe2HMgC2Sn2C2HTe2HMgC2Sn2C2HTe2HMgC2Sn2C2HTe2HMgC2Sn2C2HTe2HMgC2Sn2C2HTe2HMgC2Sn2C2HTe2HMgC2Sn2C2HTe2HMgC2Sn2C2HTe2HMgC2Sn2C2HTe2HMgC2Sn2C2HTe2HMgC2Sn2C2HTe2HMgC2Sn2C2HTe2HMgC2Sn2C2HTe2HMgC2Sn2C2HTe2HMgC2Sn2C2HTe2HMg
_chemical_formula_sum              "C108 N12 H60 Sn36 Te36 Mg18"
_cell_length_a       37.3702
_cell_length_b       37.2291
_cell_length_c       8.36198
_cell_angle_alpha    65.3662
_cell_angle_beta     119.748
_cell_angle_gamma    120.071

_symmetry_space_group_name_H-M    'P1'
_space_group_IT_number       1

loop_
  _space_group_symop_operation_xyz
  'x, y, z'

loop_
  _atom_site_type_symbol
  _atom_site_label
  _atom_site_symmetry_multiplicity
  _atom_site_fract_x
  _atom_site_fract_y
  _atom_site_fract_z
  _atom_site_occupancy
  C   C1        1.0  0.89160  0.45780  0.26745  1.0000
  C   C2        1.0  0.54325  0.43036  0.24519  1.0000
  C   C3        1.0  0.56770  0.11373  0.20055  1.0000
  C   C4        1.0  0.11040  0.53328  0.22518  1.0000
  C   C5        1.0  0.46926  0.57823  0.26294  1.0000
  C   C6        1.0  0.41705  0.88805  0.22858  1.0000
  N   N1        1.0  0.91201  0.44625  0.22095  1.0000
  N   N2        1.0  0.55981  0.46753  0.27922  1.0000
  N   N3        1.0  0.53667  0.08555  0.26589  1.0000
  N   N4        1.0  0.08928  0.54416  0.27061  1.0000
  N   N5        1.0  0.45467  0.53921  0.25362  1.0000
  N   N6        1.0  0.45722  0.91297  0.23585  1.0000
  H   H1        1.0  0.90804  0.48677  0.32126  1.0000
  H   H2        1.0  0.50770  0.41036  0.21046  1.0000
  H   H3        1.0  0.57863  0.10669  0.12026  1.0000
  H   H4        1.0  0.09493  0.50429  0.17260  1.0000
  H   H5        1.0  0.50326  0.60066  0.27184  1.0000
  H   H6        1.0  0.39324  0.89899  0.21672  1.0000
  C   C7        1.0  0.34988  0.70922  0.24450  1.0000
  C   C8        1.0  0.37439  0.69262  0.23021  1.0000
  C   C9        1.0  0.29044  0.63833  0.25421  1.0000
  C   C10       1.0  0.30804  0.68151  0.25606  1.0000
  C   C11       1.0  0.35927  0.64911  0.23854  1.0000
  C   C12       1.0  0.31715  0.62265  0.24999  1.0000
  C   C13       1.0  0.65177  0.28795  0.27650  1.0000
  C   C14       1.0  0.62763  0.30762  0.27313  1.0000
  C   C15       1.0  0.71439  0.35660  0.27562  1.0000
  C   C16       1.0  0.69564  0.31273  0.28375  1.0000
  C   C17       1.0  0.64573  0.35105  0.27209  1.0000
  C   C18       1.0  0.68888  0.37509  0.27003  1.0000
  H   H7        1.0  0.28917  0.69382  0.27038  1.0000
  H   H8        1.0  0.30536  0.58888  0.26006  1.0000
  H   H9        1.0  0.40550  0.71406  0.20905  1.0000
  H   H10       1.0  0.71560  0.29771  0.29543  1.0000
  H   H11       1.0  0.70238  0.40918  0.25794  1.0000
  H   H12       1.0  0.59397  0.28875  0.27093  1.0000
  C   C19       1.0  0.88697  0.46887  0.75407  1.0000
  C   C20       1.0  0.53164  0.42610  0.70952  1.0000
  C   C21       1.0  0.57968  0.11297  0.75102  1.0000
  C   C22       1.0  0.10825  0.53948  0.73296  1.0000
  C   C23       1.0  0.45796  0.56823  0.76710  1.0000
  C   C24       1.0  0.43187  0.88669  0.78291  1.0000
  N   N7        1.0  0.91196  0.45411  0.75521  1.0000
  N   N8        1.0  0.54757  0.45708  0.78808  1.0000
  N   N9        1.0  0.53953  0.08774  0.74248  1.0000
  N   N10       1.0  0.08436  0.55391  0.74241  1.0000
  N   N11       1.0  0.44101  0.53314  0.71442  1.0000
  N   N12       1.0  0.46311  0.91479  0.71856  1.0000
  H   H13       1.0  0.89695  0.50280  0.74367  1.0000
  H   H14       1.0  0.49640  0.41327  0.62016  1.0000
  H   H15       1.0  0.60347  0.10254  0.75914  1.0000
  H   H16       1.0  0.09627  0.50646  0.72378  1.0000
  H   H17       1.0  0.49400  0.58509  0.82972  1.0000
  H   H18       1.0  0.42053  0.89415  0.86009  1.0000
  C   C25       1.0  0.34889  0.71064  0.73084  1.0000
  C   C26       1.0  0.37310  0.69106  0.73418  1.0000
  C   C27       1.0  0.28722  0.64129  0.74341  1.0000
  C   C28       1.0  0.30544  0.68545  0.72903  1.0000
  C   C29       1.0  0.35561  0.64732  0.74190  1.0000
  C   C30       1.0  0.31318  0.62291  0.75167  1.0000
  C   C31       1.0  0.64892  0.29083  0.75372  1.0000
  C   C32       1.0  0.62530  0.30730  0.77478  1.0000
  C   C33       1.0  0.70927  0.36120  0.75032  1.0000
  C   C34       1.0  0.69037  0.31858  0.73746  1.0000
  C   C35       1.0  0.64164  0.35051  0.77412  1.0000
  C   C36       1.0  0.68423  0.37654  0.76834  1.0000
  H   H19       1.0  0.28552  0.70061  0.71635  1.0000
  H   H20       1.0  0.30060  0.58868  0.77000  1.0000
  H   H21       1.0  0.40627  0.71025  0.73083  1.0000
  H   H22       1.0  0.70733  0.30720  0.70596  1.0000
  H   H23       1.0  0.69755  0.40964  0.77373  1.0000
  H   H24       1.0  0.59406  0.28618  0.79565  1.0000
  C   C37       1.0  0.00861  0.53903  0.22427  1.0000
  C   C38       1.0  0.04028  0.52356  0.26695  1.0000
  C  Sn1       1.0  0.02810  0.48039  0.28383  1.0000
  C  Sn2       1.0  0.98335  0.45226  0.25735  1.0000
  C   C39       1.0  0.95190  0.46806  0.21456  1.0000
  C   C40       1.0  0.96446  0.51131  0.19806  1.0000
  H   H25       1.0  0.01831  0.57250  0.21140  1.0000
  O  Te1       1.0  0.06017  0.46546  0.32661  1.0000
  O  Te2       1.0  0.97027  0.40897  0.27332  1.0000
  H   H26       1.0  0.93992  0.52329  0.16489  1.0000
  Mg  Mg1       1.0  0.02611  0.40383  0.33370  1.0000
  C   C41       1.0  0.55351  0.52963  0.35257  1.0000
  C   C42       1.0  0.53807  0.49248  0.29535  1.0000
  C  Sn3       1.0  0.49253  0.47078  0.21115  1.0000
  C  Sn4       1.0  0.46195  0.48667  0.18387  1.0000
  C   C43       1.0  0.47773  0.52388  0.24149  1.0000
  C   C44       1.0  0.52337  0.54532  0.32565  1.0000
  H   H27       1.0  0.58882  0.54624  0.41760  1.0000
  O  Te3       1.0  0.47767  0.43370  0.15488  1.0000
  O  Te4       1.0  0.41626  0.46563  0.10002  1.0000
  H   H28       1.0  0.53532  0.57410  0.36983  1.0000
  Mg  Mg2       1.0  0.41224  0.41633  0.04714  1.0000
  C   C45       1.0  0.46368  0.00986  0.24882  1.0000
  C   C46       1.0  0.50717  0.03721  0.26093  1.0000
  C  Sn5       1.0  0.53445  0.02350  0.25069  1.0000
  C  Sn6       1.0  0.01696  0.98161  0.22786  1.0000
  C   C47       1.0  0.97339  0.95450  0.21576  1.0000
  C   C48       1.0  0.94638  0.96855  0.22622  1.0000
  H   H29       1.0  0.44277  0.02073  0.25681  1.0000
  O  Te5       1.0  0.57783  0.05123  0.26310  1.0000
  O  Te6       1.0  0.04351  0.96708  0.21715  1.0000
  H   H30       1.0  0.91270  0.94737  0.21672  1.0000
  Mg  Mg3       1.0  0.60117  0.01673  0.24115  1.0000
  C   C49       1.0  0.19024  0.54595  0.20676  1.0000
  C   C50       1.0  0.16230  0.55356  0.24357  1.0000
  C  Sn7       1.0  0.17576  0.59246  0.28207  1.0000
  C  Sn8       1.0  0.21799  0.62428  0.28359  1.0000
  C   C51       1.0  0.24568  0.61637  0.24646  1.0000
  C   C52       1.0  0.23189  0.57733  0.20816  1.0000
  H   H31       1.0  0.17956  0.51575  0.17702  1.0000
  O  Te7       1.0  0.14743  0.59952  0.31861  1.0000
  O  Te8       1.0  0.23226  0.66345  0.32158  1.0000
  H   H32       1.0  0.25352  0.57146  0.17954  1.0000
  Mg  Mg4       1.0  0.18180  0.65799  0.36288  1.0000
  C   C53       1.0  0.44447  0.65533  0.28763  1.0000
  C   C54       1.0  0.39865  0.63832  0.24422  1.0000
  C  Sn9       1.0  0.37315  0.59726  0.21121  1.0000
  C  Sn10      1.0  0.39401  0.57285  0.22201  1.0000
  C   C55       1.0  0.43988  0.59014  0.26567  1.0000
  C   C56       1.0  0.46507  0.63127  0.29838  1.0000
  H   H33       1.0  0.46397  0.68714  0.31304  1.0000
  O  Te9       1.0  0.32741  0.58075  0.16794  1.0000
  O  Te10      1.0  0.36932  0.53172  0.18974  1.0000
  H   H34       1.0  0.50055  0.64442  0.33210  1.0000
  Mg  Mg5       1.0  0.30798  0.52319  0.13547  1.0000
  C   C57       1.0  0.34584  0.80708  0.19973  1.0000
  C   C58       1.0  0.38962  0.83645  0.24285  1.0000
  C  Sn11      1.0  0.42387  0.82496  0.28108  1.0000
  C  Sn12      1.0  0.41401  0.78328  0.27589  1.0000
  C   C59       1.0  0.37010  0.75413  0.23248  1.0000
  C   C60       1.0  0.33608  0.76596  0.19451  1.0000
  H   H35       1.0  0.31952  0.81623  0.17025  1.0000
  O  Te11      1.0  0.46743  0.85470  0.32398  1.0000
  O  Te12      1.0  0.44760  0.77096  0.31346  1.0000
  H   H36       1.0  0.30218  0.74322  0.16101  1.0000
  Mg  Mg6       1.0  0.50176  0.82281  0.36491  1.0000
  C   C61       1.0  0.81656  0.44608  0.31918  1.0000
  C   C62       1.0  0.84240  0.43665  0.27747  1.0000
  C  Sn13      1.0  0.82484  0.39919  0.21859  1.0000
  C  Sn14      1.0  0.78058  0.37072  0.20124  1.0000
  C   C63       1.0  0.75500  0.38046  0.24318  1.0000
  C   C64       1.0  0.77290  0.41802  0.30203  1.0000
  H   H37       1.0  0.83041  0.47515  0.36462  1.0000
  O  Te13      1.0  0.85111  0.39025  0.17755  1.0000
  O  Te14      1.0  0.76220  0.33307  0.14262  1.0000
  H   H38       1.0  0.75289  0.42533  0.33420  1.0000
  Mg  Mg7       1.0  0.81118  0.33494  0.10299  1.0000
  C   C65       1.0  0.64049  0.42042  0.32135  1.0000
  C   C66       1.0  0.62592  0.38036  0.29066  1.0000
  C  Sn15      1.0  0.58057  0.35568  0.22661  1.0000
  C  Sn16      1.0  0.54931  0.37149  0.19273  1.0000
  C   C67       1.0  0.56422  0.41161  0.22373  1.0000
  C   C68       1.0  0.60967  0.43604  0.28790  1.0000
  H   H39       1.0  0.67565  0.43933  0.37090  1.0000
  O  Te15      1.0  0.56659  0.31572  0.19675  1.0000
  O  Te16      1.0  0.50379  0.34749  0.12861  1.0000
  H   H40       1.0  0.62094  0.46706  0.31153  1.0000
  Mg  Mg8       1.0  0.50107  0.29493  0.10883  1.0000
  C   C69       1.0  0.57257  0.18096  0.30419  1.0000
  C   C70       1.0  0.58266  0.16098  0.23139  1.0000
  C  Sn17      1.0  0.61988  0.18262  0.17985  1.0000
  C  Sn18      1.0  0.64746  0.22504  0.20181  1.0000
  C   C71       1.0  0.63709  0.24474  0.27491  1.0000
  C   C72       1.0  0.59976  0.22280  0.32597  1.0000
  H   H41       1.0  0.54370  0.16398  0.34381  1.0000
  O  Te17      1.0  0.62948  0.16218  0.10726  1.0000
  O  Te18      1.0  0.68487  0.24740  0.15149  1.0000
  H   H42       1.0  0.59197  0.23827  0.38245  1.0000
  Mg  Mg9       1.0  0.68412  0.20590  0.05886  1.0000
  C   C73       1.0  0.00553  0.47790  0.68522  1.0000
  C   C74       1.0  0.03440  0.51901  0.71290  1.0000
  C  Sn19      1.0  0.02383  0.54112  0.77290  1.0000
  C  Sn20      1.0  0.98359  0.52162  0.80574  1.0000
  C   C75       1.0  0.95494  0.48047  0.77777  1.0000
  C   C76       1.0  0.96584  0.45864  0.71765  1.0000
  H   H43       1.0  0.01396  0.46100  0.63880  1.0000
  O  Te19      1.0  0.05304  0.58218  0.79979  1.0000
  O  Te20      1.0  0.97222  0.54299  0.86584  1.0000
  H   H44       1.0  0.94349  0.42679  0.69635  1.0000
  Mg  Mg10      1.0  0.02285  0.59839  0.88265  1.0000
  C   C77       1.0  0.53954  0.52642  0.79060  1.0000
  C   C78       1.0  0.52597  0.48395  0.79065  1.0000
  C  Sn21      1.0  0.48129  0.45711  0.75132  1.0000
  C  Sn22      1.0  0.44968  0.47318  0.71119  1.0000
  C   C79       1.0  0.46358  0.51572  0.71135  1.0000
  C   C80       1.0  0.50838  0.54230  0.75096  1.0000
  H   H45       1.0  0.57420  0.54700  0.82114  1.0000
  O  Te21      1.0  0.46830  0.41476  0.75203  1.0000
  O  Te22      1.0  0.40480  0.44705  0.67134  1.0000
  H   H46       1.0  0.51887  0.57518  0.75079  1.0000
  Mg  Mg11      1.0  0.40337  0.39164  0.68929  1.0000
  C   C81       1.0  0.03585  0.99155  0.73045  1.0000
  C   C82       1.0  0.49361  0.96234  0.74066  1.0000
  C  Sn23      1.0  0.96601  0.97574  0.74416  1.0000
  C  Sn24      1.0  0.97939  0.01922  0.73724  1.0000
  C   C83       1.0  0.02088  0.04820  0.72691  1.0000
  C   C84       1.0  0.04907  0.03445  0.72355  1.0000
  H   H47       1.0  0.05765  0.98092  0.72774  1.0000
  O  Te23      1.0  0.42393  0.94612  0.75445  1.0000
  O  Te24      1.0  0.95162  0.03347  0.74046  1.0000
  H   H48       1.0  0.08112  0.05708  0.71552  1.0000
  Mg  Mg12      1.0  0.89861  0.98099  0.75526  1.0000
  C   C85       1.0  0.20808  0.63077  0.77101  1.0000
  C   C86       1.0  0.23768  0.61873  0.76847  1.0000
  C  Sn25      1.0  0.22345  0.57869  0.73855  1.0000
  C  Sn26      1.0  0.17874  0.55025  0.71066  1.0000
  C   C87       1.0  0.14938  0.56262  0.71333  1.0000
  C   C88       1.0  0.16398  0.60275  0.74344  1.0000
  H   H49       1.0  0.21936  0.66184  0.79421  1.0000
  O  Te25      1.0  0.25345  0.56715  0.73651  1.0000
  O  Te26      1.0  0.16363  0.51005  0.68039  1.0000
  H   H50       1.0  0.14105  0.61208  0.74528  1.0000
  Mg  Mg13      1.0  0.21709  0.50893  0.68997  1.0000
  C   C89       1.0  0.45185  0.63746  0.80129  1.0000
  C   C90       1.0  0.43752  0.59734  0.77177  1.0000
  C  Sn27      1.0  0.39241  0.57153  0.71761  1.0000
  C  Sn28      1.0  0.36114  0.58625  0.69261  1.0000
  C   C91       1.0  0.37581  0.62645  0.72237  1.0000
  C   C92       1.0  0.42103  0.65201  0.77659  1.0000
  H   H51       1.0  0.48683  0.65724  0.84315  1.0000
  O  Te27      1.0  0.37866  0.53153  0.68877  1.0000
  O  Te28      1.0  0.31586  0.56112  0.63848  1.0000
  H   H52       1.0  0.43211  0.68308  0.79932  1.0000
  Mg  Mg14      1.0  0.31341  0.50897  0.61609  1.0000
  C   C93       1.0  0.41568  0.79532  0.67873  1.0000
  C   C94       1.0  0.38052  0.76220  0.73282  1.0000
  C  Sn29      1.0  0.35795  0.77027  0.79839  1.0000
  C  Sn30      1.0  0.37090  0.81232  0.80981  1.0000
  C   C95       1.0  0.40610  0.84524  0.75522  1.0000
  C   C96       1.0  0.42846  0.83680  0.68987  1.0000
  H   H53       1.0  0.43297  0.78880  0.62807  1.0000
  O  Te29      1.0  0.32291  0.73681  0.85192  1.0000
  O  Te30      1.0  0.34891  0.82128  0.87476  1.0000
  H   H54       1.0  0.45567  0.86246  0.64789  1.0000
  Mg  Mg15      1.0  0.30321  0.76499  0.93133  1.0000
  C   C97       1.0  0.80227  0.45842  0.71518  1.0000
  C   C98       1.0  0.83690  0.44666  0.76049  1.0000
  C  Sn31      1.0  0.82924  0.40399  0.79033  1.0000
  C  Sn32      1.0  0.78608  0.37259  0.77436  1.0000
  C   C99       1.0  0.75165  0.38469  0.72884  1.0000
  C   C100      1.0  0.75968  0.42747  0.69934  1.0000
  H   H55       1.0  0.80848  0.49152  0.69225  1.0000
  O  Te31      1.0  0.86422  0.39279  0.83556  1.0000
  O  Te32      1.0  0.77749  0.32972  0.80338  1.0000
  H   H56       1.0  0.73286  0.43657  0.66414  1.0000
  Mg  Mg16      1.0  0.83599  0.33025  0.86209  1.0000
  C   C101      1.0  0.61768  0.42457  0.83489  1.0000
  C   C102      1.0  0.57169  0.41332  0.74489  1.0000
  C  Sn33      1.0  0.54555  0.37723  0.66823  1.0000
  C  Sn34      1.0  0.56591  0.35198  0.68220  1.0000
  C   C103      1.0  0.61194  0.36349  0.77263  1.0000
  C   C104      1.0  0.63779  0.39968  0.84879  1.0000
  H   H57       1.0  0.63768  0.45256  0.89391  1.0000
  O  Te33      1.0  0.49965  0.36645  0.57873  1.0000
  O  Te34      1.0  0.54057  0.31574  0.60688  1.0000
  H   H58       1.0  0.67339  0.40836  0.91857  1.0000
  Mg  Mg17      1.0  0.47927  0.31414  0.49825  1.0000
  C   C105      1.0  0.56658  0.18637  0.71392  1.0000
  C   C106      1.0  0.58827  0.16218  0.73527  1.0000
  C  Sn35      1.0  0.63381  0.18030  0.77146  1.0000
  C  Sn36      1.0  0.65801  0.22344  0.78652  1.0000
  C   C107      1.0  0.63602  0.24736  0.76506  1.0000
  C   C108      1.0  0.59043  0.22892  0.72882  1.0000
  H   H59       1.0  0.53132  0.17210  0.68598  1.0000
  O  Te35      1.0  0.65495  0.15568  0.79235  1.0000
  O  Te36      1.0  0.70356  0.24234  0.82268  1.0000
  H   H60       1.0  0.57366  0.24765  0.71241  1.0000
  Mg  Mg18      1.0  0.71749  0.19574  0.84018  1.0000
