data_image0
_chemical_formula_structural       C6NHNHNHNHNHNHO6C12H6C6NHNHNHNHNHNHO6C12H6C2Sn2C2HTe2HMgC2Sn2C2HTe2HMgC2Sn2C2HTe2HMgC2Sn2C2HTe2HMgC2Sn2C2HTe2HMgC2Sn2C2HTe2HMgC2Sn2C2HTe2HMgC2Sn2C2HTe2HMgC2Sn2C2HTe2HMgC2Sn2C2HTe2HMgC2Sn2C2HTe2HMgC2Sn2C2HTe2HMgC2Sn2C2HTe2HMgC2Sn2C2HTe2HMgC2Sn2C2HTe2HMgC2Sn2C2HTe2HMgC2Sn2C2HTe2HMgC2Sn2C2HTe2HMg
_chemical_formula_sum              "C108 N12 H60 O12 Sn36 Te36 Mg18"
_cell_length_a       37.3788
_cell_length_b       37.4259
_cell_length_c       8.47027
_cell_angle_alpha    121.68
_cell_angle_beta     85.2412
_cell_angle_gamma    119.968

_symmetry_space_group_name_H-M    'P1'
_space_group_IT_number       1

loop_
  _space_group_symop_operation_xyz
  'x, y, z'

loop_
  _atom_site_type_symbol
  _atom_site_label
  _atom_site_symmetry_multiplicity
  _atom_site_fract_x
  _atom_site_fract_y
  _atom_site_fract_z
  _atom_site_occupancy
  C   C1        1.0  0.88663  0.47430  0.23836  1.0000
  C   C2        1.0  0.52323  0.40827  0.25970  1.0000
  C   C3        1.0  0.58975  0.11030  0.23685  1.0000
  C   C4        1.0  0.11596  0.53358  0.28805  1.0000
  C   C5        1.0  0.47559  0.58581  0.25525  1.0000
  C   C6        1.0  0.41368  0.88341  0.23436  1.0000
  N   N1        1.0  0.91548  0.46558  0.27731  1.0000
  H   H1        1.0  0.90677  0.44859  0.34835  1.0000
  N   N2        1.0  0.53804  0.44796  0.24419  1.0000
  H   H2        1.0  0.56666  0.46009  0.21078  1.0000
  N   N3        1.0  0.54810  0.08549  0.24696  1.0000
  H   H3        1.0  0.52926  0.09554  0.22520  1.0000
  N   N4        1.0  0.08735  0.54167  0.24200  1.0000
  H   H4        1.0  0.09746  0.56233  0.18581  1.0000
  N   N5        1.0  0.45957  0.54420  0.25939  1.0000
  H   H5        1.0  0.42856  0.52745  0.26353  1.0000
  N   N6        1.0  0.45643  0.91184  0.24686  1.0000
  H   H6        1.0  0.47568  0.90368  0.27952  1.0000
  O   O1        1.0  0.89559  0.50305  0.18883  1.0000
  O   O2        1.0  0.48686  0.38492  0.27470  1.0000
  O   O3        1.0  0.61444  0.09665  0.22685  1.0000
  O   O4        1.0  0.10627  0.50652  0.34688  1.0000
  O   O5        1.0  0.51272  0.61037  0.25064  1.0000
  O   O6        1.0  0.38753  0.89309  0.21876  1.0000
  C   C7        1.0  0.35079  0.70699  0.24115  1.0000
  C   C8        1.0  0.29062  0.63606  0.23592  1.0000
  C   C9        1.0  0.36015  0.64520  0.22873  1.0000
  C   C10       1.0  0.37647  0.68940  0.23875  1.0000
  C   C11       1.0  0.30824  0.68032  0.24503  1.0000
  C   C12       1.0  0.31674  0.61811  0.22136  1.0000
  C   C13       1.0  0.65321  0.29230  0.27526  1.0000
  C   C14       1.0  0.71141  0.36145  0.26502  1.0000
  C   C15       1.0  0.63986  0.34746  0.25277  1.0000
  C   C16       1.0  0.62585  0.30694  0.26634  1.0000
  C   C17       1.0  0.69626  0.32131  0.28285  1.0000
  C   C18       1.0  0.68243  0.37329  0.24673  1.0000
  H   H7        1.0  0.28814  0.69438  0.25787  1.0000
  H   H8        1.0  0.30317  0.58275  0.20533  1.0000
  H   H9        1.0  0.41021  0.71095  0.24900  1.0000
  H   H10       1.0  0.71830  0.31255  0.30458  1.0000
  H   H11       1.0  0.69269  0.40176  0.21891  1.0000
  H   H12       1.0  0.59282  0.28571  0.26678  1.0000
  C   C19       1.0  0.88426  0.46917  0.72818  1.0000
  C   C20       1.0  0.52416  0.41360  0.74760  1.0000
  C   C21       1.0  0.58454  0.11236  0.74177  1.0000
  C   C22       1.0  0.11329  0.52662  0.76630  1.0000
  C   C23       1.0  0.47708  0.59153  0.74229  1.0000
  C   C24       1.0  0.40742  0.88564  0.73802  1.0000
  N   N7        1.0  0.91301  0.46104  0.77258  1.0000
  H   H13       1.0  0.90387  0.44314  0.83993  1.0000
  N   N8        1.0  0.54033  0.45532  0.74407  1.0000
  H   H14       1.0  0.57149  0.47240  0.74231  1.0000
  N   N9        1.0  0.54236  0.08678  0.74423  1.0000
  H   H15       1.0  0.52375  0.09668  0.71929  1.0000
  N   N10       1.0  0.08558  0.53907  0.74658  1.0000
  H   H16       1.0  0.09516  0.55938  0.68889  1.0000
  N   N11       1.0  0.46207  0.55174  0.75751  1.0000
  H   H17       1.0  0.43353  0.53993  0.79184  1.0000
  N   N12       1.0  0.45014  0.91396  0.74942  1.0000
  H   H18       1.0  0.46942  0.90638  0.78610  1.0000
  O   O7        1.0  0.89345  0.49599  0.66861  1.0000
  O   O8        1.0  0.48712  0.38945  0.75407  1.0000
  O   O9        1.0  0.60936  0.09931  0.73755  1.0000
  O   O10       1.0  0.10337  0.49435  0.79718  1.0000
  O   O11       1.0  0.51365  0.61529  0.73021  1.0000
  O   O12       1.0  0.38123  0.89557  0.72539  1.0000
  C   C25       1.0  0.34696  0.70822  0.73394  1.0000
  C   C26       1.0  0.28981  0.64100  0.75851  1.0000
  C   C27       1.0  0.36048  0.65299  0.75634  1.0000
  C   C28       1.0  0.37402  0.69276  0.73821  1.0000
  C   C29       1.0  0.30447  0.68041  0.73669  1.0000
  C   C30       1.0  0.31859  0.62850  0.77246  1.0000
  C   C31       1.0  0.64944  0.29322  0.76967  1.0000
  C   C32       1.0  0.70989  0.36535  0.78372  1.0000
  C   C33       1.0  0.63899  0.35328  0.77376  1.0000
  C   C34       1.0  0.62292  0.30907  0.76348  1.0000
  C   C35       1.0  0.69261  0.32158  0.77819  1.0000
  C   C36       1.0  0.68269  0.38140  0.78810  1.0000
  H   H19       1.0  0.28195  0.68891  0.71798  1.0000
  H   H20       1.0  0.30884  0.60081  0.80441  1.0000
  H   H21       1.0  0.40642  0.71202  0.72690  1.0000
  H   H22       1.0  0.71303  0.30907  0.78142  1.0000
  H   H23       1.0  0.69545  0.41622  0.80082  1.0000
  H   H24       1.0  0.58892  0.28563  0.74345  1.0000
  C   C37       1.0  0.98801  0.46196  0.27067  1.0000
  C   C38       1.0  0.96323  0.48082  0.27881  1.0000
  C  Sn1       1.0  0.97965  0.52134  0.26379  1.0000
  C  Sn2       1.0  0.02166  0.54329  0.24015  1.0000
  C   C39       1.0  0.04619  0.52412  0.23205  1.0000
  C   C40       1.0  0.02945  0.48357  0.24729  1.0000
  H   H25       1.0  0.97505  0.43057  0.28235  1.0000
  O  Te1       1.0  0.95446  0.53973  0.27228  1.0000
  O  Te2       1.0  0.03886  0.58380  0.22470  1.0000
  H   H26       1.0  0.04863  0.46896  0.24086  1.0000
  Mg  Mg1       1.0  0.99209  0.59556  0.24454  1.0000
  C   C41       1.0  0.53248  0.53754  0.24340  1.0000
  C   C42       1.0  0.49045  0.52505  0.24311  1.0000
  C  Sn3       1.0  0.46135  0.48474  0.25355  1.0000
  C  Sn4       1.0  0.47468  0.45648  0.26454  1.0000
  C   C43       1.0  0.51681  0.46929  0.26487  1.0000
  C   C44       1.0  0.54566  0.50970  0.25430  1.0000
  H   H27       1.0  0.55481  0.56881  0.23533  1.0000
  O  Te3       1.0  0.41947  0.47276  0.25303  1.0000
  O  Te4       1.0  0.44627  0.41601  0.27518  1.0000
  H   H28       1.0  0.57821  0.51937  0.25466  1.0000
  Mg  Mg2       1.0  0.39256  0.41431  0.26986  1.0000
  C   C45       1.0  0.97138  0.00754  0.21232  1.0000
  C   C46       1.0  0.51536  0.03859  0.25088  1.0000
  C  Sn5       1.0  0.04241  0.02611  0.28304  1.0000
  C  Sn6       1.0  0.02471  0.98168  0.27633  1.0000
  C   C47       1.0  0.98053  0.95085  0.23750  1.0000
  C   C48       1.0  0.95391  0.96371  0.20559  1.0000
  H   H29       1.0  0.95078  0.01747  0.18753  1.0000
  O  Te5       1.0  0.58627  0.05756  0.32145  1.0000
  O  Te6       1.0  0.05087  0.96831  0.30786  1.0000
  H   H30       1.0  0.91975  0.93965  0.17562  1.0000
  Mg  Mg3       1.0  0.10887  0.02330  0.35481  1.0000
  C   C49       1.0  0.22310  0.56799  0.31410  1.0000
  C   C50       1.0  0.24290  0.60007  0.25332  1.0000
  C  Sn7       1.0  0.22048  0.61484  0.20356  1.0000
  C  Sn8       1.0  0.17744  0.59711  0.21504  1.0000
  C   C51       1.0  0.15793  0.56506  0.27615  1.0000
  C   C52       1.0  0.18065  0.55050  0.32554  1.0000
  H   H31       1.0  0.24069  0.55674  0.35242  1.0000
  O  Te7       1.0  0.24075  0.64690  0.14305  1.0000
  O  Te8       1.0  0.15429  0.61130  0.16624  1.0000
  H   H32       1.0  0.16532  0.52568  0.37271  1.0000
  Mg  Mg4       1.0  0.19586  0.65561  0.09192  1.0000
  C   C53       1.0  0.39461  0.58105  0.30572  1.0000
  C   C54       1.0  0.43262  0.59020  0.24769  1.0000
  C  Sn9       1.0  0.45078  0.62199  0.18516  1.0000
  C  Sn10      1.0  0.43043  0.64500  0.18085  1.0000
  C   C55       1.0  0.39242  0.63563  0.23933  1.0000
  C   C56       1.0  0.37452  0.60374  0.30159  1.0000
  H   H33       1.0  0.38077  0.55640  0.35399  1.0000
  O  Te9       1.0  0.48877  0.63071  0.12761  1.0000
  O  Te10      1.0  0.44789  0.67695  0.11907  1.0000
  H   H34       1.0  0.34510  0.59669  0.34663  1.0000
  Mg  Mg5       1.0  0.50012  0.67714  0.05487  1.0000
  C   C57       1.0  0.41807  0.78633  0.21210  1.0000
  C   C58       1.0  0.37953  0.75979  0.24658  1.0000
  C  Sn11      1.0  0.34916  0.77245  0.27068  1.0000
  C  Sn12      1.0  0.35763  0.81244  0.25995  1.0000
  C   C59       1.0  0.39627  0.83874  0.22526  1.0000
  C   C60       1.0  0.42644  0.82577  0.20141  1.0000
  H   H35       1.0  0.44141  0.77628  0.19354  1.0000
  O  Te11      1.0  0.31082  0.74556  0.30510  1.0000
  O  Te12      1.0  0.32783  0.82587  0.28343  1.0000
  H   H36       1.0  0.45627  0.84630  0.17460  1.0000
  Mg  Mg6       1.0  0.28026  0.77800  0.32752  1.0000
  C   C61       1.0  0.79332  0.37229  0.22309  1.0000
  C   C62       1.0  0.76315  0.38554  0.26037  1.0000
  C  Sn13      1.0  0.77271  0.42963  0.28539  1.0000
  C  Sn14      1.0  0.81326  0.46096  0.27272  1.0000
  C   C63       1.0  0.84322  0.44736  0.23523  1.0000
  C   C64       1.0  0.83332  0.40316  0.21050  1.0000
  H   H37       1.0  0.78566  0.33808  0.20384  1.0000
  O  Te13      1.0  0.74220  0.44232  0.32261  1.0000
  O  Te14      1.0  0.82365  0.50523  0.29706  1.0000
  H   H38       1.0  0.85668  0.39289  0.18151  1.0000
  Mg  Mg7       1.0  0.77139  0.50644  0.34519  1.0000
  C   C65       1.0  0.62492  0.41983  0.29042  1.0000
  C   C66       1.0  0.61526  0.37569  0.26534  1.0000
  C  Sn15      1.0  0.57294  0.33818  0.22391  1.0000
  C  Sn16      1.0  0.53976  0.34509  0.20730  1.0000
  C   C67       1.0  0.54976  0.38937  0.23251  1.0000
  C   C68       1.0  0.59221  0.42667  0.27399  1.0000
  H   H39       1.0  0.65777  0.44868  0.32241  1.0000
  O  Te15      1.0  0.56385  0.29431  0.19936  1.0000
  O  Te16      1.0  0.49719  0.30820  0.16592  1.0000
  H   H40       1.0  0.59968  0.46083  0.29327  1.0000
  Mg  Mg8       1.0  0.50090  0.25495  0.14488  1.0000
  C   C69       1.0  0.58910  0.21491  0.32083  1.0000
  C   C70       1.0  0.62727  0.24222  0.28637  1.0000
  C  Sn17      1.0  0.65389  0.22410  0.21815  1.0000
  C  Sn18      1.0  0.64199  0.17774  0.18388  1.0000
  C   C71       1.0  0.60373  0.15068  0.21868  1.0000
  C   C72       1.0  0.57733  0.16918  0.28700  1.0000
  H   H41       1.0  0.56866  0.22920  0.37359  1.0000
  O  Te17      1.0  0.69192  0.25187  0.18455  1.0000
  O  Te18      1.0  0.66800  0.15874  0.11564  1.0000
  H   H42       1.0  0.54777  0.14801  0.31355  1.0000
  Mg  Mg9       1.0  0.71668  0.21034  0.09175  1.0000
  C   C73       1.0  0.98549  0.45689  0.76371  1.0000
  C   C74       1.0  0.96082  0.47613  0.77514  1.0000
  C  Sn19      1.0  0.97763  0.51776  0.76723  1.0000
  C  Sn20      1.0  0.01992  0.54047  0.74743  1.0000
  C   C75       1.0  0.04433  0.52093  0.73598  1.0000
  C   C76       1.0  0.02720  0.47926  0.74411  1.0000
  H   H43       1.0  0.97223  0.42464  0.76989  1.0000
  O  Te19      1.0  0.95255  0.53651  0.77893  1.0000
  O  Te20      1.0  0.03751  0.58211  0.73908  1.0000
  H   H44       1.0  0.04630  0.46436  0.73513  1.0000
  Mg  Mg10      1.0  0.99074  0.59395  0.76097  1.0000
  C   C77       1.0  0.45803  0.47598  0.76001  1.0000
  C   C78       1.0  0.47668  0.51979  0.76606  1.0000
  C  Sn21      1.0  0.51878  0.54264  0.75225  1.0000
  C  Sn22      1.0  0.54258  0.52113  0.73197  1.0000
  C   C79       1.0  0.52362  0.47727  0.72592  1.0000
  C   C80       1.0  0.48147  0.45473  0.73993  1.0000
  H   H45       1.0  0.42541  0.45852  0.77074  1.0000
  O  Te21      1.0  0.53693  0.58641  0.75863  1.0000
  O  Te22      1.0  0.58471  0.54318  0.71778  1.0000
  H   H46       1.0  0.46703  0.42079  0.73511  1.0000
  Mg  Mg11      1.0  0.59539  0.60254  0.73378  1.0000
  C   C81       1.0  0.04057  0.01569  0.78879  1.0000
  C   C82       1.0  0.02630  0.03784  0.74185  1.0000
  C  Sn23      1.0  0.98292  0.01986  0.70520  1.0000
  C  Sn24      1.0  0.95336  0.97894  0.71591  1.0000
  C   C83       1.0  0.96796  0.95706  0.76311  1.0000
  C   C84       1.0  0.01143  0.97534  0.79945  1.0000
  H   H47       1.0  0.07421  0.02985  0.81701  1.0000
  O  Te23      1.0  0.96921  0.04241  0.65844  1.0000
  O  Te24      1.0  0.90983  0.96023  0.68004  1.0000
  H   H48       1.0  0.02247  0.95820  0.83591  1.0000
  Mg  Mg12      1.0  0.90669  0.00351  0.62181  1.0000
  C   C85       1.0  0.19336  0.53746  0.70853  1.0000
  C   C86       1.0  0.16465  0.55282  0.76484  1.0000
  C  Sn25      1.0  0.17605  0.59974  0.81397  1.0000
  C  Sn26      1.0  0.21696  0.63177  0.80640  1.0000
  C   C87       1.0  0.24544  0.61604  0.74975  1.0000
  C   C88       1.0  0.23371  0.56903  0.70095  1.0000
  H   H49       1.0  0.18428  0.50108  0.67067  1.0000
  O  Te25      1.0  0.14699  0.61450  0.86999  1.0000
  O  Te26      1.0  0.22917  0.67885  0.85467  1.0000
  H   H50       1.0  0.25594  0.55714  0.65723  1.0000
  Mg  Mg13      1.0  0.17842  0.68214  0.92218  1.0000
  C   C89       1.0  0.44531  0.67170  0.80498  1.0000
  C   C90       1.0  0.40085  0.64544  0.76121  1.0000
  C  Sn27      1.0  0.37715  0.59634  0.71024  1.0000
  C  Sn28      1.0  0.39845  0.57320  0.70313  1.0000
  C   C91       1.0  0.44294  0.59980  0.74730  1.0000
  C   C92       1.0  0.46634  0.64891  0.79807  1.0000
  H   H51       1.0  0.46341  0.70971  0.84437  1.0000
  O  Te27      1.0  0.33275  0.57063  0.66688  1.0000
  O  Te28      1.0  0.37555  0.52417  0.65269  1.0000
  H   H52       1.0  0.50076  0.66925  0.83207  1.0000
  Mg  Mg14      1.0  0.31556  0.50454  0.60595  1.0000
  C   C93       1.0  0.34464  0.80609  0.76565  1.0000
  C   C94       1.0  0.38463  0.83649  0.75195  1.0000
  C  Sn29      1.0  0.41490  0.82343  0.71839  1.0000
  C  Sn30      1.0  0.40484  0.77910  0.69817  1.0000
  C   C95       1.0  0.36474  0.74892  0.71198  1.0000
  C   C96       1.0  0.33470  0.76234  0.74566  1.0000
  H   H53       1.0  0.32139  0.81646  0.79160  1.0000
  O  Te29      1.0  0.45470  0.85424  0.70517  1.0000
  O  Te30      1.0  0.43449  0.76516  0.66448  1.0000
  H   H54       1.0  0.30373  0.73879  0.75613  1.0000
  Mg  Mg15      1.0  0.48442  0.81937  0.65798  1.0000
  C   C97       1.0  0.79307  0.37865  0.77859  1.0000
  C   C98       1.0  0.76243  0.39047  0.79188  1.0000
  C  Sn31      1.0  0.77042  0.42828  0.77115  1.0000
  C  Sn32      1.0  0.80986  0.45467  0.73645  1.0000
  C   C99       1.0  0.84030  0.44254  0.72327  1.0000
  C   C100      1.0  0.83197  0.40465  0.74429  1.0000
  H   H55       1.0  0.78662  0.34932  0.79475  1.0000
  O  Te31      1.0  0.73946  0.43962  0.78490  1.0000
  O  Te32      1.0  0.81868  0.49261  0.71510  1.0000
  H   H56       1.0  0.85569  0.39548  0.73388  1.0000
  Mg  Mg16      1.0  0.76638  0.49439  0.74569  1.0000
  C   C101      1.0  0.60568  0.41918  0.70220  1.0000
  C   C102      1.0  0.56467  0.40410  0.73199  1.0000
  C  Sn33      1.0  0.54588  0.37124  0.78944  1.0000
  C  Sn34      1.0  0.56866  0.35320  0.81752  1.0000
  C   C103      1.0  0.60968  0.36853  0.78747  1.0000
  C   C104      1.0  0.62817  0.40142  0.72993  1.0000
  H   H57       1.0  0.62000  0.44464  0.65778  1.0000
  O  Te33      1.0  0.50488  0.35654  0.81851  1.0000
  O  Te34      1.0  0.55065  0.32033  0.87499  1.0000
  H   H58       1.0  0.65993  0.41311  0.70700  1.0000
  Mg  Mg17      1.0  0.49392  0.31116  0.89632  1.0000
  C   C105      1.0  0.64409  0.18554  0.67537  1.0000
  C   C106      1.0  0.61013  0.16417  0.74481  1.0000
  C  Sn35      1.0  0.58475  0.18393  0.81747  1.0000
  C  Sn36      1.0  0.59360  0.22586  0.82045  1.0000
  C   C107      1.0  0.62764  0.24694  0.75053  1.0000
  C   C108      1.0  0.65284  0.22688  0.67819  1.0000
  H   H59       1.0  0.66358  0.17000  0.61930  1.0000
  O  Te35      1.0  0.55095  0.16214  0.88634  1.0000
  O  Te36      1.0  0.56874  0.24635  0.89222  1.0000
  H   H60       1.0  0.67912  0.24341  0.62432  1.0000
  Mg  Mg18      1.0  0.52621  0.20351  0.96997  1.0000
