data_image0
_chemical_formula_structural       H60C96N28C2Sn2C2HTe2HMgC2Sn2C2HTe2HMgC2Sn2C2HTe2HMgC2Sn2C2HTe2HMgC2Sn2C2HTe2HMgC2Sn2C2HTe2HMgC2Sn2C2HTe2HMgC2Sn2C2HTe2HMgC2Sn2C2HTe2HMgC2Sn2C2HTe2HMgC2Sn2C2HTe2HMgC2Sn2C2HTe2HMgC2Sn2C2HTe2HMgC2Sn2C2HTe2HMgC2Sn2C2HTe2HMgC2Sn2C2HTe2HMgC2Sn2C2HTe2HMgC2Sn2C2HTe2HMgC2Sn2C2HTe2HMgC2Sn2C2HTe2HMgC2Sn2C2HTe2HMgC2Sn2C2HTe2HMgC2Sn2C2HTe2HMgC2Sn2C2HTe2HMg
_chemical_formula_sum              "H108 C192 N28 Sn48 Te48 Mg24"
_cell_length_a       34.8364
_cell_length_b       34.35
_cell_length_c       7.58488
_cell_angle_alpha    83.8027
_cell_angle_beta     93.1871
_cell_angle_gamma    119.774

_symmetry_space_group_name_H-M    'P1'
_space_group_IT_number       1

loop_
  _space_group_symop_operation_xyz
  'x, y, z'

loop_
  _atom_site_type_symbol
  _atom_site_label
  _atom_site_symmetry_multiplicity
  _atom_site_fract_x
  _atom_site_fract_y
  _atom_site_fract_z
  _atom_site_occupancy
  H   H1        1.0  0.84620  0.36389  0.51505  1.0000
  H   H2        1.0  0.06240  0.57274  0.44407  1.0000
  H   H3        1.0  0.11737  0.50090  0.47138  1.0000
  H   H4        1.0  0.24844  0.61601  0.48219  1.0000
  H   H5        1.0  0.13521  0.63434  0.48010  1.0000
  H   H6        1.0  0.26031  0.68933  0.48895  1.0000
  H   H7        1.0  0.08805  0.25233  0.54264  1.0000
  H   H8        1.0  0.07325  0.12010  0.55774  1.0000
  H   H9        1.0  0.20269  0.23706  0.49336  1.0000
  H   H10       1.0  0.45144  0.45552  0.46139  1.0000
  H   H11       1.0  0.58086  0.57095  0.49801  1.0000
  H   H12       1.0  0.46589  0.58680  0.49488  1.0000
  H   H13       1.0  0.01647  0.18926  0.58194  1.0000
  H   H14       1.0  0.80135  0.98396  0.54057  1.0000
  H   H15       1.0  0.59069  0.64455  0.48883  1.0000
  H   H16       1.0  0.27107  0.90712  0.47904  1.0000
  H   H17       1.0  0.60434  0.86258  0.49682  1.0000
  H   H18       1.0  0.39506  0.96616  0.47866  1.0000
  H   H19       1.0  0.40974  0.09835  0.48296  1.0000
  H   H20       1.0  0.28005  0.98205  0.47026  1.0000
  H   H21       1.0  0.72951  0.92073  0.52561  1.0000
  H   H22       1.0  0.74247  0.05098  0.56893  1.0000
  H   H23       1.0  0.61377  0.93524  0.50701  1.0000
  H   H24       1.0  0.77503  0.30047  0.50991  1.0000
  H   H25       1.0  0.78690  0.43156  0.48504  1.0000
  H   H26       1.0  0.65783  0.31326  0.51127  1.0000
  H   H27       1.0  0.34843  0.10918  0.46407  1.0000
  H   H28       1.0  0.72366  0.43996  0.49169  1.0000
  H   H29       1.0  0.13777  0.11085  0.55649  1.0000
  H   H30       1.0  0.51513  0.44623  0.45430  1.0000
  H   H31       1.0  0.06345  0.06134  0.04857  1.0000
  H   H32       1.0  0.12118  0.99413  0.01420  1.0000
  H   H33       1.0  0.25093  0.11187  0.99519  1.0000
  H   H34       1.0  0.13554  0.12613  0.01825  1.0000
  H   H35       1.0  0.26076  0.18544  0.00134  1.0000
  H   H36       1.0  0.58406  0.06518  0.99143  1.0000
  H   H37       1.0  0.46926  0.08114  0.98342  1.0000
  H   H38       1.0  0.59333  0.13889  0.00418  1.0000
  H   H39       1.0  0.27237  0.40365  0.98528  1.0000
  H   H40       1.0  0.60557  0.35627  0.00201  1.0000
  H   H41       1.0  0.39695  0.46055  0.00377  1.0000
  H   H42       1.0  0.41214  0.59393  0.94442  1.0000
  H   H43       1.0  0.28243  0.47737  0.98691  1.0000
  H   H44       1.0  0.73083  0.41380  0.00655  1.0000
  H   H45       1.0  0.74604  0.54654  0.99565  1.0000
  H   H46       1.0  0.61590  0.42959  0.99592  1.0000
  H   H47       1.0  0.77498  0.79139  0.02910  1.0000
  H   H48       1.0  0.79136  0.92472  0.98980  1.0000
  H   H49       1.0  0.66082  0.80934  0.96985  1.0000
  H   H50       1.0  0.34774  0.60394  0.94270  1.0000
  H   H51       1.0  0.72751  0.93570  0.95801  1.0000
  H   H52       1.0  0.14251  0.60669  0.06141  1.0000
  H   H53       1.0  0.51791  0.93828  0.00633  1.0000
  H   H54       1.0  0.08883  0.74622  0.98055  1.0000
  H   H55       1.0  0.07720  0.61492  0.02755  1.0000
  H   H56       1.0  0.20610  0.73327  0.02407  1.0000
  H   H57       1.0  0.45448  0.94833  0.00224  1.0000
  H   H58       1.0  0.01774  0.68288  0.97830  1.0000
  H   H59       1.0  0.84644  0.85235  0.03180  1.0000
  H   H60       1.0  0.80353  0.47703  0.01226  1.0000
  C   C1        1.0  0.83603  0.87797  0.02032  1.0000
  C   C2        1.0  0.07535  0.03802  0.02571  1.0000
  C   C3        1.0  0.12332  0.05770  0.01768  1.0000
  C   C4        1.0  0.14286  0.03038  0.01325  1.0000
  C   C5        1.0  0.18878  0.04943  0.00378  1.0000
  C   C6        1.0  0.21508  0.09669  0.99807  1.0000
  C   C7        1.0  0.19626  0.12439  0.00345  1.0000
  C   C8        1.0  0.15005  0.10454  0.01361  1.0000
  C   C9        1.0  0.22499  0.17317  0.00392  1.0000
  C   C10       1.0  0.15112  0.74633  0.00341  1.0000
  C   C11       1.0  0.45519  0.01187  0.99182  1.0000
  C   C12       1.0  0.10469  0.72556  0.99248  1.0000
  C   C13       1.0  0.07816  0.67847  0.00056  1.0000
  C   C14       1.0  0.09822  0.65139  0.02058  1.0000
  C   C15       1.0  0.14435  0.67148  0.02826  1.0000
  C   C16       1.0  0.17035  0.71870  0.01978  1.0000
  C   C17       1.0  0.47522  0.98479  0.99697  1.0000
  C   C18       1.0  0.52142  0.00381  0.99525  1.0000
  C   C19       1.0  0.54830  0.05078  0.99374  1.0000
  C   C20       1.0  0.52911  0.07814  0.99315  1.0000
  C   C21       1.0  0.48285  0.05856  0.99059  1.0000
  C   C22       1.0  0.03011  0.65879  0.99012  1.0000
  C   C23       1.0  0.79187  0.50170  0.00069  1.0000
  C   C24       1.0  0.55763  0.12688  0.99152  1.0000
  C   C25       1.0  0.30793  0.41502  0.99976  1.0000
  C   C26       1.0  0.33706  0.46380  0.99063  1.0000
  C   C27       1.0  0.64128  0.36807  0.00086  1.0000
  C   C28       1.0  0.67045  0.41669  0.00162  1.0000
  C   C29       1.0  0.38336  0.48322  0.98974  1.0000
  C   C30       1.0  0.41116  0.53008  0.97418  1.0000
  C   C31       1.0  0.39130  0.55743  0.96087  1.0000
  C   C32       1.0  0.34521  0.53859  0.96982  1.0000
  C   C33       1.0  0.31815  0.49154  0.98259  1.0000
  C   C34       1.0  0.71671  0.43596  0.00226  1.0000
  C   C35       1.0  0.74380  0.48275  0.99839  1.0000
  C   C36       1.0  0.72433  0.51037  0.99471  1.0000
  C   C37       1.0  0.67832  0.49184  0.99528  1.0000
  C   C38       1.0  0.65177  0.44468  0.99897  1.0000
  C   C39       1.0  0.71433  0.79418  0.00155  1.0000
  C   C40       1.0  0.76047  0.81328  0.01748  1.0000
  C   C41       1.0  0.78829  0.86013  0.01176  1.0000
  C   C42       1.0  0.76953  0.88843  0.99363  1.0000
  C   C43       1.0  0.72360  0.86992  0.98050  1.0000
  C   C44       1.0  0.69639  0.82292  0.98146  1.0000
  C   C45       1.0  0.32561  0.56750  0.97252  1.0000
  C   C46       1.0  0.70411  0.89926  0.97052  1.0000
  C   C47       1.0  0.16502  0.64325  0.04038  1.0000
  C   C48       1.0  0.54103  0.97486  0.99337  1.0000
  C   C49       1.0  0.83401  0.38808  0.49473  1.0000
  C   C50       1.0  0.07311  0.54736  0.46707  1.0000
  C   C51       1.0  0.12097  0.56527  0.47351  1.0000
  C   C52       1.0  0.13962  0.53697  0.47335  1.0000
  C   C53       1.0  0.18554  0.55472  0.47740  1.0000
  C   C54       1.0  0.21268  0.60152  0.48326  1.0000
  C   C55       1.0  0.19481  0.63004  0.48581  1.0000
  C   C56       1.0  0.14870  0.61172  0.47974  1.0000
  C   C57       1.0  0.22477  0.67830  0.49128  1.0000
  C   C58       1.0  0.14902  0.25121  0.51453  1.0000
  C   C59       1.0  0.45207  0.51823  0.47921  1.0000
  C   C60       1.0  0.10299  0.23112  0.53816  1.0000
  C   C61       1.0  0.07560  0.18415  0.55134  1.0000
  C   C62       1.0  0.09464  0.15652  0.54629  1.0000
  C   C63       1.0  0.14033  0.17592  0.52464  1.0000
  C   C64       1.0  0.16719  0.22313  0.50703  1.0000
  C   C65       1.0  0.47210  0.49151  0.47315  1.0000
  C   C66       1.0  0.51820  0.51011  0.48483  1.0000
  C   C67       1.0  0.54512  0.55681  0.49118  1.0000
  C   C68       1.0  0.52595  0.58422  0.49024  1.0000
  C   C69       1.0  0.47966  0.56470  0.48745  1.0000
  C   C70       1.0  0.02782  0.16510  0.56632  1.0000
  C   C71       1.0  0.78931  0.00763  0.55502  1.0000
  C   C72       1.0  0.55500  0.63281  0.49372  1.0000
  C   C73       1.0  0.30701  0.92002  0.48076  1.0000
  C   C74       1.0  0.33512  0.96881  0.48104  1.0000
  C   C75       1.0  0.64011  0.87454  0.50205  1.0000
  C   C76       1.0  0.66869  0.92282  0.51603  1.0000
  C   C77       1.0  0.38139  0.98843  0.48277  1.0000
  C   C78       1.0  0.40916  0.03506  0.48320  1.0000
  C   C79       1.0  0.38913  0.06205  0.47938  1.0000
  C   C80       1.0  0.34290  0.04322  0.47292  1.0000
  C   C81       1.0  0.31581  0.99621  0.47569  1.0000
  C   C82       1.0  0.71483  0.94216  0.53058  1.0000
  C   C83       1.0  0.74127  0.98824  0.55002  1.0000
  C   C84       1.0  0.72129  0.01512  0.55636  1.0000
  C   C85       1.0  0.67543  0.99664  0.53841  1.0000
  C   C86       1.0  0.64954  0.95029  0.51822  1.0000
  C   C87       1.0  0.71276  0.30034  0.51052  1.0000
  C   C88       1.0  0.75924  0.32114  0.50458  1.0000
  C   C89       1.0  0.78597  0.36822  0.49510  1.0000
  C   C90       1.0  0.76592  0.39511  0.49170  1.0000
  C   C91       1.0  0.71983  0.37504  0.50059  1.0000
  C   C92       1.0  0.69358  0.32782  0.50877  1.0000
  C   C93       1.0  0.32414  0.07308  0.46420  1.0000
  C   C94       1.0  0.69995  0.40363  0.50359  1.0000
  C   C95       1.0  0.16000  0.14707  0.52314  1.0000
  C   C96       1.0  0.53731  0.48055  0.49218  1.0000
  N   N1        1.0  0.86369  0.92071  0.01092  1.0000
  N   N2        1.0  0.04877  0.99580  0.00894  1.0000
  N   N3        1.0  0.26674  0.93721  0.98023  1.0000
  N   N4        1.0  0.00361  0.61588  0.99276  1.0000
  N   N5        1.0  0.81892  0.54455  0.99336  1.0000
  N   N6        1.0  0.20933  0.20019  0.00525  1.0000
  N   N7        1.0  0.54222  0.15442  0.97305  1.0000
  N   N8        1.0  0.32261  0.38689  0.02438  1.0000
  N   N9        1.0  0.65635  0.34053  0.00116  1.0000
  N   N10       1.0  0.59947  0.60412  0.99554  1.0000
  N   N11       1.0  0.28423  0.55069  0.00887  1.0000
  N   N12       1.0  0.66182  0.88290  0.97662  1.0000
  N   N13       1.0  0.20730  0.66039  0.02717  1.0000
  N   N14       1.0  0.58331  0.99169  0.97994  1.0000
  N   N15       1.0  0.86044  0.43115  0.47695  1.0000
  N   N16       1.0  0.04551  0.50461  0.48465  1.0000
  N   N17       1.0  0.26380  0.44205  0.48466  1.0000
  N   N18       1.0  0.00061  0.12256  0.56116  1.0000
  N   N19       1.0  0.81587  0.05000  0.56875  1.0000
  N   N20       1.0  0.21049  0.70616  0.50136  1.0000
  N   N21       1.0  0.54021  0.66034  0.50354  1.0000
  N   N22       1.0  0.32342  0.89351  0.48158  1.0000
  N   N23       1.0  0.65554  0.84746  0.49629  1.0000
  N   N24       1.0  0.59746  0.10997  0.50917  1.0000
  N   N25       1.0  0.28190  0.05770  0.45792  1.0000
  N   N26       1.0  0.65789  0.38713  0.52301  1.0000
  N   N27       1.0  0.20136  0.16389  0.48746  1.0000
  N   N28       1.0  0.57806  0.49460  0.53810  1.0000
  C   C97       1.0  0.94079  0.91029  0.06726  1.0000
  C   C98       1.0  0.91378  0.92978  0.03814  1.0000
  C  Sn1       1.0  0.93276  0.95206  0.98240  1.0000
  C  Sn2       1.0  0.48943  0.97878  0.95538  1.0000
  C   C99       1.0  0.00581  0.95896  0.98476  1.0000
  C   C100      1.0  0.98647  0.93662  0.04057  1.0000
  H   H61       1.0  0.92627  0.87478  0.11035  1.0000
  O  Te1       1.0  0.90530  0.97099  0.95399  1.0000
  O  Te2       1.0  0.50869  0.02466  0.89964  1.0000
  H   H62       1.0  0.00739  0.92153  0.06299  1.0000
  Mg  Mg1       1.0  0.45747  0.03500  0.87861  1.0000
  C   C101      1.0  0.20445  0.95477  0.12391  1.0000
  C   C102      1.0  0.23771  0.96025  0.01232  1.0000
  C  Sn3       1.0  0.25931  0.97522  0.89353  1.0000
  C  Sn4       1.0  0.75708  0.00881  0.88667  1.0000
  C   C103      1.0  0.72378  0.00302  0.99896  1.0000
  C   C104      1.0  0.19203  0.98789  0.11728  1.0000
  H   H63       1.0  0.18835  0.92486  0.21554  1.0000
  O  Te3       1.0  0.29247  0.98015  0.78293  1.0000
  O  Te4       1.0  0.77756  0.04764  0.76924  1.0000
  H   H64       1.0  0.16629  0.98367  0.20375  1.0000
  Mg  Mg2       1.0  0.82094  0.03898  0.64530  1.0000
  C   C105      1.0  0.17115  0.83770  0.88368  1.0000
  C   C106      1.0  0.17703  0.80256  0.96540  1.0000
  C  Sn5       1.0  0.21372  0.83542  0.07058  1.0000
  C  Sn6       1.0  0.24563  0.88077  0.09418  1.0000
  C   C107      1.0  0.23943  0.91569  0.01195  1.0000
  C   C108      1.0  0.20260  0.88245  0.90694  1.0000
  H   H65       1.0  0.14219  0.83021  0.80250  1.0000
  O  Te5       1.0  0.21909  0.79991  0.15122  1.0000
  O  Te6       1.0  0.28318  0.89103  0.19866  1.0000
  H   H66       1.0  0.19804  0.90966  0.84378  1.0000
  Mg  Mg3       1.0  0.27575  0.83099  0.28105  1.0000
  C   C109      1.0  0.37685  0.01574  0.06147  1.0000
  C   C110      1.0  0.89192  0.99773  0.01012  1.0000
  C  Sn7       1.0  0.87241  0.93375  0.93047  1.0000
  C  Sn8       1.0  0.82602  0.91102  0.90183  1.0000
  C   C111      1.0  0.80088  0.92933  0.95357  1.0000
  C   C112      1.0  0.82074  0.99334  0.03321  1.0000
  H   H67       1.0  0.39265  0.04706  0.12301  1.0000
  O  Te7       1.0  0.89830  0.91622  0.88003  1.0000
  O  Te8       1.0  0.80510  0.87057  0.82244  1.0000
  H   H68       1.0  0.31140  0.00729  0.07285  1.0000
  Mg  Mg4       1.0  0.85455  0.86015  0.77683  1.0000
  C   C113      1.0  0.92769  0.61964  0.08958  1.0000
  C   C114      1.0  0.95347  0.60342  0.02600  1.0000
  C  Sn9       1.0  0.93449  0.54201  0.93020  1.0000
  C  Sn10      1.0  0.88826  0.52007  0.89762  1.0000
  C   C115      1.0  0.86276  0.53659  0.96169  1.0000
  C   C116      1.0  0.88209  0.59803  0.05745  1.0000
  H   H69       1.0  0.94309  0.64897  0.16359  1.0000
  O  Te9       1.0  0.96073  0.52624  0.86769  1.0000
  O  Te10      1.0  0.86786  0.48219  0.80220  1.0000
  H   H70       1.0  0.86212  0.61060  0.10656  1.0000
  Mg  Mg5       1.0  0.91764  0.47344  0.74442  1.0000
  C   C117      1.0  0.61963  0.22721  0.10772  1.0000
  C   C118      1.0  0.57942  0.20382  0.01919  1.0000
  C  Sn11      1.0  0.56423  0.20363  0.90312  1.0000
  C  Sn12      1.0  0.58927  0.25129  0.87539  1.0000
  C   C119      1.0  0.62948  0.27438  0.96449  1.0000
  C   C120      1.0  0.64436  0.27422  0.08039  1.0000
  H   H71       1.0  0.63161  0.20886  0.19732  1.0000
  O  Te11      1.0  0.52398  0.17974  0.81579  1.0000
  O  Te12      1.0  0.57430  0.27548  0.76006  1.0000
  H   H72       1.0  0.67551  0.29233  0.14883  1.0000
  Mg  Mg6       1.0  0.51747  0.22778  0.67175  1.0000
  C   C121      1.0  0.24621  0.31318  0.88691  1.0000
  C   C122      1.0  0.28267  0.33722  0.99476  1.0000
  C  Sn13      1.0  0.29751  0.33798  0.11587  1.0000
  C  Sn14      1.0  0.27596  0.29024  0.12891  1.0000
  C   C123      1.0  0.23953  0.26650  0.02033  1.0000
  C   C124      1.0  0.22495  0.26609  0.89963  1.0000
  H   H73       1.0  0.23450  0.33108  0.79345  1.0000
  O  Te13      1.0  0.33396  0.36252  0.22267  1.0000
  O  Te14      1.0  0.29068  0.26662  0.24877  1.0000
  H   H74       1.0  0.19674  0.24747  0.81606  1.0000
  Mg  Mg7       1.0  0.34166  0.31509  0.36572  1.0000
  C   C125      1.0  0.48989  0.52770  0.89338  1.0000
  C   C126      1.0  0.46393  0.54222  0.96805  1.0000
  C  Sn15      1.0  0.48330  0.60556  0.05202  1.0000
  C  Sn16      1.0  0.53010  0.63122  0.06116  1.0000
  C   C127      1.0  0.55635  0.59287  0.98595  1.0000
  C   C128      1.0  0.53605  0.55299  0.90228  1.0000
  H   H75       1.0  0.47419  0.49686  0.82856  1.0000
  O  Te15      1.0  0.45687  0.61957  0.12597  1.0000
  O  Te16      1.0  0.55089  0.67112  0.14425  1.0000
  H   H76       1.0  0.55615  0.54177  0.84439  1.0000
  Mg  Mg8       1.0  0.50065  0.67626  0.22520  1.0000
  C   C129      1.0  0.66700  0.58946  0.88352  1.0000
  C   C130      1.0  0.62730  0.57984  0.96005  1.0000
  C  Sn17      1.0  0.60229  0.56307  0.06590  1.0000
  C  Sn18      1.0  0.61799  0.53189  0.09549  1.0000
  C   C131      1.0  0.65777  0.54185  0.01844  1.0000
  C   C132      1.0  0.68252  0.55873  0.91269  1.0000
  H   H77       1.0  0.68572  0.62076  0.80178  1.0000
  O  Te17      1.0  0.56268  0.55398  0.14129  1.0000
  O  Te18      1.0  0.59424  0.49135  0.20078  1.0000
  H   H78       1.0  0.71327  0.56619  0.85356  1.0000
  Mg  Mg9       1.0  0.54213  0.49420  0.27460  1.0000
  C   C133      1.0  0.62226  0.69359  0.87252  1.0000
  C   C134      1.0  0.62570  0.65793  0.96448  1.0000
  C  Sn19      1.0  0.65912  0.69000  0.08759  1.0000
  C  Sn20      1.0  0.69019  0.73509  0.11898  1.0000
  C   C135      1.0  0.68645  0.77053  0.02639  1.0000
  C   C136      1.0  0.65289  0.73807  0.90345  1.0000
  H   H79       1.0  0.59584  0.68670  0.77746  1.0000
  O  Te19      1.0  0.66208  0.65398  0.17827  1.0000
  O  Te20      1.0  0.72449  0.74456  0.24135  1.0000
  H   H80       1.0  0.65022  0.76568  0.83235  1.0000
  Mg  Mg10      1.0  0.71465  0.68405  0.33194  1.0000
  C   C137      1.0  0.20214  0.57903  0.94342  1.0000
  C   C138      1.0  0.21708  0.64395  0.01252  1.0000
  C  Sn21      1.0  0.25937  0.66574  0.08685  1.0000
  C  Sn22      1.0  0.28656  0.64566  0.09186  1.0000
  C   C139      1.0  0.27074  0.60428  0.02227  1.0000
  C   C140      1.0  0.22894  0.55921  0.94825  1.0000
  H   H81       1.0  0.16937  0.56239  0.88606  1.0000
  O  Te21      1.0  0.27435  0.70705  0.15535  1.0000
  O  Te22      1.0  0.32897  0.66672  0.16532  1.0000
  H   H82       1.0  0.21695  0.52719  0.89465  1.0000
  Mg  Mg11      1.0  0.33456  0.72265  0.24178  1.0000
  C   C141      1.0  0.65389  0.97738  0.06317  1.0000
  C   C142      1.0  0.61478  0.94640  0.98102  1.0000
  C  Sn23      1.0  0.58804  0.90653  0.90185  1.0000
  C  Sn24      1.0  0.60136  0.87356  0.90523  1.0000
  C   C143      1.0  0.64112  0.88131  0.98786  1.0000
  C   C144      1.0  0.66705  0.94488  0.06663  1.0000
  H   H83       1.0  0.18475  0.00833  0.12420  1.0000
  O  Te23      1.0  0.54849  0.89965  0.82029  1.0000
  O  Te24      1.0  0.57526  0.83341  0.82718  1.0000
  H   H84       1.0  0.69777  0.95062  0.13032  1.0000
  Mg  Mg12      1.0  0.52424  0.83956  0.73217  1.0000
  C   C145      1.0  0.96186  0.43341  0.43385  1.0000
  C   C146      1.0  0.99354  0.47739  0.46584  1.0000
  C  Sn25      1.0  0.98044  0.50759  0.50914  1.0000
  C  Sn26      1.0  0.93476  0.49339  0.52058  1.0000
  C   C147      1.0  0.90333  0.44930  0.48845  1.0000
  C   C148      1.0  0.91680  0.41937  0.44516  1.0000
  H   H85       1.0  0.97228  0.41024  0.40045  1.0000
  O  Te25      1.0  0.01253  0.55142  0.54064  1.0000
  O  Te26      1.0  0.92076  0.52287  0.56367  1.0000
  H   H86       1.0  0.89226  0.38531  0.42051  1.0000
  Mg  Mg13      1.0  0.97701  0.57918  0.59488  1.0000
  C   C149      1.0  0.19673  0.46225  0.36850  1.0000
  C   C150      1.0  0.23649  0.46840  0.44577  1.0000
  C  Sn27      1.0  0.26099  0.50393  0.55079  1.0000
  C  Sn28      1.0  0.24529  0.53379  0.57878  1.0000
  C   C151      1.0  0.20545  0.52733  0.50100  1.0000
  C   C152      1.0  0.18121  0.49168  0.39610  1.0000
  H   H87       1.0  0.17796  0.43465  0.28742  1.0000
  O  Te27      1.0  0.30066  0.50959  0.62694  1.0000
  O  Te28      1.0  0.26910  0.56956  0.68321  1.0000
  H   H88       1.0  0.15041  0.48690  0.33639  1.0000
  Mg  Mg14      1.0  0.32129  0.56335  0.75858  1.0000
  C   C153      1.0  0.18669  0.36368  0.61405  1.0000
  C   C154      1.0  0.22673  0.39049  0.52420  1.0000
  C  Sn29      1.0  0.24202  0.37161  0.41125  1.0000
  C  Sn30      1.0  0.21666  0.32500  0.38805  1.0000
  C   C155      1.0  0.17663  0.29847  0.47845  1.0000
  C   C156      1.0  0.16165  0.31771  0.59119  1.0000
  H   H89       1.0  0.17509  0.37857  0.70122  1.0000
  O  Te29      1.0  0.28210  0.39888  0.32255  1.0000
  O  Te30      1.0  0.23115  0.30526  0.27592  1.0000
  H   H90       1.0  0.13063  0.29695  0.66065  1.0000
  Mg  Mg15      1.0  0.28793  0.35638  0.18410  1.0000
  C   C157      1.0  0.34881  0.51417  0.39453  1.0000
  C   C158      1.0  0.31606  0.47078  0.45471  1.0000
  C  Sn31      1.0  0.32772  0.44003  0.54041  1.0000
  C  Sn32      1.0  0.37303  0.45305  0.56619  1.0000
  C   C159      1.0  0.40554  0.49654  0.50561  1.0000
  C   C160      1.0  0.39350  0.52704  0.41997  1.0000
  H   H91       1.0  0.33950  0.53778  0.32836  1.0000
  O  Te31      1.0  0.29458  0.39682  0.59963  1.0000
  O  Te32      1.0  0.38561  0.42299  0.65149  1.0000
  H   H92       1.0  0.41886  0.56064  0.37350  1.0000
  Mg  Mg16      1.0  0.32831  0.36789  0.70840  1.0000
  C   C161      1.0  0.89225  0.04030  0.64558  1.0000
  C   C162      1.0  0.86614  0.06041  0.60267  1.0000
  C  Sn33      1.0  0.88519  0.10471  0.52478  1.0000
  C  Sn34      1.0  0.93125  0.12926  0.48930  1.0000
  C   C163      1.0  0.95708  0.10883  0.53260  1.0000
  C   C164      1.0  0.93768  0.06448  0.61056  1.0000
  H   H93       1.0  0.87724  0.00598  0.70580  1.0000
  O  Te33      1.0  0.85862  0.12429  0.48282  1.0000
  O  Te34      1.0  0.95114  0.17358  0.41148  1.0000
  H   H94       1.0  0.95790  0.04892  0.64366  1.0000
  Mg  Mg17      1.0  0.90105  0.18558  0.37851  1.0000
  C   C165      1.0  0.56415  0.74236  0.62947  1.0000
  C   C166      1.0  0.56508  0.71310  0.51743  1.0000
  C  Sn35      1.0  0.59967  0.72856  0.39692  1.0000
  C  Sn36      1.0  0.63393  0.77418  0.38876  1.0000
  C   C167      1.0  0.63271  0.80317  0.50150  1.0000
  C   C168      1.0  0.59793  0.78735  0.62155  1.0000
  H   H95       1.0  0.53725  0.73012  0.72243  1.0000
  O  Te35      1.0  0.60008  0.69888  0.28591  1.0000
  O  Te36      1.0  0.66891  0.79051  0.26960  1.0000
  H   H96       1.0  0.59723  0.81000  0.70836  1.0000
  Mg  Mg18      1.0  0.65478  0.73705  0.14574  1.0000
  C   C169      1.0  0.24601  0.81386  0.61139  1.0000
  C   C170      1.0  0.28683  0.84180  0.52844  1.0000
  C  Sn37      1.0  0.30390  0.82433  0.41674  1.0000
  C  Sn38      1.0  0.27957  0.77802  0.38776  1.0000
  C   C171      1.0  0.23875  0.75035  0.47127  1.0000
  C   C172      1.0  0.22198  0.76818  0.58282  1.0000
  H   H97       1.0  0.23302  0.82766  0.69763  1.0000
  O  Te37      1.0  0.34475  0.85271  0.33497  1.0000
  O  Te38      1.0  0.29585  0.75968  0.27672  1.0000
  H   H98       1.0  0.19036  0.74655  0.64694  1.0000
  Mg  Mg19      1.0  0.35306  0.81195  0.19531  1.0000
  C   C173      1.0  0.48675  0.02734  0.56817  1.0000
  C   C174      1.0  0.46183  0.04803  0.51066  1.0000
  C  Sn39      1.0  0.48264  0.09239  0.43293  1.0000
  C  Sn40      1.0  0.52927  0.11641  0.41254  1.0000
  C   C175      1.0  0.55391  0.09540  0.47040  1.0000
  C   C176      1.0  0.53275  0.05100  0.54805  1.0000
  H   H99       1.0  0.47038  0.99298  0.62817  1.0000
  O  Te39      1.0  0.45723  0.11256  0.37627  1.0000
  O  Te40      1.0  0.55092  0.16078  0.33525  1.0000
  H   H100      1.0  0.55206  0.03498  0.59246  1.0000
  Mg  Mg20      1.0  0.50192  0.17368  0.27898  1.0000
  C   C177      1.0  0.61048  0.02063  0.40193  1.0000
  C   C178      1.0  0.64653  0.02345  0.50205  1.0000
  C  Sn41      1.0  0.66692  0.05565  0.62409  1.0000
  C  Sn42      1.0  0.65082  0.08551  0.64605  1.0000
  C   C179      1.0  0.61471  0.08239  0.54535  1.0000
  C   C180      1.0  0.59457  0.05006  0.42356  1.0000
  H   H101      1.0  0.59487  0.99560  0.30776  1.0000
  O  Te41      1.0  0.70292  0.05802  0.72299  1.0000
  O  Te42      1.0  0.67057  0.11799  0.76714  1.0000
  H   H102      1.0  0.56663  0.04787  0.34614  1.0000
  Mg  Mg21      1.0  0.71872  0.10800  0.87118  1.0000
  C   C181      1.0  0.69358  0.21322  0.41375  1.0000
  C   C182      1.0  0.68710  0.24526  0.48593  1.0000
  C  Sn43      1.0  0.64929  0.23183  0.58567  1.0000
  C  Sn44      1.0  0.61744  0.18543  0.61350  1.0000
  C   C183      1.0  0.62424  0.15363  0.54084  1.0000
  C   C184      1.0  0.66219  0.16744  0.44119  1.0000
  H   H103      1.0  0.72295  0.22390  0.33673  1.0000
  O  Te43      1.0  0.64333  0.26429  0.65677  1.0000
  O  Te44      1.0  0.57936  0.17107  0.71271  1.0000
  H   H104      1.0  0.66721  0.14262  0.38543  1.0000
  Mg  Mg22      1.0  0.58608  0.22806  0.78237  1.0000
  C   C185      1.0  0.27636  0.15595  0.50804  1.0000
  C   C186      1.0  0.23197  0.14273  0.47262  1.0000
  C  Sn45      1.0  0.20216  0.09841  0.43785  1.0000
  C  Sn46      1.0  0.21717  0.06681  0.43868  1.0000
  C   C187      1.0  0.26164  0.08037  0.47438  1.0000
  C   C188      1.0  0.29119  0.12481  0.50896  1.0000
  H   H105      1.0  0.29923  0.19033  0.53489  1.0000
  O  Te45      1.0  0.15792  0.08577  0.40265  1.0000
  O  Te46      1.0  0.18807  0.02230  0.40442  1.0000
  H   H106      1.0  0.32556  0.13503  0.53649  1.0000
  Mg  Mg23      1.0  0.13095  0.02126  0.36366  1.0000
  C   C189      1.0  0.65340  0.48779  0.52205  1.0000
  C   C190      1.0  0.60808  0.47238  0.53188  1.0000
  C  Sn47      1.0  0.57794  0.42621  0.55050  1.0000
  C  Sn48      1.0  0.59357  0.39496  0.55947  1.0000
  C   C191      1.0  0.63897  0.41072  0.54964  1.0000
  C   C192      1.0  0.66884  0.45699  0.53095  1.0000
  H   H107      1.0  0.67652  0.52359  0.50769  1.0000
  O  Te47      1.0  0.53278  0.41140  0.56005  1.0000
  O  Te48      1.0  0.56417  0.34863  0.57814  1.0000
  H   H108      1.0  0.70393  0.46891  0.52346  1.0000
  Mg  Mg24      1.0  0.50572  0.34495  0.58523  1.0000
