data_image0
_chemical_formula_structural       H108C168N28SnCSn2CSnTe4Mg2SnCSn2CSnTe4Mg2SnCSn2CSnTe4Mg2SnCSn2CSnTe4Mg2SnCSn2CSnTe4Mg2SnCSn2CSnTe4Mg2SnCSn2CSnTe4Mg2SnCSn2CSnTe4Mg2SnCSn2CSnTe4Mg2SnCSn2CSnTe4Mg2SnCSn2CSnTe4Mg2SnCSn2CSnTe4Mg2
_chemical_formula_sum              "H108 C192 N28 Sn48 Te48 Mg24"
_cell_length_a       34.8364
_cell_length_b       34.35
_cell_length_c       7.58488
_cell_angle_alpha    83.8027
_cell_angle_beta     93.1871
_cell_angle_gamma    119.774

_symmetry_space_group_name_H-M    'P1'
_space_group_IT_number       1

loop_
  _space_group_symop_operation_xyz
  'x, y, z'

loop_
  _atom_site_type_symbol
  _atom_site_label
  _atom_site_symmetry_multiplicity
  _atom_site_fract_x
  _atom_site_fract_y
  _atom_site_fract_z
  _atom_site_occupancy
  H   H1        1.0  0.84620  0.36389  0.51505  1.0000
  H   H2        1.0  0.90732  0.39035  0.39156  1.0000
  H   H3        1.0  0.98912  0.42533  0.40764  1.0000
  H   H4        1.0  0.99888  0.54673  0.56232  1.0000
  H   H5        1.0  0.91717  0.51167  0.54916  1.0000
  H   H6        1.0  0.06240  0.57274  0.44407  1.0000
  H   H7        1.0  0.11737  0.50090  0.47138  1.0000
  H   H8        1.0  0.24844  0.61601  0.48219  1.0000
  H   H9        1.0  0.13521  0.63434  0.48010  1.0000
  H   H10       1.0  0.26031  0.68933  0.48895  1.0000
  H   H11       1.0  0.08805  0.25233  0.54264  1.0000
  H   H12       1.0  0.07325  0.12010  0.55774  1.0000
  H   H13       1.0  0.20269  0.23706  0.49336  1.0000
  H   H14       1.0  0.45144  0.45552  0.46139  1.0000
  H   H15       1.0  0.58086  0.57095  0.49801  1.0000
  H   H16       1.0  0.46589  0.58680  0.49488  1.0000
  H   H17       1.0  0.01647  0.18926  0.58194  1.0000
  H   H18       1.0  0.95416  0.16518  0.43407  1.0000
  H   H19       1.0  0.87233  0.13053  0.44795  1.0000
  H   H20       1.0  0.86266  0.00775  0.70224  1.0000
  H   H21       1.0  0.94418  0.04190  0.68180  1.0000
  H   H22       1.0  0.80135  0.98396  0.54057  1.0000
  H   H23       1.0  0.59069  0.64455  0.48883  1.0000
  H   H24       1.0  0.61481  0.71134  0.29863  1.0000
  H   H25       1.0  0.66432  0.79374  0.30395  1.0000
  H   H26       1.0  0.58257  0.79674  0.70094  1.0000
  H   H27       1.0  0.53215  0.71401  0.69375  1.0000
  H   H28       1.0  0.28669  0.75601  0.30924  1.0000
  H   H29       1.0  0.33599  0.83915  0.31144  1.0000
  H   H30       1.0  0.24837  0.84275  0.68106  1.0000
  H   H31       1.0  0.20003  0.75992  0.68033  1.0000
  H   H32       1.0  0.27107  0.90712  0.47904  1.0000
  H   H33       1.0  0.60434  0.86258  0.49682  1.0000
  H   H34       1.0  0.39506  0.96616  0.47866  1.0000
  H   H35       1.0  0.40974  0.09835  0.48296  1.0000
  H   H36       1.0  0.28005  0.98205  0.47026  1.0000
  H   H37       1.0  0.72951  0.92073  0.52561  1.0000
  H   H38       1.0  0.74247  0.05098  0.56893  1.0000
  H   H39       1.0  0.61377  0.93524  0.50701  1.0000
  H   H40       1.0  0.45626  0.99517  0.61963  1.0000
  H   H41       1.0  0.53624  0.02668  0.62932  1.0000
  H   H42       1.0  0.55310  0.15151  0.36360  1.0000
  H   H43       1.0  0.47312  0.11975  0.35130  1.0000
  H   H44       1.0  0.77503  0.30047  0.50991  1.0000
  H   H45       1.0  0.78690  0.43156  0.48504  1.0000
  H   H46       1.0  0.65783  0.31326  0.51127  1.0000
  H   H47       1.0  0.34843  0.10918  0.46407  1.0000
  H   H48       1.0  0.72366  0.43996  0.49169  1.0000
  H   H49       1.0  0.13777  0.11085  0.55649  1.0000
  H   H50       1.0  0.51513  0.44623  0.45430  1.0000
  H   H51       1.0  0.06345  0.06134  0.04857  1.0000
  H   H52       1.0  0.12118  0.99413  0.01420  1.0000
  H   H53       1.0  0.25093  0.11187  0.99519  1.0000
  H   H54       1.0  0.13554  0.12613  0.01825  1.0000
  H   H55       1.0  0.26076  0.18544  0.00134  1.0000
  H   H56       1.0  0.29129  0.01658  0.78972  1.0000
  H   H57       1.0  0.25773  0.06490  0.80369  1.0000
  H   H58       1.0  0.40684  0.04518  0.11751  1.0000
  H   H59       1.0  0.58406  0.06518  0.99143  1.0000
  H   H60       1.0  0.46926  0.08114  0.98342  1.0000
  H   H61       1.0  0.59333  0.13889  0.00418  1.0000
  H   H62       1.0  0.61648  0.19482  0.17834  1.0000
  H   H63       1.0  0.66551  0.27715  0.18110  1.0000
  H   H64       1.0  0.58282  0.30093  0.79387  1.0000
  H   H65       1.0  0.53271  0.21769  0.79204  1.0000
  H   H66       1.0  0.27237  0.40365  0.98528  1.0000
  H   H67       1.0  0.60557  0.35627  0.00201  1.0000
  H   H68       1.0  0.39695  0.46055  0.00377  1.0000
  H   H69       1.0  0.41214  0.59393  0.94442  1.0000
  H   H70       1.0  0.28243  0.47737  0.98691  1.0000
  H   H71       1.0  0.73083  0.41380  0.00655  1.0000
  H   H72       1.0  0.74604  0.54654  0.99565  1.0000
  H   H73       1.0  0.61590  0.42959  0.99592  1.0000
  H   H74       1.0  0.70639  0.57524  0.81912  1.0000
  H   H75       1.0  0.67186  0.62311  0.81782  1.0000
  H   H76       1.0  0.57078  0.52268  0.17077  1.0000
  H   H77       1.0  0.60462  0.47435  0.16992  1.0000
  H   H78       1.0  0.77498  0.79139  0.02910  1.0000
  H   H79       1.0  0.79136  0.92472  0.98980  1.0000
  H   H80       1.0  0.66082  0.80934  0.96985  1.0000
  H   H81       1.0  0.34774  0.60394  0.94270  1.0000
  H   H82       1.0  0.72751  0.93570  0.95801  1.0000
  H   H83       1.0  0.69738  0.96522  0.11383  1.0000
  H   H84       1.0  0.66062  0.01151  0.10209  1.0000
  H   H85       1.0  0.54852  0.91041  0.83722  1.0000
  H   H86       1.0  0.58527  0.86367  0.85091  1.0000
  H   H87       1.0  0.14251  0.60669  0.06141  1.0000
  H   H88       1.0  0.51791  0.93828  0.00633  1.0000
  H   H89       1.0  0.16551  0.96868  0.19598  1.0000
  H   H90       1.0  0.20019  0.92105  0.18630  1.0000
  H   H91       1.0  0.18953  0.89550  0.80981  1.0000
  H   H92       1.0  0.13894  0.81323  0.81922  1.0000
  H   H93       1.0  0.22814  0.79161  0.17898  1.0000
  H   H94       1.0  0.27863  0.87300  0.16531  1.0000
  H   H95       1.0  0.31247  0.90203  0.84999  1.0000
  H   H96       1.0  0.39236  0.93356  0.85421  1.0000
  H   H97       1.0  0.32688  0.01372  0.11271  1.0000
  H   H98       1.0  0.08883  0.74622  0.98055  1.0000
  H   H99       1.0  0.07720  0.61492  0.02755  1.0000
  H   H100      1.0  0.20610  0.73327  0.02407  1.0000
  H   H101      1.0  0.45448  0.94833  0.00224  1.0000
  H   H102      1.0  0.01774  0.68288  0.97830  1.0000
  H   H103      1.0  0.84644  0.85235  0.03180  1.0000
  H   H104      1.0  0.95794  0.64757  0.15369  1.0000
  H   H105      1.0  0.87592  0.61473  0.14355  1.0000
  H   H106      1.0  0.86476  0.51219  0.83049  1.0000
  H   H107      1.0  0.94637  0.54458  0.84348  1.0000
  H   H108      1.0  0.80353  0.47703  0.01226  1.0000
  C   C1        1.0  0.83603  0.87797  0.02032  1.0000
  C   C2        1.0  0.07535  0.03802  0.02571  1.0000
  C   C3        1.0  0.12332  0.05770  0.01768  1.0000
  C   C4        1.0  0.14286  0.03038  0.01325  1.0000
  C   C5        1.0  0.18878  0.04943  0.00378  1.0000
  C   C6        1.0  0.21508  0.09669  0.99807  1.0000
  C   C7        1.0  0.19626  0.12439  0.00345  1.0000
  C   C8        1.0  0.15005  0.10454  0.01361  1.0000
  C   C9        1.0  0.22499  0.17317  0.00392  1.0000
  C   C10       1.0  0.20925  0.02071  0.00098  1.0000
  C   C11       1.0  0.19297  0.97936  0.10616  1.0000
  C   C12       1.0  0.21231  0.95244  0.10152  1.0000
  C   C13       1.0  0.24798  0.96556  0.98746  1.0000
  C   C14       1.0  0.26427  0.00653  0.88087  1.0000
  C   C15       1.0  0.24549  0.03379  0.89017  1.0000
  C   C16       1.0  0.23784  0.89000  0.98550  1.0000
  C   C17       1.0  0.31322  0.95550  0.98027  1.0000
  C   C18       1.0  0.19782  0.87245  0.88990  1.0000
  C   C19       1.0  0.16924  0.82607  0.89728  1.0000
  C   C20       1.0  0.17971  0.79571  0.99826  1.0000
  C   C21       1.0  0.21965  0.81386  0.09423  1.0000
  C   C22       1.0  0.24819  0.85998  0.08866  1.0000
  C   C23       1.0  0.33285  0.93338  0.90955  1.0000
  C   C24       1.0  0.37854  0.95138  0.91354  1.0000
  C   C25       1.0  0.40669  0.99226  0.98643  1.0000
  C   C26       1.0  0.38660  0.01427  0.05459  1.0000
  C   C27       1.0  0.34107  0.99642  0.05298  1.0000
  C   C28       1.0  0.15112  0.74633  0.00341  1.0000
  C   C29       1.0  0.45519  0.01187  0.99182  1.0000
  C   C30       1.0  0.10469  0.72556  0.99248  1.0000
  C   C31       1.0  0.07816  0.67847  0.00056  1.0000
  C   C32       1.0  0.09822  0.65139  0.02058  1.0000
  C   C33       1.0  0.14435  0.67148  0.02826  1.0000
  C   C34       1.0  0.17035  0.71870  0.01978  1.0000
  C   C35       1.0  0.47522  0.98479  0.99697  1.0000
  C   C36       1.0  0.52142  0.00381  0.99525  1.0000
  C   C37       1.0  0.54830  0.05078  0.99374  1.0000
  C   C38       1.0  0.52911  0.07814  0.99315  1.0000
  C   C39       1.0  0.48285  0.05856  0.99059  1.0000
  C   C40       1.0  0.03011  0.65879  0.99012  1.0000
  C   C41       1.0  0.95780  0.59899  0.99407  1.0000
  C   C42       1.0  0.93749  0.61844  0.08058  1.0000
  C   C43       1.0  0.89182  0.60004  0.07659  1.0000
  C   C44       1.0  0.86466  0.56102  0.98975  1.0000
  C   C45       1.0  0.88494  0.54148  0.90331  1.0000
  C   C46       1.0  0.93065  0.55983  0.90815  1.0000
  C   C47       1.0  0.79187  0.50170  0.00069  1.0000
  C   C48       1.0  0.55763  0.12688  0.99152  1.0000
  C   C49       1.0  0.57116  0.20055  0.98279  1.0000
  C   C50       1.0  0.60891  0.21773  0.09312  1.0000
  C   C51       1.0  0.63650  0.26386  0.09581  1.0000
  C   C52       1.0  0.62698  0.29455  0.99183  1.0000
  C   C53       1.0  0.58925  0.27749  0.88110  1.0000
  C   C54       1.0  0.56157  0.23121  0.87849  1.0000
  C   C55       1.0  0.30793  0.41502  0.99976  1.0000
  C   C56       1.0  0.33706  0.46380  0.99063  1.0000
  C   C57       1.0  0.64128  0.36807  0.00086  1.0000
  C   C58       1.0  0.67045  0.41669  0.00162  1.0000
  C   C59       1.0  0.38336  0.48322  0.98974  1.0000
  C   C60       1.0  0.41116  0.53008  0.97418  1.0000
  C   C61       1.0  0.39130  0.55743  0.96087  1.0000
  C   C62       1.0  0.34521  0.53859  0.96982  1.0000
  C   C63       1.0  0.31815  0.49154  0.98259  1.0000
  C   C64       1.0  0.71671  0.43596  0.00226  1.0000
  C   C65       1.0  0.74380  0.48275  0.99839  1.0000
  C   C66       1.0  0.72433  0.51037  0.99471  1.0000
  C   C67       1.0  0.67832  0.49184  0.99528  1.0000
  C   C68       1.0  0.65177  0.44468  0.99897  1.0000
  C   C69       1.0  0.65792  0.52074  0.99305  1.0000
  C   C70       1.0  0.67669  0.56348  0.89707  1.0000
  C   C71       1.0  0.65731  0.59055  0.89547  1.0000
  C   C72       1.0  0.61872  0.57608  0.99374  1.0000
  C   C73       1.0  0.59996  0.53368  0.09116  1.0000
  C   C74       1.0  0.61901  0.50645  0.08892  1.0000
  C   C75       1.0  0.71433  0.79418  0.00155  1.0000
  C   C76       1.0  0.76047  0.81328  0.01748  1.0000
  C   C77       1.0  0.78829  0.86013  0.01176  1.0000
  C   C78       1.0  0.76953  0.88843  0.99363  1.0000
  C   C79       1.0  0.72360  0.86992  0.98050  1.0000
  C   C80       1.0  0.69639  0.82292  0.98146  1.0000
  C   C81       1.0  0.32561  0.56750  0.97252  1.0000
  C   C82       1.0  0.70411  0.89926  0.97052  1.0000
  C   C83       1.0  0.64394  0.91134  0.97866  1.0000
  C   C84       1.0  0.66519  0.95336  0.05029  1.0000
  C   C85       1.0  0.64462  0.97925  0.04559  1.0000
  C   C86       1.0  0.60182  0.96390  0.97377  1.0000
  C   C87       1.0  0.58073  0.92207  0.90036  1.0000
  C   C88       1.0  0.60128  0.89614  0.90571  1.0000
  C   C89       1.0  0.16502  0.64325  0.04038  1.0000
  C   C90       1.0  0.54103  0.97486  0.99337  1.0000
  C   C91       1.0  0.83401  0.38808  0.49473  1.0000
  C   C92       1.0  0.90632  0.44836  0.47461  1.0000
  C   C93       1.0  0.92712  0.42430  0.43163  1.0000
  C   C94       1.0  0.97283  0.44378  0.43848  1.0000
  C   C95       1.0  0.99979  0.48836  0.48273  1.0000
  C   C96       1.0  0.97905  0.51261  0.52392  1.0000
  C   C97       1.0  0.93327  0.49304  0.51795  1.0000
  C   C98       1.0  0.07311  0.54736  0.46707  1.0000
  C   C99       1.0  0.12097  0.56527  0.47351  1.0000
  C   C100      1.0  0.13962  0.53697  0.47335  1.0000
  C   C101      1.0  0.18554  0.55472  0.47740  1.0000
  C   C102      1.0  0.21268  0.60152  0.48326  1.0000
  C   C103      1.0  0.19481  0.63004  0.48581  1.0000
  C   C104      1.0  0.14870  0.61172  0.47974  1.0000
  C   C105      1.0  0.22477  0.67830  0.49128  1.0000
  C   C106      1.0  0.14902  0.25121  0.51453  1.0000
  C   C107      1.0  0.45207  0.51823  0.47921  1.0000
  C   C108      1.0  0.10299  0.23112  0.53816  1.0000
  C   C109      1.0  0.07560  0.18415  0.55134  1.0000
  C   C110      1.0  0.09464  0.15652  0.54629  1.0000
  C   C111      1.0  0.14033  0.17592  0.52464  1.0000
  C   C112      1.0  0.16719  0.22313  0.50703  1.0000
  C   C113      1.0  0.47210  0.49151  0.47315  1.0000
  C   C114      1.0  0.51820  0.51011  0.48483  1.0000
  C   C115      1.0  0.54512  0.55681  0.49118  1.0000
  C   C116      1.0  0.52595  0.58422  0.49024  1.0000
  C   C117      1.0  0.47966  0.56470  0.48745  1.0000
  C   C118      1.0  0.02782  0.16510  0.56632  1.0000
  C   C119      1.0  0.95490  0.10608  0.56286  1.0000
  C   C120      1.0  0.93423  0.13098  0.49490  1.0000
  C   C121      1.0  0.88853  0.11169  0.50130  1.0000
  C   C122      1.0  0.86168  0.06679  0.57230  1.0000
  C   C123      1.0  0.88240  0.04198  0.64109  1.0000
  C   C124      1.0  0.92807  0.06114  0.63288  1.0000
  C   C125      1.0  0.78931  0.00763  0.55502  1.0000
  C   C126      1.0  0.55500  0.63281  0.49372  1.0000
  C   C127      1.0  0.24028  0.75239  0.49763  1.0000
  C   C128      1.0  0.56988  0.70682  0.49785  1.0000
  C   C129      1.0  0.60761  0.72971  0.38784  1.0000
  C   C130      1.0  0.63542  0.77595  0.38955  1.0000
  C   C131      1.0  0.62626  0.80108  0.49848  1.0000
  C   C132      1.0  0.58878  0.77813  0.60957  1.0000
  C   C133      1.0  0.56082  0.73193  0.60712  1.0000
  C   C134      1.0  0.27908  0.77498  0.39370  1.0000
  C   C135      1.0  0.30639  0.82137  0.39332  1.0000
  C   C136      1.0  0.29523  0.84680  0.49227  1.0000
  C   C137      1.0  0.25678  0.82410  0.59806  1.0000
  C   C138      1.0  0.22972  0.77776  0.59917  1.0000
  C   C139      1.0  0.30701  0.92002  0.48076  1.0000
  C   C140      1.0  0.33512  0.96881  0.48104  1.0000
  C   C141      1.0  0.64011  0.87454  0.50205  1.0000
  C   C142      1.0  0.66869  0.92282  0.51603  1.0000
  C   C143      1.0  0.38139  0.98843  0.48277  1.0000
  C   C144      1.0  0.40916  0.03506  0.48320  1.0000
  C   C145      1.0  0.38913  0.06205  0.47938  1.0000
  C   C146      1.0  0.34290  0.04322  0.47292  1.0000
  C   C147      1.0  0.31581  0.99621  0.47569  1.0000
  C   C148      1.0  0.71483  0.94216  0.53058  1.0000
  C   C149      1.0  0.74127  0.98824  0.55002  1.0000
  C   C150      1.0  0.72129  0.01512  0.55636  1.0000
  C   C151      1.0  0.67543  0.99664  0.53841  1.0000
  C   C152      1.0  0.64954  0.95029  0.51822  1.0000
  C   C153      1.0  0.45762  0.05468  0.48558  1.0000
  C   C154      1.0  0.47707  0.02919  0.55922  1.0000
  C   C155      1.0  0.52253  0.04705  0.56680  1.0000
  C   C156      1.0  0.55105  0.09168  0.49860  1.0000
  C   C157      1.0  0.53210  0.11727  0.42098  1.0000
  C   C158      1.0  0.48641  0.09905  0.41546  1.0000
  C   C159      1.0  0.71276  0.30034  0.51052  1.0000
  C   C160      1.0  0.75924  0.32114  0.50458  1.0000
  C   C161      1.0  0.78597  0.36822  0.49510  1.0000
  C   C162      1.0  0.76592  0.39511  0.49170  1.0000
  C   C163      1.0  0.71983  0.37504  0.50059  1.0000
  C   C164      1.0  0.69358  0.32782  0.50877  1.0000
  C   C165      1.0  0.32414  0.07308  0.46420  1.0000
  C   C166      1.0  0.69995  0.40363  0.50359  1.0000
  C   C167      1.0  0.16000  0.14707  0.52314  1.0000
  C   C168      1.0  0.53731  0.48055  0.49218  1.0000
  N   N1        1.0  0.86369  0.92071  0.01092  1.0000
  N   N2        1.0  0.04877  0.99580  0.00894  1.0000
  N   N3        1.0  0.26674  0.93721  0.98023  1.0000
  N   N4        1.0  0.00361  0.61588  0.99276  1.0000
  N   N5        1.0  0.81892  0.54455  0.99336  1.0000
  N   N6        1.0  0.20933  0.20019  0.00525  1.0000
  N   N7        1.0  0.54222  0.15442  0.97305  1.0000
  N   N8        1.0  0.32261  0.38689  0.02438  1.0000
  N   N9        1.0  0.65635  0.34053  0.00116  1.0000
  N   N10       1.0  0.59947  0.60412  0.99554  1.0000
  N   N11       1.0  0.28423  0.55069  0.00887  1.0000
  N   N12       1.0  0.66182  0.88290  0.97662  1.0000
  N   N13       1.0  0.20730  0.66039  0.02717  1.0000
  N   N14       1.0  0.58331  0.99169  0.97994  1.0000
  N   N15       1.0  0.86044  0.43115  0.47695  1.0000
  N   N16       1.0  0.04551  0.50461  0.48465  1.0000
  N   N17       1.0  0.26380  0.44205  0.48466  1.0000
  N   N18       1.0  0.00061  0.12256  0.56116  1.0000
  N   N19       1.0  0.81587  0.05000  0.56875  1.0000
  N   N20       1.0  0.21049  0.70616  0.50136  1.0000
  N   N21       1.0  0.54021  0.66034  0.50354  1.0000
  N   N22       1.0  0.32342  0.89351  0.48158  1.0000
  N   N23       1.0  0.65554  0.84746  0.49629  1.0000
  N   N24       1.0  0.59746  0.10997  0.50917  1.0000
  N   N25       1.0  0.28190  0.05770  0.45792  1.0000
  N   N26       1.0  0.65789  0.38713  0.52301  1.0000
  N   N27       1.0  0.20136  0.16389  0.48746  1.0000
  N   N28       1.0  0.57806  0.49460  0.53810  1.0000
  C  Sn1       1.0  0.23059  0.32972  0.42394  1.0000
  C   C169      1.0  0.19134  0.30341  0.51949  1.0000
  C  Sn2       1.0  0.17070  0.32366  0.59447  1.0000
  C  Sn3       1.0  0.18968  0.37119  0.57343  1.0000
  C   C170      1.0  0.22890  0.39746  0.47791  1.0000
  C  Sn4       1.0  0.24957  0.37725  0.40291  1.0000
  O  Te1       1.0  0.25065  0.30876  0.35012  1.0000
  O  Te2       1.0  0.13149  0.29666  0.68946  1.0000
  O  Te3       1.0  0.16958  0.39214  0.64736  1.0000
  O  Te4       1.0  0.28875  0.40422  0.30794  1.0000
  Mg  Mg1       1.0  0.11658  0.34095  0.76505  1.0000
  Mg  Mg2       1.0  0.30368  0.35996  0.23222  1.0000
  C  Sn5       1.0  0.27575  0.27361  0.17421  1.0000
  C   C171      1.0  0.23819  0.25034  0.07047  1.0000
  C  Sn6       1.0  0.23025  0.24890  0.92093  1.0000
  C  Sn7       1.0  0.25991  0.29521  0.87401  1.0000
  C   C172      1.0  0.29746  0.31845  0.97770  1.0000
  C  Sn8       1.0  0.30542  0.31992  0.12730  1.0000
  O  Te5       1.0  0.28361  0.25083  0.32314  1.0000
  O  Te6       1.0  0.19247  0.22493  0.81931  1.0000
  O  Te7       1.0  0.25202  0.31798  0.72495  1.0000
  O  Te8       1.0  0.34318  0.34386  0.22887  1.0000
  Mg  Mg3       1.0  0.19612  0.27078  0.62854  1.0000
  Mg  Mg4       1.0  0.33957  0.29804  0.41960  1.0000
  C  Sn9       1.0  0.36484  0.44228  0.51883  1.0000
  C   C173      1.0  0.39688  0.48500  0.44868  1.0000
  C  Sn10      1.0  0.38610  0.51897  0.40454  1.0000
  C  Sn11      1.0  0.34238  0.51006  0.43116  1.0000
  C   C174      1.0  0.31037  0.46736  0.50130  1.0000
  C  Sn12      1.0  0.32113  0.43337  0.54545  1.0000
  O  Te9       1.0  0.37636  0.40884  0.56202  1.0000
  O  Te10      1.0  0.41869  0.56141  0.33454  1.0000
  O  Te11      1.0  0.33088  0.54355  0.38790  1.0000
  O  Te12      1.0  0.28856  0.39096  0.61544  1.0000
  Mg  Mg5       1.0  0.38684  0.59595  0.29646  1.0000
  Mg  Mg6       1.0  0.32038  0.35640  0.65365  1.0000
  C  Sn13      1.0  0.69617  0.70344  0.08581  1.0000
  C   C175      1.0  0.69357  0.71495  0.98697  1.0000
  C  Sn14      1.0  0.65421  0.70675  0.89991  1.0000
  C  Sn15      1.0  0.61723  0.66257  0.91196  1.0000
  C   C176      1.0  0.61984  0.65109  0.01078  1.0000
  C  Sn16      1.0  0.65920  0.65927  0.09787  1.0000
  O  Te13      1.0  0.73584  0.71242  0.17177  1.0000
  O  Te14      1.0  0.65183  0.74234  0.80184  1.0000
  O  Te15      1.0  0.57754  0.65362  0.82589  1.0000
  O  Te16      1.0  0.66158  0.62370  0.19591  1.0000
  Mg  Mg7       1.0  0.59058  0.71321  0.70851  1.0000
  Mg  Mg8       1.0  0.72280  0.65279  0.28936  1.0000
  C  Sn17      1.0  0.68523  0.21651  0.37380  1.0000
  C   C177      1.0  0.68008  0.24723  0.46248  1.0000
  C  Sn18      1.0  0.64890  0.23204  0.59783  1.0000
  C  Sn19      1.0  0.62234  0.18517  0.64563  1.0000
  C   C178      1.0  0.62751  0.15448  0.55700  1.0000
  C  Sn20      1.0  0.65867  0.16964  0.42160  1.0000
  O  Te17      1.0  0.71661  0.23245  0.23891  1.0000
  O  Te18      1.0  0.64434  0.26340  0.68452  1.0000
  O  Te19      1.0  0.59094  0.16924  0.78064  1.0000
  O  Te20      1.0  0.66325  0.13831  0.33496  1.0000
  Mg  Mg9       1.0  0.59706  0.22513  0.85959  1.0000
  Mg  Mg10      1.0  0.71053  0.17654  0.15994  1.0000
  C  Sn21      1.0  0.25460  0.50856  0.62645  1.0000
  C   C179      1.0  0.24116  0.47054  0.53543  1.0000
  C  Sn22      1.0  0.21116  0.46149  0.39480  1.0000
  C  Sn23      1.0  0.19427  0.49107  0.34400  1.0000
  C   C180      1.0  0.20772  0.52907  0.43497  1.0000
  C  Sn24      1.0  0.23771  0.53815  0.57565  1.0000
  O  Te21      1.0  0.28462  0.51695  0.76663  1.0000
  O  Te22      1.0  0.19820  0.42326  0.30585  1.0000
  O  Te23      1.0  0.16423  0.48265  0.20370  1.0000
  O  Te24      1.0  0.25068  0.57636  0.66455  1.0000
  Mg  Mg11      1.0  0.15660  0.42627  0.12345  1.0000
  Mg  Mg12      1.0  0.29229  0.57339  0.84690  1.0000
  C  Sn25      1.0  0.48825  0.52224  0.95111  1.0000
  C   C181      1.0  0.46278  0.56348  0.01072  1.0000
  C  Sn26      1.0  0.48330  0.60834  0.04935  1.0000
  C  Sn27      1.0  0.52968  0.63610  0.02786  1.0000
  C   C182      1.0  0.55513  0.59485  0.96826  1.0000
  C  Sn28      1.0  0.53463  0.55000  0.92962  1.0000
  O  Te25      1.0  0.46704  0.47730  0.91327  1.0000
  O  Te26      1.0  0.45772  0.62527  0.10882  1.0000
  O  Te27      1.0  0.55088  0.68107  0.06577  1.0000
  O  Te28      1.0  0.56019  0.53307  0.87017  1.0000
  Mg  Mg13      1.0  0.50181  0.68863  0.14295  1.0000
  Mg  Mg14      1.0  0.51613  0.46973  0.83591  1.0000
  C  Sn29      1.0  0.96594  0.92203  0.01380  1.0000
  C   C183      1.0  0.99695  0.94391  0.97003  1.0000
  C  Sn30      1.0  0.98392  0.97648  0.96454  1.0000
  C  Sn31      1.0  0.93898  0.98693  0.00373  1.0000
  C   C184      1.0  0.90857  0.94154  0.04750  1.0000
  C  Sn32      1.0  0.92156  0.90894  0.05299  1.0000
  O  Te29      1.0  0.97969  0.89005  0.01849  1.0000
  O  Te30      1.0  0.52530  0.02167  0.92038  1.0000
  O  Te31      1.0  0.43617  0.99541  0.99901  1.0000
  O  Te32      1.0  0.89057  0.86377  0.09716  1.0000
  Mg  Mg15      1.0  0.49062  0.05276  0.93180  1.0000
  Mg  Mg16      1.0  0.92522  0.83266  0.08586  1.0000
  C  Sn33      1.0  0.21220  0.07213  0.38383  1.0000
  C   C185      1.0  0.25715  0.08677  0.41155  1.0000
  C  Sn34      1.0  0.28419  0.12676  0.48942  1.0000
  C  Sn35      1.0  0.26592  0.15264  0.54077  1.0000
  C   C186      1.0  0.22100  0.13800  0.51308  1.0000
  C  Sn36      1.0  0.19393  0.09801  0.43518  1.0000
  O  Te33      1.0  0.18579  0.03204  0.30577  1.0000
  O  Te34      1.0  0.32904  0.14072  0.51572  1.0000
  O  Te35      1.0  0.29238  0.19276  0.61888  1.0000
  O  Te36      1.0  0.14912  0.08405  0.40890  1.0000
  Mg  Mg17      1.0  0.35152  0.19769  0.62718  1.0000
  Mg  Mg18      1.0  0.12660  0.02707  0.29755  1.0000
  C  Sn37      1.0  0.62265  0.03117  0.37148  1.0000
  C   C187      1.0  0.65574  0.03176  0.48600  1.0000
  C  Sn38      1.0  0.66721  0.05537  0.63669  1.0000
  C  Sn39      1.0  0.64512  0.07886  0.67377  1.0000
  C   C188      1.0  0.61205  0.07826  0.55931  1.0000
  C  Sn40      1.0  0.60056  0.05467  0.40856  1.0000
  O  Te37      1.0  0.61172  0.00735  0.22161  1.0000
  O  Te38      1.0  0.70040  0.05548  0.74918  1.0000
  O  Te39      1.0  0.65608  0.10270  0.82378  1.0000
  O  Te40      1.0  0.56738  0.05454  0.29613  1.0000
  Mg  Mg19      1.0  0.70350  0.09280  0.93683  1.0000
  Mg  Mg20      1.0  0.56424  0.01722  0.10850  1.0000
  C  Sn41      1.0  0.58459  0.39664  0.50696  1.0000
  C   C189      1.0  0.62980  0.41294  0.48572  1.0000
  C  Sn42      1.0  0.66042  0.45766  0.51182  1.0000
  C  Sn43      1.0  0.64554  0.48668  0.56028  1.0000
  C   C190      1.0  0.60035  0.47038  0.58153  1.0000
  C  Sn44      1.0  0.56971  0.42566  0.55542  1.0000
  O  Te41      1.0  0.55458  0.35181  0.48020  1.0000
  O  Te42      1.0  0.70545  0.47319  0.48975  1.0000
  O  Te43      1.0  0.67560  0.53154  0.58703  1.0000
  O  Te44      1.0  0.52471  0.41013  0.57750  1.0000
  Mg  Mg21      1.0  0.73351  0.53694  0.54117  1.0000
  Mg  Mg22      1.0  0.49662  0.34638  0.52620  1.0000
  C  Sn45      1.0  0.28198  0.62316  0.14168  1.0000
  C   C191      1.0  0.26515  0.58114  0.07651  1.0000
  C  Sn46      1.0  0.22907  0.54166  0.96346  1.0000
  C  Sn47      1.0  0.20882  0.56830  0.91442  1.0000
  C   C192      1.0  0.22565  0.61030  0.97954  1.0000
  C  Sn48      1.0  0.26174  0.64980  0.09263  1.0000
  O  Te45      1.0  0.31867  0.63841  0.25452  1.0000
  O  Te46      1.0  0.21282  0.49953  0.90006  1.0000
  O  Te47      1.0  0.17211  0.55301  0.80148  1.0000
  O  Te48      1.0  0.27798  0.69190  0.15600  1.0000
  Mg  Mg23      1.0  0.16215  0.49342  0.74972  1.0000
  Mg  Mg24      1.0  0.32866  0.69806  0.30625  1.0000
