data_image0
_chemical_formula_structural       H60C96N28C2Sn2C2HTe2HMgC2Sn2C2HTe2HMgC2Sn2C2HTe2HMgC2Sn2C2HTe2HMgC2Sn2C2HTe2HMgC2Sn2C2HTe2HMgC2Sn2C2HTe2HMgC2Sn2C2HTe2HMgC2Sn2C2HTe2HMgC2Sn2C2HTe2HMgC2Sn2C2HTe2HMgC2Sn2C2HTe2HMgC2Sn2C2HTe2HMgC2Sn2C2HTe2HMgC2Sn2C2HTe2HMgC2Sn2C2HTe2HMgC2Sn2C2HTe2HMgC2Sn2C2HTe2HMgC2Sn2C2HTe2HMgC2Sn2C2HTe2HMgC2Sn2C2HTe2HMgC2Sn2C2HTe2HMgC2Sn2C2HTe2HMgC2Sn2C2HTe2HMgC2Sn2C2HTe2HMgC2Sn2C2HTe2HMgC2Sn2C2HTe2HMgC2Sn2C2HTe2HMgC2Sn2C2HTe2HMgC2Sn2C2HTe2HMgC2Sn2C2HTe2HMgC2Sn2C2HTe2HMgC2Sn2C2HTe2HMgC2Sn2C2HTe2HMgC2Sn2C2HTe2HMgC2Sn2C2HTe2HMg
_chemical_formula_sum              "H132 C240 N28 Sn72 Te72 Mg36"
_cell_length_a       41.8897
_cell_length_b       42.3917
_cell_length_c       7.77506
_cell_angle_alpha    61.7272
_cell_angle_beta     112.44
_cell_angle_gamma    120.316

_symmetry_space_group_name_H-M    'P1'
_space_group_IT_number       1

loop_
  _space_group_symop_operation_xyz
  'x, y, z'

loop_
  _atom_site_type_symbol
  _atom_site_label
  _atom_site_symmetry_multiplicity
  _atom_site_fract_x
  _atom_site_fract_y
  _atom_site_fract_z
  _atom_site_occupancy
  H   H1        1.0  0.52837  0.09102  0.49575  1.0000
  H   H2        1.0  0.21533  0.81417  0.50481  1.0000
  H   H3        1.0  0.42107  0.74179  0.31491  1.0000
  H   H4        1.0  0.74294  0.01492  0.43046  1.0000
  H   H5        1.0  0.36925  0.63192  0.44811  1.0000
  H   H6        1.0  0.46976  0.61544  0.56397  1.0000
  H   H7        1.0  0.47410  0.73149  0.34784  1.0000
  H   H8        1.0  0.68851  0.90764  0.51355  1.0000
  H   H9        1.0  0.78428  0.89261  0.53044  1.0000
  H   H10       1.0  0.79665  0.00400  0.47245  1.0000
  H   H11       1.0  0.36454  0.56817  0.51210  1.0000
  H   H12       1.0  0.65995  0.60501  0.49333  1.0000
  H   H13       1.0  0.76051  0.59994  0.50525  1.0000
  H   H14       1.0  0.76460  0.70690  0.46377  1.0000
  H   H15       1.0  0.65591  0.54706  0.49877  1.0000
  H   H16       1.0  0.30449  0.28355  0.47043  1.0000
  H   H17       1.0  0.59373  0.25646  0.45294  1.0000
  H   H18       1.0  0.19999  0.23223  0.46494  1.0000
  H   H19       1.0  0.19222  0.12608  0.47664  1.0000
  H   H20       1.0  0.29934  0.22456  0.47784  1.0000
  H   H21       1.0  0.49215  0.20756  0.51016  1.0000
  H   H22       1.0  0.47820  0.09796  0.52769  1.0000
  H   H23       1.0  0.58458  0.19549  0.46714  1.0000
  H   H24       1.0  0.14041  0.17618  0.48453  1.0000
  H   H25       1.0  0.17705  0.92782  0.52830  1.0000
  H   H26       1.0  0.16384  0.82145  0.51792  1.0000
  H   H27       1.0  0.27294  0.91662  0.51366  1.0000
  H   H28       1.0  0.11726  0.87363  0.55823  1.0000
  H   H29       1.0  0.84573  0.94456  0.52713  1.0000
  H   H30       1.0  0.81956  0.65409  0.50757  1.0000
  H   H31       1.0  0.52743  0.58223  0.01222  1.0000
  H   H32       1.0  0.21052  0.30325  0.05367  1.0000
  H   H33       1.0  0.42553  0.22462  0.00909  1.0000
  H   H34       1.0  0.74521  0.50236  0.99711  1.0000
  H   H35       1.0  0.36916  0.12003  0.04056  1.0000
  H   H36       1.0  0.46215  0.10696  0.01050  1.0000
  H   H37       1.0  0.47596  0.21710  0.98515  1.0000
  H   H38       1.0  0.68582  0.39872  0.01258  1.0000
  H   H39       1.0  0.77934  0.38380  0.99799  1.0000
  H   H40       1.0  0.79577  0.49260  0.99438  1.0000
  H   H41       1.0  0.36065  0.05815  0.06362  1.0000
  H   H42       1.0  0.65693  0.09408  0.02851  1.0000
  H   H43       1.0  0.75569  0.08813  0.02172  1.0000
  H   H44       1.0  0.76414  0.19203  0.04258  1.0000
  H   H45       1.0  0.65087  0.03747  0.00935  1.0000
  H   H46       1.0  0.30216  0.76484  0.08721  1.0000
  H   H47       1.0  0.59510  0.74884  0.99329  1.0000
  H   H48       1.0  0.19750  0.71054  0.06998  1.0000
  H   H49       1.0  0.19330  0.60884  0.04952  1.0000
  H   H50       1.0  0.29903  0.70813  0.07758  1.0000
  H   H51       1.0  0.49102  0.70313  0.96936  1.0000
  H   H52       1.0  0.47668  0.59281  0.99887  1.0000
  H   H53       1.0  0.58580  0.68790  0.97780  1.0000
  H   H54       1.0  0.13967  0.65382  0.08839  1.0000
  H   H55       1.0  0.17257  0.43017  0.92967  1.0000
  H   H56       1.0  0.15665  0.31699  0.99387  1.0000
  H   H57       1.0  0.26743  0.40950  0.98415  1.0000
  H   H58       1.0  0.11012  0.37915  0.93230  1.0000
  H   H59       1.0  0.84167  0.43444  0.00521  1.0000
  H   H60       1.0  0.81435  0.14244  0.00869  1.0000
  C   C1        1.0  0.54746  0.61262  0.99381  1.0000
  C   C2        1.0  0.22943  0.33435  0.01403  1.0000
  C   C3        1.0  0.40489  0.19684  0.98740  1.0000
  C   C4        1.0  0.42050  0.17164  0.99978  1.0000
  C   C5        1.0  0.72445  0.47267  0.00514  1.0000
  C   C6        1.0  0.73904  0.44779  0.00642  1.0000
  C   C7        1.0  0.39825  0.13203  0.02501  1.0000
  C   C8        1.0  0.41379  0.10886  0.03220  1.0000
  C   C9        1.0  0.45159  0.12559  0.01168  1.0000
  C   C10       1.0  0.47489  0.16459  0.99490  1.0000
  C   C11       1.0  0.45863  0.18706  0.99173  1.0000
  C   C12       1.0  0.71543  0.40934  0.01081  1.0000
  C   C13       1.0  0.72940  0.38609  0.00591  1.0000
  C   C14       1.0  0.76785  0.40176  0.99850  1.0000
  C   C15       1.0  0.79182  0.43993  0.99551  1.0000
  C   C16       1.0  0.77700  0.46292  0.99817  1.0000
  C   C17       1.0  0.39000  0.06792  0.05460  1.0000
  C   C18       1.0  0.70813  0.14594  0.03320  1.0000
  C   C19       1.0  0.68699  0.10784  0.02815  1.0000
  C   C20       1.0  0.70410  0.08687  0.02669  1.0000
  C   C21       1.0  0.74294  0.10439  0.02809  1.0000
  C   C22       1.0  0.76452  0.14201  0.03596  1.0000
  C   C23       1.0  0.74698  0.16251  0.04043  1.0000
  C   C24       1.0  0.68116  0.04761  0.01989  1.0000
  C   C25       1.0  0.27146  0.75374  0.06733  1.0000
  C   C26       1.0  0.25026  0.71360  0.06935  1.0000
  C   C27       1.0  0.56446  0.73961  0.96736  1.0000
  C   C28       1.0  0.54057  0.69982  0.96975  1.0000
  C   C29       1.0  0.21144  0.69485  0.06882  1.0000
  C   C30       1.0  0.19141  0.65698  0.06402  1.0000
  C   C31       1.0  0.21022  0.63774  0.05975  1.0000
  C   C32       1.0  0.24925  0.65526  0.06656  1.0000
  C   C33       1.0  0.26875  0.69353  0.07120  1.0000
  C   C34       1.0  0.50195  0.68451  0.97110  1.0000
  C   C35       1.0  0.47883  0.64579  0.98678  1.0000
  C   C36       1.0  0.49463  0.62270  0.99406  1.0000
  C   C37       1.0  0.53282  0.63782  0.98797  1.0000
  C   C38       1.0  0.55604  0.67654  0.97906  1.0000
  C   C39       1.0  0.15089  0.63857  0.05983  1.0000
  C   C40       1.0  0.22302  0.42513  0.95216  1.0000
  C   C41       1.0  0.18408  0.41105  0.94165  1.0000
  C   C42       1.0  0.16019  0.37222  0.95608  1.0000
  C   C43       1.0  0.17550  0.34707  0.98170  1.0000
  C   C44       1.0  0.21399  0.36072  0.98942  1.0000
  C   C45       1.0  0.23748  0.39975  0.97439  1.0000
  C   C46       1.0  0.11993  0.35798  0.94888  1.0000
  C   C47       1.0  0.83182  0.45511  0.99421  1.0000
  C   C48       1.0  0.80457  0.15969  0.03102  1.0000
  C   C49       1.0  0.54898  0.11849  0.52065  1.0000
  C   C50       1.0  0.23601  0.84291  0.51419  1.0000
  C   C51       1.0  0.40414  0.71027  0.37570  1.0000
  C   C52       1.0  0.41999  0.68441  0.39806  1.0000
  C   C53       1.0  0.72480  0.98360  0.47483  1.0000
  C   C54       1.0  0.74058  0.95819  0.49205  1.0000
  C   C55       1.0  0.39921  0.64385  0.44977  1.0000
  C   C56       1.0  0.41738  0.61929  0.50837  1.0000
  C   C57       1.0  0.45630  0.63540  0.51245  1.0000
  C   C58       1.0  0.47738  0.67575  0.45449  1.0000
  C   C59       1.0  0.45843  0.69997  0.39430  1.0000
  C   C60       1.0  0.71814  0.91882  0.51072  1.0000
  C   C61       1.0  0.73333  0.89479  0.52377  1.0000
  C   C62       1.0  0.77205  0.91067  0.52348  1.0000
  C   C63       1.0  0.79491  0.94984  0.50527  1.0000
  C   C64       1.0  0.77879  0.97361  0.48768  1.0000
  C   C65       1.0  0.39527  0.57726  0.55648  1.0000
  C   C66       1.0  0.70974  0.65878  0.47789  1.0000
  C   C67       1.0  0.69001  0.61938  0.49207  1.0000
  C   C68       1.0  0.70810  0.59831  0.50035  1.0000
  C   C69       1.0  0.74679  0.61669  0.49764  1.0000
  C   C70       1.0  0.76690  0.65587  0.48251  1.0000
  C   C71       1.0  0.74815  0.67675  0.47129  1.0000
  C   C72       1.0  0.68626  0.55796  0.50690  1.0000
  C   C73       1.0  0.27450  0.27254  0.47033  1.0000
  C   C74       1.0  0.25187  0.23264  0.47065  1.0000
  C   C75       1.0  0.56439  0.24706  0.46090  1.0000
  C   C76       1.0  0.54038  0.20615  0.48293  1.0000
  C   C77       1.0  0.21295  0.21525  0.46770  1.0000
  C   C78       1.0  0.19157  0.17705  0.46795  1.0000
  C   C79       1.0  0.20942  0.15593  0.47295  1.0000
  C   C80       1.0  0.24821  0.17230  0.47967  1.0000
  C   C81       1.0  0.26923  0.21098  0.47744  1.0000
  C   C82       1.0  0.50268  0.18929  0.50517  1.0000
  C   C83       1.0  0.47927  0.15045  0.51852  1.0000
  C   C84       1.0  0.49545  0.12806  0.52033  1.0000
  C   C85       1.0  0.53345  0.14357  0.51038  1.0000
  C   C86       1.0  0.55569  0.18315  0.48596  1.0000
  C   C87       1.0  0.15124  0.15902  0.46844  1.0000
  C   C88       1.0  0.22792  0.92781  0.51652  1.0000
  C   C89       1.0  0.18944  0.91079  0.52617  1.0000
  C   C90       1.0  0.16630  0.87269  0.52566  1.0000
  C   C91       1.0  0.18202  0.85102  0.51773  1.0000
  C   C92       1.0  0.22034  0.86696  0.51343  1.0000
  C   C93       1.0  0.24309  0.90538  0.51255  1.0000
  C   C94       1.0  0.12623  0.85660  0.52872  1.0000
  C   C95       1.0  0.83490  0.96555  0.50216  1.0000
  C   C96       1.0  0.80727  0.67383  0.48332  1.0000
  N   N1        1.0  0.26335  0.34723  0.99086  1.0000
  N   N2        1.0  0.58209  0.62511  0.98234  1.0000
  N   N3        1.0  0.36909  0.18661  0.95876  1.0000
  N   N4        1.0  0.68949  0.46032  0.01004  1.0000
  N   N5        1.0  0.63341  0.23081  0.00294  1.0000
  N   N6        1.0  0.40236  0.04511  0.05920  1.0000
  N   N7        1.0  0.69614  0.02733  0.02036  1.0000
  N   N8        1.0  0.25459  0.77451  0.04181  1.0000
  N   N9        1.0  0.54958  0.76192  0.94345  1.0000
  N   N10       1.0  0.32180  0.57579  0.01856  1.0000
  N   N11       1.0  0.12943  0.60634  0.02582  1.0000
  N   N12       1.0  0.09747  0.32257  0.95886  1.0000
  N   N13       1.0  0.82652  0.19351  0.04738  1.0000
  N   N14       1.0  0.85401  0.49058  0.98487  1.0000
  N   N15       1.0  0.27156  0.85466  0.52583  1.0000
  N   N16       1.0  0.58475  0.12844  0.55159  1.0000
  N   N17       1.0  0.37389  0.69624  0.44206  1.0000
  N   N18       1.0  0.69132  0.96993  0.50700  1.0000
  N   N19       1.0  0.63701  0.74163  0.48873  1.0000
  N   N20       1.0  0.41086  0.55272  0.62980  1.0000
  N   N21       1.0  0.70197  0.53771  0.51376  1.0000
  N   N22       1.0  0.25975  0.29260  0.47439  1.0000
  N   N23       1.0  0.55211  0.27019  0.45428  1.0000
  N   N24       1.0  0.32030  0.08528  0.50152  1.0000
  N   N25       1.0  0.13012  0.12492  0.45518  1.0000
  N   N26       1.0  0.10295  0.82429  0.49782  1.0000
  N   N27       1.0  0.82748  0.71019  0.46173  1.0000
  N   N28       1.0  0.85625  0.00190  0.47582  1.0000
  C   C97       1.0  0.25993  0.26612  0.95171  1.0000
  C   C98       1.0  0.29770  0.27382  0.97638  1.0000
  C  Sn1       1.0  0.29070  0.37539  0.02540  1.0000
  C  Sn2       1.0  0.28114  0.40050  0.05015  1.0000
  C   C99       1.0  0.24327  0.39253  0.02528  1.0000
  C   C100      1.0  0.25048  0.29086  0.97617  1.0000
  H   H61       1.0  0.23802  0.24096  0.91382  1.0000
  O  Te1       1.0  0.32829  0.38267  0.04943  1.0000
  O  Te2       1.0  0.30908  0.43309  0.09921  1.0000
  H   H62       1.0  0.22124  0.28489  0.95720  1.0000
  Mg  Mg1       1.0  0.35627  0.43075  0.11618  1.0000
  C   C101      1.0  0.57901  0.54720  0.91345  1.0000
  C   C102      1.0  0.61668  0.55224  0.96537  1.0000
  C  Sn3       1.0  0.60897  0.65118  0.03744  1.0000
  C  Sn4       1.0  0.59879  0.67633  0.05780  1.0000
  C   C103      1.0  0.56103  0.67103  0.00559  1.0000
  C   C104      1.0  0.56895  0.57198  0.93356  1.0000
  H   H63       1.0  0.55766  0.52407  0.85783  1.0000
  O  Te3       1.0  0.64646  0.65582  0.08854  1.0000
  O  Te4       1.0  0.62602  0.70632  0.12952  1.0000
  H   H64       1.0  0.53979  0.56807  0.89350  1.0000
  Mg  Mg2       1.0  0.67335  0.70093  0.17941  1.0000
  C   C105      1.0  0.37256  0.26172  0.87588  1.0000
  C   C106      1.0  0.36124  0.22129  0.94490  1.0000
  C  Sn5       1.0  0.29308  0.26536  0.02596  1.0000
  C  Sn6       1.0  0.27143  0.28113  0.03790  1.0000
  C   C107      1.0  0.31850  0.25246  0.96831  1.0000
  C   C108      1.0  0.35121  0.27730  0.88753  1.0000
  H   H65       1.0  0.39785  0.28094  0.81327  1.0000
  O  Te5       1.0  0.28219  0.22504  0.09429  1.0000
  O  Te6       1.0  0.23869  0.25673  0.11817  1.0000
  H   H66       1.0  0.35995  0.30860  0.83398  1.0000
  Mg  Mg3       1.0  0.23542  0.20377  0.19148  1.0000
  C   C109      1.0  0.69656  0.53550  0.95322  1.0000
  C   C110      1.0  0.68238  0.49528  0.99830  1.0000
  C  Sn7       1.0  0.61034  0.54054  0.03655  1.0000
  C  Sn8       1.0  0.58767  0.55731  0.02937  1.0000
  C   C111      1.0  0.63764  0.52843  0.98400  1.0000
  C   C112      1.0  0.67422  0.55206  0.94603  1.0000
  H   H67       1.0  0.72486  0.55380  0.92373  1.0000
  O  Te7       1.0  0.59661  0.50042  0.08143  1.0000
  O  Te8       1.0  0.55107  0.53411  0.06691  1.0000
  H   H68       1.0  0.68519  0.58321  0.91101  1.0000
  Mg  Mg4       1.0  0.54498  0.48094  0.12148  1.0000
  C   C113      1.0  0.56459  0.16472  0.07170  1.0000
  C   C114      1.0  0.58939  0.20375  0.00298  1.0000
  C  Sn9       1.0  0.61231  0.16445  0.92489  1.0000
  C  Sn10      1.0  0.57415  0.15498  0.91567  1.0000
  C   C115      1.0  0.54957  0.11586  0.98493  1.0000
  C   C116      1.0  0.52695  0.15536  0.06273  1.0000
  H   H69       1.0  0.57458  0.14178  0.13200  1.0000
  O  Te9       1.0  0.63746  0.20329  0.85682  1.0000
  O  Te10      1.0  0.56081  0.18426  0.83840  1.0000
  H   H70       1.0  0.50775  0.12515  0.11604  1.0000
  Mg  Mg5       1.0  0.60591  0.23282  0.76422  1.0000
  C   C117      1.0  0.65468  0.29183  0.13651  1.0000
  C   C118      1.0  0.65345  0.27282  0.02692  1.0000
  C  Sn11      1.0  0.71532  0.22189  0.90542  1.0000
  C  Sn12      1.0  0.74341  0.25984  0.89377  1.0000
  C   C119      1.0  0.70889  0.34776  0.00410  1.0000
  C   C120      1.0  0.68237  0.32926  0.12516  1.0000
  H   H71       1.0  0.63417  0.27752  0.23026  1.0000
  O  Te11      1.0  0.71368  0.20249  0.79688  1.0000
  O  Te12      1.0  0.77010  0.27872  0.77357  1.0000
  H   H72       1.0  0.68335  0.34397  0.21009  1.0000
  Mg  Mg6       1.0  0.75625  0.24031  0.65402  1.0000
  C   C121      1.0  0.69515  0.20909  0.15734  1.0000
  C   C122      1.0  0.66147  0.21236  0.03678  1.0000
  C  Sn13      1.0  0.67535  0.12202  0.90895  1.0000
  C  Sn14      1.0  0.68773  0.09712  0.90204  1.0000
  C   C123      1.0  0.68593  0.16319  0.02335  1.0000
  C   C124      1.0  0.70737  0.18453  0.15068  1.0000
  H   H73       1.0  0.71174  0.22559  0.25594  1.0000
  O  Te13      1.0  0.64178  0.12564  0.78946  1.0000
  O  Te14      1.0  0.66664  0.07560  0.77569  1.0000
  H   H74       1.0  0.73343  0.18197  0.24409  1.0000
  Mg  Mg7       1.0  0.62287  0.09036  0.64157  1.0000
  C   C125      1.0  0.80661  0.96535  0.98558  1.0000
  C   C126      1.0  0.78320  0.00730  0.00785  1.0000
  C  Sn15      1.0  0.82146  0.01442  0.06587  1.0000
  C  Sn16      1.0  0.84802  0.04946  0.10221  1.0000
  C   C127      1.0  0.83561  0.07649  0.07964  1.0000
  C   C128      1.0  0.79726  0.06907  0.02146  1.0000
  H   H75       1.0  0.77693  0.95961  0.94067  1.0000
  O  Te15      1.0  0.34390  0.98693  0.08735  1.0000
  O  Te16      1.0  0.88643  0.05731  0.16043  1.0000
  H   H76       1.0  0.78789  0.09013  0.00436  1.0000
  Mg  Mg8       1.0  0.88844  0.01086  0.16954  1.0000
  C   C129      1.0  0.18230  0.96345  0.99166  1.0000
  C   C130      1.0  0.16831  0.98700  0.99370  1.0000
  C  Sn17      1.0  0.13020  0.97296  0.99539  1.0000
  C  Sn18      1.0  0.10572  0.93461  0.99509  1.0000
  C   C131      1.0  0.63081  0.91127  0.99320  1.0000
  C   C132      1.0  0.66899  0.92562  0.99145  1.0000
  H   H77       1.0  0.21184  0.97454  0.99042  1.0000
  O  Te17      1.0  0.11669  0.99688  0.99734  1.0000
  O  Te18      1.0  0.57833  0.91983  0.99683  1.0000
  H   H78       1.0  0.67981  0.90737  0.99001  1.0000
  Mg  Mg9       1.0  0.06244  0.96360  0.99915  1.0000
  C   C133      1.0  0.25746  0.83898  0.06517  1.0000
  C   C134      1.0  0.26828  0.81874  0.01401  1.0000
  C  Sn19      1.0  0.33921  0.76672  0.96525  1.0000
  C  Sn20      1.0  0.36419  0.80482  0.96794  1.0000
  C   C135      1.0  0.31759  0.89397  0.01946  1.0000
  C   C136      1.0  0.28209  0.87655  0.06793  1.0000
  H   H79       1.0  0.23001  0.82550  0.10279  1.0000
  O  Te19      1.0  0.34957  0.74610  0.91441  1.0000
  O  Te20      1.0  0.39975  0.82263  0.91991  1.0000
  H   H80       1.0  0.27373  0.89222  0.10766  1.0000
  Mg  Mg10      1.0  0.40098  0.78275  0.86042  1.0000
  C   C137      1.0  0.62226  0.85610  0.83965  1.0000
  C   C138      1.0  0.61513  0.87427  0.92285  1.0000
  C  Sn21      1.0  0.55054  0.92238  0.03041  1.0000
  C  Sn22      1.0  0.52825  0.88239  0.05492  1.0000
  C   C139      1.0  0.57115  0.79532  0.97123  1.0000
  C   C140      1.0  0.60030  0.81666  0.86383  1.0000
  H   H81       1.0  0.64483  0.87260  0.75664  1.0000
  O  Te21      1.0  0.54379  0.94099  0.11248  1.0000
  O  Te22      1.0  0.49903  0.86066  0.16178  1.0000
  H   H82       1.0  0.60583  0.80258  0.79954  1.0000
  Mg  Mg11      1.0  0.50077  0.89904  0.24542  1.0000
  C   C141      1.0  0.25159  0.58497  0.10636  1.0000
  C   C142      1.0  0.26539  0.62358  0.09280  1.0000
  C  Sn23      1.0  0.30077  0.65024  0.04362  1.0000
  C  Sn24      1.0  0.32266  0.63793  0.00737  1.0000
  C   C143      1.0  0.30859  0.59924  0.02118  1.0000
  C   C144      1.0  0.27316  0.57280  0.07056  1.0000
  H   H83       1.0  0.22417  0.56451  0.14446  1.0000
  O  Te23      1.0  0.31414  0.68871  0.03078  1.0000
  O  Te24      1.0  0.39363  0.59481  0.95788  1.0000
  H   H84       1.0  0.26247  0.54291  0.08092  1.0000
  Mg  Mg12      1.0  0.39964  0.64417  0.95864  1.0000
  C   C145      1.0  0.38468  0.63911  0.84766  1.0000
  C   C146      1.0  0.36335  0.60110  0.95800  1.0000
  C  Sn25      1.0  0.34557  0.64585  0.10756  1.0000
  C  Sn26      1.0  0.38541  0.65983  0.14708  1.0000
  C   C147      1.0  0.40650  0.69792  0.03594  1.0000
  C   C148      1.0  0.42398  0.65293  0.88658  1.0000
  H   H85       1.0  0.37073  0.65782  0.73216  1.0000
  O  Te25      1.0  0.32383  0.60795  0.21635  1.0000
  O  Te26      1.0  0.40387  0.63606  0.29575  1.0000
  H   H86       1.0  0.44050  0.68237  0.80126  1.0000
  Mg  Mg13      1.0  0.36197  0.58664  0.40365  1.0000
  C   C149      1.0  0.29220  0.47597  0.11610  1.0000
  C   C150      1.0  0.29280  0.39624  0.99089  1.0000
  C  Sn27      1.0  0.27845  0.42440  0.85394  1.0000
  C  Sn28      1.0  0.29953  0.46386  0.84244  1.0000
  C   C151      1.0  0.33445  0.47415  0.96826  1.0000
  C   C152      1.0  0.31301  0.51488  0.10480  1.0000
  H   H87       1.0  0.30311  0.45398  0.22168  1.0000
  O  Te27      1.0  0.24351  0.41334  0.73000  1.0000
  O  Te28      1.0  0.28587  0.49261  0.70687  1.0000
  H   H88       1.0  0.34007  0.52308  0.20164  1.0000
  Mg  Mg14      1.0  0.23681  0.46311  0.56966  1.0000
  C   C153      1.0  0.03777  0.31749  0.07642  1.0000
  C   C154      1.0  0.09257  0.24076  0.99783  1.0000
  C  Sn29      1.0  0.07289  0.21378  0.90047  1.0000
  C  Sn30      1.0  0.03319  0.19408  0.88164  1.0000
  C   C155      1.0  0.01416  0.20189  0.96066  1.0000
  C   C156      1.0  0.99860  0.29808  0.05785  1.0000
  H   H89       1.0  0.05321  0.33843  0.15152  1.0000
  O  Te29      1.0  0.09259  0.20655  0.82288  1.0000
  O  Te30      1.0  0.01283  0.16699  0.78499  1.0000
  H   H90       1.0  0.98367  0.30396  0.11857  1.0000
  Mg  Mg15      1.0  0.05233  0.16708  0.70407  1.0000
  C   C157      1.0  0.04063  0.60771  0.92290  1.0000
  C   C158      1.0  0.01580  0.56847  0.96581  1.0000
  C  Sn31      1.0  0.99395  0.60863  0.04201  1.0000
  C  Sn32      1.0  0.03322  0.61920  0.07578  1.0000
  C   C159      1.0  0.05783  0.65854  0.03250  1.0000
  C   C160      1.0  0.07937  0.61817  0.95623  1.0000
  H   H91       1.0  0.02981  0.62998  0.86399  1.0000
  O  Te31      1.0  0.96876  0.56956  0.08399  1.0000
  O  Te32      1.0  0.04764  0.59081  0.15189  1.0000
  H   H92       1.0  0.09860  0.64855  0.92315  1.0000
  Mg  Mg16      1.0  0.00202  0.54150  0.18561  1.0000
  C   C161      1.0  0.92551  0.54623  0.04772  1.0000
  C   C162      1.0  0.93288  0.44658  0.98164  1.0000
  C  Sn33      1.0  0.94234  0.42650  0.92193  1.0000
  C  Sn34      1.0  0.98070  0.43720  0.92871  1.0000
  C   C163      1.0  0.00865  0.46773  0.99518  1.0000
  C   C164      1.0  0.96335  0.55679  0.05453  1.0000
  H   H93       1.0  0.91795  0.56162  0.09375  1.0000
  O  Te33      1.0  0.91386  0.39611  0.85624  1.0000
  O  Te34      1.0  0.99094  0.41761  0.86996  1.0000
  H   H94       1.0  0.98515  0.58038  0.10580  1.0000
  Mg  Mg17      1.0  0.94194  0.37821  0.79170  1.0000
  C   C165      1.0  0.91407  0.20088  0.03974  1.0000
  C   C166      1.0  0.93716  0.24048  0.00304  1.0000
  C  Sn35      1.0  0.95919  0.19647  0.99241  1.0000
  C  Sn36      1.0  0.88635  0.25076  0.01914  1.0000
  C   C167      1.0  0.86348  0.21109  0.05592  1.0000
  C   C168      1.0  0.87727  0.18619  0.06619  1.0000
  H   H95       1.0  0.92474  0.18161  0.04779  1.0000
  O  Te35      1.0  0.98263  0.23596  0.95556  1.0000
  O  Te36      1.0  0.87215  0.27524  0.00935  1.0000
  H   H96       1.0  0.85939  0.15553  0.09473  1.0000
  Mg  Mg18      1.0  0.95044  0.25770  0.95566  1.0000
  C   C169      1.0  0.26640  0.77908  0.60446  1.0000
  C   C170      1.0  0.28102  0.81924  0.56227  1.0000
  C  Sn37      1.0  0.31510  0.84375  0.49463  1.0000
  C  Sn38      1.0  0.33483  0.82767  0.46883  1.0000
  C   C171      1.0  0.31995  0.78745  0.51131  1.0000
  C   C172      1.0  0.28583  0.76320  0.57898  1.0000
  H   H97       1.0  0.23999  0.76031  0.65671  1.0000
  O  Te37      1.0  0.32931  0.88381  0.45324  1.0000
  O  Te38      1.0  0.36894  0.85150  0.40135  1.0000
  H   H98       1.0  0.27451  0.73210  0.61151  1.0000
  Mg  Mg19      1.0  0.37684  0.90428  0.36492  1.0000
  C   C173      1.0  0.64789  0.11203  0.45779  1.0000
  C   C174      1.0  0.63673  0.07166  0.52478  1.0000
  C  Sn39      1.0  0.60443  0.04624  0.60853  1.0000
  C  Sn40      1.0  0.58295  0.06162  0.62527  1.0000
  C   C175      1.0  0.59434  0.10206  0.55768  1.0000
  C   C176      1.0  0.62671  0.12722  0.47417  1.0000
  H   H99       1.0  0.67293  0.13151  0.39308  1.0000
  O  Te39      1.0  0.59369  0.00598  0.67478  1.0000
  O  Te40      1.0  0.55054  0.03688  0.70830  1.0000
  H   H100      1.0  0.63533  0.15848  0.42220  1.0000
  Mg  Mg20      1.0  0.54738  0.98416  0.77719  1.0000
  C   C177      1.0  0.31704  0.70260  0.50599  1.0000
  C   C178      1.0  0.35236  0.71468  0.46911  1.0000
  C  Sn41      1.0  0.38030  0.75142  0.46831  1.0000
  C  Sn42      1.0  0.37267  0.77647  0.50522  1.0000
  C   C179      1.0  0.33726  0.76410  0.54210  1.0000
  C   C180      1.0  0.30950  0.72728  0.54249  1.0000
  H   H101      1.0  0.29557  0.67411  0.50640  1.0000
  O  Te41      1.0  0.41543  0.76304  0.43112  1.0000
  O  Te42      1.0  0.40009  0.81334  0.50538  1.0000
  H   H102      1.0  0.28216  0.71793  0.57118  1.0000
  Mg  Mg21      1.0  0.44362  0.81599  0.44696  1.0000
  C   C181      1.0  0.70276  0.03977  0.53648  1.0000
  C   C182      1.0  0.68490  0.00330  0.51565  1.0000
  C  Sn43      1.0  0.64564  0.98484  0.48103  1.0000
  C  Sn44      1.0  0.62393  0.00330  0.46703  1.0000
  C   C183      1.0  0.64207  0.03980  0.48794  1.0000
  C   C184      1.0  0.68138  0.05801  0.52261  1.0000
  H   H103      1.0  0.73317  0.05388  0.56320  1.0000
  O  Te43      1.0  0.13907  0.94840  0.46066  1.0000
  O  Te44      1.0  0.58465  0.98550  0.43244  1.0000
  H   H104      1.0  0.69520  0.08626  0.53860  1.0000
  Mg  Mg22      1.0  0.08477  0.93585  0.41508  1.0000
  C   C185      1.0  0.57290  0.74282  0.52541  1.0000
  C   C186      1.0  0.59469  0.72815  0.51068  1.0000
  C  Sn45      1.0  0.57739  0.69481  0.46015  1.0000
  C  Sn46      1.0  0.53754  0.67587  0.42372  1.0000
  C   C187      1.0  0.51599  0.69079  0.43870  1.0000
  C   C188      1.0  0.53359  0.72416  0.48943  1.0000
  H   H105      1.0  0.58651  0.76865  0.56455  1.0000
  O  Te45      1.0  0.59958  0.68053  0.44615  1.0000
  O  Te46      1.0  0.51952  0.64251  0.37289  1.0000
  H   H106      1.0  0.51671  0.73553  0.50070  1.0000
  Mg  Mg23      1.0  0.56195  0.63420  0.37240  1.0000
  C   C189      1.0  0.65100  0.82122  0.37045  1.0000
  C   C190      1.0  0.65813  0.78747  0.45785  1.0000
  C  Sn47      1.0  0.69138  0.78668  0.59422  1.0000
  C  Sn48      1.0  0.71794  0.82034  0.64376  1.0000
  C   C191      1.0  0.71054  0.85395  0.55561  1.0000
  C   C192      1.0  0.67717  0.85443  0.41928  1.0000
  H   H107      1.0  0.62518  0.82158  0.26505  1.0000
  O  Te47      1.0  0.69806  0.75272  0.68010  1.0000
  O  Te48      1.0  0.75140  0.82034  0.77966  1.0000
  H   H108      1.0  0.67165  0.88055  0.35173  1.0000
  Mg  Mg24      1.0  0.74775  0.76707  0.85701  1.0000
  C   C193      1.0  0.69673  0.72876  0.33453  1.0000
  C   C194      1.0  0.69536  0.69121  0.45550  1.0000
  C  Sn49      1.0  0.67131  0.66691  0.59312  1.0000
  C  Sn50      1.0  0.64823  0.68054  0.60955  1.0000
  C   C195      1.0  0.64979  0.71815  0.48776  1.0000
  C   C196      1.0  0.67397  0.74223  0.35059  1.0000
  H   H109      1.0  0.71542  0.74738  0.22832  1.0000
  O  Te49      1.0  0.67030  0.62948  0.71287  1.0000
  O  Te50      1.0  0.62393  0.65686  0.74579  1.0000
  H   H110      1.0  0.67501  0.77129  0.25686  1.0000
  Mg  Mg25      1.0  0.63261  0.60813  0.87616  1.0000
  C   C197      1.0  0.33248  0.46164  0.67776  1.0000
  C   C198      1.0  0.34019  0.44465  0.59029  1.0000
  C  Sn51      1.0  0.37439  0.46297  0.52684  1.0000
  C  Sn52      1.0  0.40131  0.49897  0.55167  1.0000
  C   C199      1.0  0.39334  0.51572  0.63947  1.0000
  C   C200      1.0  0.35903  0.49714  0.70237  1.0000
  H   H111      1.0  0.30594  0.44726  0.72653  1.0000
  O  Te51      1.0  0.38163  0.44559  0.43968  1.0000
  O  Te52      1.0  0.43572  0.51789  0.48966  1.0000
  H   H112      1.0  0.35307  0.51029  0.77021  1.0000
  Mg  Mg26      1.0  0.43256  0.48264  0.37908  1.0000
  C   C201      1.0  0.69796  0.47400  0.47680  1.0000
  C   C202      1.0  0.68551  0.49568  0.50700  1.0000
  C  Sn53      1.0  0.64988  0.47871  0.55287  1.0000
  C  Sn54      1.0  0.62634  0.43930  0.56877  1.0000
  C   C203      1.0  0.63906  0.41785  0.53843  1.0000
  C   C204      1.0  0.67476  0.43512  0.49253  1.0000
  H   H113      1.0  0.72559  0.48735  0.44140  1.0000
  O  Te53      1.0  0.63788  0.50079  0.58251  1.0000
  O  Te54      1.0  0.59060  0.42162  0.61452  1.0000
  H   H114      1.0  0.68440  0.41832  0.46928  1.0000
  Mg  Mg27      1.0  0.58687  0.46373  0.64169  1.0000
  C   C205      1.0  0.34134  0.37505  0.53997  1.0000
  C   C206      1.0  0.32747  0.39990  0.52935  1.0000
  C  Sn55      1.0  0.28875  0.38841  0.50254  1.0000
  C  Sn56      1.0  0.26351  0.35133  0.48617  1.0000
  C   C207      1.0  0.27768  0.32668  0.49714  1.0000
  C   C208      1.0  0.31647  0.33847  0.52392  1.0000
  H   H115      1.0  0.37135  0.38416  0.56081  1.0000
  O  Te55      1.0  0.27536  0.41360  0.49217  1.0000
  O  Te56      1.0  0.22469  0.33911  0.45939  1.0000
  H   H116      1.0  0.32720  0.31921  0.53228  1.0000
  Mg  Mg28      1.0  0.22008  0.38380  0.45442  1.0000
  C   C209      1.0  0.63654  0.34853  0.54764  1.0000
  C   C210      1.0  0.62491  0.37817  0.49341  1.0000
  C  Sn57      1.0  0.58682  0.37167  0.42537  1.0000
  C  Sn58      1.0  0.55993  0.33479  0.41159  1.0000
  C   C211      1.0  0.57186  0.30532  0.46634  1.0000
  C   C212      1.0  0.61005  0.31214  0.53416  1.0000
  H   H117      1.0  0.66609  0.35379  0.60023  1.0000
  O  Te57      1.0  0.57568  0.40161  0.37173  1.0000
  O  Te58      1.0  0.52168  0.32751  0.34414  1.0000
  H   H118      1.0  0.61904  0.28918  0.57626  1.0000
  Mg  Mg29      1.0  0.52036  0.37755  0.28846  1.0000
  C   C213      1.0  0.31010  0.14860  0.62902  1.0000
  C   C214      1.0  0.27636  0.15212  0.51150  1.0000
  C  Sn59      1.0  0.25374  0.13057  0.38586  1.0000
  C  Sn60      1.0  0.26517  0.10503  0.37808  1.0000
  C   C215      1.0  0.29897  0.10169  0.49635  1.0000
  C   C216      1.0  0.32140  0.12340  0.62150  1.0000
  H   H119      1.0  0.32745  0.16538  0.72595  1.0000
  O  Te59      1.0  0.22012  0.13445  0.26939  1.0000
  O  Te60      1.0  0.24309  0.08313  0.25387  1.0000
  H   H120      1.0  0.34751  0.12065  0.71257  1.0000
  Mg  Mg30      1.0  0.19967  0.09847  0.12358  1.0000
  C   C217      1.0  0.38979  0.15105  0.44101  1.0000
  C   C218      1.0  0.36388  0.11220  0.48397  1.0000
  C  Sn61      1.0  0.37618  0.08212  0.56156  1.0000
  C  Sn62      1.0  0.41516  0.09120  0.59667  1.0000
  C   C219      1.0  0.44085  0.13016  0.55332  1.0000
  C   C220      1.0  0.42824  0.16003  0.47567  1.0000
  H   H121      1.0  0.38003  0.17416  0.38103  1.0000
  O  Te61      1.0  0.34992  0.04347  0.60357  1.0000
  O  Te62      1.0  0.42822  0.06172  0.67418  1.0000
  H   H122      1.0  0.44830  0.19010  0.44254  1.0000
  Mg  Mg31      1.0  0.38151  0.01352  0.70737  1.0000
  C   C221      1.0  0.73770  0.99186  0.63441  1.0000
  C   C222      1.0  0.73693  0.97278  0.52659  1.0000
  C  Sn63      1.0  0.76341  0.99111  0.40570  1.0000
  C  Sn64      1.0  0.79116  0.02924  0.39285  1.0000
  C   C223      1.0  0.79171  0.04807  0.50141  1.0000
  C   C224      1.0  0.76507  0.02946  0.62188  1.0000
  H   H123      1.0  0.71710  0.97745  0.72771  1.0000
  O  Te63      1.0  0.27304  0.97163  0.29892  1.0000
  O  Te64      1.0  0.81797  0.04824  0.27321  1.0000
  H   H124      1.0  0.76569  0.04423  0.70545  1.0000
  Mg  Mg32      1.0  0.80479  0.00966  0.15619  1.0000
  C   C225      1.0  0.01563  0.82599  0.43295  1.0000
  C   C226      1.0  0.98991  0.78759  0.45253  1.0000
  C  Sn65      1.0  0.00246  0.75903  0.49966  1.0000
  C  Sn66      1.0  0.04150  0.76918  0.52765  1.0000
  C   C227      1.0  0.06700  0.80767  0.50786  1.0000
  C   C228      1.0  0.05413  0.83602  0.46061  1.0000
  H   H125      1.0  0.00568  0.84792  0.39649  1.0000
  O  Te65      1.0  0.97639  0.72082  0.51859  1.0000
  O  Te66      1.0  0.05481  0.74121  0.57492  1.0000
  H   H126      1.0  0.07405  0.86574  0.44558  1.0000
  Mg  Mg33      1.0  0.00828  0.69306  0.58467  1.0000
  C   C229      1.0  0.04063  0.12147  0.39312  1.0000
  C   C230      1.0  0.01701  0.08188  0.43534  1.0000
  C  Sn67      1.0  0.03187  0.05437  0.49705  1.0000
  C  Sn68      1.0  0.07112  0.06682  0.51676  1.0000
  C   C231      1.0  0.09451  0.10649  0.47430  1.0000
  C   C232      1.0  0.07934  0.13376  0.41260  1.0000
  H   H127      1.0  0.02890  0.14257  0.34549  1.0000
  O  Te67      1.0  0.00787  0.01493  0.53855  1.0000
  O  Te68      1.0  0.08671  0.03995  0.57823  1.0000
  H   H128      1.0  0.09764  0.16441  0.38005  1.0000
  Mg  Mg34      1.0  0.04247  0.98942  0.61739  1.0000
  C   C233      1.0  0.94873  0.06678  0.53577  1.0000
  C   C234      1.0  0.96968  0.05523  0.49148  1.0000
  C  Sn69      1.0  0.95162  0.02423  0.42166  1.0000
  C  Sn70      1.0  0.91184  0.00450  0.39580  1.0000
  C   C235      1.0  0.89113  0.01630  0.44040  1.0000
  C   C236      1.0  0.90949  0.04734  0.51023  1.0000
  H   H129      1.0  0.96293  0.09081  0.58970  1.0000
  O  Te69      1.0  0.97298  0.01306  0.37819  1.0000
  O  Te70      1.0  0.40388  0.97344  0.32617  1.0000
  H   H130      1.0  0.89326  0.05629  0.54439  1.0000
  Mg  Mg35      1.0  0.44532  0.96903  0.28737  1.0000
  C   C237      1.0  0.90002  0.76239  0.55325  1.0000
  C   C238      1.0  0.87112  0.73562  0.46396  1.0000
  C  Sn71      1.0  0.87959  0.71903  0.37765  1.0000
  C  Sn72      1.0  0.91772  0.72947  0.38106  1.0000
  C   C239      1.0  0.94643  0.75626  0.47088  1.0000
  C   C240      1.0  0.93764  0.77270  0.55675  1.0000
  H   H131      1.0  0.89322  0.77509  0.61979  1.0000
  O  Te71      1.0  0.85037  0.69234  0.28900  1.0000
  O  Te72      1.0  0.92698  0.71332  0.29597  1.0000
  H   H132      1.0  0.96002  0.79340  0.62598  1.0000
  Mg  Mg36      1.0  0.87723  0.67827  0.19281  1.0000
