data_image0
_chemical_formula_structural       H132C204N28C2Sn2C2HTe2HMgC2Sn2C2HTe2HMgC2Sn2C2HTe2HMgC2Sn2C2HTe2HMgC2Sn2C2HTe2HMgC2Sn2C2HTe2HMgC2Sn2C2HTe2HMgC2Sn2C2HTe2HMgC2Sn2C2HTe2HMgC2Sn2C2HTe2HMgC2Sn2C2HTe2HMgC2Sn2C2HTe2HMgC2Sn2C2HTe2HMgC2Sn2C2HTe2HMgC2Sn2C2HTe2HMgC2Sn2C2HTe2HMgC2Sn2C2HTe2HMgC2Sn2C2HTe2HMg
_chemical_formula_sum              "H168 C276 N28 Sn36 Te36 Mg18"
_cell_length_a       41.8897
_cell_length_b       42.3917
_cell_length_c       7.77506
_cell_angle_alpha    61.7272
_cell_angle_beta     112.44
_cell_angle_gamma    120.316

_symmetry_space_group_name_H-M    'P1'
_space_group_IT_number       1

loop_
  _space_group_symop_operation_xyz
  'x, y, z'

loop_
  _atom_site_type_symbol
  _atom_site_label
  _atom_site_symmetry_multiplicity
  _atom_site_fract_x
  _atom_site_fract_y
  _atom_site_fract_z
  _atom_site_occupancy
  H   H1        1.0  0.52837  0.09102  0.49575  1.0000
  H   H2        1.0  0.21533  0.81417  0.50481  1.0000
  H   H3        1.0  0.24117  0.77393  0.65219  1.0000
  H   H4        1.0  0.26857  0.73500  0.65257  1.0000
  H   H5        1.0  0.36219  0.84048  0.42499  1.0000
  H   H6        1.0  0.33561  0.87944  0.43875  1.0000
  H   H7        1.0  0.59282  0.99370  0.45098  1.0000
  H   H8        1.0  0.62095  0.95486  0.44372  1.0000
  H   H9        1.0  0.73178  0.04022  0.56647  1.0000
  H   H10       1.0  0.70426  0.07817  0.57776  1.0000
  H   H11       1.0  0.42107  0.74179  0.31491  1.0000
  H   H12       1.0  0.74294  0.01492  0.43046  1.0000
  H   H13       1.0  0.36925  0.63192  0.44811  1.0000
  H   H14       1.0  0.46976  0.61544  0.56397  1.0000
  H   H15       1.0  0.47410  0.73149  0.34784  1.0000
  H   H16       1.0  0.68851  0.90764  0.51355  1.0000
  H   H17       1.0  0.78428  0.89261  0.53044  1.0000
  H   H18       1.0  0.79665  0.00400  0.47245  1.0000
  H   H19       1.0  0.36454  0.56817  0.51210  1.0000
  H   H20       1.0  0.51767  0.64875  0.39123  1.0000
  H   H21       1.0  0.58491  0.67747  0.39811  1.0000
  H   H22       1.0  0.59876  0.76699  0.57141  1.0000
  H   H23       1.0  0.53094  0.73990  0.54607  1.0000
  H   H24       1.0  0.62804  0.66738  0.70915  1.0000
  H   H25       1.0  0.65774  0.63122  0.69625  1.0000
  H   H26       1.0  0.71902  0.73489  0.26026  1.0000
  H   H27       1.0  0.68734  0.77039  0.26414  1.0000
  H   H28       1.0  0.65995  0.60501  0.49333  1.0000
  H   H29       1.0  0.76051  0.59994  0.50525  1.0000
  H   H30       1.0  0.76460  0.70690  0.46377  1.0000
  H   H31       1.0  0.65591  0.54706  0.49877  1.0000
  H   H32       1.0  0.34134  0.50036  0.74762  1.0000
  H   H33       1.0  0.30422  0.43630  0.70412  1.0000
  H   H34       1.0  0.39117  0.45680  0.45054  1.0000
  H   H35       1.0  0.42990  0.51851  0.51693  1.0000
  H   H36       1.0  0.63126  0.48725  0.60585  1.0000
  H   H37       1.0  0.59758  0.42048  0.60132  1.0000
  H   H38       1.0  0.69182  0.43316  0.43753  1.0000
  H   H39       1.0  0.72611  0.50013  0.44936  1.0000
  H   H40       1.0  0.56611  0.38825  0.39151  1.0000
  H   H41       1.0  0.52865  0.32230  0.36527  1.0000
  H   H42       1.0  0.63019  0.30265  0.56500  1.0000
  H   H43       1.0  0.66707  0.36724  0.59323  1.0000
  H   H44       1.0  0.30449  0.28355  0.47043  1.0000
  H   H45       1.0  0.59373  0.25646  0.45294  1.0000
  H   H46       1.0  0.19999  0.23223  0.46494  1.0000
  H   H47       1.0  0.19222  0.12608  0.47664  1.0000
  H   H48       1.0  0.29934  0.22456  0.47784  1.0000
  H   H49       1.0  0.49215  0.20756  0.51016  1.0000
  H   H50       1.0  0.47820  0.09796  0.52769  1.0000
  H   H51       1.0  0.58458  0.19549  0.46714  1.0000
  H   H52       1.0  0.14041  0.17618  0.48453  1.0000
  H   H53       1.0  0.22122  0.12180  0.28482  1.0000
  H   H54       1.0  0.25270  0.08506  0.29303  1.0000
  H   H55       1.0  0.34736  0.13340  0.70585  1.0000
  H   H56       1.0  0.31632  0.16977  0.69849  1.0000
  H   H57       1.0  0.17705  0.92782  0.52830  1.0000
  H   H58       1.0  0.16384  0.82145  0.51792  1.0000
  H   H59       1.0  0.27294  0.91662  0.51366  1.0000
  H   H60       1.0  0.11726  0.87363  0.55823  1.0000
  H   H61       1.0  0.08353  0.16248  0.34028  1.0000
  H   H62       1.0  0.01582  0.12969  0.34897  1.0000
  H   H63       1.0  0.02044  0.01780  0.56334  1.0000
  H   H64       1.0  0.08895  0.05103  0.55391  1.0000
  H   H65       1.0  0.97533  0.09063  0.58315  1.0000
  H   H66       1.0  0.90663  0.06008  0.58222  1.0000
  H   H67       1.0  0.89154  0.97873  0.34799  1.0000
  H   H68       1.0  0.95950  0.00956  0.34426  1.0000
  H   H69       1.0  0.84573  0.94456  0.52713  1.0000
  H   H70       1.0  0.81956  0.65409  0.50757  1.0000
  H   H71       1.0  0.52743  0.58223  0.01222  1.0000
  H   H72       1.0  0.21052  0.30325  0.05367  1.0000
  H   H73       1.0  0.28027  0.19810  0.09552  1.0000
  H   H74       1.0  0.30714  0.16023  0.06989  1.0000
  H   H75       1.0  0.39788  0.26711  0.82709  1.0000
  H   H76       1.0  0.37038  0.30495  0.84776  1.0000
  H   H77       1.0  0.59391  0.47580  0.05378  1.0000
  H   H78       1.0  0.62290  0.43680  0.05596  1.0000
  H   H79       1.0  0.72438  0.54034  0.93393  1.0000
  H   H80       1.0  0.69627  0.57868  0.93361  1.0000
  H   H81       1.0  0.42553  0.22462  0.00909  1.0000
  H   H82       1.0  0.74521  0.50236  0.99711  1.0000
  H   H83       1.0  0.36916  0.12003  0.04056  1.0000
  H   H84       1.0  0.46215  0.10696  0.01050  1.0000
  H   H85       1.0  0.47596  0.21710  0.98515  1.0000
  H   H86       1.0  0.68582  0.39872  0.01258  1.0000
  H   H87       1.0  0.77934  0.38380  0.99799  1.0000
  H   H88       1.0  0.79577  0.49260  0.99438  1.0000
  H   H89       1.0  0.36065  0.05815  0.06362  1.0000
  H   H90       1.0  0.65693  0.09408  0.02851  1.0000
  H   H91       1.0  0.75569  0.08813  0.02172  1.0000
  H   H92       1.0  0.76414  0.19203  0.04258  1.0000
  H   H93       1.0  0.65087  0.03747  0.00935  1.0000
  H   H94       1.0  0.32412  0.01207  0.95912  1.0000
  H   H95       1.0  0.28691  0.94718  0.93603  1.0000
  H   H96       1.0  0.38796  0.92690  0.12256  1.0000
  H   H97       1.0  0.42586  0.99346  0.14048  1.0000
  H   H98       1.0  0.57560  0.85706  0.14983  1.0000
  H   H99       1.0  0.53832  0.79094  0.12627  1.0000
  H   H100      1.0  0.61014  0.81728  0.76068  1.0000
  H   H101      1.0  0.64598  0.88436  0.77147  1.0000
  H   H102      1.0  0.30216  0.76484  0.08721  1.0000
  H   H103      1.0  0.59510  0.74884  0.99329  1.0000
  H   H104      1.0  0.19750  0.71054  0.06998  1.0000
  H   H105      1.0  0.19330  0.60884  0.04952  1.0000
  H   H106      1.0  0.29903  0.70813  0.07758  1.0000
  H   H107      1.0  0.49102  0.70313  0.96936  1.0000
  H   H108      1.0  0.47668  0.59281  0.99887  1.0000
  H   H109      1.0  0.58580  0.68790  0.97780  1.0000
  H   H110      1.0  0.13967  0.65382  0.08839  1.0000
  H   H111      1.0  0.22512  0.57668  0.15447  1.0000
  H   H112      1.0  0.25552  0.54339  0.13000  1.0000
  H   H113      1.0  0.35147  0.65234  0.97890  1.0000
  H   H114      1.0  0.32050  0.68543  0.99416  1.0000
  H   H115      1.0  0.17257  0.43017  0.92967  1.0000
  H   H116      1.0  0.15665  0.31699  0.99387  1.0000
  H   H117      1.0  0.26743  0.40950  0.98415  1.0000
  H   H118      1.0  0.11012  0.37915  0.93230  1.0000
  H   H119      1.0  0.06531  0.33884  0.13666  1.0000
  H   H120      1.0  0.99776  0.30690  0.15674  1.0000
  H   H121      1.0  0.04468  0.27108  0.80431  1.0000
  H   H122      1.0  0.08494  0.64711  0.87922  1.0000
  H   H123      1.0  0.01649  0.61750  0.86572  1.0000
  H   H124      1.0  0.01680  0.50282  0.11225  1.0000
  H   H125      1.0  0.08590  0.53285  0.12598  1.0000
  H   H126      1.0  0.97656  0.23973  0.81896  1.0000
  H   H127      1.0  0.93716  0.29983  0.99103  1.0000
  H   H128      1.0  0.86946  0.26440  0.01841  1.0000
  H   H129      1.0  0.87083  0.15981  0.06484  1.0000
  H   H130      1.0  0.93728  0.19465  0.03779  1.0000
  H   H131      1.0  0.84167  0.43444  0.00521  1.0000
  H   H132      1.0  0.81435  0.14244  0.00869  1.0000
  C   C1        1.0  0.54746  0.61262  0.99381  1.0000
  C   C2        1.0  0.22943  0.33435  0.01403  1.0000
  C   C3        1.0  0.32369  0.25428  0.97672  1.0000
  C   C4        1.0  0.64291  0.53020  0.99443  1.0000
  C   C5        1.0  0.30575  0.21332  0.03439  1.0000
  C   C6        1.0  0.32080  0.19195  0.02205  1.0000
  C   C7        1.0  0.35506  0.21082  0.95527  1.0000
  C   C8        1.0  0.37251  0.25197  0.88938  1.0000
  C   C9        1.0  0.35702  0.27320  0.90063  1.0000
  C   C10       1.0  0.62232  0.49007  0.02456  1.0000
  C   C11       1.0  0.63831  0.46805  0.02678  1.0000
  C   C12       1.0  0.67563  0.48531  0.99871  1.0000
  C   C13       1.0  0.69601  0.52567  0.96384  1.0000
  C   C14       1.0  0.68009  0.54749  0.96368  1.0000
  C   C15       1.0  0.40489  0.19684  0.98740  1.0000
  C   C16       1.0  0.42050  0.17164  0.99978  1.0000
  C   C17       1.0  0.72445  0.47267  0.00514  1.0000
  C   C18       1.0  0.73904  0.44779  0.00642  1.0000
  C   C19       1.0  0.39825  0.13203  0.02501  1.0000
  C   C20       1.0  0.41379  0.10886  0.03220  1.0000
  C   C21       1.0  0.45159  0.12559  0.01168  1.0000
  C   C22       1.0  0.47489  0.16459  0.99490  1.0000
  C   C23       1.0  0.45863  0.18706  0.99173  1.0000
  C   C24       1.0  0.71543  0.40934  0.01081  1.0000
  C   C25       1.0  0.72940  0.38609  0.00591  1.0000
  C   C26       1.0  0.76785  0.40176  0.99850  1.0000
  C   C27       1.0  0.79182  0.43993  0.99551  1.0000
  C   C28       1.0  0.77700  0.46292  0.99817  1.0000
  C   C29       1.0  0.39000  0.06792  0.05460  1.0000
  C   C30       1.0  0.70813  0.14594  0.03320  1.0000
  C   C31       1.0  0.68699  0.10784  0.02815  1.0000
  C   C32       1.0  0.70410  0.08687  0.02669  1.0000
  C   C33       1.0  0.74294  0.10439  0.02809  1.0000
  C   C34       1.0  0.76452  0.14201  0.03596  1.0000
  C   C35       1.0  0.74698  0.16251  0.04043  1.0000
  C   C36       1.0  0.68116  0.04761  0.01989  1.0000
  C   C37       1.0  0.37810  0.00744  0.05525  1.0000
  C   C38       1.0  0.33845  0.99340  0.99949  1.0000
  C   C39       1.0  0.31724  0.95642  0.98568  1.0000
  C   C40       1.0  0.33441  0.93170  0.02576  1.0000
  C   C41       1.0  0.37397  0.94569  0.08464  1.0000
  C   C42       1.0  0.39534  0.98272  0.09730  1.0000
  C   C43       1.0  0.61340  0.87591  0.96105  1.0000
  C   C44       1.0  0.58259  0.84899  0.05941  1.0000
  C   C45       1.0  0.56178  0.81194  0.04862  1.0000
  C   C46       1.0  0.57198  0.79976  0.94477  1.0000
  C   C47       1.0  0.60280  0.82615  0.84644  1.0000
  C   C48       1.0  0.62295  0.86381  0.85336  1.0000
  C   C49       1.0  0.27146  0.75374  0.06733  1.0000
  C   C50       1.0  0.25026  0.71360  0.06935  1.0000
  C   C51       1.0  0.56446  0.73961  0.96736  1.0000
  C   C52       1.0  0.54057  0.69982  0.96975  1.0000
  C   C53       1.0  0.21144  0.69485  0.06882  1.0000
  C   C54       1.0  0.19141  0.65698  0.06402  1.0000
  C   C55       1.0  0.21022  0.63774  0.05975  1.0000
  C   C56       1.0  0.24925  0.65526  0.06656  1.0000
  C   C57       1.0  0.26875  0.69353  0.07120  1.0000
  C   C58       1.0  0.50195  0.68451  0.97110  1.0000
  C   C59       1.0  0.47883  0.64579  0.98678  1.0000
  C   C60       1.0  0.49463  0.62270  0.99406  1.0000
  C   C61       1.0  0.53282  0.63782  0.98797  1.0000
  C   C62       1.0  0.55604  0.67654  0.97906  1.0000
  C   C63       1.0  0.26903  0.63459  0.06654  1.0000
  C   C64       1.0  0.15089  0.63857  0.05983  1.0000
  C   C65       1.0  0.25226  0.59397  0.10802  1.0000
  C   C66       1.0  0.26959  0.57478  0.09501  1.0000
  C   C67       1.0  0.30520  0.59541  0.03876  1.0000
  C   C68       1.0  0.32336  0.63542  0.01219  1.0000
  C   C69       1.0  0.30547  0.65423  0.02411  1.0000
  C   C70       1.0  0.22302  0.42513  0.95216  1.0000
  C   C71       1.0  0.18408  0.41105  0.94165  1.0000
  C   C72       1.0  0.16019  0.37222  0.95608  1.0000
  C   C73       1.0  0.17550  0.34707  0.98170  1.0000
  C   C74       1.0  0.21399  0.36072  0.98942  1.0000
  C   C75       1.0  0.23748  0.39975  0.97439  1.0000
  C   C76       1.0  0.11993  0.35798  0.94888  1.0000
  C   C77       1.0  0.09051  0.59179  0.01149  1.0000
  C   C78       1.0  0.05944  0.30763  0.96554  1.0000
  C   C79       1.0  0.04565  0.31781  0.06310  1.0000
  C   C80       1.0  0.00766  0.29968  0.07478  1.0000
  C   C81       1.0  0.98214  0.27077  0.98986  1.0000
  C   C82       1.0  0.99606  0.26122  0.88995  1.0000
  C   C83       1.0  0.03398  0.27884  0.87985  1.0000
  C   C84       1.0  0.07034  0.61549  0.93605  1.0000
  C   C85       1.0  0.03167  0.59873  0.92746  1.0000
  C   C86       1.0  0.01156  0.55793  0.99081  1.0000
  C   C87       1.0  0.03169  0.53444  0.06089  1.0000
  C   C88       1.0  0.07035  0.55103  0.06992  1.0000
  C   C89       1.0  0.94221  0.25019  0.00827  1.0000
  C   C90       1.0  0.92256  0.26912  0.00728  1.0000
  C   C91       1.0  0.88473  0.24956  0.02169  1.0000
  C   C92       1.0  0.86480  0.21010  0.03793  1.0000
  C   C93       1.0  0.88465  0.19067  0.04450  1.0000
  C   C94       1.0  0.92242  0.21041  0.02885  1.0000
  C   C95       1.0  0.83182  0.45511  0.99421  1.0000
  C   C96       1.0  0.80457  0.15969  0.03102  1.0000
  C   C97       1.0  0.54898  0.11849  0.52065  1.0000
  C   C98       1.0  0.23601  0.84291  0.51419  1.0000
  C   C99       1.0  0.28573  0.82991  0.53732  1.0000
  C   C100      1.0  0.26746  0.78879  0.59926  1.0000
  C   C101      1.0  0.28312  0.76665  0.59929  1.0000
  C   C102      1.0  0.31751  0.78451  0.53477  1.0000
  C   C103      1.0  0.33606  0.82553  0.47948  1.0000
  C   C104      1.0  0.32110  0.84776  0.48392  1.0000
  C   C105      1.0  0.64644  0.03923  0.51292  1.0000
  C   C106      1.0  0.62327  0.00412  0.47471  1.0000
  C   C107      1.0  0.63875  0.98243  0.46864  1.0000
  C   C108      1.0  0.67806  0.99511  0.49895  1.0000
  C   C109      1.0  0.70132  0.03048  0.53446  1.0000
  C   C110      1.0  0.68570  0.05199  0.54060  1.0000
  C   C111      1.0  0.40414  0.71027  0.37570  1.0000
  C   C112      1.0  0.41999  0.68441  0.39806  1.0000
  C   C113      1.0  0.72480  0.98360  0.47483  1.0000
  C   C114      1.0  0.74058  0.95819  0.49205  1.0000
  C   C115      1.0  0.39921  0.64385  0.44977  1.0000
  C   C116      1.0  0.41738  0.61929  0.50837  1.0000
  C   C117      1.0  0.45630  0.63540  0.51245  1.0000
  C   C118      1.0  0.47738  0.67575  0.45449  1.0000
  C   C119      1.0  0.45843  0.69997  0.39430  1.0000
  C   C120      1.0  0.71814  0.91882  0.51072  1.0000
  C   C121      1.0  0.73333  0.89479  0.52377  1.0000
  C   C122      1.0  0.77205  0.91067  0.52348  1.0000
  C   C123      1.0  0.79491  0.94984  0.50527  1.0000
  C   C124      1.0  0.77879  0.97361  0.48768  1.0000
  C   C125      1.0  0.39527  0.57726  0.55648  1.0000
  C   C126      1.0  0.51832  0.69238  0.46314  1.0000
  C   C127      1.0  0.53515  0.67492  0.42948  1.0000
  C   C128      1.0  0.57364  0.69120  0.43417  1.0000
  C   C129      1.0  0.59786  0.72501  0.48365  1.0000
  C   C130      1.0  0.58129  0.74165  0.52685  1.0000
  C   C131      1.0  0.54251  0.72619  0.51132  1.0000
  C   C132      1.0  0.65483  0.72092  0.48452  1.0000
  C   C133      1.0  0.64716  0.68175  0.60684  1.0000
  C   C134      1.0  0.66414  0.66156  0.59921  1.0000
  C   C135      1.0  0.69057  0.68022  0.47613  1.0000
  C   C136      1.0  0.69887  0.71986  0.35792  1.0000
  C   C137      1.0  0.68097  0.73991  0.35924  1.0000
  C   C138      1.0  0.70974  0.65878  0.47789  1.0000
  C   C139      1.0  0.69001  0.61938  0.49207  1.0000
  C   C140      1.0  0.70810  0.59831  0.50035  1.0000
  C   C141      1.0  0.74679  0.61669  0.49764  1.0000
  C   C142      1.0  0.76690  0.65587  0.48251  1.0000
  C   C143      1.0  0.74815  0.67675  0.47129  1.0000
  C   C144      1.0  0.68626  0.55796  0.50690  1.0000
  C   C145      1.0  0.38816  0.51444  0.63055  1.0000
  C   C146      1.0  0.68066  0.49917  0.51842  1.0000
  C   C147      1.0  0.35237  0.49075  0.68342  1.0000
  C   C148      1.0  0.33129  0.45469  0.65686  1.0000
  C   C149      1.0  0.34439  0.44127  0.57282  1.0000
  C   C150      1.0  0.38039  0.46526  0.52202  1.0000
  C   C151      1.0  0.40218  0.50021  0.55656  1.0000
  C   C152      1.0  0.64426  0.47595  0.56399  1.0000
  C   C153      1.0  0.62537  0.43812  0.56239  1.0000
  C   C154      1.0  0.64153  0.42183  0.51395  1.0000
  C   C155      1.0  0.67853  0.44460  0.47705  1.0000
  C   C156      1.0  0.69773  0.48237  0.48054  1.0000
  C   C157      1.0  0.61961  0.38308  0.49399  1.0000
  C   C158      1.0  0.58020  0.36951  0.42970  1.0000
  C   C159      1.0  0.55907  0.33276  0.41348  1.0000
  C   C160      1.0  0.57632  0.30782  0.45900  1.0000
  C   C161      1.0  0.61586  0.32150  0.52079  1.0000
  C   C162      1.0  0.63689  0.35826  0.53729  1.0000
  C   C163      1.0  0.27450  0.27254  0.47033  1.0000
  C   C164      1.0  0.25187  0.23264  0.47065  1.0000
  C   C165      1.0  0.56439  0.24706  0.46090  1.0000
  C   C166      1.0  0.54038  0.20615  0.48293  1.0000
  C   C167      1.0  0.21295  0.21525  0.46770  1.0000
  C   C168      1.0  0.19157  0.17705  0.46795  1.0000
  C   C169      1.0  0.20942  0.15593  0.47295  1.0000
  C   C170      1.0  0.24821  0.17230  0.47967  1.0000
  C   C171      1.0  0.26923  0.21098  0.47744  1.0000
  C   C172      1.0  0.50268  0.18929  0.50517  1.0000
  C   C173      1.0  0.47927  0.15045  0.51852  1.0000
  C   C174      1.0  0.49545  0.12806  0.52033  1.0000
  C   C175      1.0  0.53345  0.14357  0.51038  1.0000
  C   C176      1.0  0.55569  0.18315  0.48596  1.0000
  C   C177      1.0  0.26643  0.14931  0.48838  1.0000
  C   C178      1.0  0.15124  0.15902  0.46844  1.0000
  C   C179      1.0  0.24879  0.12428  0.37876  1.0000
  C   C180      1.0  0.26657  0.10371  0.38155  1.0000
  C   C181      1.0  0.30253  0.10678  0.49851  1.0000
  C   C182      1.0  0.31985  0.13093  0.61198  1.0000
  C   C183      1.0  0.30221  0.15198  0.60543  1.0000
  C   C184      1.0  0.22792  0.92781  0.51652  1.0000
  C   C185      1.0  0.18944  0.91079  0.52617  1.0000
  C   C186      1.0  0.16630  0.87269  0.52566  1.0000
  C   C187      1.0  0.18202  0.85102  0.51773  1.0000
  C   C188      1.0  0.22034  0.86696  0.51343  1.0000
  C   C189      1.0  0.24309  0.90538  0.51255  1.0000
  C   C190      1.0  0.12623  0.85660  0.52872  1.0000
  C   C191      1.0  0.09139  0.10879  0.45335  1.0000
  C   C192      1.0  0.07014  0.13075  0.39421  1.0000
  C   C193      1.0  0.03191  0.11223  0.39893  1.0000
  C   C194      1.0  0.01315  0.07125  0.46009  1.0000
  C   C195      1.0  0.03427  0.04949  0.51445  1.0000
  C   C196      1.0  0.07259  0.06789  0.51029  1.0000
  C   C197      1.0  0.97259  0.05221  0.46482  1.0000
  C   C198      1.0  0.95695  0.06631  0.53015  1.0000
  C   C199      1.0  0.91867  0.04922  0.53139  1.0000
  C   C200      1.0  0.89444  0.01679  0.47074  1.0000
  C   C201      1.0  0.90984  0.00263  0.40392  1.0000
  C   C202      1.0  0.94824  0.02010  0.40159  1.0000
  C   C203      1.0  0.83490  0.96555  0.50216  1.0000
  C   C204      1.0  0.80727  0.67383  0.48332  1.0000
  N   N1        1.0  0.26335  0.34723  0.99086  1.0000
  N   N2        1.0  0.58209  0.62511  0.98234  1.0000
  N   N3        1.0  0.36909  0.18661  0.95876  1.0000
  N   N4        1.0  0.68949  0.46032  0.01004  1.0000
  N   N5        1.0  0.63341  0.23081  0.00294  1.0000
  N   N6        1.0  0.40236  0.04511  0.05920  1.0000
  N   N7        1.0  0.69614  0.02733  0.02036  1.0000
  N   N8        1.0  0.25459  0.77451  0.04181  1.0000
  N   N9        1.0  0.54958  0.76192  0.94345  1.0000
  N   N10       1.0  0.32180  0.57579  0.01856  1.0000
  N   N11       1.0  0.12943  0.60634  0.02582  1.0000
  N   N12       1.0  0.09747  0.32257  0.95886  1.0000
  N   N13       1.0  0.82652  0.19351  0.04738  1.0000
  N   N14       1.0  0.85401  0.49058  0.98487  1.0000
  N   N15       1.0  0.27156  0.85466  0.52583  1.0000
  N   N16       1.0  0.58475  0.12844  0.55159  1.0000
  N   N17       1.0  0.37389  0.69624  0.44206  1.0000
  N   N18       1.0  0.69132  0.96993  0.50700  1.0000
  N   N19       1.0  0.63701  0.74163  0.48873  1.0000
  N   N20       1.0  0.41086  0.55272  0.62980  1.0000
  N   N21       1.0  0.70197  0.53771  0.51376  1.0000
  N   N22       1.0  0.25975  0.29260  0.47439  1.0000
  N   N23       1.0  0.55211  0.27019  0.45428  1.0000
  N   N24       1.0  0.32030  0.08528  0.50152  1.0000
  N   N25       1.0  0.13012  0.12492  0.45518  1.0000
  N   N26       1.0  0.10295  0.82429  0.49782  1.0000
  N   N27       1.0  0.82748  0.71019  0.46173  1.0000
  N   N28       1.0  0.85625  0.00190  0.47582  1.0000
  C   C205      1.0  0.25746  0.83898  0.06517  1.0000
  C   C206      1.0  0.26828  0.81874  0.01401  1.0000
  C  Sn1       1.0  0.33921  0.76672  0.96525  1.0000
  C  Sn2       1.0  0.36419  0.80482  0.96794  1.0000
  C   C207      1.0  0.31759  0.89397  0.01946  1.0000
  C   C208      1.0  0.28209  0.87655  0.06793  1.0000
  H   H133      1.0  0.23001  0.82550  0.10279  1.0000
  O  Te1       1.0  0.34957  0.74610  0.91441  1.0000
  O  Te2       1.0  0.39975  0.82263  0.91991  1.0000
  H   H134      1.0  0.27373  0.89222  0.10766  1.0000
  Mg  Mg1       1.0  0.40098  0.78275  0.86042  1.0000
  C   C209      1.0  0.65468  0.29183  0.13651  1.0000
  C   C210      1.0  0.65345  0.27282  0.02692  1.0000
  C  Sn3       1.0  0.71532  0.22189  0.90542  1.0000
  C  Sn4       1.0  0.74341  0.25984  0.89377  1.0000
  C   C211      1.0  0.70889  0.34776  0.00410  1.0000
  C   C212      1.0  0.68237  0.32926  0.12516  1.0000
  H   H135      1.0  0.63417  0.27752  0.23026  1.0000
  O  Te3       1.0  0.71368  0.20249  0.79688  1.0000
  O  Te4       1.0  0.77010  0.27872  0.77357  1.0000
  H   H136      1.0  0.68335  0.34397  0.21009  1.0000
  Mg  Mg2       1.0  0.75625  0.24031  0.65402  1.0000
  C   C213      1.0  0.26293  0.35742  0.49576  1.0000
  C   C214      1.0  0.27652  0.33518  0.47838  1.0000
  C  Sn5       1.0  0.31521  0.34695  0.50208  1.0000
  C  Sn6       1.0  0.34070  0.38165  0.54401  1.0000
  C   C215      1.0  0.32683  0.40369  0.56125  1.0000
  C   C216      1.0  0.28806  0.39164  0.53719  1.0000
  H   H137      1.0  0.23294  0.34809  0.47726  1.0000
  O  Te5       1.0  0.32830  0.32439  0.48415  1.0000
  O  Te6       1.0  0.37950  0.39409  0.56847  1.0000
  H   H138      1.0  0.27755  0.40886  0.55079  1.0000
  Mg  Mg3       1.0  0.38366  0.35344  0.53000  1.0000
  C   C217      1.0  0.91639  0.49051  0.91432  1.0000
  C   C218      1.0  0.89570  0.49964  0.97540  1.0000
  C  Sn7       1.0  0.87777  0.60071  0.03788  1.0000
  C  Sn8       1.0  0.91680  0.62386  0.03902  1.0000
  C   C219      1.0  0.97276  0.54535  0.97749  1.0000
  C   C220      1.0  0.95488  0.51334  0.91532  1.0000
  H   H139      1.0  0.90255  0.46576  0.86611  1.0000
  O  Te7       1.0  0.85669  0.60941  0.09850  1.0000
  O  Te8       1.0  0.93508  0.65593  0.10068  1.0000
  H   H140      1.0  0.97090  0.50630  0.86791  1.0000
  Mg  Mg4       1.0  0.89428  0.65604  0.16976  1.0000
  C   C221      1.0  0.38468  0.63911  0.84766  1.0000
  C   C222      1.0  0.36335  0.60110  0.95800  1.0000
  C  Sn9       1.0  0.34557  0.64585  0.10756  1.0000
  C  Sn10      1.0  0.38541  0.65983  0.14708  1.0000
  C   C223      1.0  0.40650  0.69792  0.03594  1.0000
  C   C224      1.0  0.42398  0.65293  0.88658  1.0000
  H   H141      1.0  0.37073  0.65782  0.73216  1.0000
  O  Te9       1.0  0.32383  0.60795  0.21635  1.0000
  O  Te10      1.0  0.40387  0.63606  0.29575  1.0000
  H   H142      1.0  0.44050  0.68237  0.80126  1.0000
  Mg  Mg5       1.0  0.36197  0.58664  0.40365  1.0000
  C   C225      1.0  0.30895  0.71451  0.51056  1.0000
  C   C226      1.0  0.32745  0.75079  0.53386  1.0000
  C  Sn11      1.0  0.36533  0.77320  0.51805  1.0000
  C  Sn12      1.0  0.38497  0.75895  0.47811  1.0000
  C   C227      1.0  0.36620  0.72263  0.45491  1.0000
  C   C228      1.0  0.32830  0.70043  0.47109  1.0000
  H   H143      1.0  0.27961  0.69734  0.52296  1.0000
  O  Te11      1.0  0.38339  0.80939  0.54182  1.0000
  O  Te12      1.0  0.42284  0.78076  0.46149  1.0000
  H   H144      1.0  0.31397  0.67235  0.45291  1.0000
  Mg  Mg6       1.0  0.43519  0.82832  0.50580  1.0000
  C   C229      1.0  0.40889  0.08442  0.60335  1.0000
  C   C230      1.0  0.43366  0.12328  0.52947  1.0000
  C  Sn13      1.0  0.42122  0.15335  0.44813  1.0000
  C  Sn14      1.0  0.38326  0.14427  0.44088  1.0000
  C   C231      1.0  0.35871  0.10530  0.51530  1.0000
  C   C232      1.0  0.37145  0.07544  0.59632  1.0000
  H   H145      1.0  0.41875  0.06131  0.66614  1.0000
  O  Te13      1.0  0.44633  0.19201  0.37492  1.0000
  O  Te14      1.0  0.37009  0.17375  0.36045  1.0000
  H   H146      1.0  0.35227  0.04536  0.65363  1.0000
  Mg  Mg7       1.0  0.41506  0.22196  0.27953  1.0000
  C   C233      1.0  0.64789  0.11203  0.45779  1.0000
  C   C234      1.0  0.63673  0.07166  0.52478  1.0000
  C  Sn15      1.0  0.60443  0.04624  0.60853  1.0000
  C  Sn16      1.0  0.58295  0.06162  0.62527  1.0000
  C   C235      1.0  0.59434  0.10206  0.55768  1.0000
  C   C236      1.0  0.62671  0.12722  0.47417  1.0000
  H   H147      1.0  0.67293  0.13151  0.39308  1.0000
  O  Te15      1.0  0.59369  0.00598  0.67478  1.0000
  O  Te16      1.0  0.55054  0.03688  0.70830  1.0000
  H   H148      1.0  0.63533  0.15848  0.42220  1.0000
  Mg  Mg8       1.0  0.54738  0.98416  0.77719  1.0000
  C   C237      1.0  0.70613  0.19985  0.15235  1.0000
  C   C238      1.0  0.69366  0.17305  0.06080  1.0000
  C  Sn17      1.0  0.69457  0.09640  0.93009  1.0000
  C  Sn18      1.0  0.67209  0.11615  0.89055  1.0000
  C   C239      1.0  0.68482  0.14292  0.98277  1.0000
  C   C240      1.0  0.68398  0.21935  0.11336  1.0000
  H   H149      1.0  0.73297  0.20550  0.25331  1.0000
  O  Te17      1.0  0.68253  0.06953  0.83996  1.0000
  O  Te18      1.0  0.63738  0.10921  0.76048  1.0000
  H   H150      1.0  0.69363  0.24012  0.18412  1.0000
  Mg  Mg9       1.0  0.63315  0.06998  0.67399  1.0000
  C   C241      1.0  0.29220  0.47597  0.11610  1.0000
  C   C242      1.0  0.29280  0.39624  0.99089  1.0000
  C  Sn19      1.0  0.27845  0.42440  0.85394  1.0000
  C  Sn20      1.0  0.29953  0.46386  0.84244  1.0000
  C   C243      1.0  0.33445  0.47415  0.96826  1.0000
  C   C244      1.0  0.31301  0.51488  0.10480  1.0000
  H   H151      1.0  0.30311  0.45398  0.22168  1.0000
  O  Te19      1.0  0.24351  0.41334  0.73000  1.0000
  O  Te20      1.0  0.28587  0.49261  0.70687  1.0000
  H   H152      1.0  0.34007  0.52308  0.20164  1.0000
  Mg  Mg10      1.0  0.23681  0.46311  0.56966  1.0000
  C   C245      1.0  0.25993  0.26612  0.95171  1.0000
  C   C246      1.0  0.29770  0.27382  0.97638  1.0000
  C  Sn21      1.0  0.29070  0.37539  0.02540  1.0000
  C  Sn22      1.0  0.28114  0.40050  0.05015  1.0000
  C   C247      1.0  0.24327  0.39253  0.02528  1.0000
  C   C248      1.0  0.25048  0.29086  0.97617  1.0000
  H   H153      1.0  0.23802  0.24096  0.91382  1.0000
  O  Te21      1.0  0.32829  0.38267  0.04943  1.0000
  O  Te22      1.0  0.30908  0.43309  0.09921  1.0000
  H   H154      1.0  0.22124  0.28489  0.95720  1.0000
  Mg  Mg11      1.0  0.35627  0.43075  0.11618  1.0000
  C   C249      1.0  0.01563  0.82599  0.43295  1.0000
  C   C250      1.0  0.98991  0.78759  0.45253  1.0000
  C  Sn23      1.0  0.00246  0.75903  0.49966  1.0000
  C  Sn24      1.0  0.04150  0.76918  0.52765  1.0000
  C   C251      1.0  0.06700  0.80767  0.50786  1.0000
  C   C252      1.0  0.05413  0.83602  0.46061  1.0000
  H   H155      1.0  0.00568  0.84792  0.39649  1.0000
  O  Te23      1.0  0.97639  0.72082  0.51859  1.0000
  O  Te24      1.0  0.05481  0.74121  0.57492  1.0000
  H   H156      1.0  0.07405  0.86574  0.44558  1.0000
  Mg  Mg12      1.0  0.00828  0.69306  0.58467  1.0000
  C   C253      1.0  0.17149  0.94438  0.97155  1.0000
  C   C254      1.0  0.64489  0.91846  0.98522  1.0000
  C  Sn25      1.0  0.58487  0.99878  0.00264  1.0000
  C  Sn26      1.0  0.08734  0.03661  0.00635  1.0000
  C   C255      1.0  0.16034  0.99318  0.99244  1.0000
  C   C256      1.0  0.18461  0.98170  0.97512  1.0000
  H   H157      1.0  0.19027  0.93551  0.95804  1.0000
  O  Te25      1.0  0.54758  0.97251  0.01622  1.0000
  O  Te26      1.0  0.06346  0.04852  0.02357  1.0000
  H   H158      1.0  0.21357  0.00179  0.96441  1.0000
  Mg  Mg13      1.0  0.01504  0.00229  0.03760  1.0000
  C   C257      1.0  0.30158  0.02280  0.38480  1.0000
  C   C258      1.0  0.29791  0.04416  0.46335  1.0000
  C  Sn27      1.0  0.27086  0.02611  0.58056  1.0000
  C  Sn28      1.0  0.24710  0.98593  0.61963  1.0000
  C   C259      1.0  0.25102  0.96482  0.54047  1.0000
  C   C260      1.0  0.27817  0.98316  0.42332  1.0000
  H   H159      1.0  0.32260  0.03699  0.29425  1.0000
  O  Te27      1.0  0.26756  0.04789  0.65782  1.0000
  O  Te28      1.0  0.21985  0.96717  0.73636  1.0000
  H   H160      1.0  0.79184  0.96661  0.36263  1.0000
  Mg  Mg14      1.0  0.22617  0.00925  0.80828  1.0000
  C   C261      1.0  0.92070  0.77276  0.54539  1.0000
  C   C262      1.0  0.94137  0.76224  0.49249  1.0000
  C  Sn29      1.0  0.92291  0.73358  0.40622  1.0000
  C  Sn30      1.0  0.88301  0.71516  0.37242  1.0000
  C   C263      1.0  0.86259  0.72591  0.42574  1.0000
  C   C264      1.0  0.88135  0.75462  0.51203  1.0000
  H   H161      1.0  0.93521  0.79499  0.61205  1.0000
  O  Te29      1.0  0.94399  0.72341  0.35433  1.0000
  O  Te30      1.0  0.86385  0.68643  0.28637  1.0000
  H   H162      1.0  0.86534  0.76278  0.55285  1.0000
  Mg  Mg15      1.0  0.90501  0.68260  0.24130  1.0000
  C   C265      1.0  0.65055  0.59500  0.06208  1.0000
  C   C266      1.0  0.63253  0.56086  0.01783  1.0000
  C  Sn31      1.0  0.62943  0.47793  0.94154  1.0000
  C  Sn32      1.0  0.60854  0.49880  0.90905  1.0000
  C   C267      1.0  0.62683  0.53293  0.95367  1.0000
  C   C268      1.0  0.62996  0.61560  0.03001  1.0000
  H   H163      1.0  0.68046  0.60546  0.12104  1.0000
  O  Te31      1.0  0.61187  0.44377  0.89822  1.0000
  O  Te32      1.0  0.56991  0.48570  0.83288  1.0000
  H   H164      1.0  0.64391  0.64204  0.06413  1.0000
  Mg  Mg16      1.0  0.55867  0.43762  0.79708  1.0000
  C   C269      1.0  0.65100  0.82122  0.37045  1.0000
  C   C270      1.0  0.65813  0.78747  0.45785  1.0000
  C  Sn33      1.0  0.69138  0.78668  0.59422  1.0000
  C  Sn34      1.0  0.71794  0.82034  0.64376  1.0000
  C   C271      1.0  0.71054  0.85395  0.55561  1.0000
  C   C272      1.0  0.67717  0.85443  0.41928  1.0000
  H   H165      1.0  0.62518  0.82158  0.26505  1.0000
  O  Te33      1.0  0.69806  0.75272  0.68010  1.0000
  O  Te34      1.0  0.75140  0.82034  0.77966  1.0000
  H   H166      1.0  0.67165  0.88055  0.35173  1.0000
  Mg  Mg17      1.0  0.74775  0.76707  0.85701  1.0000
  C   C273      1.0  0.56459  0.16472  0.07170  1.0000
  C   C274      1.0  0.58939  0.20375  0.00298  1.0000
  C  Sn35      1.0  0.61231  0.16445  0.92489  1.0000
  C  Sn36      1.0  0.57415  0.15498  0.91567  1.0000
  C   C275      1.0  0.54957  0.11586  0.98493  1.0000
  C   C276      1.0  0.52695  0.15536  0.06273  1.0000
  H   H167      1.0  0.57458  0.14178  0.13200  1.0000
  O  Te35      1.0  0.63746  0.20329  0.85682  1.0000
  O  Te36      1.0  0.56081  0.18426  0.83840  1.0000
  H   H168      1.0  0.50775  0.12515  0.11604  1.0000
  Mg  Mg18      1.0  0.60591  0.23282  0.76422  1.0000
