data_image0
_chemical_formula_structural       H132C204N28SnCSn2CSnTe4Mg2SnCSn2CSnTe4Mg2SnCSn2CSnTe4Mg2SnCSn2CSnTe4Mg2SnCSn2CSnTe4Mg2SnCSn2CSnTe4Mg2SnCSn2CSnTe4Mg2SnCSn2CSnTe4Mg2SnCSn2CSnTe4Mg2SnCSn2CSnTe4Mg2SnCSn2CSnTe4Mg2SnCSn2CSnTe4Mg2SnCSn2CSnTe4Mg2SnCSn2CSnTe4Mg2SnCSn2CSnTe4Mg2SnCSn2CSnTe4Mg2SnCSn2CSnTe4Mg2SnCSn2CSnTe4Mg2
_chemical_formula_sum              "H132 C240 N28 Sn72 Te72 Mg36"
_cell_length_a       41.8897
_cell_length_b       42.3917
_cell_length_c       7.77506
_cell_angle_alpha    61.7272
_cell_angle_beta     112.44
_cell_angle_gamma    120.316

_symmetry_space_group_name_H-M    'P1'
_space_group_IT_number       1

loop_
  _space_group_symop_operation_xyz
  'x, y, z'

loop_
  _atom_site_type_symbol
  _atom_site_label
  _atom_site_symmetry_multiplicity
  _atom_site_fract_x
  _atom_site_fract_y
  _atom_site_fract_z
  _atom_site_occupancy
  H   H1        1.0  0.52837  0.09102  0.49575  1.0000
  H   H2        1.0  0.21533  0.81417  0.50481  1.0000
  H   H3        1.0  0.28162  0.70919  0.53772  1.0000
  H   H4        1.0  0.30703  0.67302  0.49470  1.0000
  H   H5        1.0  0.41476  0.77027  0.46466  1.0000
  H   H6        1.0  0.38993  0.80595  0.51318  1.0000
  H   H7        1.0  0.42107  0.74179  0.31491  1.0000
  H   H8        1.0  0.74294  0.01492  0.43046  1.0000
  H   H9        1.0  0.36925  0.63192  0.44811  1.0000
  H   H10       1.0  0.46976  0.61544  0.56397  1.0000
  H   H11       1.0  0.47410  0.73149  0.34784  1.0000
  H   H12       1.0  0.68851  0.90764  0.51355  1.0000
  H   H13       1.0  0.78428  0.89261  0.53044  1.0000
  H   H14       1.0  0.79665  0.00400  0.47245  1.0000
  H   H15       1.0  0.36454  0.56817  0.51210  1.0000
  H   H16       1.0  0.51767  0.64875  0.39123  1.0000
  H   H17       1.0  0.58491  0.67747  0.39811  1.0000
  H   H18       1.0  0.59876  0.76699  0.57141  1.0000
  H   H19       1.0  0.53094  0.73990  0.54607  1.0000
  H   H20       1.0  0.66448  0.87186  0.30483  1.0000
  H   H21       1.0  0.62347  0.80711  0.27665  1.0000
  H   H22       1.0  0.70412  0.76139  0.72234  1.0000
  H   H23       1.0  0.74679  0.82731  0.73868  1.0000
  H   H24       1.0  0.65995  0.60501  0.49333  1.0000
  H   H25       1.0  0.76051  0.59994  0.50525  1.0000
  H   H26       1.0  0.76460  0.70690  0.46377  1.0000
  H   H27       1.0  0.65591  0.54706  0.49877  1.0000
  H   H28       1.0  0.34134  0.50036  0.74762  1.0000
  H   H29       1.0  0.30422  0.43630  0.70412  1.0000
  H   H30       1.0  0.39117  0.45680  0.45054  1.0000
  H   H31       1.0  0.42990  0.51851  0.51693  1.0000
  H   H32       1.0  0.63126  0.48725  0.60585  1.0000
  H   H33       1.0  0.59758  0.42048  0.60132  1.0000
  H   H34       1.0  0.69182  0.43316  0.43753  1.0000
  H   H35       1.0  0.72611  0.50013  0.44936  1.0000
  H   H36       1.0  0.56611  0.38825  0.39151  1.0000
  H   H37       1.0  0.52865  0.32230  0.36527  1.0000
  H   H38       1.0  0.63019  0.30265  0.56500  1.0000
  H   H39       1.0  0.66707  0.36724  0.59323  1.0000
  H   H40       1.0  0.30449  0.28355  0.47043  1.0000
  H   H41       1.0  0.59373  0.25646  0.45294  1.0000
  H   H42       1.0  0.19999  0.23223  0.46494  1.0000
  H   H43       1.0  0.19222  0.12608  0.47664  1.0000
  H   H44       1.0  0.29934  0.22456  0.47784  1.0000
  H   H45       1.0  0.49215  0.20756  0.51016  1.0000
  H   H46       1.0  0.47820  0.09796  0.52769  1.0000
  H   H47       1.0  0.58458  0.19549  0.46714  1.0000
  H   H48       1.0  0.14041  0.17618  0.48453  1.0000
  H   H49       1.0  0.22122  0.12180  0.28482  1.0000
  H   H50       1.0  0.25270  0.08506  0.29303  1.0000
  H   H51       1.0  0.34736  0.13340  0.70585  1.0000
  H   H52       1.0  0.31632  0.16977  0.69849  1.0000
  H   H53       1.0  0.43407  0.18923  0.39876  1.0000
  H   H54       1.0  0.36660  0.16208  0.38414  1.0000
  H   H55       1.0  0.36441  0.04586  0.63985  1.0000
  H   H56       1.0  0.43141  0.07311  0.64943  1.0000
  H   H57       1.0  0.17705  0.92782  0.52830  1.0000
  H   H58       1.0  0.16384  0.82145  0.51792  1.0000
  H   H59       1.0  0.27294  0.91662  0.51366  1.0000
  H   H60       1.0  0.11726  0.87363  0.55823  1.0000
  H   H61       1.0  0.08353  0.16248  0.34028  1.0000
  H   H62       1.0  0.01582  0.12969  0.34897  1.0000
  H   H63       1.0  0.02044  0.01780  0.56334  1.0000
  H   H64       1.0  0.08895  0.05103  0.55391  1.0000
  H   H65       1.0  0.97533  0.09063  0.58315  1.0000
  H   H66       1.0  0.90663  0.06008  0.58222  1.0000
  H   H67       1.0  0.89154  0.97873  0.34799  1.0000
  H   H68       1.0  0.95950  0.00956  0.34426  1.0000
  H   H69       1.0  0.94749  0.79501  0.60317  1.0000
  H   H70       1.0  0.87854  0.76594  0.59199  1.0000
  H   H71       1.0  0.86242  0.69143  0.31075  1.0000
  H   H72       1.0  0.93081  0.72090  0.31769  1.0000
  H   H73       1.0  0.84573  0.94456  0.52713  1.0000
  H   H74       1.0  0.81956  0.65409  0.50757  1.0000
  H   H75       1.0  0.52743  0.58223  0.01222  1.0000
  H   H76       1.0  0.21052  0.30325  0.05367  1.0000
  H   H77       1.0  0.54250  0.56282  0.85238  1.0000
  H   H78       1.0  0.56998  0.52220  0.86271  1.0000
  H   H79       1.0  0.67891  0.59288  0.11230  1.0000
  H   H80       1.0  0.65130  0.63370  0.10099  1.0000
  H   H81       1.0  0.28027  0.19810  0.09552  1.0000
  H   H82       1.0  0.30714  0.16023  0.06989  1.0000
  H   H83       1.0  0.39788  0.26711  0.82709  1.0000
  H   H84       1.0  0.37038  0.30495  0.84776  1.0000
  H   H85       1.0  0.59391  0.47580  0.05378  1.0000
  H   H86       1.0  0.62290  0.43680  0.05596  1.0000
  H   H87       1.0  0.72438  0.54034  0.93393  1.0000
  H   H88       1.0  0.69627  0.57868  0.93361  1.0000
  H   H89       1.0  0.42553  0.22462  0.00909  1.0000
  H   H90       1.0  0.74521  0.50236  0.99711  1.0000
  H   H91       1.0  0.36916  0.12003  0.04056  1.0000
  H   H92       1.0  0.46215  0.10696  0.01050  1.0000
  H   H93       1.0  0.47596  0.21710  0.98515  1.0000
  H   H94       1.0  0.68582  0.39872  0.01258  1.0000
  H   H95       1.0  0.77934  0.38380  0.99799  1.0000
  H   H96       1.0  0.79577  0.49260  0.99438  1.0000
  H   H97       1.0  0.36065  0.05815  0.06362  1.0000
  H   H98       1.0  0.65693  0.09408  0.02851  1.0000
  H   H99       1.0  0.75569  0.08813  0.02172  1.0000
  H   H100      1.0  0.76414  0.19203  0.04258  1.0000
  H   H101      1.0  0.65087  0.03747  0.00935  1.0000
  H   H102      1.0  0.32412  0.01207  0.95912  1.0000
  H   H103      1.0  0.28691  0.94718  0.93603  1.0000
  H   H104      1.0  0.38796  0.92690  0.12256  1.0000
  H   H105      1.0  0.42586  0.99346  0.14048  1.0000
  H   H106      1.0  0.61980  0.98255  0.02620  1.0000
  H   H107      1.0  0.58594  0.91801  0.99422  1.0000
  H   H108      1.0  0.68870  0.92186  0.96456  1.0000
  H   H109      1.0  0.72283  0.98770  0.99273  1.0000
  H   H110      1.0  0.26176  0.88143  0.07977  1.0000
  H   H111      1.0  0.22866  0.81342  0.08400  1.0000
  H   H112      1.0  0.32487  0.82540  0.94457  1.0000
  H   H113      1.0  0.35690  0.89322  0.92821  1.0000
  H   H114      1.0  0.30216  0.76484  0.08721  1.0000
  H   H115      1.0  0.59510  0.74884  0.99329  1.0000
  H   H116      1.0  0.19750  0.71054  0.06998  1.0000
  H   H117      1.0  0.19330  0.60884  0.04952  1.0000
  H   H118      1.0  0.29903  0.70813  0.07758  1.0000
  H   H119      1.0  0.49102  0.70313  0.96936  1.0000
  H   H120      1.0  0.47668  0.59281  0.99887  1.0000
  H   H121      1.0  0.58580  0.68790  0.97780  1.0000
  H   H122      1.0  0.13967  0.65382  0.08839  1.0000
  H   H123      1.0  0.17257  0.43017  0.92967  1.0000
  H   H124      1.0  0.15665  0.31699  0.99387  1.0000
  H   H125      1.0  0.26743  0.40950  0.98415  1.0000
  H   H126      1.0  0.11012  0.37915  0.93230  1.0000
  H   H127      1.0  0.97249  0.58146  0.08002  1.0000
  H   H128      1.0  0.90333  0.55111  0.07273  1.0000
  H   H129      1.0  0.89044  0.46517  0.87762  1.0000
  H   H130      1.0  0.95879  0.49519  0.88489  1.0000
  H   H131      1.0  0.84167  0.43444  0.00521  1.0000
  H   H132      1.0  0.81435  0.14244  0.00869  1.0000
  C   C1        1.0  0.54746  0.61262  0.99381  1.0000
  C   C2        1.0  0.22943  0.33435  0.01403  1.0000
  C   C3        1.0  0.59487  0.60014  0.98490  1.0000
  C   C4        1.0  0.57212  0.56857  0.91583  1.0000
  C   C5        1.0  0.58767  0.54581  0.92117  1.0000
  C   C6        1.0  0.62634  0.55377  0.99292  1.0000
  C   C7        1.0  0.64896  0.58592  0.05712  1.0000
  C   C8        1.0  0.63362  0.60876  0.05246  1.0000
  C   C9        1.0  0.32369  0.25428  0.97672  1.0000
  C   C10       1.0  0.64291  0.53020  0.99443  1.0000
  C   C11       1.0  0.30575  0.21332  0.03439  1.0000
  C   C12       1.0  0.32080  0.19195  0.02205  1.0000
  C   C13       1.0  0.35506  0.21082  0.95527  1.0000
  C   C14       1.0  0.37251  0.25197  0.88938  1.0000
  C   C15       1.0  0.35702  0.27320  0.90063  1.0000
  C   C16       1.0  0.62232  0.49007  0.02456  1.0000
  C   C17       1.0  0.63831  0.46805  0.02678  1.0000
  C   C18       1.0  0.67563  0.48531  0.99871  1.0000
  C   C19       1.0  0.69601  0.52567  0.96384  1.0000
  C   C20       1.0  0.68009  0.54749  0.96368  1.0000
  C   C21       1.0  0.40489  0.19684  0.98740  1.0000
  C   C22       1.0  0.42050  0.17164  0.99978  1.0000
  C   C23       1.0  0.72445  0.47267  0.00514  1.0000
  C   C24       1.0  0.73904  0.44779  0.00642  1.0000
  C   C25       1.0  0.39825  0.13203  0.02501  1.0000
  C   C26       1.0  0.41379  0.10886  0.03220  1.0000
  C   C27       1.0  0.45159  0.12559  0.01168  1.0000
  C   C28       1.0  0.47489  0.16459  0.99490  1.0000
  C   C29       1.0  0.45863  0.18706  0.99173  1.0000
  C   C30       1.0  0.71543  0.40934  0.01081  1.0000
  C   C31       1.0  0.72940  0.38609  0.00591  1.0000
  C   C32       1.0  0.76785  0.40176  0.99850  1.0000
  C   C33       1.0  0.79182  0.43993  0.99551  1.0000
  C   C34       1.0  0.77700  0.46292  0.99817  1.0000
  C   C35       1.0  0.39000  0.06792  0.05460  1.0000
  C   C36       1.0  0.70813  0.14594  0.03320  1.0000
  C   C37       1.0  0.68699  0.10784  0.02815  1.0000
  C   C38       1.0  0.70410  0.08687  0.02669  1.0000
  C   C39       1.0  0.74294  0.10439  0.02809  1.0000
  C   C40       1.0  0.76452  0.14201  0.03596  1.0000
  C   C41       1.0  0.74698  0.16251  0.04043  1.0000
  C   C42       1.0  0.68116  0.04761  0.01989  1.0000
  C   C43       1.0  0.37810  0.00744  0.05525  1.0000
  C   C44       1.0  0.67399  0.99004  0.00831  1.0000
  C   C45       1.0  0.33845  0.99340  0.99949  1.0000
  C   C46       1.0  0.31724  0.95642  0.98568  1.0000
  C   C47       1.0  0.33441  0.93170  0.02576  1.0000
  C   C48       1.0  0.37397  0.94569  0.08464  1.0000
  C   C49       1.0  0.39534  0.98272  0.09730  1.0000
  C   C50       1.0  0.63512  0.96961  0.01228  1.0000
  C   C51       1.0  0.61610  0.93296  0.99618  1.0000
  C   C52       1.0  0.63457  0.91507  0.97576  1.0000
  C   C53       1.0  0.67345  0.93530  0.97475  1.0000
  C   C54       1.0  0.69270  0.97210  0.99130  1.0000
  C   C55       1.0  0.31272  0.89247  0.01122  1.0000
  C   C56       1.0  0.27570  0.86955  0.04804  1.0000
  C   C57       1.0  0.25710  0.83114  0.05378  1.0000
  C   C58       1.0  0.27505  0.81368  0.02743  1.0000
  C   C59       1.0  0.31122  0.83712  0.97917  1.0000
  C   C60       1.0  0.32934  0.87563  0.96994  1.0000
  C   C61       1.0  0.27146  0.75374  0.06733  1.0000
  C   C62       1.0  0.25026  0.71360  0.06935  1.0000
  C   C63       1.0  0.56446  0.73961  0.96736  1.0000
  C   C64       1.0  0.54057  0.69982  0.96975  1.0000
  C   C65       1.0  0.21144  0.69485  0.06882  1.0000
  C   C66       1.0  0.19141  0.65698  0.06402  1.0000
  C   C67       1.0  0.21022  0.63774  0.05975  1.0000
  C   C68       1.0  0.24925  0.65526  0.06656  1.0000
  C   C69       1.0  0.26875  0.69353  0.07120  1.0000
  C   C70       1.0  0.50195  0.68451  0.97110  1.0000
  C   C71       1.0  0.47883  0.64579  0.98678  1.0000
  C   C72       1.0  0.49463  0.62270  0.99406  1.0000
  C   C73       1.0  0.53282  0.63782  0.98797  1.0000
  C   C74       1.0  0.55604  0.67654  0.97906  1.0000
  C   C75       1.0  0.15089  0.63857  0.05983  1.0000
  C   C76       1.0  0.22302  0.42513  0.95216  1.0000
  C   C77       1.0  0.18408  0.41105  0.94165  1.0000
  C   C78       1.0  0.16019  0.37222  0.95608  1.0000
  C   C79       1.0  0.17550  0.34707  0.98170  1.0000
  C   C80       1.0  0.21399  0.36072  0.98942  1.0000
  C   C81       1.0  0.23748  0.39975  0.97439  1.0000
  C   C82       1.0  0.11993  0.35798  0.94888  1.0000
  C   C83       1.0  0.97072  0.54025  0.98510  1.0000
  C   C84       1.0  0.95443  0.55607  0.03519  1.0000
  C   C85       1.0  0.91597  0.53909  0.03292  1.0000
  C   C86       1.0  0.89230  0.50543  0.98188  1.0000
  C   C87       1.0  0.90834  0.48995  0.92732  1.0000
  C   C88       1.0  0.94685  0.50700  0.93038  1.0000
  C   C89       1.0  0.83182  0.45511  0.99421  1.0000
  C   C90       1.0  0.80457  0.15969  0.03102  1.0000
  C   C91       1.0  0.54898  0.11849  0.52065  1.0000
  C   C92       1.0  0.23601  0.84291  0.51419  1.0000
  C   C93       1.0  0.33305  0.76163  0.51988  1.0000
  C   C94       1.0  0.31077  0.72320  0.52005  1.0000
  C   C95       1.0  0.32490  0.70261  0.49405  1.0000
  C   C96       1.0  0.36198  0.71956  0.46266  1.0000
  C   C97       1.0  0.38516  0.75724  0.47273  1.0000
  C   C98       1.0  0.37094  0.77749  0.50097  1.0000
  C   C99       1.0  0.40414  0.71027  0.37570  1.0000
  C   C100      1.0  0.41999  0.68441  0.39806  1.0000
  C   C101      1.0  0.72480  0.98360  0.47483  1.0000
  C   C102      1.0  0.74058  0.95819  0.49205  1.0000
  C   C103      1.0  0.39921  0.64385  0.44977  1.0000
  C   C104      1.0  0.41738  0.61929  0.50837  1.0000
  C   C105      1.0  0.45630  0.63540  0.51245  1.0000
  C   C106      1.0  0.47738  0.67575  0.45449  1.0000
  C   C107      1.0  0.45843  0.69997  0.39430  1.0000
  C   C108      1.0  0.71814  0.91882  0.51072  1.0000
  C   C109      1.0  0.73333  0.89479  0.52377  1.0000
  C   C110      1.0  0.77205  0.91067  0.52348  1.0000
  C   C111      1.0  0.79491  0.94984  0.50527  1.0000
  C   C112      1.0  0.77879  0.97361  0.48768  1.0000
  C   C113      1.0  0.39527  0.57726  0.55648  1.0000
  C   C114      1.0  0.51832  0.69238  0.46314  1.0000
  C   C115      1.0  0.70861  0.85460  0.52457  1.0000
  C   C116      1.0  0.53515  0.67492  0.42948  1.0000
  C   C117      1.0  0.57364  0.69120  0.43417  1.0000
  C   C118      1.0  0.59786  0.72501  0.48365  1.0000
  C   C119      1.0  0.58129  0.74165  0.52685  1.0000
  C   C120      1.0  0.54251  0.72619  0.51132  1.0000
  C   C121      1.0  0.67312  0.84765  0.39866  1.0000
  C   C122      1.0  0.64986  0.81108  0.38258  1.0000
  C   C123      1.0  0.66060  0.77951  0.50052  1.0000
  C   C124      1.0  0.69573  0.78584  0.62998  1.0000
  C   C125      1.0  0.71957  0.82297  0.63891  1.0000
  C   C126      1.0  0.70974  0.65878  0.47789  1.0000
  C   C127      1.0  0.69001  0.61938  0.49207  1.0000
  C   C128      1.0  0.70810  0.59831  0.50035  1.0000
  C   C129      1.0  0.74679  0.61669  0.49764  1.0000
  C   C130      1.0  0.76690  0.65587  0.48251  1.0000
  C   C131      1.0  0.74815  0.67675  0.47129  1.0000
  C   C132      1.0  0.68626  0.55796  0.50690  1.0000
  C   C133      1.0  0.38816  0.51444  0.63055  1.0000
  C   C134      1.0  0.68066  0.49917  0.51842  1.0000
  C   C135      1.0  0.35237  0.49075  0.68342  1.0000
  C   C136      1.0  0.33129  0.45469  0.65686  1.0000
  C   C137      1.0  0.34439  0.44127  0.57282  1.0000
  C   C138      1.0  0.38039  0.46526  0.52202  1.0000
  C   C139      1.0  0.40218  0.50021  0.55656  1.0000
  C   C140      1.0  0.64426  0.47595  0.56399  1.0000
  C   C141      1.0  0.62537  0.43812  0.56239  1.0000
  C   C142      1.0  0.64153  0.42183  0.51395  1.0000
  C   C143      1.0  0.67853  0.44460  0.47705  1.0000
  C   C144      1.0  0.69773  0.48237  0.48054  1.0000
  C   C145      1.0  0.61961  0.38308  0.49399  1.0000
  C   C146      1.0  0.58020  0.36951  0.42970  1.0000
  C   C147      1.0  0.55907  0.33276  0.41348  1.0000
  C   C148      1.0  0.57632  0.30782  0.45900  1.0000
  C   C149      1.0  0.61586  0.32150  0.52079  1.0000
  C   C150      1.0  0.63689  0.35826  0.53729  1.0000
  C   C151      1.0  0.27450  0.27254  0.47033  1.0000
  C   C152      1.0  0.25187  0.23264  0.47065  1.0000
  C   C153      1.0  0.56439  0.24706  0.46090  1.0000
  C   C154      1.0  0.54038  0.20615  0.48293  1.0000
  C   C155      1.0  0.21295  0.21525  0.46770  1.0000
  C   C156      1.0  0.19157  0.17705  0.46795  1.0000
  C   C157      1.0  0.20942  0.15593  0.47295  1.0000
  C   C158      1.0  0.24821  0.17230  0.47967  1.0000
  C   C159      1.0  0.26923  0.21098  0.47744  1.0000
  C   C160      1.0  0.50268  0.18929  0.50517  1.0000
  C   C161      1.0  0.47927  0.15045  0.51852  1.0000
  C   C162      1.0  0.49545  0.12806  0.52033  1.0000
  C   C163      1.0  0.53345  0.14357  0.51038  1.0000
  C   C164      1.0  0.55569  0.18315  0.48596  1.0000
  C   C165      1.0  0.43886  0.13373  0.52335  1.0000
  C   C166      1.0  0.26643  0.14931  0.48838  1.0000
  C   C167      1.0  0.15124  0.15902  0.46844  1.0000
  C   C168      1.0  0.24879  0.12428  0.37876  1.0000
  C   C169      1.0  0.26657  0.10371  0.38155  1.0000
  C   C170      1.0  0.30253  0.10678  0.49851  1.0000
  C   C171      1.0  0.31985  0.13093  0.61198  1.0000
  C   C172      1.0  0.30221  0.15198  0.60543  1.0000
  C   C173      1.0  0.41921  0.15764  0.45451  1.0000
  C   C174      1.0  0.38064  0.14229  0.44545  1.0000
  C   C175      1.0  0.35975  0.10159  0.50962  1.0000
  C   C176      1.0  0.37927  0.07739  0.58307  1.0000
  C   C177      1.0  0.41765  0.09318  0.58840  1.0000
  C   C178      1.0  0.22792  0.92781  0.51652  1.0000
  C   C179      1.0  0.18944  0.91079  0.52617  1.0000
  C   C180      1.0  0.16630  0.87269  0.52566  1.0000
  C   C181      1.0  0.18202  0.85102  0.51773  1.0000
  C   C182      1.0  0.22034  0.86696  0.51343  1.0000
  C   C183      1.0  0.24309  0.90538  0.51255  1.0000
  C   C184      1.0  0.12623  0.85660  0.52872  1.0000
  C   C185      1.0  0.09139  0.10879  0.45335  1.0000
  C   C186      1.0  0.07014  0.13075  0.39421  1.0000
  C   C187      1.0  0.03191  0.11223  0.39893  1.0000
  C   C188      1.0  0.01315  0.07125  0.46009  1.0000
  C   C189      1.0  0.03427  0.04949  0.51445  1.0000
  C   C190      1.0  0.07259  0.06789  0.51029  1.0000
  C   C191      1.0  0.94441  0.75954  0.46524  1.0000
  C   C192      1.0  0.97259  0.05221  0.46482  1.0000
  C   C193      1.0  0.95695  0.06631  0.53015  1.0000
  C   C194      1.0  0.91867  0.04922  0.53139  1.0000
  C   C195      1.0  0.89444  0.01679  0.47074  1.0000
  C   C196      1.0  0.90984  0.00263  0.40392  1.0000
  C   C197      1.0  0.94824  0.02010  0.40159  1.0000
  C   C198      1.0  0.92887  0.77236  0.53879  1.0000
  C   C199      1.0  0.89036  0.75605  0.53414  1.0000
  C   C200      1.0  0.86589  0.72559  0.45897  1.0000
  C   C201      1.0  0.88111  0.71330  0.38025  1.0000
  C   C202      1.0  0.91966  0.72998  0.38394  1.0000
  C   C203      1.0  0.83490  0.96555  0.50216  1.0000
  C   C204      1.0  0.80727  0.67383  0.48332  1.0000
  N   N1        1.0  0.26335  0.34723  0.99086  1.0000
  N   N2        1.0  0.58209  0.62511  0.98234  1.0000
  N   N3        1.0  0.36909  0.18661  0.95876  1.0000
  N   N4        1.0  0.68949  0.46032  0.01004  1.0000
  N   N5        1.0  0.63341  0.23081  0.00294  1.0000
  N   N6        1.0  0.40236  0.04511  0.05920  1.0000
  N   N7        1.0  0.69614  0.02733  0.02036  1.0000
  N   N8        1.0  0.25459  0.77451  0.04181  1.0000
  N   N9        1.0  0.54958  0.76192  0.94345  1.0000
  N   N10       1.0  0.32180  0.57579  0.01856  1.0000
  N   N11       1.0  0.12943  0.60634  0.02582  1.0000
  N   N12       1.0  0.09747  0.32257  0.95886  1.0000
  N   N13       1.0  0.82652  0.19351  0.04738  1.0000
  N   N14       1.0  0.85401  0.49058  0.98487  1.0000
  N   N15       1.0  0.27156  0.85466  0.52583  1.0000
  N   N16       1.0  0.58475  0.12844  0.55159  1.0000
  N   N17       1.0  0.37389  0.69624  0.44206  1.0000
  N   N18       1.0  0.69132  0.96993  0.50700  1.0000
  N   N19       1.0  0.63701  0.74163  0.48873  1.0000
  N   N20       1.0  0.41086  0.55272  0.62980  1.0000
  N   N21       1.0  0.70197  0.53771  0.51376  1.0000
  N   N22       1.0  0.25975  0.29260  0.47439  1.0000
  N   N23       1.0  0.55211  0.27019  0.45428  1.0000
  N   N24       1.0  0.32030  0.08528  0.50152  1.0000
  N   N25       1.0  0.13012  0.12492  0.45518  1.0000
  N   N26       1.0  0.10295  0.82429  0.49782  1.0000
  N   N27       1.0  0.82748  0.71019  0.46173  1.0000
  N   N28       1.0  0.85625  0.00190  0.47582  1.0000
  C  Sn1       1.0  0.70489  0.72989  0.39175  1.0000
  C   C205      1.0  0.70010  0.69094  0.49991  1.0000
  C  Sn2       1.0  0.66919  0.66448  0.59418  1.0000
  C  Sn3       1.0  0.64250  0.67721  0.57995  1.0000
  C   C206      1.0  0.64730  0.71614  0.47182  1.0000
  C  Sn4       1.0  0.67820  0.74262  0.37752  1.0000
  O  Te1       1.0  0.73600  0.75584  0.29870  1.0000
  O  Te2       1.0  0.66500  0.62568  0.70153  1.0000
  O  Te3       1.0  0.61137  0.65122  0.67313  1.0000
  O  Te4       1.0  0.68239  0.78139  0.27020  1.0000
  Mg  Mg1       1.0  0.61795  0.60136  0.80205  1.0000
  Mg  Mg2       1.0  0.72942  0.80573  0.16954  1.0000
  C  Sn5       1.0  0.69817  0.21841  0.09834  1.0000
  C   C207      1.0  0.69813  0.14885  0.99149  1.0000
  C  Sn6       1.0  0.67288  0.12000  0.90851  1.0000
  C  Sn7       1.0  0.68339  0.09092  0.93294  1.0000
  C   C208      1.0  0.68341  0.16048  0.03976  1.0000
  C  Sn8       1.0  0.70868  0.18933  0.12276  1.0000
  O  Te5       1.0  0.72295  0.24753  0.18001  1.0000
  O  Te6       1.0  0.63749  0.12022  0.80225  1.0000
  O  Te7       1.0  0.65857  0.06179  0.85115  1.0000
  O  Te8       1.0  0.74405  0.18912  0.22899  1.0000
  Mg  Mg3       1.0  0.61355  0.07443  0.71912  1.0000
  Mg  Mg4       1.0  0.76800  0.23488  0.31227  1.0000
  C  Sn9       1.0  0.01448  0.75301  0.57797  1.0000
  C   C209      1.0  0.99110  0.77173  0.53020  1.0000
  C  Sn10      1.0  0.00355  0.81222  0.43651  1.0000
  C  Sn11      1.0  0.04011  0.83448  0.38944  1.0000
  C   C210      1.0  0.06346  0.81577  0.43716  1.0000
  C  Sn12      1.0  0.05104  0.77528  0.53090  1.0000
  O  Te9       1.0  0.00145  0.71250  0.67161  1.0000
  O  Te10      1.0  0.97968  0.83027  0.39029  1.0000
  O  Te11      1.0  0.05312  0.87503  0.29573  1.0000
  O  Te12      1.0  0.07488  0.75723  0.57708  1.0000
  Mg  Mg5       1.0  0.01019  0.88621  0.26279  1.0000
  Mg  Mg6       1.0  0.04439  0.70129  0.70447  1.0000
  C  Sn13      1.0  0.21791  0.34363  0.00986  1.0000
  C   C211      1.0  0.23669  0.37840  0.04875  1.0000
  C  Sn14      1.0  0.27516  0.39996  0.04680  1.0000
  C  Sn15      1.0  0.29528  0.38651  0.00499  1.0000
  C   C212      1.0  0.31203  0.28261  0.96610  1.0000
  C  Sn16      1.0  0.27355  0.26102  0.96805  1.0000
  O  Te13      1.0  0.17944  0.32254  0.01258  1.0000
  O  Te14      1.0  0.29332  0.43463  0.08620  1.0000
  O  Te15      1.0  0.33378  0.40763  0.00230  1.0000
  O  Te16      1.0  0.25539  0.22637  0.92865  1.0000
  Mg  Mg7       1.0  0.34600  0.45308  0.06516  1.0000
  Mg  Mg8       1.0  0.20272  0.20792  0.94955  1.0000
  C  Sn17      1.0  0.25286  0.52550  0.87671  1.0000
  C   C213      1.0  0.25217  0.60444  0.00369  1.0000
  C  Sn18      1.0  0.27055  0.57897  0.10075  1.0000
  C  Sn19      1.0  0.25377  0.54298  0.07017  1.0000
  C   C214      1.0  0.25448  0.46406  0.94323  1.0000
  C  Sn20      1.0  0.23608  0.48951  0.84612  1.0000
  O  Te17      1.0  0.23500  0.55141  0.78121  1.0000
  O  Te18      1.0  0.30534  0.58939  0.22704  1.0000
  O  Te19      1.0  0.27166  0.51707  0.16580  1.0000
  O  Te20      1.0  0.20131  0.47912  0.71987  1.0000
  Mg  Mg9       1.0  0.31867  0.54435  0.32339  1.0000
  Mg  Mg10      1.0  0.18796  0.52414  0.62337  1.0000
  C  Sn21      1.0  0.58580  0.04488  0.56205  1.0000
  C   C215      1.0  0.61874  0.05919  0.49463  1.0000
  C  Sn22      1.0  0.64511  0.09742  0.47295  1.0000
  C  Sn23      1.0  0.63843  0.12186  0.51975  1.0000
  C   C216      1.0  0.60551  0.10755  0.58716  1.0000
  C  Sn24      1.0  0.57912  0.06932  0.60885  1.0000
  O  Te21      1.0  0.55983  0.00657  0.58261  1.0000
  O  Te22      1.0  0.67783  0.11107  0.40524  1.0000
  O  Te23      1.0  0.66444  0.16020  0.49913  1.0000
  O  Te24      1.0  0.54642  0.05567  0.67655  1.0000
  Mg  Mg11      1.0  0.70477  0.16540  0.40171  1.0000
  Mg  Mg12      1.0  0.51948  0.00133  0.68023  1.0000
  C  Sn25      1.0  0.32638  0.63996  0.06887  1.0000
  C   C217      1.0  0.31315  0.60051  0.09867  1.0000
  C  Sn26      1.0  0.27497  0.57643  0.09849  1.0000
  C  Sn27      1.0  0.24947  0.59212  0.06776  1.0000
  C   C218      1.0  0.26270  0.63154  0.03795  1.0000
  C  Sn28      1.0  0.30088  0.65565  0.03815  1.0000
  O  Te25      1.0  0.36466  0.66350  0.06963  1.0000
  O  Te26      1.0  0.26242  0.53708  0.12866  1.0000
  O  Te27      1.0  0.21116  0.56854  0.06703  1.0000
  O  Te28      1.0  0.31343  0.69497  0.00796  1.0000
  Mg  Mg13      1.0  0.20765  0.51680  0.11460  1.0000
  Mg  Mg14      1.0  0.36818  0.71529  0.02189  1.0000
  C  Sn29      1.0  0.04005  0.30698  0.12410  1.0000
  C   C219      1.0  0.05804  0.30178  0.02659  1.0000
  C  Sn30      1.0  0.07256  0.21407  0.88703  1.0000
  C  Sn31      1.0  0.03274  0.20044  0.84394  1.0000
  C   C220      1.0  0.01478  0.20565  0.94139  1.0000
  C  Sn32      1.0  0.00024  0.29336  0.08100  1.0000
  O  Te29      1.0  0.06162  0.32561  0.26306  1.0000
  O  Te30      1.0  0.09117  0.20919  0.79151  1.0000
  O  Te31      1.0  0.01118  0.18180  0.70485  1.0000
  O  Te32      1.0  0.98165  0.29824  0.17647  1.0000
  Mg  Mg15      1.0  0.04947  0.18204  0.61378  1.0000
  Mg  Mg16      1.0  0.02331  0.32540  0.35414  1.0000
  C  Sn33      1.0  0.70071  0.03088  0.59769  1.0000
  C   C221      1.0  0.68206  0.99640  0.55612  1.0000
  C  Sn34      1.0  0.64385  0.98413  0.47002  1.0000
  C  Sn35      1.0  0.62388  0.00679  0.42441  1.0000
  C   C222      1.0  0.64253  0.04125  0.46595  1.0000
  C  Sn36      1.0  0.68073  0.05355  0.55208  1.0000
  O  Te33      1.0  0.73891  0.04260  0.68379  1.0000
  O  Te34      1.0  0.13663  0.94955  0.42989  1.0000
  O  Te35      1.0  0.58565  0.99505  0.33826  1.0000
  O  Te36      1.0  0.69877  0.08811  0.59217  1.0000
  Mg  Mg17      1.0  0.08433  0.94579  0.31167  1.0000
  Mg  Mg18      1.0  0.75108  0.09190  0.71029  1.0000
  C  Sn37      1.0  0.56322  0.16793  0.00568  1.0000
  C   C223      1.0  0.62369  0.13802  0.95488  1.0000
  C  Sn38      1.0  0.61297  0.16651  0.92920  1.0000
  C  Sn39      1.0  0.57656  0.15555  0.95495  1.0000
  C   C224      1.0  0.51612  0.18549  0.00575  1.0000
  C  Sn40      1.0  0.52682  0.15697  0.03142  1.0000
  O  Te37      1.0  0.57454  0.13994  0.03061  1.0000
  O  Te38      1.0  0.63839  0.20556  0.87836  1.0000
  O  Te39      1.0  0.56525  0.18358  0.92997  1.0000
  O  Te40      1.0  0.50142  0.11795  0.08226  1.0000
  Mg  Mg19      1.0  0.60990  0.23297  0.86085  1.0000
  Mg  Mg20      1.0  0.52989  0.09051  0.09991  1.0000
  C  Sn41      1.0  0.69910  0.29752  0.93261  1.0000
  C   C225      1.0  0.63283  0.33949  0.02753  1.0000
  C  Sn42      1.0  0.61676  0.35121  0.10248  1.0000
  C  Sn43      1.0  0.63172  0.39094  0.08202  1.0000
  C   C226      1.0  0.69796  0.34895  0.98712  1.0000
  C  Sn44      1.0  0.71405  0.33725  0.91215  1.0000
  O  Te41      1.0  0.71471  0.28514  0.85880  1.0000
  O  Te42      1.0  0.58605  0.32350  0.19686  1.0000
  O  Te43      1.0  0.61607  0.40330  0.15593  1.0000
  O  Te44      1.0  0.74474  0.36494  0.81779  1.0000
  Mg  Mg21      1.0  0.57451  0.35462  0.27266  1.0000
  Mg  Mg22      1.0  0.75629  0.33385  0.74185  1.0000
  C  Sn45      1.0  0.92529  0.18998  0.95747  1.0000
  C   C227      1.0  0.90222  0.15068  0.98417  1.0000
  C  Sn46      1.0  0.88246  0.19314  0.04441  1.0000
  C  Sn47      1.0  0.92210  0.20599  0.07882  1.0000
  C   C228      1.0  0.94515  0.24527  0.05216  1.0000
  C  Sn48      1.0  0.96494  0.20283  0.99188  1.0000
  O  Te45      1.0  0.90893  0.21615  0.89719  1.0000
  O  Te46      1.0  0.85882  0.15400  0.07004  1.0000
  O  Te47      1.0  0.93845  0.17977  0.13914  1.0000
  O  Te48      1.0  0.98855  0.24195  0.96628  1.0000
  Mg  Mg23      1.0  0.89448  0.12947  0.15391  1.0000
  Mg  Mg24      1.0  0.95293  0.26649  0.88253  1.0000
  C  Sn49      1.0  0.06034  0.54513  0.01822  1.0000
  C   C229      1.0  0.11986  0.51554  0.96515  1.0000
  C  Sn50      1.0  0.10794  0.54326  0.93800  1.0000
  C  Sn51      1.0  0.07128  0.53118  0.96455  1.0000
  C   C230      1.0  0.01178  0.56079  0.01762  1.0000
  C  Sn52      1.0  0.02367  0.53305  0.04477  1.0000
  O  Te49      1.0  0.07284  0.51793  0.04460  1.0000
  O  Te50      1.0  0.13243  0.58265  0.88489  1.0000
  O  Te51      1.0  0.05878  0.55842  0.93812  1.0000
  O  Te52      1.0  0.99920  0.49368  0.09788  1.0000
  Mg  Mg25      1.0  0.10247  0.60868  0.86607  1.0000
  Mg  Mg26      1.0  0.02915  0.46763  0.11684  1.0000
  C  Sn53      1.0  0.39615  0.58142  0.19342  1.0000
  C   C231      1.0  0.36854  0.59613  0.07225  1.0000
  C  Sn54      1.0  0.41034  0.55766  0.89079  1.0000
  C  Sn55      1.0  0.44492  0.57398  0.82906  1.0000
  C   C232      1.0  0.47250  0.55927  0.95017  1.0000
  C  Sn56      1.0  0.43073  0.59774  0.13169  1.0000
  O  Te53      1.0  0.38927  0.55073  0.37423  1.0000
  O  Te54      1.0  0.38232  0.57187  0.77223  1.0000
  O  Te55      1.0  0.45178  0.60470  0.64809  1.0000
  O  Te56      1.0  0.45872  0.58352  0.25019  1.0000
  Mg  Mg27      1.0  0.40494  0.61401  0.53860  1.0000
  Mg  Mg28      1.0  0.43612  0.54138  0.48379  1.0000
  C  Sn57      1.0  0.27224  0.76992  0.54724  1.0000
  C   C233      1.0  0.30666  0.78282  0.49792  1.0000
  C  Sn58      1.0  0.33385  0.82046  0.48427  1.0000
  C  Sn59      1.0  0.32648  0.84573  0.52079  1.0000
  C   C234      1.0  0.29208  0.83282  0.57011  1.0000
  C  Sn60      1.0  0.26487  0.79519  0.58377  1.0000
  O  Te57      1.0  0.24547  0.73218  0.56006  1.0000
  O  Te58      1.0  0.36805  0.83271  0.43466  1.0000
  O  Te59      1.0  0.35328  0.88350  0.50793  1.0000
  O  Te60      1.0  0.23069  0.78294  0.63337  1.0000
  Mg  Mg29      1.0  0.39559  0.88674  0.43563  1.0000
  Mg  Mg30      1.0  0.20314  0.72890  0.63255  1.0000
  C  Sn61      1.0  0.33860  0.38177  0.47448  1.0000
  C   C235      1.0  0.32420  0.40423  0.48369  1.0000
  C  Sn62      1.0  0.28723  0.38792  0.51079  1.0000
  C  Sn63      1.0  0.26417  0.34833  0.52919  1.0000
  C   C236      1.0  0.27858  0.32589  0.52002  1.0000
  C  Sn64      1.0  0.31555  0.34218  0.49289  1.0000
  O  Te61      1.0  0.37565  0.39868  0.44732  1.0000
  O  Te62      1.0  0.27345  0.41096  0.51945  1.0000
  O  Te63      1.0  0.22710  0.33143  0.55637  1.0000
  O  Te64      1.0  0.32933  0.31916  0.48426  1.0000
  Mg  Mg31      1.0  0.22116  0.37469  0.55853  1.0000
  Mg  Mg32      1.0  0.38162  0.35540  0.44529  1.0000
  C  Sn65      1.0  0.29250  0.02699  0.34081  1.0000
  C   C237      1.0  0.29077  0.04652  0.43779  1.0000
  C  Sn66      1.0  0.27108  0.02563  0.59418  1.0000
  C  Sn67      1.0  0.25276  0.98436  0.65501  1.0000
  C   C238      1.0  0.25450  0.96485  0.55808  1.0000
  C  Sn68      1.0  0.27418  0.98572  0.40164  1.0000
  O  Te65      1.0  0.31235  0.04847  0.18484  1.0000
  O  Te66      1.0  0.26973  0.04580  0.68881  1.0000
  O  Te67      1.0  0.23290  0.96289  0.81111  1.0000
  O  Te68      1.0  0.78636  0.96557  0.30705  1.0000
  Mg  Mg33      1.0  0.23918  0.00358  0.89360  1.0000
  Mg  Mg34      1.0  0.30609  0.00775  0.10233  1.0000
  C  Sn69      1.0  0.61322  0.86021  0.79437  1.0000
  C   C239      1.0  0.60793  0.87646  0.89610  1.0000
  C  Sn70      1.0  0.55055  0.92168  0.04403  1.0000
  C  Sn71      1.0  0.53364  0.88065  0.09139  1.0000
  C   C240      1.0  0.57446  0.79526  0.98972  1.0000
  C  Sn72      1.0  0.59631  0.81917  0.84173  1.0000
  O  Te69      1.0  0.63518  0.88469  0.64703  1.0000
  O  Te70      1.0  0.54566  0.93860  0.14364  1.0000
  O  Te71      1.0  0.51167  0.85617  0.23886  1.0000
  O  Te72      1.0  0.60121  0.80227  0.74218  1.0000
  Mg  Mg35      1.0  0.51328  0.89304  0.33280  1.0000
  Mg  Mg36      1.0  0.63359  0.84781  0.55308  1.0000
