data_image0
_chemical_formula_structural       H108C168N28C2Sn2C2HTe2HMgC2Sn2C2HTe2HMgC2Sn2C2HTe2HMgC2Sn2C2HTe2HMgC2Sn2C2HTe2HMgC2Sn2C2HTe2HMgC2Sn2C2HTe2HMgC2Sn2C2HTe2HMgC2Sn2C2HTe2HMgC2Sn2C2HTe2HMgC2Sn2C2HTe2HMgC2Sn2C2HTe2HMg
_chemical_formula_sum              "H132 C216 N28 Sn24 Te24 Mg12"
_cell_length_a       34.8364
_cell_length_b       34.35
_cell_length_c       7.58488
_cell_angle_alpha    83.8027
_cell_angle_beta     93.1871
_cell_angle_gamma    119.774

_symmetry_space_group_name_H-M    'P1'
_space_group_IT_number       1

loop_
  _space_group_symop_operation_xyz
  'x, y, z'

loop_
  _atom_site_type_symbol
  _atom_site_label
  _atom_site_symmetry_multiplicity
  _atom_site_fract_x
  _atom_site_fract_y
  _atom_site_fract_z
  _atom_site_occupancy
  H   H1        1.0  0.84620  0.36389  0.51505  1.0000
  H   H2        1.0  0.06240  0.57274  0.44407  1.0000
  H   H3        1.0  0.11737  0.50090  0.47138  1.0000
  H   H4        1.0  0.24844  0.61601  0.48219  1.0000
  H   H5        1.0  0.13521  0.63434  0.48010  1.0000
  H   H6        1.0  0.26031  0.68933  0.48895  1.0000
  H   H7        1.0  0.15746  0.47958  0.30098  1.0000
  H   H8        1.0  0.19212  0.43181  0.30278  1.0000
  H   H9        1.0  0.29330  0.51626  0.65659  1.0000
  H   H10       1.0  0.25950  0.56453  0.65084  1.0000
  H   H11       1.0  0.08805  0.25233  0.54264  1.0000
  H   H12       1.0  0.07325  0.12010  0.55774  1.0000
  H   H13       1.0  0.20269  0.23706  0.49336  1.0000
  H   H14       1.0  0.45144  0.45552  0.46139  1.0000
  H   H15       1.0  0.58086  0.57095  0.49801  1.0000
  H   H16       1.0  0.46589  0.58680  0.49488  1.0000
  H   H17       1.0  0.01647  0.18926  0.58194  1.0000
  H   H18       1.0  0.95416  0.16518  0.43407  1.0000
  H   H19       1.0  0.87233  0.13053  0.44795  1.0000
  H   H20       1.0  0.86266  0.00775  0.70224  1.0000
  H   H21       1.0  0.94418  0.04190  0.68180  1.0000
  H   H22       1.0  0.80135  0.98396  0.54057  1.0000
  H   H23       1.0  0.59069  0.64455  0.48883  1.0000
  H   H24       1.0  0.28669  0.75601  0.30924  1.0000
  H   H25       1.0  0.33599  0.83915  0.31144  1.0000
  H   H26       1.0  0.24837  0.84275  0.68106  1.0000
  H   H27       1.0  0.20003  0.75992  0.68033  1.0000
  H   H28       1.0  0.27107  0.90712  0.47904  1.0000
  H   H29       1.0  0.60434  0.86258  0.49682  1.0000
  H   H30       1.0  0.39506  0.96616  0.47866  1.0000
  H   H31       1.0  0.40974  0.09835  0.48296  1.0000
  H   H32       1.0  0.28005  0.98205  0.47026  1.0000
  H   H33       1.0  0.72951  0.92073  0.52561  1.0000
  H   H34       1.0  0.74247  0.05098  0.56893  1.0000
  H   H35       1.0  0.61377  0.93524  0.50701  1.0000
  H   H36       1.0  0.67572  0.15836  0.34786  1.0000
  H   H37       1.0  0.72579  0.24034  0.34836  1.0000
  H   H38       1.0  0.63511  0.24825  0.68725  1.0000
  H   H39       1.0  0.58450  0.16693  0.67985  1.0000
  H   H40       1.0  0.77503  0.30047  0.50991  1.0000
  H   H41       1.0  0.78690  0.43156  0.48504  1.0000
  H   H42       1.0  0.65783  0.31326  0.51127  1.0000
  H   H43       1.0  0.34843  0.10918  0.46407  1.0000
  H   H44       1.0  0.72366  0.43996  0.49169  1.0000
  H   H45       1.0  0.32323  0.14873  0.51459  1.0000
  H   H46       1.0  0.28385  0.19187  0.52479  1.0000
  H   H47       1.0  0.16038  0.07420  0.42162  1.0000
  H   H48       1.0  0.19973  0.03079  0.41214  1.0000
  H   H49       1.0  0.69972  0.48108  0.49585  1.0000
  H   H50       1.0  0.66089  0.52442  0.50893  1.0000
  H   H51       1.0  0.53686  0.40136  0.58771  1.0000
  H   H52       1.0  0.57591  0.35750  0.57058  1.0000
  H   H53       1.0  0.13777  0.11085  0.55649  1.0000
  H   H54       1.0  0.51513  0.44623  0.45430  1.0000
  H   H55       1.0  0.06345  0.06134  0.04857  1.0000
  H   H56       1.0  0.12118  0.99413  0.01420  1.0000
  H   H57       1.0  0.25093  0.11187  0.99519  1.0000
  H   H58       1.0  0.13554  0.12613  0.01825  1.0000
  H   H59       1.0  0.26076  0.18544  0.00134  1.0000
  H   H60       1.0  0.40684  0.04518  0.11751  1.0000
  H   H61       1.0  0.58406  0.06518  0.99143  1.0000
  H   H62       1.0  0.46926  0.08114  0.98342  1.0000
  H   H63       1.0  0.59333  0.13889  0.00418  1.0000
  H   H64       1.0  0.28215  0.24089  0.21451  1.0000
  H   H65       1.0  0.33159  0.32443  0.21321  1.0000
  H   H66       1.0  0.24815  0.34524  0.81899  1.0000
  H   H67       1.0  0.19938  0.26276  0.82206  1.0000
  H   H68       1.0  0.27237  0.40365  0.98528  1.0000
  H   H69       1.0  0.60557  0.35627  0.00201  1.0000
  H   H70       1.0  0.39695  0.46055  0.00377  1.0000
  H   H71       1.0  0.41214  0.59393  0.94442  1.0000
  H   H72       1.0  0.28243  0.47737  0.98691  1.0000
  H   H73       1.0  0.73083  0.41380  0.00655  1.0000
  H   H74       1.0  0.74604  0.54654  0.99565  1.0000
  H   H75       1.0  0.61590  0.42959  0.99592  1.0000
  H   H76       1.0  0.45973  0.49720  0.84446  1.0000
  H   H77       1.0  0.54018  0.52859  0.85400  1.0000
  H   H78       1.0  0.55385  0.63949  0.11853  1.0000
  H   H79       1.0  0.47373  0.60842  0.10842  1.0000
  H   H80       1.0  0.66993  0.64413  0.20402  1.0000
  H   H81       1.0  0.72048  0.72653  0.20774  1.0000
  H   H82       1.0  0.64186  0.75105  0.80000  1.0000
  H   H83       1.0  0.59155  0.66938  0.79913  1.0000
  H   H84       1.0  0.77498  0.79139  0.02910  1.0000
  H   H85       1.0  0.79136  0.92472  0.98980  1.0000
  H   H86       1.0  0.66082  0.80934  0.96985  1.0000
  H   H87       1.0  0.34774  0.60394  0.94270  1.0000
  H   H88       1.0  0.72751  0.93570  0.95801  1.0000
  H   H89       1.0  0.14251  0.60669  0.06141  1.0000
  H   H90       1.0  0.51791  0.93828  0.00633  1.0000
  H   H91       1.0  0.18953  0.89550  0.80981  1.0000
  H   H92       1.0  0.13894  0.81323  0.81922  1.0000
  H   H93       1.0  0.22814  0.79161  0.17898  1.0000
  H   H94       1.0  0.27863  0.87300  0.16531  1.0000
  H   H95       1.0  0.31247  0.90203  0.84999  1.0000
  H   H96       1.0  0.39236  0.93356  0.85421  1.0000
  H   H97       1.0  0.32688  0.01372  0.11271  1.0000
  H   H98       1.0  0.08883  0.74622  0.98055  1.0000
  H   H99       1.0  0.07720  0.61492  0.02755  1.0000
  H   H100      1.0  0.20610  0.73327  0.02407  1.0000
  H   H101      1.0  0.45448  0.94833  0.00224  1.0000
  H   H102      1.0  0.01774  0.68288  0.97830  1.0000
  H   H103      1.0  0.84644  0.85235  0.03180  1.0000
  H   H104      1.0  0.95794  0.64757  0.15369  1.0000
  H   H105      1.0  0.87592  0.61473  0.14355  1.0000
  H   H106      1.0  0.86476  0.51219  0.83049  1.0000
  H   H107      1.0  0.94637  0.54458  0.84348  1.0000
  H   H108      1.0  0.80353  0.47703  0.01226  1.0000
  C   C1        1.0  0.83603  0.87797  0.02032  1.0000
  C   C2        1.0  0.07535  0.03802  0.02571  1.0000
  C   C3        1.0  0.12332  0.05770  0.01768  1.0000
  C   C4        1.0  0.14286  0.03038  0.01325  1.0000
  C   C5        1.0  0.18878  0.04943  0.00378  1.0000
  C   C6        1.0  0.21508  0.09669  0.99807  1.0000
  C   C7        1.0  0.19626  0.12439  0.00345  1.0000
  C   C8        1.0  0.15005  0.10454  0.01361  1.0000
  C   C9        1.0  0.22499  0.17317  0.00392  1.0000
  C   C10       1.0  0.23784  0.89000  0.98550  1.0000
  C   C11       1.0  0.31322  0.95550  0.98027  1.0000
  C   C12       1.0  0.19782  0.87245  0.88990  1.0000
  C   C13       1.0  0.16924  0.82607  0.89728  1.0000
  C   C14       1.0  0.17971  0.79571  0.99826  1.0000
  C   C15       1.0  0.21965  0.81386  0.09423  1.0000
  C   C16       1.0  0.24819  0.85998  0.08866  1.0000
  C   C17       1.0  0.33285  0.93338  0.90955  1.0000
  C   C18       1.0  0.37854  0.95138  0.91354  1.0000
  C   C19       1.0  0.40669  0.99226  0.98643  1.0000
  C   C20       1.0  0.38660  0.01427  0.05459  1.0000
  C   C21       1.0  0.34107  0.99642  0.05298  1.0000
  C   C22       1.0  0.15112  0.74633  0.00341  1.0000
  C   C23       1.0  0.45519  0.01187  0.99182  1.0000
  C   C24       1.0  0.10469  0.72556  0.99248  1.0000
  C   C25       1.0  0.07816  0.67847  0.00056  1.0000
  C   C26       1.0  0.09822  0.65139  0.02058  1.0000
  C   C27       1.0  0.14435  0.67148  0.02826  1.0000
  C   C28       1.0  0.17035  0.71870  0.01978  1.0000
  C   C29       1.0  0.47522  0.98479  0.99697  1.0000
  C   C30       1.0  0.52142  0.00381  0.99525  1.0000
  C   C31       1.0  0.54830  0.05078  0.99374  1.0000
  C   C32       1.0  0.52911  0.07814  0.99315  1.0000
  C   C33       1.0  0.48285  0.05856  0.99059  1.0000
  C   C34       1.0  0.03011  0.65879  0.99012  1.0000
  C   C35       1.0  0.95780  0.59899  0.99407  1.0000
  C   C36       1.0  0.93749  0.61844  0.08058  1.0000
  C   C37       1.0  0.89182  0.60004  0.07659  1.0000
  C   C38       1.0  0.86466  0.56102  0.98975  1.0000
  C   C39       1.0  0.88494  0.54148  0.90331  1.0000
  C   C40       1.0  0.93065  0.55983  0.90815  1.0000
  C   C41       1.0  0.79187  0.50170  0.00069  1.0000
  C   C42       1.0  0.55763  0.12688  0.99152  1.0000
  C   C43       1.0  0.23804  0.24634  0.01446  1.0000
  C   C44       1.0  0.27545  0.26403  0.12658  1.0000
  C   C45       1.0  0.30275  0.31042  0.12701  1.0000
  C   C46       1.0  0.29326  0.34065  0.01888  1.0000
  C   C47       1.0  0.25563  0.32280  0.90793  1.0000
  C   C48       1.0  0.22825  0.27653  0.90801  1.0000
  C   C49       1.0  0.30793  0.41502  0.99976  1.0000
  C   C50       1.0  0.33706  0.46380  0.99063  1.0000
  C   C51       1.0  0.64128  0.36807  0.00086  1.0000
  C   C52       1.0  0.67045  0.41669  0.00162  1.0000
  C   C53       1.0  0.38336  0.48322  0.98974  1.0000
  C   C54       1.0  0.41116  0.53008  0.97418  1.0000
  C   C55       1.0  0.39130  0.55743  0.96087  1.0000
  C   C56       1.0  0.34521  0.53859  0.96982  1.0000
  C   C57       1.0  0.31815  0.49154  0.98259  1.0000
  C   C58       1.0  0.71671  0.43596  0.00226  1.0000
  C   C59       1.0  0.74380  0.48275  0.99839  1.0000
  C   C60       1.0  0.72433  0.51037  0.99471  1.0000
  C   C61       1.0  0.67832  0.49184  0.99528  1.0000
  C   C62       1.0  0.65177  0.44468  0.99897  1.0000
  C   C63       1.0  0.45974  0.54991  0.97615  1.0000
  C   C64       1.0  0.47996  0.52798  0.90820  1.0000
  C   C65       1.0  0.52552  0.54567  0.91237  1.0000
  C   C66       1.0  0.55306  0.58613  0.98860  1.0000
  C   C67       1.0  0.53335  0.60838  0.05733  1.0000
  C   C68       1.0  0.48773  0.59069  0.04985  1.0000
  C   C69       1.0  0.62787  0.65127  0.99933  1.0000
  C   C70       1.0  0.66443  0.66789  0.11461  1.0000
  C   C71       1.0  0.69285  0.71416  0.11497  1.0000
  C   C72       1.0  0.68520  0.74503  0.00271  1.0000
  C   C73       1.0  0.64812  0.72793  0.89006  1.0000
  C   C74       1.0  0.61996  0.68188  0.88747  1.0000
  C   C75       1.0  0.71433  0.79418  0.00155  1.0000
  C   C76       1.0  0.76047  0.81328  0.01748  1.0000
  C   C77       1.0  0.78829  0.86013  0.01176  1.0000
  C   C78       1.0  0.76953  0.88843  0.99363  1.0000
  C   C79       1.0  0.72360  0.86992  0.98050  1.0000
  C   C80       1.0  0.69639  0.82292  0.98146  1.0000
  C   C81       1.0  0.32561  0.56750  0.97252  1.0000
  C   C82       1.0  0.70411  0.89926  0.97052  1.0000
  C   C83       1.0  0.16502  0.64325  0.04038  1.0000
  C   C84       1.0  0.54103  0.97486  0.99337  1.0000
  C   C85       1.0  0.83401  0.38808  0.49473  1.0000
  C   C86       1.0  0.07311  0.54736  0.46707  1.0000
  C   C87       1.0  0.12097  0.56527  0.47351  1.0000
  C   C88       1.0  0.13962  0.53697  0.47335  1.0000
  C   C89       1.0  0.18554  0.55472  0.47740  1.0000
  C   C90       1.0  0.21268  0.60152  0.48326  1.0000
  C   C91       1.0  0.19481  0.63004  0.48581  1.0000
  C   C92       1.0  0.14870  0.61172  0.47974  1.0000
  C   C93       1.0  0.22477  0.67830  0.49128  1.0000
  C   C94       1.0  0.20573  0.52577  0.47635  1.0000
  C   C95       1.0  0.18695  0.48753  0.38074  1.0000
  C   C96       1.0  0.20643  0.46062  0.38076  1.0000
  C   C97       1.0  0.24492  0.47050  0.48053  1.0000
  C   C98       1.0  0.26390  0.50852  0.57684  1.0000
  C   C99       1.0  0.24486  0.53587  0.57199  1.0000
  C   C100      1.0  0.14902  0.25121  0.51453  1.0000
  C   C101      1.0  0.45207  0.51823  0.47921  1.0000
  C   C102      1.0  0.10299  0.23112  0.53816  1.0000
  C   C103      1.0  0.07560  0.18415  0.55134  1.0000
  C   C104      1.0  0.09464  0.15652  0.54629  1.0000
  C   C105      1.0  0.14033  0.17592  0.52464  1.0000
  C   C106      1.0  0.16719  0.22313  0.50703  1.0000
  C   C107      1.0  0.47210  0.49151  0.47315  1.0000
  C   C108      1.0  0.51820  0.51011  0.48483  1.0000
  C   C109      1.0  0.54512  0.55681  0.49118  1.0000
  C   C110      1.0  0.52595  0.58422  0.49024  1.0000
  C   C111      1.0  0.47966  0.56470  0.48745  1.0000
  C   C112      1.0  0.02782  0.16510  0.56632  1.0000
  C   C113      1.0  0.95490  0.10608  0.56286  1.0000
  C   C114      1.0  0.93423  0.13098  0.49490  1.0000
  C   C115      1.0  0.88853  0.11169  0.50130  1.0000
  C   C116      1.0  0.86168  0.06679  0.57230  1.0000
  C   C117      1.0  0.88240  0.04198  0.64109  1.0000
  C   C118      1.0  0.92807  0.06114  0.63288  1.0000
  C   C119      1.0  0.78931  0.00763  0.55502  1.0000
  C   C120      1.0  0.55500  0.63281  0.49372  1.0000
  C   C121      1.0  0.24028  0.75239  0.49763  1.0000
  C   C122      1.0  0.27908  0.77498  0.39370  1.0000
  C   C123      1.0  0.30639  0.82137  0.39332  1.0000
  C   C124      1.0  0.29523  0.84680  0.49227  1.0000
  C   C125      1.0  0.25678  0.82410  0.59806  1.0000
  C   C126      1.0  0.22972  0.77776  0.59917  1.0000
  C   C127      1.0  0.30701  0.92002  0.48076  1.0000
  C   C128      1.0  0.33512  0.96881  0.48104  1.0000
  C   C129      1.0  0.64011  0.87454  0.50205  1.0000
  C   C130      1.0  0.66869  0.92282  0.51603  1.0000
  C   C131      1.0  0.38139  0.98843  0.48277  1.0000
  C   C132      1.0  0.40916  0.03506  0.48320  1.0000
  C   C133      1.0  0.38913  0.06205  0.47938  1.0000
  C   C134      1.0  0.34290  0.04322  0.47292  1.0000
  C   C135      1.0  0.31581  0.99621  0.47569  1.0000
  C   C136      1.0  0.71483  0.94216  0.53058  1.0000
  C   C137      1.0  0.74127  0.98824  0.55002  1.0000
  C   C138      1.0  0.72129  0.01512  0.55636  1.0000
  C   C139      1.0  0.67543  0.99664  0.53841  1.0000
  C   C140      1.0  0.64954  0.95029  0.51822  1.0000
  C   C141      1.0  0.62640  0.15694  0.51304  1.0000
  C   C142      1.0  0.66699  0.17817  0.42246  1.0000
  C   C143      1.0  0.69536  0.22435  0.42498  1.0000
  C   C144      1.0  0.68434  0.25092  0.51672  1.0000
  C   C145      1.0  0.64404  0.22908  0.60965  1.0000
  C   C146      1.0  0.61554  0.18303  0.60803  1.0000
  C   C147      1.0  0.71276  0.30034  0.51052  1.0000
  C   C148      1.0  0.75924  0.32114  0.50458  1.0000
  C   C149      1.0  0.78597  0.36822  0.49510  1.0000
  C   C150      1.0  0.76592  0.39511  0.49170  1.0000
  C   C151      1.0  0.71983  0.37504  0.50059  1.0000
  C   C152      1.0  0.69358  0.32782  0.50877  1.0000
  C   C153      1.0  0.32414  0.07308  0.46420  1.0000
  C   C154      1.0  0.69995  0.40363  0.50359  1.0000
  C   C155      1.0  0.26389  0.08614  0.46138  1.0000
  C   C156      1.0  0.64003  0.41563  0.52961  1.0000
  C   C157      1.0  0.28766  0.13206  0.49350  1.0000
  C   C158      1.0  0.26592  0.15648  0.50009  1.0000
  C   C159      1.0  0.21963  0.13606  0.47893  1.0000
  C   C160      1.0  0.19585  0.09034  0.44559  1.0000
  C   C161      1.0  0.21771  0.06606  0.43785  1.0000
  C   C162      1.0  0.66407  0.46317  0.51450  1.0000
  C   C163      1.0  0.64266  0.48779  0.52243  1.0000
  C   C164      1.0  0.59636  0.46632  0.54287  1.0000
  C   C165      1.0  0.57235  0.41883  0.56436  1.0000
  C   C166      1.0  0.59395  0.39418  0.55635  1.0000
  C   C167      1.0  0.16000  0.14707  0.52314  1.0000
  C   C168      1.0  0.53731  0.48055  0.49218  1.0000
  N   N1        1.0  0.86369  0.92071  0.01092  1.0000
  N   N2        1.0  0.04877  0.99580  0.00894  1.0000
  N   N3        1.0  0.26674  0.93721  0.98023  1.0000
  N   N4        1.0  0.00361  0.61588  0.99276  1.0000
  N   N5        1.0  0.81892  0.54455  0.99336  1.0000
  N   N6        1.0  0.20933  0.20019  0.00525  1.0000
  N   N7        1.0  0.54222  0.15442  0.97305  1.0000
  N   N8        1.0  0.32261  0.38689  0.02438  1.0000
  N   N9        1.0  0.65635  0.34053  0.00116  1.0000
  N   N10       1.0  0.59947  0.60412  0.99554  1.0000
  N   N11       1.0  0.28423  0.55069  0.00887  1.0000
  N   N12       1.0  0.66182  0.88290  0.97662  1.0000
  N   N13       1.0  0.20730  0.66039  0.02717  1.0000
  N   N14       1.0  0.58331  0.99169  0.97994  1.0000
  N   N15       1.0  0.86044  0.43115  0.47695  1.0000
  N   N16       1.0  0.04551  0.50461  0.48465  1.0000
  N   N17       1.0  0.26380  0.44205  0.48466  1.0000
  N   N18       1.0  0.00061  0.12256  0.56116  1.0000
  N   N19       1.0  0.81587  0.05000  0.56875  1.0000
  N   N20       1.0  0.21049  0.70616  0.50136  1.0000
  N   N21       1.0  0.54021  0.66034  0.50354  1.0000
  N   N22       1.0  0.32342  0.89351  0.48158  1.0000
  N   N23       1.0  0.65554  0.84746  0.49629  1.0000
  N   N24       1.0  0.59746  0.10997  0.50917  1.0000
  N   N25       1.0  0.28190  0.05770  0.45792  1.0000
  N   N26       1.0  0.65789  0.38713  0.52301  1.0000
  N   N27       1.0  0.20136  0.16389  0.48746  1.0000
  N   N28       1.0  0.57806  0.49460  0.53810  1.0000
  C   C169      1.0  0.61073  0.50863  0.10877  1.0000
  C   C170      1.0  0.64631  0.51505  0.00908  1.0000
  C  Sn1       1.0  0.67081  0.53144  0.90044  1.0000
  C  Sn2       1.0  0.65884  0.56550  0.89175  1.0000
  C   C171      1.0  0.62321  0.55876  0.99209  1.0000
  C   C172      1.0  0.59890  0.54222  0.10032  1.0000
  H   H109      1.0  0.59238  0.47762  0.19259  1.0000
  O  Te1       1.0  0.70626  0.53730  0.80168  1.0000
  O  Te2       1.0  0.68220  0.60574  0.78430  1.0000
  H   H110      1.0  0.57137  0.53726  0.17757  1.0000
  Mg  Mg1       1.0  0.72794  0.59796  0.67471  1.0000
  C   C173      1.0  0.66610  0.96445  0.05670  1.0000
  C   C174      1.0  0.64953  0.92096  0.00633  1.0000
  C  Sn3       1.0  0.60868  0.87558  0.92496  1.0000
  C  Sn4       1.0  0.58346  0.89778  0.89357  1.0000
  C   C175      1.0  0.60035  0.94130  0.94434  1.0000
  C   C176      1.0  0.64126  0.98638  0.02573  1.0000
  H   H111      1.0  0.69821  0.98112  0.11958  1.0000
  O  Te3       1.0  0.59260  0.83212  0.87553  1.0000
  O  Te4       1.0  0.54197  0.87674  0.81241  1.0000
  H   H112      1.0  0.16445  0.02006  0.06461  1.0000
  Mg  Mg2       1.0  0.53427  0.81745  0.76913  1.0000
  C   C177      1.0  0.27798  0.64549  0.10350  1.0000
  C   C178      1.0  0.23726  0.63774  0.03133  1.0000
  C  Sn5       1.0  0.20956  0.57371  0.95870  1.0000
  C  Sn6       1.0  0.22238  0.54043  0.95855  1.0000
  C   C179      1.0  0.26260  0.57205  0.03118  1.0000
  C   C180      1.0  0.29064  0.61268  0.10347  1.0000
  H   H113      1.0  0.29967  0.67692  0.15952  1.0000
  O  Te5       1.0  0.16900  0.56652  0.88708  1.0000
  O  Te6       1.0  0.19475  0.49967  0.88687  1.0000
  H   H114      1.0  0.32216  0.61867  0.15944  1.0000
  Mg  Mg3       1.0  0.14278  0.50560  0.80477  1.0000
  C   C181      1.0  0.63335  0.25226  0.11640  1.0000
  C   C182      1.0  0.63174  0.28735  0.01062  1.0000
  C  Sn7       1.0  0.59743  0.25460  0.89143  1.0000
  C  Sn8       1.0  0.56358  0.20941  0.87822  1.0000
  C   C183      1.0  0.56548  0.17455  0.98472  1.0000
  C   C184      1.0  0.59997  0.20768  0.10351  1.0000
  H   H115      1.0  0.66047  0.25968  0.20839  1.0000
  O  Te7       1.0  0.59634  0.29006  0.78669  1.0000
  O  Te8       1.0  0.52833  0.19926  0.76024  1.0000
  H   H116      1.0  0.60119  0.18051  0.18547  1.0000
  Mg  Mg4       1.0  0.54150  0.25917  0.64572  1.0000
  C   C185      1.0  0.52235  0.11827  0.40323  1.0000
  C   C186      1.0  0.54748  0.10007  0.48650  1.0000
  C  Sn9       1.0  0.52669  0.05600  0.56732  1.0000
  C  Sn10      1.0  0.47987  0.02974  0.56444  1.0000
  C   C187      1.0  0.45503  0.04825  0.48068  1.0000
  C   C188      1.0  0.47617  0.09239  0.40027  1.0000
  H   H117      1.0  0.53870  0.15241  0.34093  1.0000
  O  Te9       1.0  0.55229  0.03834  0.64999  1.0000
  O  Te10      1.0  0.45825  0.98560  0.64413  1.0000
  H   H118      1.0  0.45671  0.10646  0.33570  1.0000
  Mg  Mg5       1.0  0.99720  0.97654  0.74020  1.0000
  C   C189      1.0  0.65810  0.08403  0.66392  1.0000
  C   C190      1.0  0.62641  0.08536  0.54598  1.0000
  C  Sn11      1.0  0.60651  0.05363  0.42193  1.0000
  C  Sn12      1.0  0.61864  0.01999  0.41620  1.0000
  C   C191      1.0  0.65036  0.01894  0.53485  1.0000
  C   C192      1.0  0.67007  0.05085  0.65841  1.0000
  H   H119      1.0  0.67334  0.10871  0.75960  1.0000
  O  Te11      1.0  0.57492  0.05545  0.30502  1.0000
  O  Te12      1.0  0.08891  0.98786  0.29360  1.0000
  H   H120      1.0  0.69459  0.04980  0.74979  1.0000
  Mg  Mg6       1.0  0.55787  0.00428  0.16194  1.0000
  C   C193      1.0  0.94410  0.50261  0.53118  1.0000
  C   C194      1.0  0.91282  0.46093  0.47457  1.0000
  C  Sn13      1.0  0.92596  0.43099  0.42852  1.0000
  C  Sn14      1.0  0.97128  0.44309  0.43952  1.0000
  C   C195      1.0  0.00231  0.48486  0.49643  1.0000
  C   C196      1.0  0.98880  0.51456  0.54214  1.0000
  H   H121      1.0  0.93365  0.52559  0.56664  1.0000
  O  Te13      1.0  0.89428  0.38949  0.37216  1.0000
  O  Te14      1.0  0.98531  0.41380  0.39436  1.0000
  H   H122      1.0  0.01303  0.54682  0.58607  1.0000
  Mg  Mg7       1.0  0.92968  0.36106  0.32501  1.0000
  C   C197      1.0  0.96577  0.92177  0.07351  1.0000
  C   C198      1.0  0.99656  0.96595  0.01292  1.0000
  C  Sn15      1.0  0.98331  0.97374  0.95994  1.0000
  C  Sn16      1.0  0.93780  0.96050  0.96798  1.0000
  C   C199      1.0  0.90668  0.93977  0.02892  1.0000
  C   C200      1.0  0.92087  0.90868  0.08155  1.0000
  H   H123      1.0  0.97674  0.89771  0.11433  1.0000
  O  Te15      1.0  0.52487  0.01775  0.89968  1.0000
  O  Te16      1.0  0.43344  0.99115  0.91591  1.0000
  H   H124      1.0  0.89702  0.87448  0.12857  1.0000
  Mg  Mg8       1.0  0.48860  0.04725  0.84334  1.0000
  C   C201      1.0  0.20445  0.95477  0.12391  1.0000
  C   C202      1.0  0.23771  0.96025  0.01232  1.0000
  C  Sn17      1.0  0.25931  0.97522  0.89353  1.0000
  C  Sn18      1.0  0.75708  0.00881  0.88667  1.0000
  C   C203      1.0  0.72378  0.00302  0.99896  1.0000
  C   C204      1.0  0.19203  0.98789  0.11728  1.0000
  H   H125      1.0  0.18835  0.92486  0.21554  1.0000
  O  Te17      1.0  0.29247  0.98015  0.78293  1.0000
  O  Te18      1.0  0.77756  0.04764  0.76924  1.0000
  H   H126      1.0  0.16629  0.98367  0.20375  1.0000
  Mg  Mg9       1.0  0.82094  0.03898  0.64530  1.0000
  C   C205      1.0  0.18669  0.36368  0.61405  1.0000
  C   C206      1.0  0.22673  0.39049  0.52420  1.0000
  C  Sn19      1.0  0.24202  0.37161  0.41125  1.0000
  C  Sn20      1.0  0.21666  0.32500  0.38805  1.0000
  C   C207      1.0  0.17663  0.29847  0.47845  1.0000
  C   C208      1.0  0.16165  0.31771  0.59119  1.0000
  H   H127      1.0  0.17509  0.37857  0.70122  1.0000
  O  Te19      1.0  0.28210  0.39888  0.32255  1.0000
  O  Te20      1.0  0.23115  0.30526  0.27592  1.0000
  H   H128      1.0  0.13063  0.29695  0.66065  1.0000
  Mg  Mg10      1.0  0.28793  0.35638  0.18410  1.0000
  C   C209      1.0  0.36477  0.44493  0.57591  1.0000
  C   C210      1.0  0.39705  0.48555  0.49112  1.0000
  C  Sn21      1.0  0.38534  0.51597  0.40251  1.0000
  C  Sn22      1.0  0.34045  0.50546  0.39898  1.0000
  C   C211      1.0  0.30841  0.46475  0.48431  1.0000
  C   C212      1.0  0.32049  0.43454  0.57255  1.0000
  H   H129      1.0  0.37412  0.42157  0.64426  1.0000
  O  Te21      1.0  0.41801  0.55639  0.31843  1.0000
  O  Te22      1.0  0.32783  0.53526  0.31144  1.0000
  H   H130      1.0  0.29549  0.40312  0.63828  1.0000
  Mg  Mg11      1.0  0.38441  0.58609  0.21649  1.0000
  C   C213      1.0  0.56415  0.74236  0.62947  1.0000
  C   C214      1.0  0.56508  0.71310  0.51743  1.0000
  C  Sn23      1.0  0.59967  0.72856  0.39692  1.0000
  C  Sn24      1.0  0.63393  0.77418  0.38876  1.0000
  C   C215      1.0  0.63271  0.80317  0.50150  1.0000
  C   C216      1.0  0.59793  0.78735  0.62155  1.0000
  H   H131      1.0  0.53725  0.73012  0.72243  1.0000
  O  Te23      1.0  0.60008  0.69888  0.28591  1.0000
  O  Te24      1.0  0.66891  0.79051  0.26960  1.0000
  H   H132      1.0  0.59723  0.81000  0.70836  1.0000
  Mg  Mg12      1.0  0.65478  0.73705  0.14574  1.0000
