data_image0
_chemical_formula_structural       H60C96N28SnCSn2CSnTe4Mg2SnCSn2CSnTe4Mg2SnCSn2CSnTe4Mg2SnCSn2CSnTe4Mg2SnCSn2CSnTe4Mg2SnCSn2CSnTe4Mg2SnCSn2CSnTe4Mg2SnCSn2CSnTe4Mg2SnCSn2CSnTe4Mg2SnCSn2CSnTe4Mg2SnCSn2CSnTe4Mg2SnCSn2CSnTe4Mg2SnCSn2CSnTe4Mg2SnCSn2CSnTe4Mg2SnCSn2CSnTe4Mg2SnCSn2CSnTe4Mg2SnCSn2CSnTe4Mg2SnCSn2CSnTe4Mg2SnCSn2CSnTe4Mg2SnCSn2CSnTe4Mg2SnCSn2CSnTe4Mg2SnCSn2CSnTe4Mg2SnCSn2CSnTe4Mg2SnCSn2CSnTe4Mg2
_chemical_formula_sum              "H60 C144 N28 Sn96 Te96 Mg48"
_cell_length_a       34.8364
_cell_length_b       34.35
_cell_length_c       7.58488
_cell_angle_alpha    83.8027
_cell_angle_beta     93.1871
_cell_angle_gamma    119.774

_symmetry_space_group_name_H-M    'P1'
_space_group_IT_number       1

loop_
  _space_group_symop_operation_xyz
  'x, y, z'

loop_
  _atom_site_type_symbol
  _atom_site_label
  _atom_site_symmetry_multiplicity
  _atom_site_fract_x
  _atom_site_fract_y
  _atom_site_fract_z
  _atom_site_occupancy
  H   H1        1.0  0.84620  0.36389  0.51505  1.0000
  H   H2        1.0  0.06240  0.57274  0.44407  1.0000
  H   H3        1.0  0.11737  0.50090  0.47138  1.0000
  H   H4        1.0  0.24844  0.61601  0.48219  1.0000
  H   H5        1.0  0.13521  0.63434  0.48010  1.0000
  H   H6        1.0  0.26031  0.68933  0.48895  1.0000
  H   H7        1.0  0.08805  0.25233  0.54264  1.0000
  H   H8        1.0  0.07325  0.12010  0.55774  1.0000
  H   H9        1.0  0.20269  0.23706  0.49336  1.0000
  H   H10       1.0  0.45144  0.45552  0.46139  1.0000
  H   H11       1.0  0.58086  0.57095  0.49801  1.0000
  H   H12       1.0  0.46589  0.58680  0.49488  1.0000
  H   H13       1.0  0.01647  0.18926  0.58194  1.0000
  H   H14       1.0  0.80135  0.98396  0.54057  1.0000
  H   H15       1.0  0.59069  0.64455  0.48883  1.0000
  H   H16       1.0  0.27107  0.90712  0.47904  1.0000
  H   H17       1.0  0.60434  0.86258  0.49682  1.0000
  H   H18       1.0  0.39506  0.96616  0.47866  1.0000
  H   H19       1.0  0.40974  0.09835  0.48296  1.0000
  H   H20       1.0  0.28005  0.98205  0.47026  1.0000
  H   H21       1.0  0.72951  0.92073  0.52561  1.0000
  H   H22       1.0  0.74247  0.05098  0.56893  1.0000
  H   H23       1.0  0.61377  0.93524  0.50701  1.0000
  H   H24       1.0  0.77503  0.30047  0.50991  1.0000
  H   H25       1.0  0.78690  0.43156  0.48504  1.0000
  H   H26       1.0  0.65783  0.31326  0.51127  1.0000
  H   H27       1.0  0.34843  0.10918  0.46407  1.0000
  H   H28       1.0  0.72366  0.43996  0.49169  1.0000
  H   H29       1.0  0.13777  0.11085  0.55649  1.0000
  H   H30       1.0  0.51513  0.44623  0.45430  1.0000
  H   H31       1.0  0.06345  0.06134  0.04857  1.0000
  H   H32       1.0  0.12118  0.99413  0.01420  1.0000
  H   H33       1.0  0.25093  0.11187  0.99519  1.0000
  H   H34       1.0  0.13554  0.12613  0.01825  1.0000
  H   H35       1.0  0.26076  0.18544  0.00134  1.0000
  H   H36       1.0  0.58406  0.06518  0.99143  1.0000
  H   H37       1.0  0.46926  0.08114  0.98342  1.0000
  H   H38       1.0  0.59333  0.13889  0.00418  1.0000
  H   H39       1.0  0.27237  0.40365  0.98528  1.0000
  H   H40       1.0  0.60557  0.35627  0.00201  1.0000
  H   H41       1.0  0.39695  0.46055  0.00377  1.0000
  H   H42       1.0  0.41214  0.59393  0.94442  1.0000
  H   H43       1.0  0.28243  0.47737  0.98691  1.0000
  H   H44       1.0  0.73083  0.41380  0.00655  1.0000
  H   H45       1.0  0.74604  0.54654  0.99565  1.0000
  H   H46       1.0  0.61590  0.42959  0.99592  1.0000
  H   H47       1.0  0.77498  0.79139  0.02910  1.0000
  H   H48       1.0  0.79136  0.92472  0.98980  1.0000
  H   H49       1.0  0.66082  0.80934  0.96985  1.0000
  H   H50       1.0  0.34774  0.60394  0.94270  1.0000
  H   H51       1.0  0.72751  0.93570  0.95801  1.0000
  H   H52       1.0  0.14251  0.60669  0.06141  1.0000
  H   H53       1.0  0.51791  0.93828  0.00633  1.0000
  H   H54       1.0  0.08883  0.74622  0.98055  1.0000
  H   H55       1.0  0.07720  0.61492  0.02755  1.0000
  H   H56       1.0  0.20610  0.73327  0.02407  1.0000
  H   H57       1.0  0.45448  0.94833  0.00224  1.0000
  H   H58       1.0  0.01774  0.68288  0.97830  1.0000
  H   H59       1.0  0.84644  0.85235  0.03180  1.0000
  H   H60       1.0  0.80353  0.47703  0.01226  1.0000
  C   C1        1.0  0.83603  0.87797  0.02032  1.0000
  C   C2        1.0  0.07535  0.03802  0.02571  1.0000
  C   C3        1.0  0.12332  0.05770  0.01768  1.0000
  C   C4        1.0  0.14286  0.03038  0.01325  1.0000
  C   C5        1.0  0.18878  0.04943  0.00378  1.0000
  C   C6        1.0  0.21508  0.09669  0.99807  1.0000
  C   C7        1.0  0.19626  0.12439  0.00345  1.0000
  C   C8        1.0  0.15005  0.10454  0.01361  1.0000
  C   C9        1.0  0.22499  0.17317  0.00392  1.0000
  C   C10       1.0  0.15112  0.74633  0.00341  1.0000
  C   C11       1.0  0.45519  0.01187  0.99182  1.0000
  C   C12       1.0  0.10469  0.72556  0.99248  1.0000
  C   C13       1.0  0.07816  0.67847  0.00056  1.0000
  C   C14       1.0  0.09822  0.65139  0.02058  1.0000
  C   C15       1.0  0.14435  0.67148  0.02826  1.0000
  C   C16       1.0  0.17035  0.71870  0.01978  1.0000
  C   C17       1.0  0.47522  0.98479  0.99697  1.0000
  C   C18       1.0  0.52142  0.00381  0.99525  1.0000
  C   C19       1.0  0.54830  0.05078  0.99374  1.0000
  C   C20       1.0  0.52911  0.07814  0.99315  1.0000
  C   C21       1.0  0.48285  0.05856  0.99059  1.0000
  C   C22       1.0  0.03011  0.65879  0.99012  1.0000
  C   C23       1.0  0.79187  0.50170  0.00069  1.0000
  C   C24       1.0  0.55763  0.12688  0.99152  1.0000
  C   C25       1.0  0.30793  0.41502  0.99976  1.0000
  C   C26       1.0  0.33706  0.46380  0.99063  1.0000
  C   C27       1.0  0.64128  0.36807  0.00086  1.0000
  C   C28       1.0  0.67045  0.41669  0.00162  1.0000
  C   C29       1.0  0.38336  0.48322  0.98974  1.0000
  C   C30       1.0  0.41116  0.53008  0.97418  1.0000
  C   C31       1.0  0.39130  0.55743  0.96087  1.0000
  C   C32       1.0  0.34521  0.53859  0.96982  1.0000
  C   C33       1.0  0.31815  0.49154  0.98259  1.0000
  C   C34       1.0  0.71671  0.43596  0.00226  1.0000
  C   C35       1.0  0.74380  0.48275  0.99839  1.0000
  C   C36       1.0  0.72433  0.51037  0.99471  1.0000
  C   C37       1.0  0.67832  0.49184  0.99528  1.0000
  C   C38       1.0  0.65177  0.44468  0.99897  1.0000
  C   C39       1.0  0.71433  0.79418  0.00155  1.0000
  C   C40       1.0  0.76047  0.81328  0.01748  1.0000
  C   C41       1.0  0.78829  0.86013  0.01176  1.0000
  C   C42       1.0  0.76953  0.88843  0.99363  1.0000
  C   C43       1.0  0.72360  0.86992  0.98050  1.0000
  C   C44       1.0  0.69639  0.82292  0.98146  1.0000
  C   C45       1.0  0.32561  0.56750  0.97252  1.0000
  C   C46       1.0  0.70411  0.89926  0.97052  1.0000
  C   C47       1.0  0.16502  0.64325  0.04038  1.0000
  C   C48       1.0  0.54103  0.97486  0.99337  1.0000
  C   C49       1.0  0.83401  0.38808  0.49473  1.0000
  C   C50       1.0  0.07311  0.54736  0.46707  1.0000
  C   C51       1.0  0.12097  0.56527  0.47351  1.0000
  C   C52       1.0  0.13962  0.53697  0.47335  1.0000
  C   C53       1.0  0.18554  0.55472  0.47740  1.0000
  C   C54       1.0  0.21268  0.60152  0.48326  1.0000
  C   C55       1.0  0.19481  0.63004  0.48581  1.0000
  C   C56       1.0  0.14870  0.61172  0.47974  1.0000
  C   C57       1.0  0.22477  0.67830  0.49128  1.0000
  C   C58       1.0  0.14902  0.25121  0.51453  1.0000
  C   C59       1.0  0.45207  0.51823  0.47921  1.0000
  C   C60       1.0  0.10299  0.23112  0.53816  1.0000
  C   C61       1.0  0.07560  0.18415  0.55134  1.0000
  C   C62       1.0  0.09464  0.15652  0.54629  1.0000
  C   C63       1.0  0.14033  0.17592  0.52464  1.0000
  C   C64       1.0  0.16719  0.22313  0.50703  1.0000
  C   C65       1.0  0.47210  0.49151  0.47315  1.0000
  C   C66       1.0  0.51820  0.51011  0.48483  1.0000
  C   C67       1.0  0.54512  0.55681  0.49118  1.0000
  C   C68       1.0  0.52595  0.58422  0.49024  1.0000
  C   C69       1.0  0.47966  0.56470  0.48745  1.0000
  C   C70       1.0  0.02782  0.16510  0.56632  1.0000
  C   C71       1.0  0.78931  0.00763  0.55502  1.0000
  C   C72       1.0  0.55500  0.63281  0.49372  1.0000
  C   C73       1.0  0.30701  0.92002  0.48076  1.0000
  C   C74       1.0  0.33512  0.96881  0.48104  1.0000
  C   C75       1.0  0.64011  0.87454  0.50205  1.0000
  C   C76       1.0  0.66869  0.92282  0.51603  1.0000
  C   C77       1.0  0.38139  0.98843  0.48277  1.0000
  C   C78       1.0  0.40916  0.03506  0.48320  1.0000
  C   C79       1.0  0.38913  0.06205  0.47938  1.0000
  C   C80       1.0  0.34290  0.04322  0.47292  1.0000
  C   C81       1.0  0.31581  0.99621  0.47569  1.0000
  C   C82       1.0  0.71483  0.94216  0.53058  1.0000
  C   C83       1.0  0.74127  0.98824  0.55002  1.0000
  C   C84       1.0  0.72129  0.01512  0.55636  1.0000
  C   C85       1.0  0.67543  0.99664  0.53841  1.0000
  C   C86       1.0  0.64954  0.95029  0.51822  1.0000
  C   C87       1.0  0.71276  0.30034  0.51052  1.0000
  C   C88       1.0  0.75924  0.32114  0.50458  1.0000
  C   C89       1.0  0.78597  0.36822  0.49510  1.0000
  C   C90       1.0  0.76592  0.39511  0.49170  1.0000
  C   C91       1.0  0.71983  0.37504  0.50059  1.0000
  C   C92       1.0  0.69358  0.32782  0.50877  1.0000
  C   C93       1.0  0.32414  0.07308  0.46420  1.0000
  C   C94       1.0  0.69995  0.40363  0.50359  1.0000
  C   C95       1.0  0.16000  0.14707  0.52314  1.0000
  C   C96       1.0  0.53731  0.48055  0.49218  1.0000
  N   N1        1.0  0.86369  0.92071  0.01092  1.0000
  N   N2        1.0  0.04877  0.99580  0.00894  1.0000
  N   N3        1.0  0.26674  0.93721  0.98023  1.0000
  N   N4        1.0  0.00361  0.61588  0.99276  1.0000
  N   N5        1.0  0.81892  0.54455  0.99336  1.0000
  N   N6        1.0  0.20933  0.20019  0.00525  1.0000
  N   N7        1.0  0.54222  0.15442  0.97305  1.0000
  N   N8        1.0  0.32261  0.38689  0.02438  1.0000
  N   N9        1.0  0.65635  0.34053  0.00116  1.0000
  N   N10       1.0  0.59947  0.60412  0.99554  1.0000
  N   N11       1.0  0.28423  0.55069  0.00887  1.0000
  N   N12       1.0  0.66182  0.88290  0.97662  1.0000
  N   N13       1.0  0.20730  0.66039  0.02717  1.0000
  N   N14       1.0  0.58331  0.99169  0.97994  1.0000
  N   N15       1.0  0.86044  0.43115  0.47695  1.0000
  N   N16       1.0  0.04551  0.50461  0.48465  1.0000
  N   N17       1.0  0.26380  0.44205  0.48466  1.0000
  N   N18       1.0  0.00061  0.12256  0.56116  1.0000
  N   N19       1.0  0.81587  0.05000  0.56875  1.0000
  N   N20       1.0  0.21049  0.70616  0.50136  1.0000
  N   N21       1.0  0.54021  0.66034  0.50354  1.0000
  N   N22       1.0  0.32342  0.89351  0.48158  1.0000
  N   N23       1.0  0.65554  0.84746  0.49629  1.0000
  N   N24       1.0  0.59746  0.10997  0.50917  1.0000
  N   N25       1.0  0.28190  0.05770  0.45792  1.0000
  N   N26       1.0  0.65789  0.38713  0.52301  1.0000
  N   N27       1.0  0.20136  0.16389  0.48746  1.0000
  N   N28       1.0  0.57806  0.49460  0.53810  1.0000
  C  Sn1       1.0  0.96594  0.92203  0.01380  1.0000
  C   C97       1.0  0.99695  0.94391  0.97003  1.0000
  C  Sn2       1.0  0.98392  0.97648  0.96454  1.0000
  C  Sn3       1.0  0.93898  0.98693  0.00373  1.0000
  C   C98       1.0  0.90857  0.94154  0.04750  1.0000
  C  Sn4       1.0  0.92156  0.90894  0.05299  1.0000
  O  Te1       1.0  0.97969  0.89005  0.01849  1.0000
  O  Te2       1.0  0.52530  0.02167  0.92038  1.0000
  O  Te3       1.0  0.43617  0.99541  0.99901  1.0000
  O  Te4       1.0  0.89057  0.86377  0.09716  1.0000
  Mg  Mg1       1.0  0.49062  0.05276  0.93180  1.0000
  Mg  Mg2       1.0  0.92522  0.83266  0.08586  1.0000
  C  Sn5       1.0  0.27094  0.02087  0.91266  1.0000
  C   C99       1.0  0.25778  0.00236  0.00454  1.0000
  C  Sn6       1.0  0.70640  0.97786  0.08890  1.0000
  C  Sn7       1.0  0.67733  0.99577  0.08117  1.0000
  C   C100      1.0  0.20084  0.01425  0.98931  1.0000
  C  Sn8       1.0  0.24187  0.03878  0.90493  1.0000
  O  Te5       1.0  0.31212  0.04478  0.82930  1.0000
  O  Te6       1.0  0.69456  0.93589  0.18000  1.0000
  O  Te7       1.0  0.63613  0.97183  0.16464  1.0000
  O  Te8       1.0  0.25371  0.08072  0.81385  1.0000
  Mg  Mg3       1.0  0.63496  0.91612  0.27219  1.0000
  Mg  Mg4       1.0  0.31330  0.10051  0.72153  1.0000
  C  Sn9       1.0  0.18339  0.86369  0.92481  1.0000
  C   C101      1.0  0.22369  0.91042  0.00913  1.0000
  C  Sn10      1.0  0.24568  0.88764  0.08068  1.0000
  C  Sn11      1.0  0.22643  0.84071  0.06759  1.0000
  C   C102      1.0  0.18617  0.79401  0.98329  1.0000
  C  Sn12      1.0  0.16415  0.81676  0.91172  1.0000
  O  Te9       1.0  0.16200  0.88715  0.85423  1.0000
  O  Te10      1.0  0.28650  0.91153  0.16441  1.0000
  O  Te11      1.0  0.24786  0.81726  0.13827  1.0000
  O  Te12      1.0  0.12335  0.79289  0.82801  1.0000
  Mg  Mg5       1.0  0.30283  0.86463  0.23967  1.0000
  Mg  Mg6       1.0  0.10701  0.83976  0.75263  1.0000
  C  Sn13      1.0  0.34137  0.92782  0.95203  1.0000
  C   C103      1.0  0.31589  0.96892  0.01289  1.0000
  C  Sn14      1.0  0.84666  0.01389  0.05002  1.0000
  C  Sn15      1.0  0.89292  0.04190  0.02571  1.0000
  C   C104      1.0  0.91837  0.00080  0.96486  1.0000
  C  Sn16      1.0  0.38763  0.95583  0.92772  1.0000
  O  Te13      1.0  0.32027  0.88277  0.91573  1.0000
  O  Te14      1.0  0.82108  0.03067  0.11078  1.0000
  O  Te15      1.0  0.91401  0.08698  0.06207  1.0000
  O  Te16      1.0  0.41318  0.93905  0.86697  1.0000
  Mg  Mg7       1.0  0.86499  0.09426  0.14195  1.0000
  Mg  Mg8       1.0  0.36930  0.87548  0.83567  1.0000
  C  Sn17      1.0  0.92199  0.56178  0.85469  1.0000
  C   C105      1.0  0.95302  0.59844  0.94302  1.0000
  C  Sn18      1.0  0.93884  0.63885  0.07126  1.0000
  C  Sn19      1.0  0.89327  0.61862  0.11216  1.0000
  C   C106      1.0  0.86227  0.58198  0.02387  1.0000
  C  Sn20      1.0  0.87642  0.54155  0.89558  1.0000
  O  Te17      1.0  0.93633  0.54549  0.72696  1.0000
  O  Te18      1.0  0.97047  0.67554  0.15776  1.0000
  O  Te19      1.0  0.87894  0.63495  0.24000  1.0000
  O  Te20      1.0  0.84482  0.50488  0.80913  1.0000
  Mg  Mg9       1.0  0.93460  0.68558  0.32167  1.0000
  Mg  Mg10      1.0  0.88065  0.49480  0.64528  1.0000
  C  Sn21      1.0  0.57424  0.26842  0.91178  1.0000
  C   C107      1.0  0.61286  0.31463  0.00748  1.0000
  C  Sn22      1.0  0.63398  0.29160  0.08628  1.0000
  C  Sn23      1.0  0.61556  0.24495  0.06899  1.0000
  C   C108      1.0  0.57697  0.19877  0.97331  1.0000
  C  Sn24      1.0  0.55582  0.22177  0.89449  1.0000
  O  Te21      1.0  0.55370  0.29212  0.83410  1.0000
  O  Te22      1.0  0.67312  0.31498  0.18136  1.0000
  O  Te23      1.0  0.63614  0.22126  0.14677  1.0000
  O  Te24      1.0  0.51671  0.19842  0.79944  1.0000
  Mg  Mg11      1.0  0.68882  0.26792  0.26296  1.0000
  Mg  Mg12      1.0  0.50099  0.24544  0.71771  1.0000
  C  Sn25      1.0  0.24058  0.31375  0.93827  1.0000
  C   C109      1.0  0.27898  0.36051  0.03454  1.0000
  C  Sn26      1.0  0.30024  0.33796  0.11672  1.0000
  C  Sn27      1.0  0.28218  0.29123  0.10228  1.0000
  C   C110      1.0  0.24323  0.26804  0.00602  1.0000
  C  Sn28      1.0  0.22252  0.26702  0.92383  1.0000
  O  Te25      1.0  0.21989  0.33697  0.85720  1.0000
  O  Te26      1.0  0.33916  0.36188  0.21230  1.0000
  O  Te27      1.0  0.30291  0.26801  0.18345  1.0000
  O  Te28      1.0  0.18362  0.24312  0.82827  1.0000
  Mg  Mg13      1.0  0.35519  0.31533  0.29901  1.0000
  Mg  Mg14      1.0  0.16758  0.28964  0.74144  1.0000
  C  Sn29      1.0  0.51661  0.54649  0.85775  1.0000
  C   C111      1.0  0.54857  0.58524  0.93244  1.0000
  C  Sn30      1.0  0.53565  0.62936  0.04944  1.0000
  C  Sn31      1.0  0.49042  0.61080  0.09280  1.0000
  C   C112      1.0  0.45850  0.57206  0.01817  1.0000
  C  Sn32      1.0  0.47138  0.52793  0.90111  1.0000
  O  Te29      1.0  0.52970  0.52649  0.74111  1.0000
  O  Te30      1.0  0.56819  0.66809  0.12238  1.0000
  O  Te31      1.0  0.47735  0.63084  0.20955  1.0000
  O  Te32      1.0  0.43887  0.48922  0.82822  1.0000
  Mg  Mg15      1.0  0.53390  0.68309  0.27465  1.0000
  Mg  Mg16      1.0  0.47313  0.47418  0.67602  1.0000
  C  Sn33      1.0  0.68237  0.57736  0.93117  1.0000
  C   C113      1.0  0.66736  0.55797  0.01810  1.0000
  C  Sn34      1.0  0.62442  0.53257  0.08526  1.0000
  C  Sn35      1.0  0.59528  0.55044  0.06503  1.0000
  C   C114      1.0  0.61029  0.56979  0.97813  1.0000
  C  Sn36      1.0  0.65324  0.59523  0.91094  1.0000
  O  Te33      1.0  0.72544  0.60216  0.86507  1.0000
  O  Te34      1.0  0.61075  0.48973  0.17172  1.0000
  O  Te35      1.0  0.55219  0.52559  0.13123  1.0000
  O  Te36      1.0  0.66691  0.63803  0.82450  1.0000
  Mg  Mg17      1.0  0.54894  0.46892  0.23880  1.0000
  Mg  Mg18      1.0  0.72869  0.65887  0.75730  1.0000
  C  Sn37      1.0  0.66459  0.67751  0.16176  1.0000
  C   C115      1.0  0.62774  0.65514  0.05343  1.0000
  C  Sn38      1.0  0.62156  0.65442  0.90180  1.0000
  C  Sn39      1.0  0.65229  0.70056  0.85746  1.0000
  C   C116      1.0  0.68912  0.72291  0.96573  1.0000
  C  Sn40      1.0  0.69532  0.72366  0.11742  1.0000
  O  Te37      1.0  0.67068  0.65402  0.31270  1.0000
  O  Te38      1.0  0.58446  0.63133  0.79559  1.0000
  O  Te39      1.0  0.64617  0.72405  0.70638  1.0000
  O  Te40      1.0  0.73240  0.74671  0.22358  1.0000
  Mg  Mg19      1.0  0.59060  0.67793  0.60361  1.0000
  Mg  Mg20      1.0  0.72631  0.70014  0.41552  1.0000
  C  Sn41      1.0  0.19840  0.59927  0.00200  1.0000
  C   C117      1.0  0.21646  0.64267  0.05541  1.0000
  C  Sn42      1.0  0.26195  0.66855  0.08350  1.0000
  C  Sn43      1.0  0.28999  0.65069  0.05756  1.0000
  C   C118      1.0  0.27193  0.60732  0.00416  1.0000
  C  Sn44      1.0  0.22702  0.55786  0.97606  1.0000
  O  Te41      1.0  0.15341  0.55045  0.97468  1.0000
  O  Te42      1.0  0.27923  0.71184  0.13693  1.0000
  O  Te43      1.0  0.33559  0.67600  0.08494  1.0000
  O  Te44      1.0  0.20974  0.51460  0.92264  1.0000
  Mg  Mg21      1.0  0.34342  0.73320  0.15710  1.0000
  Mg  Mg22      1.0  0.14555  0.49322  0.90234  1.0000
  C  Sn45      1.0  0.57679  0.90817  0.94364  1.0000
  C   C119      1.0  0.59277  0.97443  0.00206  1.0000
  C  Sn46      1.0  0.14806  0.00043  0.04066  1.0000
  C  Sn47      1.0  0.66673  0.98341  0.02034  1.0000
  C   C120      1.0  0.65075  0.91718  0.96193  1.0000
  C  Sn48      1.0  0.60581  0.89115  0.92332  1.0000
  O  Te45      1.0  0.53175  0.88276  0.90581  1.0000
  O  Te46      1.0  0.16383  0.04303  0.09892  1.0000
  O  Te47      1.0  0.22215  0.00886  0.05823  1.0000
  O  Te48      1.0  0.59005  0.84858  0.86506  1.0000
  Mg  Mg23      1.0  0.22784  0.06490  0.13354  1.0000
  Mg  Mg24      1.0  0.52605  0.82669  0.83032  1.0000
  C  Sn49      1.0  0.96877  0.50634  0.57753  1.0000
  C   C121      1.0  0.99479  0.48798  0.53724  1.0000
  C  Sn50      1.0  0.97681  0.44978  0.44383  1.0000
  C  Sn51      1.0  0.93189  0.42953  0.38943  1.0000
  C   C122      1.0  0.90590  0.44789  0.42969  1.0000
  C  Sn52      1.0  0.92386  0.48609  0.52314  1.0000
  O  Te49      1.0  0.98744  0.54455  0.67104  1.0000
  O  Te50      1.0  0.00346  0.43202  0.40515  1.0000
  O  Te51      1.0  0.91323  0.39129  0.29586  1.0000
  O  Te52      1.0  0.89723  0.50385  0.56179  1.0000
  Mg  Mg25      1.0  0.96292  0.37960  0.27469  1.0000
  Mg  Mg26      1.0  0.93774  0.55628  0.69215  1.0000
  C  Sn53      1.0  0.20747  0.47222  0.33033  1.0000
  C   C123      1.0  0.24488  0.47645  0.42374  1.0000
  C  Sn54      1.0  0.26177  0.50398  0.56307  1.0000
  C  Sn55      1.0  0.24081  0.52776  0.61009  1.0000
  C   C124      1.0  0.20342  0.52352  0.51672  1.0000
  C  Sn56      1.0  0.18652  0.49600  0.37735  1.0000
  O  Te53      1.0  0.19116  0.44450  0.19151  1.0000
  O  Te54      1.0  0.29922  0.50769  0.65447  1.0000
  O  Te55      1.0  0.25716  0.55549  0.74902  1.0000
  O  Te56      1.0  0.14909  0.49228  0.28600  1.0000
  Mg  Mg27      1.0  0.30896  0.54958  0.83369  1.0000
  Mg  Mg28      1.0  0.13930  0.45038  0.10682  1.0000
  C  Sn57      1.0  0.16605  0.33921  0.57026  1.0000
  C   C125      1.0  0.17023  0.30789  0.48163  1.0000
  C  Sn58      1.0  0.21030  0.31957  0.40281  1.0000
  C  Sn59      1.0  0.24696  0.36347  0.41287  1.0000
  C   C126      1.0  0.24277  0.39475  0.50148  1.0000
  C  Sn60      1.0  0.20271  0.38310  0.58032  1.0000
  O  Te57      1.0  0.12568  0.32679  0.64809  1.0000
  O  Te58      1.0  0.21368  0.28770  0.31488  1.0000
  O  Te59      1.0  0.28735  0.37586  0.33493  1.0000
  O  Te60      1.0  0.19933  0.41495  0.66823  1.0000
  Mg  Mg29      1.0  0.27559  0.32064  0.23001  1.0000
  Mg  Mg30      1.0  0.13744  0.38204  0.75322  1.0000
  C  Sn61      1.0  0.34036  0.44213  0.61415  1.0000
  C   C127      1.0  0.31513  0.46100  0.53828  1.0000
  C  Sn62      1.0  0.33381  0.49843  0.41318  1.0000
  C  Sn63      1.0  0.37864  0.51738  0.36275  1.0000
  C   C128      1.0  0.40384  0.49851  0.43858  1.0000
  C  Sn64      1.0  0.38519  0.46108  0.56372  1.0000
  O  Te61      1.0  0.32101  0.40471  0.73895  1.0000
  O  Te62      1.0  0.30793  0.51672  0.33922  1.0000
  O  Te63      1.0  0.39798  0.55483  0.23785  1.0000
  O  Te64      1.0  0.41104  0.44279  0.63764  1.0000
  Mg  Mg31      1.0  0.34923  0.56768  0.17459  1.0000
  Mg  Mg32      1.0  0.36977  0.39182  0.80220  1.0000
  C  Sn65      1.0  0.89323  0.04780  0.69263  1.0000
  C   C129      1.0  0.86731  0.06715  0.63187  1.0000
  C  Sn66      1.0  0.88477  0.10596  0.51346  1.0000
  C  Sn67      1.0  0.92906  0.12585  0.45444  1.0000
  C   C130      1.0  0.95495  0.10650  0.51516  1.0000
  C  Sn68      1.0  0.93752  0.06768  0.63361  1.0000
  O  Te65      1.0  0.87508  0.00899  0.81097  1.0000
  O  Te66      1.0  0.85822  0.12470  0.45462  1.0000
  O  Te67      1.0  0.94720  0.16469  0.33601  1.0000
  O  Te68      1.0  0.96404  0.04894  0.69241  1.0000
  Mg  Mg33      1.0  0.89790  0.17766  0.29374  1.0000
  Mg  Mg34      1.0  0.92439  0.99598  0.85322  1.0000
  C  Sn69      1.0  0.55765  0.74418  0.57835  1.0000
  C   C131      1.0  0.56183  0.71471  0.47781  1.0000
  C  Sn70      1.0  0.60192  0.72778  0.39591  1.0000
  C  Sn71      1.0  0.63860  0.77120  0.41497  1.0000
  C   C132      1.0  0.63441  0.80064  0.51548  1.0000
  C  Sn72      1.0  0.59433  0.78760  0.59741  1.0000
  O  Te69      1.0  0.51726  0.73041  0.65906  1.0000
  O  Te70      1.0  0.60529  0.69773  0.29602  1.0000
  O  Te71      1.0  0.67901  0.78496  0.33415  1.0000
  O  Te72      1.0  0.59095  0.81762  0.69727  1.0000
  Mg  Mg35      1.0  0.66724  0.73203  0.21169  1.0000
  Mg  Mg36      1.0  0.52903  0.78334  0.78172  1.0000
  C  Sn73      1.0  0.22649  0.78962  0.56646  1.0000
  C   C133      1.0  0.23261  0.75978  0.47590  1.0000
  C  Sn74      1.0  0.27374  0.77306  0.40300  1.0000
  C  Sn75      1.0  0.30951  0.81706  0.42108  1.0000
  C   C134      1.0  0.30338  0.84687  0.51163  1.0000
  C  Sn76      1.0  0.26226  0.83362  0.58455  1.0000
  O  Te73      1.0  0.18509  0.77562  0.63829  1.0000
  O  Te74      1.0  0.27905  0.74264  0.31298  1.0000
  O  Te75      1.0  0.35093  0.83104  0.34916  1.0000
  O  Te76      1.0  0.25694  0.86401  0.67455  1.0000
  Mg  Mg37      1.0  0.34177  0.77744  0.23843  1.0000
  Mg  Mg38      1.0  0.19425  0.82924  0.74922  1.0000
  C  Sn77      1.0  0.52307  0.12072  0.46103  1.0000
  C   C135      1.0  0.54740  0.10013  0.52917  1.0000
  C  Sn78      1.0  0.52676  0.05336  0.56484  1.0000
  C  Sn79      1.0  0.48084  0.02661  0.53162  1.0000
  C   C136      1.0  0.45654  0.04720  0.46350  1.0000
  C  Sn80      1.0  0.47716  0.09396  0.42781  1.0000
  O  Te77      1.0  0.54439  0.16752  0.42636  1.0000
  O  Te78      1.0  0.55177  0.03355  0.63299  1.0000
  O  Te79      1.0  0.94918  0.97977  0.56637  1.0000
  O  Te80      1.0  0.45218  0.11377  0.35968  1.0000
  Mg  Mg39      1.0  0.99740  0.96849  0.65849  1.0000
  Mg  Mg40      1.0  0.49616  0.17883  0.33404  1.0000
  C  Sn81      1.0  0.62265  0.03117  0.37148  1.0000
  C   C137      1.0  0.65574  0.03176  0.48600  1.0000
  C  Sn82      1.0  0.66721  0.05537  0.63669  1.0000
  C  Sn83      1.0  0.64512  0.07886  0.67377  1.0000
  C   C138      1.0  0.61205  0.07826  0.55931  1.0000
  C  Sn84      1.0  0.60056  0.05467  0.40856  1.0000
  O  Te81      1.0  0.61172  0.00735  0.22161  1.0000
  O  Te82      1.0  0.70040  0.05548  0.74918  1.0000
  O  Te83      1.0  0.65608  0.10270  0.82378  1.0000
  O  Te84      1.0  0.56738  0.05454  0.29613  1.0000
  Mg  Mg41      1.0  0.70350  0.09280  0.93683  1.0000
  Mg  Mg42      1.0  0.56424  0.01722  0.10850  1.0000
  C  Sn85      1.0  0.68523  0.21651  0.37380  1.0000
  C   C139      1.0  0.68008  0.24723  0.46248  1.0000
  C  Sn86      1.0  0.64890  0.23204  0.59783  1.0000
  C  Sn87      1.0  0.62234  0.18517  0.64563  1.0000
  C   C140      1.0  0.62751  0.15448  0.55700  1.0000
  C  Sn88      1.0  0.65867  0.16964  0.42160  1.0000
  O  Te85      1.0  0.71661  0.23245  0.23891  1.0000
  O  Te86      1.0  0.64434  0.26340  0.68452  1.0000
  O  Te87      1.0  0.59094  0.16924  0.78064  1.0000
  O  Te88      1.0  0.66325  0.13831  0.33496  1.0000
  Mg  Mg43      1.0  0.59706  0.22513  0.85959  1.0000
  Mg  Mg44      1.0  0.71053  0.17654  0.15994  1.0000
  C  Sn89      1.0  0.19582  0.07899  0.49500  1.0000
  C   C141      1.0  0.21390  0.12455  0.51980  1.0000
  C  Sn90      1.0  0.25938  0.15384  0.50235  1.0000
  C  Sn91      1.0  0.28738  0.13724  0.45911  1.0000
  C   C142      1.0  0.26930  0.09170  0.43430  1.0000
  C  Sn92      1.0  0.22382  0.06239  0.45175  1.0000
  O  Te89      1.0  0.15026  0.05032  0.51309  1.0000
  O  Te90      1.0  0.27669  0.19925  0.52783  1.0000
  O  Te91      1.0  0.33297  0.16595  0.44103  1.0000
  O  Te92      1.0  0.20651  0.01701  0.42626  1.0000
  Mg  Mg45      1.0  0.34085  0.22503  0.48857  1.0000
  Mg  Mg46      1.0  0.14235  0.99120  0.46540  1.0000
  C  Sn93      1.0  0.66416  0.47121  0.56746  1.0000
  C   C143      1.0  0.64583  0.42445  0.57833  1.0000
  C  Sn94      1.0  0.60031  0.39662  0.55799  1.0000
  C  Sn95      1.0  0.57254  0.41593  0.52601  1.0000
  C   C144      1.0  0.59087  0.46266  0.51512  1.0000
  C  Sn96      1.0  0.63638  0.49052  0.53548  1.0000
  O  Te93      1.0  0.70976  0.49839  0.58820  1.0000
  O  Te94      1.0  0.58275  0.34997  0.56947  1.0000
  O  Te95      1.0  0.52691  0.38870  0.50527  1.0000
  O  Te96      1.0  0.65395  0.53715  0.52399  1.0000
  Mg  Mg47      1.0  0.51865  0.32705  0.53197  1.0000
  Mg  Mg48      1.0  0.71805  0.56009  0.56137  1.0000
