data_image0
_chemical_formula_structural       H60C96N28SnCSn2CSnTe4Mg2SnCSn2CSnTe4Mg2SnCSn2CSnTe4Mg2SnCSn2CSnTe4Mg2SnCSn2CSnTe4Mg2SnCSn2CSnTe4Mg2SnCSn2CSnTe4Mg2SnCSn2CSnTe4Mg2SnCSn2CSnTe4Mg2SnCSn2CSnTe4Mg2SnCSn2CSnTe4Mg2SnCSn2CSnTe4Mg2SnCSn2CSnTe4Mg2SnCSn2CSnTe4Mg2SnCSn2CSnTe4Mg2SnCSn2CSnTe4Mg2SnCSn2CSnTe4Mg2SnCSn2CSnTe4Mg2SnCSn2CSnTe4Mg2SnCSn2CSnTe4Mg2SnCSn2CSnTe4Mg2SnCSn2CSnTe4Mg2SnCSn2CSnTe4Mg2SnCSn2CSnTe4Mg2SnCSn2CSnTe4Mg2SnCSn2CSnTe4Mg2SnCSn2CSnTe4Mg2SnCSn2CSnTe4Mg2SnCSn2CSnTe4Mg2SnCSn2CSnTe4Mg2SnCSn2CSnTe4Mg2SnCSn2CSnTe4Mg2SnCSn2CSnTe4Mg2SnCSn2CSnTe4Mg2SnCSn2CSnTe4Mg2SnCSn2CSnTe4Mg2
_chemical_formula_sum              "H60 C168 N28 Sn144 Te144 Mg72"
_cell_length_a       41.8897
_cell_length_b       42.3917
_cell_length_c       7.77506
_cell_angle_alpha    61.7272
_cell_angle_beta     112.44
_cell_angle_gamma    120.316

_symmetry_space_group_name_H-M    'P1'
_space_group_IT_number       1

loop_
  _space_group_symop_operation_xyz
  'x, y, z'

loop_
  _atom_site_type_symbol
  _atom_site_label
  _atom_site_symmetry_multiplicity
  _atom_site_fract_x
  _atom_site_fract_y
  _atom_site_fract_z
  _atom_site_occupancy
  H   H1        1.0  0.52837  0.09102  0.49575  1.0000
  H   H2        1.0  0.21533  0.81417  0.50481  1.0000
  H   H3        1.0  0.42107  0.74179  0.31491  1.0000
  H   H4        1.0  0.74294  0.01492  0.43046  1.0000
  H   H5        1.0  0.36925  0.63192  0.44811  1.0000
  H   H6        1.0  0.46976  0.61544  0.56397  1.0000
  H   H7        1.0  0.47410  0.73149  0.34784  1.0000
  H   H8        1.0  0.68851  0.90764  0.51355  1.0000
  H   H9        1.0  0.78428  0.89261  0.53044  1.0000
  H   H10       1.0  0.79665  0.00400  0.47245  1.0000
  H   H11       1.0  0.36454  0.56817  0.51210  1.0000
  H   H12       1.0  0.65995  0.60501  0.49333  1.0000
  H   H13       1.0  0.76051  0.59994  0.50525  1.0000
  H   H14       1.0  0.76460  0.70690  0.46377  1.0000
  H   H15       1.0  0.65591  0.54706  0.49877  1.0000
  H   H16       1.0  0.30449  0.28355  0.47043  1.0000
  H   H17       1.0  0.59373  0.25646  0.45294  1.0000
  H   H18       1.0  0.19999  0.23223  0.46494  1.0000
  H   H19       1.0  0.19222  0.12608  0.47664  1.0000
  H   H20       1.0  0.29934  0.22456  0.47784  1.0000
  H   H21       1.0  0.49215  0.20756  0.51016  1.0000
  H   H22       1.0  0.47820  0.09796  0.52769  1.0000
  H   H23       1.0  0.58458  0.19549  0.46714  1.0000
  H   H24       1.0  0.14041  0.17618  0.48453  1.0000
  H   H25       1.0  0.17705  0.92782  0.52830  1.0000
  H   H26       1.0  0.16384  0.82145  0.51792  1.0000
  H   H27       1.0  0.27294  0.91662  0.51366  1.0000
  H   H28       1.0  0.11726  0.87363  0.55823  1.0000
  H   H29       1.0  0.84573  0.94456  0.52713  1.0000
  H   H30       1.0  0.81956  0.65409  0.50757  1.0000
  H   H31       1.0  0.52743  0.58223  0.01222  1.0000
  H   H32       1.0  0.21052  0.30325  0.05367  1.0000
  H   H33       1.0  0.42553  0.22462  0.00909  1.0000
  H   H34       1.0  0.74521  0.50236  0.99711  1.0000
  H   H35       1.0  0.36916  0.12003  0.04056  1.0000
  H   H36       1.0  0.46215  0.10696  0.01050  1.0000
  H   H37       1.0  0.47596  0.21710  0.98515  1.0000
  H   H38       1.0  0.68582  0.39872  0.01258  1.0000
  H   H39       1.0  0.77934  0.38380  0.99799  1.0000
  H   H40       1.0  0.79577  0.49260  0.99438  1.0000
  H   H41       1.0  0.36065  0.05815  0.06362  1.0000
  H   H42       1.0  0.65693  0.09408  0.02851  1.0000
  H   H43       1.0  0.75569  0.08813  0.02172  1.0000
  H   H44       1.0  0.76414  0.19203  0.04258  1.0000
  H   H45       1.0  0.65087  0.03747  0.00935  1.0000
  H   H46       1.0  0.30216  0.76484  0.08721  1.0000
  H   H47       1.0  0.59510  0.74884  0.99329  1.0000
  H   H48       1.0  0.19750  0.71054  0.06998  1.0000
  H   H49       1.0  0.19330  0.60884  0.04952  1.0000
  H   H50       1.0  0.29903  0.70813  0.07758  1.0000
  H   H51       1.0  0.49102  0.70313  0.96936  1.0000
  H   H52       1.0  0.47668  0.59281  0.99887  1.0000
  H   H53       1.0  0.58580  0.68790  0.97780  1.0000
  H   H54       1.0  0.13967  0.65382  0.08839  1.0000
  H   H55       1.0  0.17257  0.43017  0.92967  1.0000
  H   H56       1.0  0.15665  0.31699  0.99387  1.0000
  H   H57       1.0  0.26743  0.40950  0.98415  1.0000
  H   H58       1.0  0.11012  0.37915  0.93230  1.0000
  H   H59       1.0  0.84167  0.43444  0.00521  1.0000
  H   H60       1.0  0.81435  0.14244  0.00869  1.0000
  C   C1        1.0  0.54746  0.61262  0.99381  1.0000
  C   C2        1.0  0.22943  0.33435  0.01403  1.0000
  C   C3        1.0  0.40489  0.19684  0.98740  1.0000
  C   C4        1.0  0.42050  0.17164  0.99978  1.0000
  C   C5        1.0  0.72445  0.47267  0.00514  1.0000
  C   C6        1.0  0.73904  0.44779  0.00642  1.0000
  C   C7        1.0  0.39825  0.13203  0.02501  1.0000
  C   C8        1.0  0.41379  0.10886  0.03220  1.0000
  C   C9        1.0  0.45159  0.12559  0.01168  1.0000
  C   C10       1.0  0.47489  0.16459  0.99490  1.0000
  C   C11       1.0  0.45863  0.18706  0.99173  1.0000
  C   C12       1.0  0.71543  0.40934  0.01081  1.0000
  C   C13       1.0  0.72940  0.38609  0.00591  1.0000
  C   C14       1.0  0.76785  0.40176  0.99850  1.0000
  C   C15       1.0  0.79182  0.43993  0.99551  1.0000
  C   C16       1.0  0.77700  0.46292  0.99817  1.0000
  C   C17       1.0  0.39000  0.06792  0.05460  1.0000
  C   C18       1.0  0.70813  0.14594  0.03320  1.0000
  C   C19       1.0  0.68699  0.10784  0.02815  1.0000
  C   C20       1.0  0.70410  0.08687  0.02669  1.0000
  C   C21       1.0  0.74294  0.10439  0.02809  1.0000
  C   C22       1.0  0.76452  0.14201  0.03596  1.0000
  C   C23       1.0  0.74698  0.16251  0.04043  1.0000
  C   C24       1.0  0.68116  0.04761  0.01989  1.0000
  C   C25       1.0  0.27146  0.75374  0.06733  1.0000
  C   C26       1.0  0.25026  0.71360  0.06935  1.0000
  C   C27       1.0  0.56446  0.73961  0.96736  1.0000
  C   C28       1.0  0.54057  0.69982  0.96975  1.0000
  C   C29       1.0  0.21144  0.69485  0.06882  1.0000
  C   C30       1.0  0.19141  0.65698  0.06402  1.0000
  C   C31       1.0  0.21022  0.63774  0.05975  1.0000
  C   C32       1.0  0.24925  0.65526  0.06656  1.0000
  C   C33       1.0  0.26875  0.69353  0.07120  1.0000
  C   C34       1.0  0.50195  0.68451  0.97110  1.0000
  C   C35       1.0  0.47883  0.64579  0.98678  1.0000
  C   C36       1.0  0.49463  0.62270  0.99406  1.0000
  C   C37       1.0  0.53282  0.63782  0.98797  1.0000
  C   C38       1.0  0.55604  0.67654  0.97906  1.0000
  C   C39       1.0  0.15089  0.63857  0.05983  1.0000
  C   C40       1.0  0.22302  0.42513  0.95216  1.0000
  C   C41       1.0  0.18408  0.41105  0.94165  1.0000
  C   C42       1.0  0.16019  0.37222  0.95608  1.0000
  C   C43       1.0  0.17550  0.34707  0.98170  1.0000
  C   C44       1.0  0.21399  0.36072  0.98942  1.0000
  C   C45       1.0  0.23748  0.39975  0.97439  1.0000
  C   C46       1.0  0.11993  0.35798  0.94888  1.0000
  C   C47       1.0  0.83182  0.45511  0.99421  1.0000
  C   C48       1.0  0.80457  0.15969  0.03102  1.0000
  C   C49       1.0  0.54898  0.11849  0.52065  1.0000
  C   C50       1.0  0.23601  0.84291  0.51419  1.0000
  C   C51       1.0  0.40414  0.71027  0.37570  1.0000
  C   C52       1.0  0.41999  0.68441  0.39806  1.0000
  C   C53       1.0  0.72480  0.98360  0.47483  1.0000
  C   C54       1.0  0.74058  0.95819  0.49205  1.0000
  C   C55       1.0  0.39921  0.64385  0.44977  1.0000
  C   C56       1.0  0.41738  0.61929  0.50837  1.0000
  C   C57       1.0  0.45630  0.63540  0.51245  1.0000
  C   C58       1.0  0.47738  0.67575  0.45449  1.0000
  C   C59       1.0  0.45843  0.69997  0.39430  1.0000
  C   C60       1.0  0.71814  0.91882  0.51072  1.0000
  C   C61       1.0  0.73333  0.89479  0.52377  1.0000
  C   C62       1.0  0.77205  0.91067  0.52348  1.0000
  C   C63       1.0  0.79491  0.94984  0.50527  1.0000
  C   C64       1.0  0.77879  0.97361  0.48768  1.0000
  C   C65       1.0  0.39527  0.57726  0.55648  1.0000
  C   C66       1.0  0.70974  0.65878  0.47789  1.0000
  C   C67       1.0  0.69001  0.61938  0.49207  1.0000
  C   C68       1.0  0.70810  0.59831  0.50035  1.0000
  C   C69       1.0  0.74679  0.61669  0.49764  1.0000
  C   C70       1.0  0.76690  0.65587  0.48251  1.0000
  C   C71       1.0  0.74815  0.67675  0.47129  1.0000
  C   C72       1.0  0.68626  0.55796  0.50690  1.0000
  C   C73       1.0  0.27450  0.27254  0.47033  1.0000
  C   C74       1.0  0.25187  0.23264  0.47065  1.0000
  C   C75       1.0  0.56439  0.24706  0.46090  1.0000
  C   C76       1.0  0.54038  0.20615  0.48293  1.0000
  C   C77       1.0  0.21295  0.21525  0.46770  1.0000
  C   C78       1.0  0.19157  0.17705  0.46795  1.0000
  C   C79       1.0  0.20942  0.15593  0.47295  1.0000
  C   C80       1.0  0.24821  0.17230  0.47967  1.0000
  C   C81       1.0  0.26923  0.21098  0.47744  1.0000
  C   C82       1.0  0.50268  0.18929  0.50517  1.0000
  C   C83       1.0  0.47927  0.15045  0.51852  1.0000
  C   C84       1.0  0.49545  0.12806  0.52033  1.0000
  C   C85       1.0  0.53345  0.14357  0.51038  1.0000
  C   C86       1.0  0.55569  0.18315  0.48596  1.0000
  C   C87       1.0  0.15124  0.15902  0.46844  1.0000
  C   C88       1.0  0.22792  0.92781  0.51652  1.0000
  C   C89       1.0  0.18944  0.91079  0.52617  1.0000
  C   C90       1.0  0.16630  0.87269  0.52566  1.0000
  C   C91       1.0  0.18202  0.85102  0.51773  1.0000
  C   C92       1.0  0.22034  0.86696  0.51343  1.0000
  C   C93       1.0  0.24309  0.90538  0.51255  1.0000
  C   C94       1.0  0.12623  0.85660  0.52872  1.0000
  C   C95       1.0  0.83490  0.96555  0.50216  1.0000
  C   C96       1.0  0.80727  0.67383  0.48332  1.0000
  N   N1        1.0  0.26335  0.34723  0.99086  1.0000
  N   N2        1.0  0.58209  0.62511  0.98234  1.0000
  N   N3        1.0  0.36909  0.18661  0.95876  1.0000
  N   N4        1.0  0.68949  0.46032  0.01004  1.0000
  N   N5        1.0  0.63341  0.23081  0.00294  1.0000
  N   N6        1.0  0.40236  0.04511  0.05920  1.0000
  N   N7        1.0  0.69614  0.02733  0.02036  1.0000
  N   N8        1.0  0.25459  0.77451  0.04181  1.0000
  N   N9        1.0  0.54958  0.76192  0.94345  1.0000
  N   N10       1.0  0.32180  0.57579  0.01856  1.0000
  N   N11       1.0  0.12943  0.60634  0.02582  1.0000
  N   N12       1.0  0.09747  0.32257  0.95886  1.0000
  N   N13       1.0  0.82652  0.19351  0.04738  1.0000
  N   N14       1.0  0.85401  0.49058  0.98487  1.0000
  N   N15       1.0  0.27156  0.85466  0.52583  1.0000
  N   N16       1.0  0.58475  0.12844  0.55159  1.0000
  N   N17       1.0  0.37389  0.69624  0.44206  1.0000
  N   N18       1.0  0.69132  0.96993  0.50700  1.0000
  N   N19       1.0  0.63701  0.74163  0.48873  1.0000
  N   N20       1.0  0.41086  0.55272  0.62980  1.0000
  N   N21       1.0  0.70197  0.53771  0.51376  1.0000
  N   N22       1.0  0.25975  0.29260  0.47439  1.0000
  N   N23       1.0  0.55211  0.27019  0.45428  1.0000
  N   N24       1.0  0.32030  0.08528  0.50152  1.0000
  N   N25       1.0  0.13012  0.12492  0.45518  1.0000
  N   N26       1.0  0.10295  0.82429  0.49782  1.0000
  N   N27       1.0  0.82748  0.71019  0.46173  1.0000
  N   N28       1.0  0.85625  0.00190  0.47582  1.0000
  C  Sn1       1.0  0.32964  0.31078  0.10427  1.0000
  C   C97       1.0  0.31094  0.27693  0.05697  1.0000
  C  Sn2       1.0  0.30895  0.19722  0.95862  1.0000
  C  Sn3       1.0  0.28973  0.22100  0.90634  1.0000
  C   C98       1.0  0.30842  0.25483  0.95360  1.0000
  C  Sn4       1.0  0.31042  0.33457  0.05198  1.0000
  O  Te1       1.0  0.36715  0.32078  0.20261  1.0000
  O  Te2       1.0  0.29085  0.16324  0.91298  1.0000
  O  Te3       1.0  0.25219  0.21098  0.80792  1.0000
  O  Te4       1.0  0.32852  0.36853  0.09759  1.0000
  Mg  Mg1       1.0  0.23967  0.16193  0.77786  1.0000
  Mg  Mg2       1.0  0.37971  0.36987  0.23260  1.0000
  C  Sn5       1.0  0.57081  0.55498  0.96693  1.0000
  C   C99       1.0  0.55363  0.65705  0.02205  1.0000
  C  Sn6       1.0  0.59283  0.67616  0.04949  1.0000
  C  Sn7       1.0  0.61413  0.66211  0.02112  1.0000
  C   C100      1.0  0.63131  0.56007  0.96601  1.0000
  C  Sn8       1.0  0.59211  0.54093  0.93857  1.0000
  O  Te5       1.0  0.53159  0.53633  0.94031  1.0000
  O  Te6       1.0  0.61053  0.70900  0.10466  1.0000
  O  Te7       1.0  0.65337  0.68079  0.04780  1.0000
  O  Te8       1.0  0.57441  0.50812  0.88339  1.0000
  Mg  Mg3       1.0  0.66457  0.72440  0.12300  1.0000
  Mg  Mg4       1.0  0.52038  0.49271  0.86492  1.0000
  C  Sn9       1.0  0.37745  0.25821  0.94168  1.0000
  C   C101      1.0  0.36340  0.21781  0.99295  1.0000
  C  Sn10      1.0  0.29076  0.26347  0.02179  1.0000
  C  Sn11      1.0  0.30271  0.21156  0.99880  1.0000
  C   C102      1.0  0.31676  0.25193  0.94754  1.0000
  C  Sn12      1.0  0.35388  0.27545  0.91869  1.0000
  O  Te9       1.0  0.41465  0.28114  0.91356  1.0000
  O  Te10      1.0  0.27735  0.22315  0.07304  1.0000
  O  Te11      1.0  0.22996  0.25775  0.02698  1.0000
  O  Te12      1.0  0.36729  0.31575  0.86744  1.0000
  Mg  Mg5       1.0  0.22465  0.20422  0.09539  1.0000
  Mg  Mg6       1.0  0.41997  0.33471  0.84496  1.0000
  C  Sn13      1.0  0.66334  0.59935  0.02035  1.0000
  C   C103      1.0  0.64709  0.55977  0.04566  1.0000
  C  Sn14      1.0  0.60815  0.53897  0.02975  1.0000
  C  Sn15      1.0  0.62047  0.48896  0.98754  1.0000
  C   C104      1.0  0.63672  0.52851  0.96222  1.0000
  C  Sn16      1.0  0.67566  0.54934  0.97814  1.0000
  O  Te13      1.0  0.70234  0.61957  0.03690  1.0000
  O  Te14      1.0  0.59256  0.49943  0.05572  1.0000
  O  Te15      1.0  0.58145  0.46870  0.97101  1.0000
  O  Te16      1.0  0.69125  0.58886  0.95216  1.0000
  Mg  Mg7       1.0  0.53796  0.48441  0.01866  1.0000
  Mg  Mg8       1.0  0.74584  0.60391  0.98908  1.0000
  C  Sn17      1.0  0.56854  0.23724  0.97350  1.0000
  C   C105      1.0  0.55642  0.28718  0.03051  1.0000
  C  Sn18      1.0  0.54097  0.24785  0.05283  1.0000
  C  Sn19      1.0  0.50132  0.22730  0.01731  1.0000
  C   C106      1.0  0.51346  0.17736  0.96032  1.0000
  C  Sn20      1.0  0.52889  0.21669  0.93799  1.0000
  O  Te17      1.0  0.58460  0.27657  0.95208  1.0000
  O  Te18      1.0  0.56494  0.22926  0.11001  1.0000
  O  Te19      1.0  0.48527  0.18794  0.03879  1.0000
  O  Te20      1.0  0.50495  0.23528  0.88081  1.0000
  Mg  Mg9       1.0  0.52962  0.17542  0.11933  1.0000
  Mg  Mg10      1.0  0.54023  0.28912  0.87135  1.0000
  C  Sn21      1.0  0.69845  0.32731  0.84093  1.0000
  C   C107      1.0  0.69833  0.34613  0.94731  1.0000
  C  Sn22      1.0  0.64327  0.39391  0.10457  1.0000
  C  Sn23      1.0  0.62346  0.35287  0.15669  1.0000
  C   C108      1.0  0.62360  0.33407  0.05037  1.0000
  C  Sn24      1.0  0.67864  0.28626  0.89305  1.0000
  O  Te21      1.0  0.71817  0.34926  0.68426  1.0000
  O  Te22      1.0  0.64355  0.41338  0.20869  1.0000
  O  Te23      1.0  0.60374  0.33092  0.31350  1.0000
  O  Te24      1.0  0.67837  0.26682  0.78899  1.0000
  Mg  Mg11      1.0  0.61252  0.37071  0.41056  1.0000
  Mg  Mg12      1.0  0.70941  0.30945  0.58717  1.0000
  C  Sn25      1.0  0.69879  0.18833  0.19150  1.0000
  C   C109      1.0  0.68740  0.16479  0.08254  1.0000
  C  Sn26      1.0  0.69393  0.09683  0.91622  1.0000
  C  Sn27      1.0  0.67595  0.12210  0.85749  1.0000
  C   C110      1.0  0.68734  0.14563  0.96639  1.0000
  C  Sn28      1.0  0.68082  0.21360  0.13277  1.0000
  O  Te25      1.0  0.72785  0.18666  0.35726  1.0000
  O  Te26      1.0  0.68302  0.07301  0.80968  1.0000
  O  Te27      1.0  0.64687  0.12375  0.69158  1.0000
  O  Te28      1.0  0.69173  0.23741  0.23925  1.0000
  Mg  Mg13      1.0  0.64206  0.08571  0.59457  1.0000
  Mg  Mg14      1.0  0.73269  0.22475  0.45431  1.0000
  C  Sn29      1.0  0.80966  0.96923  0.92677  1.0000
  C   C111      1.0  0.82218  0.94088  0.96983  1.0000
  C  Sn30      1.0  0.82285  0.01310  0.07743  1.0000
  C  Sn31      1.0  0.84703  0.04517  0.14348  1.0000
  C   C112      1.0  0.83451  0.07350  0.10044  1.0000
  C  Sn32      1.0  0.83384  0.00130  0.99281  1.0000
  O  Te29      1.0  0.77336  0.96558  0.81899  1.0000
  O  Te30      1.0  0.34556  0.98440  0.11861  1.0000
  O  Te31      1.0  0.88335  0.04881  0.25132  1.0000
  O  Te32      1.0  0.82195  0.02998  0.95166  1.0000
  Mg  Mg15      1.0  0.88665  0.00226  0.27040  1.0000
  Mg  Mg16      1.0  0.77004  0.01214  0.79999  1.0000
  C  Sn33      1.0  0.10495  0.94572  0.94082  1.0000
  C   C113      1.0  0.63003  0.92372  0.92636  1.0000
  C  Sn34      1.0  0.15793  0.93329  0.97450  1.0000
  C  Sn35      1.0  0.14739  0.03466  0.03855  1.0000
  C   C114      1.0  0.13312  0.05663  0.05302  1.0000
  C  Sn36      1.0  0.09441  0.04709  0.00487  1.0000
  O  Te33      1.0  0.57696  0.93563  0.89194  1.0000
  O  Te34      1.0  0.68235  0.91086  0.95881  1.0000
  O  Te35      1.0  0.18622  0.04474  0.08743  1.0000
  O  Te36      1.0  0.08081  0.06949  0.02057  1.0000
  Mg  Mg17      1.0  0.19114  0.00532  0.04224  1.0000
  Mg  Mg18      1.0  0.06120  0.97505  0.93728  1.0000
  C  Sn37      1.0  0.27388  0.85730  0.11049  1.0000
  C   C115      1.0  0.30965  0.88437  0.06809  1.0000
  C  Sn38      1.0  0.36338  0.80891  0.97703  1.0000
  C  Sn39      1.0  0.34546  0.77486  0.92718  1.0000
  C   C116      1.0  0.30971  0.74782  0.96954  1.0000
  C  Sn40      1.0  0.25596  0.82325  0.06064  1.0000
  O  Te37      1.0  0.25621  0.86420  0.20158  1.0000
  O  Te38      1.0  0.39913  0.83639  0.93618  1.0000
  O  Te39      1.0  0.36317  0.76798  0.83602  1.0000
  O  Te40      1.0  0.22023  0.79580  0.10145  1.0000
  Mg  Mg19      1.0  0.41174  0.81397  0.81042  1.0000
  Mg  Mg20      1.0  0.20758  0.81820  0.22711  1.0000
  C  Sn41      1.0  0.61322  0.86021  0.79437  1.0000
  C   C117      1.0  0.60793  0.87646  0.89610  1.0000
  C  Sn42      1.0  0.55055  0.92168  0.04403  1.0000
  C  Sn43      1.0  0.53364  0.88065  0.09139  1.0000
  C   C118      1.0  0.57446  0.79526  0.98972  1.0000
  C  Sn44      1.0  0.59631  0.81917  0.84173  1.0000
  O  Te41      1.0  0.63518  0.88469  0.64703  1.0000
  O  Te42      1.0  0.54566  0.93860  0.14364  1.0000
  O  Te43      1.0  0.51167  0.85617  0.23886  1.0000
  O  Te44      1.0  0.60121  0.80227  0.74218  1.0000
  Mg  Mg21      1.0  0.51328  0.89304  0.33280  1.0000
  Mg  Mg22      1.0  0.63359  0.84781  0.55308  1.0000
  C  Sn45      1.0  0.32638  0.63996  0.06887  1.0000
  C   C119      1.0  0.31315  0.60051  0.09867  1.0000
  C  Sn46      1.0  0.27497  0.57643  0.09849  1.0000
  C  Sn47      1.0  0.24947  0.59212  0.06776  1.0000
  C   C120      1.0  0.26270  0.63154  0.03795  1.0000
  C  Sn48      1.0  0.30088  0.65565  0.03815  1.0000
  O  Te45      1.0  0.36466  0.66350  0.06963  1.0000
  O  Te46      1.0  0.26242  0.53708  0.12866  1.0000
  O  Te47      1.0  0.21116  0.56854  0.06703  1.0000
  O  Te48      1.0  0.31343  0.69497  0.00796  1.0000
  Mg  Mg23      1.0  0.20765  0.51680  0.11460  1.0000
  Mg  Mg24      1.0  0.36818  0.71529  0.02189  1.0000
  C  Sn49      1.0  0.39615  0.58142  0.19342  1.0000
  C   C121      1.0  0.36854  0.59613  0.07225  1.0000
  C  Sn50      1.0  0.41034  0.55766  0.89079  1.0000
  C  Sn51      1.0  0.44492  0.57398  0.82906  1.0000
  C   C122      1.0  0.47250  0.55927  0.95017  1.0000
  C  Sn52      1.0  0.43073  0.59774  0.13169  1.0000
  O  Te49      1.0  0.38927  0.55073  0.37423  1.0000
  O  Te50      1.0  0.38232  0.57187  0.77223  1.0000
  O  Te51      1.0  0.45178  0.60470  0.64809  1.0000
  O  Te52      1.0  0.45872  0.58352  0.25019  1.0000
  Mg  Mg25      1.0  0.40494  0.61401  0.53860  1.0000
  Mg  Mg26      1.0  0.43612  0.54138  0.48379  1.0000
  C  Sn53      1.0  0.25286  0.52550  0.87671  1.0000
  C   C123      1.0  0.25217  0.60444  0.00369  1.0000
  C  Sn54      1.0  0.27055  0.57897  0.10075  1.0000
  C  Sn55      1.0  0.25377  0.54298  0.07017  1.0000
  C   C124      1.0  0.25448  0.46406  0.94323  1.0000
  C  Sn56      1.0  0.23608  0.48951  0.84612  1.0000
  O  Te53      1.0  0.23500  0.55141  0.78121  1.0000
  O  Te54      1.0  0.30534  0.58939  0.22704  1.0000
  O  Te55      1.0  0.27166  0.51707  0.16580  1.0000
  O  Te56      1.0  0.20131  0.47912  0.71987  1.0000
  Mg  Mg27      1.0  0.31867  0.54435  0.32339  1.0000
  Mg  Mg28      1.0  0.18796  0.52414  0.62337  1.0000
  C  Sn57      1.0  0.01418  0.31349  0.02855  1.0000
  C   C125      1.0  0.02100  0.21506  0.95501  1.0000
  C  Sn58      1.0  0.02969  0.19401  0.89798  1.0000
  C  Sn59      1.0  0.06786  0.20237  0.91492  1.0000
  C   C126      1.0  0.09654  0.23161  0.98845  1.0000
  C  Sn60      1.0  0.05236  0.32184  0.04549  1.0000
  O  Te57      1.0  0.00485  0.33416  0.08469  1.0000
  O  Te58      1.0  0.00050  0.16490  0.82482  1.0000
  O  Te59      1.0  0.07718  0.18166  0.85870  1.0000
  O  Te60      1.0  0.08151  0.35093  0.11864  1.0000
  Mg  Mg29      1.0  0.02749  0.14475  0.76778  1.0000
  Mg  Mg30      1.0  0.05457  0.37108  0.17582  1.0000
  C  Sn61      1.0  0.04173  0.53521  0.12364  1.0000
  C   C127      1.0  0.01738  0.55406  0.05080  1.0000
  C  Sn62      1.0  0.06442  0.52448  0.93292  1.0000
  C  Sn63      1.0  0.10103  0.54566  0.88676  1.0000
  C   C128      1.0  0.12535  0.52681  0.95955  1.0000
  C  Sn64      1.0  0.07834  0.55639  0.07748  1.0000
  O  Te61      1.0  0.02963  0.49563  0.24120  1.0000
  O  Te62      1.0  0.03958  0.54269  0.86188  1.0000
  O  Te63      1.0  0.11312  0.58527  0.76910  1.0000
  O  Te64      1.0  0.10316  0.53818  0.14848  1.0000
  Mg  Mg31      1.0  0.06906  0.59710  0.70735  1.0000
  Mg  Mg32      1.0  0.07370  0.48377  0.30292  1.0000
  C  Sn65      1.0  0.94818  0.54736  0.09612  1.0000
  C   C129      1.0  0.96855  0.53644  0.04359  1.0000
  C  Sn66      1.0  0.98549  0.44227  0.93528  1.0000
  C  Sn67      1.0  0.94571  0.42789  0.87816  1.0000
  C   C130      1.0  0.92536  0.43882  0.93065  1.0000
  C  Sn68      1.0  0.90840  0.53298  0.03900  1.0000
  O  Te65      1.0  0.96735  0.57239  0.20443  1.0000
  O  Te66      1.0  0.00646  0.43176  0.88455  1.0000
  O  Te67      1.0  0.92654  0.40284  0.76977  1.0000
  O  Te68      1.0  0.88746  0.54350  0.08969  1.0000
  Mg  Mg33      1.0  0.96752  0.39694  0.73596  1.0000
  Mg  Mg34      1.0  0.92636  0.57833  0.23819  1.0000
  C  Sn69      1.0  0.92529  0.18998  0.95747  1.0000
  C   C131      1.0  0.90222  0.15068  0.98417  1.0000
  C  Sn70      1.0  0.88246  0.19314  0.04441  1.0000
  C  Sn71      1.0  0.92210  0.20599  0.07882  1.0000
  C   C132      1.0  0.94515  0.24527  0.05216  1.0000
  C  Sn72      1.0  0.96494  0.20283  0.99188  1.0000
  O  Te69      1.0  0.90893  0.21615  0.89719  1.0000
  O  Te70      1.0  0.85882  0.15400  0.07004  1.0000
  O  Te71      1.0  0.93845  0.17977  0.13914  1.0000
  O  Te72      1.0  0.98855  0.24195  0.96628  1.0000
  Mg  Mg35      1.0  0.89448  0.12947  0.15391  1.0000
  Mg  Mg36      1.0  0.95293  0.26649  0.88253  1.0000
  C  Sn73      1.0  0.27224  0.76992  0.54724  1.0000
  C   C133      1.0  0.30666  0.78282  0.49792  1.0000
  C  Sn74      1.0  0.33385  0.82046  0.48427  1.0000
  C  Sn75      1.0  0.32648  0.84573  0.52079  1.0000
  C   C134      1.0  0.29208  0.83282  0.57011  1.0000
  C  Sn76      1.0  0.26487  0.79519  0.58377  1.0000
  O  Te73      1.0  0.24547  0.73218  0.56006  1.0000
  O  Te74      1.0  0.36805  0.83271  0.43466  1.0000
  O  Te75      1.0  0.35328  0.88350  0.50793  1.0000
  O  Te76      1.0  0.23069  0.78294  0.63337  1.0000
  Mg  Mg37      1.0  0.39559  0.88674  0.43563  1.0000
  Mg  Mg38      1.0  0.20314  0.72890  0.63255  1.0000
  C  Sn77      1.0  0.63150  0.12198  0.42029  1.0000
  C   C135      1.0  0.60001  0.10753  0.50039  1.0000
  C  Sn78      1.0  0.58462  0.06820  0.61787  1.0000
  C  Sn79      1.0  0.60106  0.04279  0.65621  1.0000
  C   C136      1.0  0.63253  0.05724  0.57616  1.0000
  C  Sn80      1.0  0.64794  0.09656  0.45863  1.0000
  O  Te77      1.0  0.64642  0.16140  0.30327  1.0000
  O  Te78      1.0  0.55313  0.05443  0.69626  1.0000
  O  Te79      1.0  0.58611  0.00334  0.77333  1.0000
  O  Te80      1.0  0.67942  0.11034  0.38029  1.0000
  Mg  Mg39      1.0  0.54304  0.99841  0.84682  1.0000
  Mg  Mg40      1.0  0.68954  0.16635  0.22980  1.0000
  C  Sn81      1.0  0.38764  0.75904  0.53775  1.0000
  C   C137      1.0  0.36879  0.72213  0.52129  1.0000
  C  Sn82      1.0  0.32949  0.70457  0.48625  1.0000
  C  Sn83      1.0  0.30859  0.72431  0.46713  1.0000
  C   C138      1.0  0.32743  0.76119  0.48356  1.0000
  C  Sn84      1.0  0.36674  0.77878  0.51864  1.0000
  O  Te81      1.0  0.42695  0.77605  0.57279  1.0000
  O  Te82      1.0  0.31127  0.66764  0.47042  1.0000
  O  Te83      1.0  0.26925  0.70727  0.43207  1.0000
  O  Te84      1.0  0.38495  0.81568  0.53442  1.0000
  Mg  Mg41      1.0  0.25730  0.65658  0.42201  1.0000
  Mg  Mg42      1.0  0.43892  0.82679  0.58273  1.0000
  C  Sn85      1.0  0.62432  0.99165  0.53020  1.0000
  C   C139      1.0  0.64293  0.02744  0.55886  1.0000
  C  Sn86      1.0  0.68075  0.05014  0.54242  1.0000
  C  Sn87      1.0  0.70038  0.03681  0.49626  1.0000
  C   C140      1.0  0.68178  0.00104  0.46760  1.0000
  C  Sn88      1.0  0.64396  0.97831  0.48404  1.0000
  O  Te85      1.0  0.58651  0.96943  0.54735  1.0000
  O  Te86      1.0  0.69875  0.08582  0.57178  1.0000
  O  Te87      1.0  0.73823  0.05906  0.47912  1.0000
  O  Te88      1.0  0.13678  0.94266  0.45467  1.0000
  Mg  Mg43      1.0  0.75046  0.10560  0.53234  1.0000
  Mg  Mg44      1.0  0.08506  0.92286  0.49397  1.0000
  C  Sn89      1.0  0.54998  0.73843  0.46025  1.0000
  C   C141      1.0  0.52231  0.70555  0.41266  1.0000
  C  Sn90      1.0  0.53226  0.67831  0.41646  1.0000
  C  Sn91      1.0  0.57066  0.68404  0.46905  1.0000
  C   C142      1.0  0.59831  0.71689  0.51663  1.0000
  C  Sn92      1.0  0.58839  0.74415  0.51283  1.0000
  O  Te89      1.0  0.53940  0.76528  0.45548  1.0000
  O  Te90      1.0  0.50409  0.64568  0.36824  1.0000
  O  Te91      1.0  0.58123  0.65716  0.47378  1.0000
  O  Te92      1.0  0.61653  0.77676  0.56105  1.0000
  Mg  Mg45      1.0  0.53260  0.61734  0.39622  1.0000
  Mg  Mg46      1.0  0.58805  0.80511  0.53322  1.0000
  C  Sn93      1.0  0.72116  0.81640  0.60384  1.0000
  C   C143      1.0  0.71500  0.85083  0.49959  1.0000
  C  Sn94      1.0  0.67882  0.84952  0.40259  1.0000
  C  Sn95      1.0  0.64814  0.81305  0.41004  1.0000
  C   C144      1.0  0.65430  0.77865  0.51426  1.0000
  C  Sn96      1.0  0.69048  0.77993  0.61129  1.0000
  O  Te93      1.0  0.75756  0.81840  0.69973  1.0000
  O  Te94      1.0  0.67336  0.88433  0.29926  1.0000
  O  Te95      1.0  0.61171  0.81107  0.31403  1.0000
  O  Te96      1.0  0.69594  0.74515  0.71460  1.0000
  Mg  Mg47      1.0  0.61854  0.86648  0.19260  1.0000
  Mg  Mg48      1.0  0.75074  0.76296  0.82139  1.0000
  C  Sn97      1.0  0.70489  0.72989  0.39175  1.0000
  C   C145      1.0  0.70010  0.69094  0.49991  1.0000
  C  Sn98      1.0  0.66919  0.66448  0.59418  1.0000
  C  Sn99      1.0  0.64250  0.67721  0.57995  1.0000
  C   C146      1.0  0.64730  0.71614  0.47182  1.0000
  C  Sn100     1.0  0.67820  0.74262  0.37752  1.0000
  O  Te97      1.0  0.73600  0.75584  0.29870  1.0000
  O  Te98      1.0  0.66500  0.62568  0.70153  1.0000
  O  Te99      1.0  0.61137  0.65122  0.67313  1.0000
  O  Te100     1.0  0.68239  0.78139  0.27020  1.0000
  Mg  Mg49      1.0  0.61795  0.60136  0.80205  1.0000
  Mg  Mg50      1.0  0.72942  0.80573  0.16954  1.0000
  C  Sn101     1.0  0.39142  0.46720  0.57986  1.0000
  C   C147      1.0  0.35473  0.44141  0.61082  1.0000
  C  Sn102     1.0  0.33238  0.45302  0.64371  1.0000
  C  Sn103     1.0  0.34700  0.49121  0.64557  1.0000
  C   C148      1.0  0.38368  0.51699  0.61459  1.0000
  C  Sn104     1.0  0.40605  0.50540  0.58172  1.0000
  O  Te101     1.0  0.41326  0.45497  0.54726  1.0000
  O  Te102     1.0  0.29578  0.42671  0.67437  1.0000
  O  Te103     1.0  0.32513  0.50343  0.67822  1.0000
  O  Te104     1.0  0.44263  0.53169  0.55104  1.0000
  Mg  Mg51      1.0  0.27697  0.45702  0.71244  1.0000
  Mg  Mg52      1.0  0.46145  0.50141  0.51285  1.0000
  C  Sn105     1.0  0.69134  0.47903  0.41731  1.0000
  C   C149      1.0  0.67971  0.49865  0.46815  1.0000
  C  Sn106     1.0  0.64910  0.47816  0.56439  1.0000
  C  Sn107     1.0  0.62971  0.43719  0.61092  1.0000
  C   C150      1.0  0.64135  0.41759  0.56012  1.0000
  C  Sn108     1.0  0.67196  0.43806  0.46383  1.0000
  O  Te105     1.0  0.72202  0.50011  0.32115  1.0000
  O  Te106     1.0  0.63799  0.49842  0.61366  1.0000
  O  Te107     1.0  0.59901  0.41612  0.70715  1.0000
  O  Te108     1.0  0.68307  0.41783  0.41461  1.0000
  Mg  Mg53      1.0  0.59456  0.45678  0.74381  1.0000
  Mg  Mg54      1.0  0.72650  0.45942  0.28456  1.0000
  C  Sn109     1.0  0.32868  0.35002  0.57894  1.0000
  C   C151      1.0  0.28976  0.32894  0.54268  1.0000
  C  Sn110     1.0  0.26515  0.34683  0.48435  1.0000
  C  Sn111     1.0  0.27974  0.38664  0.46165  1.0000
  C   C152      1.0  0.31863  0.40771  0.49786  1.0000
  C  Sn112     1.0  0.34327  0.38983  0.55624  1.0000
  O  Te109     1.0  0.35277  0.33153  0.63711  1.0000
  O  Te110     1.0  0.22635  0.32515  0.44902  1.0000
  O  Te111     1.0  0.25561  0.40512  0.40343  1.0000
  O  Te112     1.0  0.38205  0.41149  0.59153  1.0000
  Mg  Mg55      1.0  0.20496  0.36332  0.37257  1.0000
  Mg  Mg56      1.0  0.40346  0.37336  0.66788  1.0000
  C  Sn113     1.0  0.56265  0.34562  0.35510  1.0000
  C   C153      1.0  0.57522  0.31705  0.40235  1.0000
  C  Sn114     1.0  0.61099  0.31972  0.51604  1.0000
  C  Sn115     1.0  0.63467  0.35158  0.58404  1.0000
  C   C154      1.0  0.62210  0.38012  0.53682  1.0000
  C  Sn116     1.0  0.58634  0.37748  0.42310  1.0000
  O  Te113     1.0  0.52679  0.34236  0.24126  1.0000
  O  Te114     1.0  0.62294  0.29081  0.56132  1.0000
  O  Te115     1.0  0.67056  0.35482  0.69795  1.0000
  O  Te116     1.0  0.57438  0.40636  0.37784  1.0000
  Mg  Mg57      1.0  0.67414  0.30813  0.72089  1.0000
  Mg  Mg58      1.0  0.52318  0.38907  0.21839  1.0000
  C  Sn117     1.0  0.31295  0.15776  0.56945  1.0000
  C   C155      1.0  0.27734  0.15766  0.46591  1.0000
  C  Sn118     1.0  0.25125  0.12857  0.38570  1.0000
  C  Sn119     1.0  0.26094  0.09896  0.40957  1.0000
  C   C156      1.0  0.29653  0.09906  0.51308  1.0000
  C  Sn120     1.0  0.32264  0.12814  0.59332  1.0000
  O  Te117     1.0  0.33859  0.18712  0.64840  1.0000
  O  Te118     1.0  0.21583  0.12909  0.28272  1.0000
  O  Te119     1.0  0.23526  0.06958  0.33051  1.0000
  O  Te120     1.0  0.35804  0.12763  0.69627  1.0000
  Mg  Mg59      1.0  0.19057  0.08279  0.20249  1.0000
  Mg  Mg60      1.0  0.38332  0.17390  0.77665  1.0000
  C  Sn121     1.0  0.38951  0.07818  0.64512  1.0000
  C   C157      1.0  0.36578  0.09770  0.57335  1.0000
  C  Sn122     1.0  0.37762  0.13715  0.45344  1.0000
  C  Sn123     1.0  0.41393  0.15753  0.40412  1.0000
  C   C158      1.0  0.43763  0.13802  0.47585  1.0000
  C  Sn124     1.0  0.42582  0.09856  0.59580  1.0000
  O  Te121     1.0  0.37708  0.03873  0.76475  1.0000
  O  Te122     1.0  0.35341  0.15604  0.38351  1.0000
  O  Te123     1.0  0.42634  0.19701  0.28439  1.0000
  O  Te124     1.0  0.45001  0.07967  0.66568  1.0000
  Mg  Mg61      1.0  0.38313  0.20995  0.22527  1.0000
  Mg  Mg62      1.0  0.42031  0.02576  0.82384  1.0000
  C  Sn125     1.0  0.73084  0.99583  0.57354  1.0000
  C   C159      1.0  0.73314  0.97601  0.48033  1.0000
  C  Sn126     1.0  0.76535  0.99049  0.40626  1.0000
  C  Sn127     1.0  0.79591  0.02549  0.42586  1.0000
  C   C160      1.0  0.79359  0.04529  0.51905  1.0000
  C  Sn128     1.0  0.76139  0.03084  0.59314  1.0000
  O  Te125     1.0  0.69836  0.98082  0.64650  1.0000
  O  Te126     1.0  0.27782  0.97016  0.31359  1.0000
  O  Te127     1.0  0.82839  0.04049  0.35280  1.0000
  O  Te128     1.0  0.75974  0.05114  0.68579  1.0000
  Mg  Mg63      1.0  0.81726  0.00229  0.23840  1.0000
  Mg  Mg64      1.0  0.70950  0.01904  0.76112  1.0000
  C  Sn129     1.0  0.03890  0.83105  0.49357  1.0000
  C   C161      1.0  0.06195  0.81264  0.53170  1.0000
  C  Sn130     1.0  0.04615  0.77524  0.52447  1.0000
  C  Sn131     1.0  0.00648  0.75585  0.47803  1.0000
  C   C162      1.0  0.98345  0.77426  0.43989  1.0000
  C  Sn132     1.0  0.99922  0.81166  0.44713  1.0000
  O  Te129     1.0  0.05530  0.86844  0.50162  1.0000
  O  Te130     1.0  0.06977  0.75742  0.56321  1.0000
  O  Te131     1.0  0.99008  0.71843  0.47001  1.0000
  O  Te132     1.0  0.97563  0.82948  0.40838  1.0000
  Mg  Mg65      1.0  0.03404  0.70629  0.53409  1.0000
  Mg  Mg66      1.0  0.01132  0.88061  0.43736  1.0000
  C  Sn133     1.0  0.03753  0.11922  0.33633  1.0000
  C   C163      1.0  0.01527  0.07918  0.39894  1.0000
  C  Sn134     1.0  0.03199  0.05224  0.50919  1.0000
  C  Sn135     1.0  0.07179  0.06559  0.55798  1.0000
  C   C164      1.0  0.09403  0.10560  0.49542  1.0000
  C  Sn136     1.0  0.07733  0.13257  0.38513  1.0000
  O  Te133     1.0  0.02021  0.14562  0.22627  1.0000
  O  Te134     1.0  0.00915  0.01236  0.57006  1.0000
  O  Te135     1.0  0.08910  0.03914  0.66813  1.0000
  O  Te136     1.0  0.10015  0.17242  0.32430  1.0000
  Mg  Mg67      1.0  0.04598  0.98778  0.71710  1.0000
  Mg  Mg68      1.0  0.06336  0.19703  0.17734  1.0000
  C  Sn137     1.0  0.92546  0.06222  0.48093  1.0000
  C   C165      1.0  0.89782  0.03032  0.42470  1.0000
  C  Sn138     1.0  0.90797  0.00586  0.40292  1.0000
  C  Sn139     1.0  0.94655  0.01342  0.43819  1.0000
  C   C166      1.0  0.97416  0.04529  0.49441  1.0000
  C  Sn140     1.0  0.96404  0.06978  0.51620  1.0000
  O  Te137     1.0  0.91467  0.08628  0.50182  1.0000
  O  Te138     1.0  0.39065  0.97416  0.34650  1.0000
  O  Te139     1.0  0.95732  0.98932  0.41724  1.0000
  O  Te140     1.0  0.99215  0.10146  0.57261  1.0000
  Mg  Mg69      1.0  0.41947  0.94978  0.33768  1.0000
  Mg  Mg70      1.0  0.96336  0.12584  0.58158  1.0000
  C  Sn141     1.0  0.89028  0.70691  0.42858  1.0000
  C   C167      1.0  0.87047  0.71625  0.49425  1.0000
  C  Sn142     1.0  0.88740  0.75086  0.53295  1.0000
  C  Sn143     1.0  0.92490  0.77670  0.50532  1.0000
  C   C168      1.0  0.94469  0.76736  0.43965  1.0000
  C  Sn144     1.0  0.92779  0.73275  0.40094  1.0000
  O  Te141     1.0  0.87281  0.67215  0.39079  1.0000
  O  Te142     1.0  0.86703  0.75956  0.59856  1.0000
  O  Te143     1.0  0.94237  0.81148  0.54317  1.0000
  O  Te144     1.0  0.94814  0.72405  0.33534  1.0000
  Mg  Mg71      1.0  0.90305  0.81043  0.63000  1.0000
  Mg  Mg72      1.0  0.91213  0.67320  0.30376  1.0000
