data_image0
_chemical_formula_structural       C3N3C3H5C3H5N3C9O3C3N3C6H7C6H7N3C9O3C2Sn2C2HTe2HMgC2Sn2C2HTe2HMgC2Sn2C2HTe2HMg
_chemical_formula_sum              "C54 N12 H30 O6 Sn6 Te6 Mg3"
_cell_length_a       18.4355
_cell_length_b       18.4967
_cell_length_c       8.01907
_cell_angle_alpha    118.653
_cell_angle_beta     63.4015
_cell_angle_gamma    119.518

_symmetry_space_group_name_H-M    'P1'
_space_group_IT_number       1

loop_
  _space_group_symop_operation_xyz
  'x, y, z'

loop_
  _atom_site_type_symbol
  _atom_site_label
  _atom_site_symmetry_multiplicity
  _atom_site_fract_x
  _atom_site_fract_y
  _atom_site_fract_z
  _atom_site_occupancy
  C   C1        1.0  0.39228  0.55550  0.26724  1.0000
  C   C2        1.0  0.44707  0.83745  0.24280  1.0000
  C   C3        1.0  0.15985  0.60462  0.24314  1.0000
  N   N1        1.0  0.47289  0.57866  0.26995  1.0000
  N   N2        1.0  0.42400  0.89464  0.23733  1.0000
  N   N3        1.0  0.10263  0.52445  0.24869  1.0000
  C   C4        1.0  0.47506  0.98107  0.23816  1.0000
  C   C5        1.0  0.43791  0.02884  0.22656  1.0000
  C   C6        1.0  0.48513  0.11556  0.23184  1.0000
  H   H1        1.0  0.34536  0.49102  0.27400  1.0000
  H   H2        1.0  0.51311  0.85704  0.24423  1.0000
  H   H3        1.0  0.14047  0.64916  0.23371  1.0000
  H   H4        1.0  0.37215  0.99639  0.21148  1.0000
  H   H5        1.0  0.45724  0.15241  0.22033  1.0000
  C   C7        1.0  0.57053  0.15701  0.24809  1.0000
  C   C8        1.0  0.60696  0.10905  0.26032  1.0000
  C   C9        1.0  0.56030  0.02232  0.25527  1.0000
  H   H6        1.0  0.67219  0.14189  0.27770  1.0000
  H   H7        1.0  0.58910  0.98768  0.27151  1.0000
  H   H8        1.0  0.51024  0.64301  0.26715  1.0000
  H   H9        1.0  0.35894  0.86620  0.23341  1.0000
  H   H10       1.0  0.13137  0.48879  0.25410  1.0000
  N   N4        1.0  0.58200  0.29038  0.23873  1.0000
  N   N5        1.0  0.70381  0.28358  0.25764  1.0000
  N   N6        1.0  0.71322  0.41536  0.25033  1.0000
  C   C10       1.0  0.63012  0.37430  0.24339  1.0000
  C   C11       1.0  0.62133  0.24809  0.24832  1.0000
  C   C12       1.0  0.74743  0.36730  0.25647  1.0000
  C   C13       1.0  0.42367  0.69838  0.25283  1.0000
  C   C14       1.0  0.30080  0.72339  0.24491  1.0000
  C   C15       1.0  0.27433  0.57702  0.25905  1.0000
  C   C16       1.0  0.36423  0.61111  0.26131  1.0000
  C   C17       1.0  0.38999  0.75370  0.24707  1.0000
  C   C18       1.0  0.24422  0.63398  0.24932  1.0000
  O   O1        1.0  0.50279  0.72625  0.24971  1.0000
  O   O2        1.0  0.27299  0.77232  0.23793  1.0000
  O   O3        1.0  0.22461  0.49962  0.26421  1.0000
  C   C19       1.0  0.39345  0.55857  0.76777  1.0000
  C   C20       1.0  0.44754  0.84218  0.74590  1.0000
  C   C21       1.0  0.16038  0.60886  0.74776  1.0000
  N   N7        1.0  0.47419  0.58162  0.76912  1.0000
  N   N8        1.0  0.42519  0.89855  0.73577  1.0000
  N   N9        1.0  0.10317  0.52866  0.75390  1.0000
  C   C22       1.0  0.51044  0.52934  0.76273  1.0000
  C   C23       1.0  0.01646  0.49229  0.75364  1.0000
  C   C24       1.0  0.59373  0.57059  0.79053  1.0000
  C   C25       1.0  0.96776  0.40785  0.77122  1.0000
  C   C26       1.0  0.63379  0.52165  0.78190  1.0000
  C   C27       1.0  0.88045  0.36879  0.77659  1.0000
  H   H11       1.0  0.34651  0.49318  0.77124  1.0000
  H   H12       1.0  0.51277  0.86236  0.75253  1.0000
  H   H13       1.0  0.14077  0.65297  0.73695  1.0000
  H   H14       1.0  0.62555  0.64126  0.82047  1.0000
  H   H15       1.0  0.99833  0.37456  0.78742  1.0000
  H   H16       1.0  0.69786  0.55258  0.80439  1.0000
  H   H17       1.0  0.84195  0.30436  0.79469  1.0000
  C   C28       1.0  0.59099  0.43060  0.74811  1.0000
  C   C29       1.0  0.84004  0.41295  0.76330  1.0000
  C   C30       1.0  0.50793  0.38977  0.71945  1.0000
  C   C31       1.0  0.88927  0.49741  0.74596  1.0000
  C   C32       1.0  0.46768  0.43800  0.72579  1.0000
  C   C33       1.0  0.97629  0.53691  0.74139  1.0000
  H   H18       1.0  0.47646  0.31908  0.68920  1.0000
  H   H19       1.0  0.85766  0.53045  0.73374  1.0000
  H   H20       1.0  0.40467  0.40480  0.69652  1.0000
  H   H21       1.0  0.01305  0.60169  0.72506  1.0000
  H   H22       1.0  0.51142  0.64689  0.76957  1.0000
  H   H23       1.0  0.36091  0.86928  0.72766  1.0000
  H   H24       1.0  0.13155  0.49336  0.76216  1.0000
  N   N10       1.0  0.58368  0.29502  0.74086  1.0000
  N   N11       1.0  0.70572  0.28687  0.75635  1.0000
  N   N12       1.0  0.71483  0.42009  0.75560  1.0000
  C   C34       1.0  0.63188  0.37922  0.74690  1.0000
  C   C35       1.0  0.62302  0.25197  0.74779  1.0000
  C   C36       1.0  0.74885  0.37110  0.75917  1.0000
  C   C37       1.0  0.42472  0.70308  0.75589  1.0000
  C   C38       1.0  0.30172  0.72685  0.74510  1.0000
  C   C39       1.0  0.27502  0.58167  0.76489  1.0000
  C   C40       1.0  0.36539  0.61515  0.76428  1.0000
  C   C41       1.0  0.39069  0.75824  0.74968  1.0000
  C   C42       1.0  0.24486  0.63824  0.75338  1.0000
  O   O4        1.0  0.50334  0.73105  0.75316  1.0000
  O   O5        1.0  0.27410  0.77448  0.73346  1.0000
  O   O6        1.0  0.22511  0.50507  0.77427  1.0000
  C   C43       1.0  0.10056  0.09318  0.76787  1.0000
  C   C44       1.0  0.58523  0.14820  0.73764  1.0000
  C  Sn1       1.0  0.50377  0.12038  0.71441  1.0000
  C  Sn2       1.0  0.93664  0.03589  0.72171  1.0000
  C   C45       1.0  0.95825  0.98136  0.75217  1.0000
  C   C46       1.0  0.03996  0.00985  0.77516  1.0000
  H   H25       1.0  0.16376  0.11523  0.78577  1.0000
  O  Te1       1.0  0.48387  0.17617  0.68426  1.0000
  O  Te2       1.0  0.85474  0.00645  0.69902  1.0000
  H   H26       1.0  0.05618  0.96726  0.79870  1.0000
  Mg  Mg1       1.0  0.36377  0.10640  0.66129  1.0000
  C   C47       1.0  0.63412  0.53837  0.28124  1.0000
  C   C48       1.0  0.60062  0.44908  0.25910  1.0000
  C  Sn3       1.0  0.51853  0.39582  0.22858  1.0000
  C  Sn4       1.0  0.46923  0.43284  0.22008  1.0000
  C   C49       1.0  0.50334  0.52223  0.24226  1.0000
  C   C50       1.0  0.58554  0.57493  0.27279  1.0000
  H   H27       1.0  0.69774  0.57914  0.30476  1.0000
  O  Te3       1.0  0.48603  0.30674  0.20683  1.0000
  O  Te4       1.0  0.38701  0.38111  0.18967  1.0000
  H   H28       1.0  0.61149  0.64405  0.28980  1.0000
  Mg  Mg2       1.0  0.37073  0.26319  0.16839  1.0000
  C   C51       1.0  0.90853  0.51400  0.24348  1.0000
  C   C52       1.0  0.85067  0.42969  0.24829  1.0000
  C  Sn5       1.0  0.87631  0.37448  0.26529  1.0000
  C  Sn6       1.0  0.96149  0.40442  0.27773  1.0000
  C   C53       1.0  0.01887  0.48890  0.27293  1.0000
  C   C54       1.0  0.99255  0.54360  0.25582  1.0000
  H   H29       1.0  0.88815  0.55634  0.23035  1.0000
  O  Te5       1.0  0.81769  0.29042  0.26980  1.0000
  O  Te6       1.0  0.98880  0.35060  0.29488  1.0000
  H   H30       1.0  0.03735  0.60889  0.25223  1.0000
  Mg  Mg3       1.0  0.88531  0.24145  0.29471  1.0000
