data_image0
_chemical_formula_structural       C3N3H6N3C9O3C3N3H6N3C9O3C2Sn2C2HTe2HMgC2Sn2C2HTe2HMgC2Sn2C2HTe2HMgC2Sn2C2HTe2HMgC2Sn2C2HTe2HMgC2Sn2C2HTe2HMg
_chemical_formula_sum              "C48 N12 H24 O6 Sn12 Te12 Mg6"
_cell_length_a       18.4355
_cell_length_b       18.4967
_cell_length_c       8.01907
_cell_angle_alpha    118.653
_cell_angle_beta     63.4015
_cell_angle_gamma    119.518

_symmetry_space_group_name_H-M    'P1'
_space_group_IT_number       1

loop_
  _space_group_symop_operation_xyz
  'x, y, z'

loop_
  _atom_site_type_symbol
  _atom_site_label
  _atom_site_symmetry_multiplicity
  _atom_site_fract_x
  _atom_site_fract_y
  _atom_site_fract_z
  _atom_site_occupancy
  C   C1        1.0  0.39228  0.55550  0.26724  1.0000
  C   C2        1.0  0.44707  0.83745  0.24280  1.0000
  C   C3        1.0  0.15985  0.60462  0.24314  1.0000
  N   N1        1.0  0.47289  0.57866  0.26995  1.0000
  N   N2        1.0  0.42400  0.89464  0.23733  1.0000
  N   N3        1.0  0.10263  0.52445  0.24869  1.0000
  H   H1        1.0  0.34536  0.49102  0.27400  1.0000
  H   H2        1.0  0.51311  0.85704  0.24423  1.0000
  H   H3        1.0  0.14047  0.64916  0.23371  1.0000
  H   H4        1.0  0.51024  0.64301  0.26715  1.0000
  H   H5        1.0  0.35894  0.86620  0.23341  1.0000
  H   H6        1.0  0.13137  0.48879  0.25410  1.0000
  N   N4        1.0  0.58200  0.29038  0.23873  1.0000
  N   N5        1.0  0.70381  0.28358  0.25764  1.0000
  N   N6        1.0  0.71322  0.41536  0.25033  1.0000
  C   C4        1.0  0.63012  0.37430  0.24339  1.0000
  C   C5        1.0  0.62133  0.24809  0.24832  1.0000
  C   C6        1.0  0.74743  0.36730  0.25647  1.0000
  C   C7        1.0  0.42367  0.69838  0.25283  1.0000
  C   C8        1.0  0.30080  0.72339  0.24491  1.0000
  C   C9        1.0  0.27433  0.57702  0.25905  1.0000
  C   C10       1.0  0.36423  0.61111  0.26131  1.0000
  C   C11       1.0  0.38999  0.75370  0.24707  1.0000
  C   C12       1.0  0.24422  0.63398  0.24932  1.0000
  O   O1        1.0  0.50279  0.72625  0.24971  1.0000
  O   O2        1.0  0.27299  0.77232  0.23793  1.0000
  O   O3        1.0  0.22461  0.49962  0.26421  1.0000
  C   C13       1.0  0.39345  0.55857  0.76777  1.0000
  C   C14       1.0  0.44754  0.84218  0.74590  1.0000
  C   C15       1.0  0.16038  0.60886  0.74776  1.0000
  N   N7        1.0  0.47419  0.58162  0.76912  1.0000
  N   N8        1.0  0.42519  0.89855  0.73577  1.0000
  N   N9        1.0  0.10317  0.52866  0.75390  1.0000
  H   H7        1.0  0.34651  0.49318  0.77124  1.0000
  H   H8        1.0  0.51277  0.86236  0.75253  1.0000
  H   H9        1.0  0.14077  0.65297  0.73695  1.0000
  H   H10       1.0  0.51142  0.64689  0.76957  1.0000
  H   H11       1.0  0.36091  0.86928  0.72766  1.0000
  H   H12       1.0  0.13155  0.49336  0.76216  1.0000
  N   N10       1.0  0.58368  0.29502  0.74086  1.0000
  N   N11       1.0  0.70572  0.28687  0.75635  1.0000
  N   N12       1.0  0.71483  0.42009  0.75560  1.0000
  C   C16       1.0  0.63188  0.37922  0.74690  1.0000
  C   C17       1.0  0.62302  0.25197  0.74779  1.0000
  C   C18       1.0  0.74885  0.37110  0.75917  1.0000
  C   C19       1.0  0.42472  0.70308  0.75589  1.0000
  C   C20       1.0  0.30172  0.72685  0.74510  1.0000
  C   C21       1.0  0.27502  0.58167  0.76489  1.0000
  C   C22       1.0  0.36539  0.61515  0.76428  1.0000
  C   C23       1.0  0.39069  0.75824  0.74968  1.0000
  C   C24       1.0  0.24486  0.63824  0.75338  1.0000
  O   O4        1.0  0.50334  0.73105  0.75316  1.0000
  O   O5        1.0  0.27410  0.77448  0.73346  1.0000
  O   O6        1.0  0.22511  0.50507  0.77427  1.0000
  C   C25       1.0  0.61109  0.56655  0.29664  1.0000
  C   C26       1.0  0.53211  0.53828  0.26111  1.0000
  C  Sn1       1.0  0.47845  0.44963  0.22202  1.0000
  C  Sn2       1.0  0.50450  0.38830  0.21858  1.0000
  C   C27       1.0  0.58361  0.41725  0.25444  1.0000
  C   C28       1.0  0.63682  0.50611  0.29335  1.0000
  H   H13       1.0  0.65224  0.63530  0.32685  1.0000
  O  Te1       1.0  0.39977  0.42249  0.18677  1.0000
  O  Te2       1.0  0.45210  0.29932  0.17996  1.0000
  H   H14       1.0  0.69794  0.52799  0.32098  1.0000
  Mg  Mg1       1.0  0.35078  0.29432  0.14096  1.0000
  C   C29       1.0  0.58170  0.04093  0.25346  1.0000
  C   C30       1.0  0.98955  0.99054  0.25192  1.0000
  C  Sn3       1.0  0.94014  0.02416  0.23744  1.0000
  C  Sn4       1.0  0.48387  0.10982  0.22422  1.0000
  C   C31       1.0  0.57045  0.15969  0.22574  1.0000
  C   C32       1.0  0.61930  0.12542  0.24035  1.0000
  H   H15       1.0  0.11384  0.01440  0.26466  1.0000
  O  Te3       1.0  0.85382  0.97295  0.23619  1.0000
  O  Te4       1.0  0.43597  0.14502  0.20954  1.0000
  H   H16       1.0  0.68627  0.16442  0.24141  1.0000
  Mg  Mg2       1.0  0.32077  0.04981  0.21377  1.0000
  C   C33       1.0  0.94511  0.38596  0.27869  1.0000
  C   C34       1.0  0.00619  0.46473  0.24493  1.0000
  C  Sn5       1.0  0.98091  0.51932  0.22466  1.0000
  C  Sn6       1.0  0.89280  0.49442  0.23857  1.0000
  C   C35       1.0  0.83217  0.41551  0.27251  1.0000
  C   C36       1.0  0.85818  0.36136  0.29251  1.0000
  H   H17       1.0  0.96521  0.34408  0.29427  1.0000
  O  Te5       1.0  0.04279  0.59778  0.19090  1.0000
  O  Te6       1.0  0.86576  0.54776  0.21894  1.0000
  H   H18       1.0  0.81086  0.30040  0.31877  1.0000
  Mg  Mg3       1.0  0.97425  0.64834  0.17427  1.0000
  C   C37       1.0  0.46753  0.41579  0.71433  1.0000
  C   C38       1.0  0.49558  0.50682  0.76122  1.0000
  C  Sn7       1.0  0.57668  0.56121  0.79658  1.0000
  C  Sn8       1.0  0.63058  0.52357  0.78459  1.0000
  C   C39       1.0  0.60196  0.43242  0.73744  1.0000
  C   C40       1.0  0.52067  0.37861  0.70240  1.0000
  H   H19       1.0  0.40466  0.37414  0.68711  1.0000
  O  Te7       1.0  0.60368  0.65203  0.84333  1.0000
  O  Te8       1.0  0.71195  0.57640  0.81915  1.0000
  H   H20       1.0  0.49900  0.30812  0.66597  1.0000
  Mg  Mg4       1.0  0.71995  0.69659  0.87792  1.0000
  C   C41       1.0  0.10056  0.09318  0.76787  1.0000
  C   C42       1.0  0.58523  0.14820  0.73764  1.0000
  C  Sn9       1.0  0.50377  0.12038  0.71441  1.0000
  C  Sn10      1.0  0.93664  0.03589  0.72171  1.0000
  C   C43       1.0  0.95825  0.98136  0.75217  1.0000
  C   C44       1.0  0.03996  0.00985  0.77516  1.0000
  H   H21       1.0  0.16376  0.11523  0.78577  1.0000
  O  Te9       1.0  0.48387  0.17617  0.68426  1.0000
  O  Te10      1.0  0.85474  0.00645  0.69902  1.0000
  H   H22       1.0  0.05618  0.96726  0.79870  1.0000
  Mg  Mg5       1.0  0.36377  0.10640  0.66129  1.0000
  C   C45       1.0  0.90024  0.36659  0.77321  1.0000
  C   C46       1.0  0.84711  0.40102  0.77548  1.0000
  C  Sn11      1.0  0.88210  0.48401  0.75691  1.0000
  C  Sn12      1.0  0.97199  0.53328  0.73563  1.0000
  C   C47       1.0  0.02460  0.49822  0.73339  1.0000
  C   C48       1.0  0.98890  0.41512  0.75215  1.0000
  H   H23       1.0  0.87264  0.30228  0.78762  1.0000
  O  Te11      1.0  0.82809  0.51744  0.75955  1.0000
  O  Te12      1.0  0.00866  0.61637  0.71671  1.0000
  H   H24       1.0  0.03007  0.38846  0.75026  1.0000
  Mg  Mg6       1.0  0.90843  0.63374  0.72884  1.0000
