data_image0
_chemical_formula_structural       C3N3H6N3C9O3C3N3H6N3C9O3SnCSn2CSnTe4Mg2SnCSn2CSnTe4Mg2SnCSn2CSnTe4Mg2SnCSn2CSnTe4Mg2SnCSn2CSnTe4Mg2SnCSn2CSnTe4Mg2
_chemical_formula_sum              "C36 N12 H12 O6 Sn24 Te24 Mg12"
_cell_length_a       18.4355
_cell_length_b       18.4967
_cell_length_c       8.01907
_cell_angle_alpha    118.653
_cell_angle_beta     63.4015
_cell_angle_gamma    119.518

_symmetry_space_group_name_H-M    'P1'
_space_group_IT_number       1

loop_
  _space_group_symop_operation_xyz
  'x, y, z'

loop_
  _atom_site_type_symbol
  _atom_site_label
  _atom_site_symmetry_multiplicity
  _atom_site_fract_x
  _atom_site_fract_y
  _atom_site_fract_z
  _atom_site_occupancy
  C   C1        1.0  0.39228  0.55550  0.26724  1.0000
  C   C2        1.0  0.44707  0.83745  0.24280  1.0000
  C   C3        1.0  0.15985  0.60462  0.24314  1.0000
  N   N1        1.0  0.47289  0.57866  0.26995  1.0000
  N   N2        1.0  0.42400  0.89464  0.23733  1.0000
  N   N3        1.0  0.10263  0.52445  0.24869  1.0000
  H   H1        1.0  0.34536  0.49102  0.27400  1.0000
  H   H2        1.0  0.51311  0.85704  0.24423  1.0000
  H   H3        1.0  0.14047  0.64916  0.23371  1.0000
  H   H4        1.0  0.51024  0.64301  0.26715  1.0000
  H   H5        1.0  0.35894  0.86620  0.23341  1.0000
  H   H6        1.0  0.13137  0.48879  0.25410  1.0000
  N   N4        1.0  0.58200  0.29038  0.23873  1.0000
  N   N5        1.0  0.70381  0.28358  0.25764  1.0000
  N   N6        1.0  0.71322  0.41536  0.25033  1.0000
  C   C4        1.0  0.63012  0.37430  0.24339  1.0000
  C   C5        1.0  0.62133  0.24809  0.24832  1.0000
  C   C6        1.0  0.74743  0.36730  0.25647  1.0000
  C   C7        1.0  0.42367  0.69838  0.25283  1.0000
  C   C8        1.0  0.30080  0.72339  0.24491  1.0000
  C   C9        1.0  0.27433  0.57702  0.25905  1.0000
  C   C10       1.0  0.36423  0.61111  0.26131  1.0000
  C   C11       1.0  0.38999  0.75370  0.24707  1.0000
  C   C12       1.0  0.24422  0.63398  0.24932  1.0000
  O   O1        1.0  0.50279  0.72625  0.24971  1.0000
  O   O2        1.0  0.27299  0.77232  0.23793  1.0000
  O   O3        1.0  0.22461  0.49962  0.26421  1.0000
  C   C13       1.0  0.39345  0.55857  0.76777  1.0000
  C   C14       1.0  0.44754  0.84218  0.74590  1.0000
  C   C15       1.0  0.16038  0.60886  0.74776  1.0000
  N   N7        1.0  0.47419  0.58162  0.76912  1.0000
  N   N8        1.0  0.42519  0.89855  0.73577  1.0000
  N   N9        1.0  0.10317  0.52866  0.75390  1.0000
  H   H7        1.0  0.34651  0.49318  0.77124  1.0000
  H   H8        1.0  0.51277  0.86236  0.75253  1.0000
  H   H9        1.0  0.14077  0.65297  0.73695  1.0000
  H   H10       1.0  0.51142  0.64689  0.76957  1.0000
  H   H11       1.0  0.36091  0.86928  0.72766  1.0000
  H   H12       1.0  0.13155  0.49336  0.76216  1.0000
  N   N10       1.0  0.58368  0.29502  0.74086  1.0000
  N   N11       1.0  0.70572  0.28687  0.75635  1.0000
  N   N12       1.0  0.71483  0.42009  0.75560  1.0000
  C   C16       1.0  0.63188  0.37922  0.74690  1.0000
  C   C17       1.0  0.62302  0.25197  0.74779  1.0000
  C   C18       1.0  0.74885  0.37110  0.75917  1.0000
  C   C19       1.0  0.42472  0.70308  0.75589  1.0000
  C   C20       1.0  0.30172  0.72685  0.74510  1.0000
  C   C21       1.0  0.27502  0.58167  0.76489  1.0000
  C   C22       1.0  0.36539  0.61515  0.76428  1.0000
  C   C23       1.0  0.39069  0.75824  0.74968  1.0000
  C   C24       1.0  0.24486  0.63824  0.75338  1.0000
  O   O4        1.0  0.50334  0.73105  0.75316  1.0000
  O   O5        1.0  0.27410  0.77448  0.73346  1.0000
  O   O6        1.0  0.22511  0.50507  0.77427  1.0000
  C  Sn1       1.0  0.61670  0.55725  0.23018  1.0000
  C   C25       1.0  0.53366  0.52875  0.21424  1.0000
  C  Sn2       1.0  0.47276  0.44673  0.22904  1.0000
  C  Sn3       1.0  0.49529  0.39207  0.26056  1.0000
  C   C26       1.0  0.57828  0.42058  0.27652  1.0000
  C  Sn4       1.0  0.63924  0.50259  0.26170  1.0000
  O  Te1       1.0  0.67655  0.63950  0.21492  1.0000
  O  Te2       1.0  0.39016  0.41965  0.21255  1.0000
  O  Te3       1.0  0.43536  0.30977  0.27581  1.0000
  O  Te4       1.0  0.72178  0.52968  0.27820  1.0000
  Mg  Mg1       1.0  0.33115  0.30207  0.24357  1.0000
  Mg  Mg2       1.0  0.78082  0.64726  0.24731  1.0000
  C  Sn5       1.0  0.56577  0.04906  0.31701  1.0000
  C   C27       1.0  0.97651  0.99695  0.29478  1.0000
  C  Sn6       1.0  0.93749  0.02233  0.22753  1.0000
  C  Sn7       1.0  0.48865  0.10140  0.18142  1.0000
  C   C28       1.0  0.57219  0.15345  0.20363  1.0000
  C  Sn8       1.0  0.61126  0.12813  0.27090  1.0000
  O  Te5       1.0  0.09785  0.02241  0.38446  1.0000
  O  Te6       1.0  0.85385  0.96917  0.20655  1.0000
  O  Te7       1.0  0.45083  0.12802  0.11394  1.0000
  O  Te8       1.0  0.69485  0.18124  0.29185  1.0000
  Mg  Mg3       1.0  0.33567  0.03341  0.10949  1.0000
  Mg  Mg4       1.0  0.71878  0.11703  0.38880  1.0000
  C  Sn9       1.0  0.95112  0.54119  0.29586  1.0000
  C   C29       1.0  0.00158  0.50679  0.30413  1.0000
  C  Sn10      1.0  0.97227  0.41705  0.27340  1.0000
  C  Sn11      1.0  0.89086  0.36048  0.23343  1.0000
  C   C30       1.0  0.84047  0.39487  0.22514  1.0000
  C  Sn12      1.0  0.86972  0.48462  0.25590  1.0000
  O  Te9       1.0  0.98171  0.63111  0.32705  1.0000
  O  Te10      1.0  0.02385  0.38420  0.28247  1.0000
  O  Te11      1.0  0.86031  0.27049  0.20224  1.0000
  O  Te12      1.0  0.81820  0.51747  0.24681  1.0000
  Mg  Mg5       1.0  0.95409  0.25698  0.22959  1.0000
  Mg  Mg6       1.0  0.88790  0.64465  0.29956  1.0000
  C  Sn13      1.0  0.50584  0.39039  0.65881  1.0000
  C   C31       1.0  0.58569  0.42100  0.69291  1.0000
  C  Sn14      1.0  0.62692  0.51085  0.78156  1.0000
  C  Sn15      1.0  0.58749  0.57138  0.83741  1.0000
  C   C32       1.0  0.50769  0.54076  0.80333  1.0000
  C  Sn16      1.0  0.46642  0.45091  0.71466  1.0000
  O  Te13      1.0  0.46579  0.30028  0.56999  1.0000
  O  Te14      1.0  0.70674  0.53989  0.81408  1.0000
  O  Te15      1.0  0.62762  0.66155  0.92628  1.0000
  O  Te16      1.0  0.38664  0.42187  0.68217  1.0000
  Mg  Mg7       1.0  0.73581  0.66899  0.93979  1.0000
  Mg  Mg8       1.0  0.35749  0.29279  0.55657  1.0000
  C  Sn17      1.0  0.10694  0.08536  0.70154  1.0000
  C   C33       1.0  0.58669  0.14222  0.69143  1.0000
  C  Sn18      1.0  0.49910  0.12255  0.72219  1.0000
  C  Sn19      1.0  0.93042  0.04445  0.76407  1.0000
  C   C34       1.0  0.95634  0.98764  0.77420  1.0000
  C  Sn20      1.0  0.04393  0.00725  0.74342  1.0000
  O  Te17      1.0  0.70053  0.10634  0.67029  1.0000
  O  Te18      1.0  0.47476  0.18040  0.71125  1.0000
  O  Te19      1.0  0.84244  0.02350  0.79531  1.0000
  O  Te20      1.0  0.06828  0.94946  0.75437  1.0000
  Mg  Mg9       1.0  0.34710  0.12306  0.76502  1.0000
  Mg  Mg10      1.0  0.19591  0.00676  0.70073  1.0000
  C  Sn21      1.0  0.91470  0.49959  0.68392  1.0000
  C   C35       1.0  0.85611  0.41837  0.70800  1.0000
  C  Sn22      1.0  0.87602  0.37534  0.77613  1.0000
  C  Sn23      1.0  0.95614  0.41432  0.82127  1.0000
  C   C36       1.0  0.01467  0.49549  0.79722  1.0000
  C  Sn24      1.0  0.99482  0.53856  0.72906  1.0000
  O  Te21      1.0  0.89344  0.54143  0.61562  1.0000
  O  Te22      1.0  0.81642  0.29418  0.79895  1.0000
  O  Te23      1.0  0.97736  0.37239  0.88961  1.0000
  O  Te24      1.0  0.05436  0.61968  0.70627  1.0000
  Mg  Mg11      1.0  0.87494  0.26286  0.89658  1.0000
  Mg  Mg12      1.0  0.99589  0.65108  0.60876  1.0000
