data_image0
_chemical_formula_structural       C3N3C3H5C3H5N3C9O3C3N3C6H7C6H7N3C9O3SnCSn2CSnTe4Mg2SnCSn2CSnTe4Mg2SnCSn2CSnTe4Mg2
_chemical_formula_sum              "C48 N12 H24 O6 Sn12 Te12 Mg6"
_cell_length_a       18.4355
_cell_length_b       18.4967
_cell_length_c       8.01907
_cell_angle_alpha    118.653
_cell_angle_beta     63.4015
_cell_angle_gamma    119.518

_symmetry_space_group_name_H-M    'P1'
_space_group_IT_number       1

loop_
  _space_group_symop_operation_xyz
  'x, y, z'

loop_
  _atom_site_type_symbol
  _atom_site_label
  _atom_site_symmetry_multiplicity
  _atom_site_fract_x
  _atom_site_fract_y
  _atom_site_fract_z
  _atom_site_occupancy
  C   C1        1.0  0.39228  0.55550  0.26724  1.0000
  C   C2        1.0  0.44707  0.83745  0.24280  1.0000
  C   C3        1.0  0.15985  0.60462  0.24314  1.0000
  N   N1        1.0  0.47289  0.57866  0.26995  1.0000
  N   N2        1.0  0.42400  0.89464  0.23733  1.0000
  N   N3        1.0  0.10263  0.52445  0.24869  1.0000
  C   C4        1.0  0.50900  0.52625  0.26304  1.0000
  C   C5        1.0  0.59267  0.56689  0.28901  1.0000
  C   C6        1.0  0.63212  0.51669  0.27840  1.0000
  H   H1        1.0  0.34536  0.49102  0.27400  1.0000
  H   H2        1.0  0.51311  0.85704  0.24423  1.0000
  H   H3        1.0  0.14047  0.64916  0.23371  1.0000
  H   H4        1.0  0.62516  0.63768  0.31922  1.0000
  H   H5        1.0  0.69675  0.54656  0.29849  1.0000
  C   C7        1.0  0.58874  0.42561  0.24516  1.0000
  C   C8        1.0  0.50525  0.38565  0.21882  1.0000
  C   C9        1.0  0.46568  0.43512  0.22689  1.0000
  H   H6        1.0  0.47295  0.31484  0.18920  1.0000
  H   H7        1.0  0.40252  0.40267  0.19954  1.0000
  H   H8        1.0  0.51024  0.64301  0.26715  1.0000
  H   H9        1.0  0.35894  0.86620  0.23341  1.0000
  H   H10       1.0  0.13137  0.48879  0.25410  1.0000
  N   N4        1.0  0.58200  0.29038  0.23873  1.0000
  N   N5        1.0  0.70381  0.28358  0.25764  1.0000
  N   N6        1.0  0.71322  0.41536  0.25033  1.0000
  C   C10       1.0  0.63012  0.37430  0.24339  1.0000
  C   C11       1.0  0.62133  0.24809  0.24832  1.0000
  C   C12       1.0  0.74743  0.36730  0.25647  1.0000
  C   C13       1.0  0.42367  0.69838  0.25283  1.0000
  C   C14       1.0  0.30080  0.72339  0.24491  1.0000
  C   C15       1.0  0.27433  0.57702  0.25905  1.0000
  C   C16       1.0  0.36423  0.61111  0.26131  1.0000
  C   C17       1.0  0.38999  0.75370  0.24707  1.0000
  C   C18       1.0  0.24422  0.63398  0.24932  1.0000
  O   O1        1.0  0.50279  0.72625  0.24971  1.0000
  O   O2        1.0  0.27299  0.77232  0.23793  1.0000
  O   O3        1.0  0.22461  0.49962  0.26421  1.0000
  C   C19       1.0  0.39345  0.55857  0.76777  1.0000
  C   C20       1.0  0.44754  0.84218  0.74590  1.0000
  C   C21       1.0  0.16038  0.60886  0.74776  1.0000
  N   N7        1.0  0.47419  0.58162  0.76912  1.0000
  N   N8        1.0  0.42519  0.89855  0.73577  1.0000
  N   N9        1.0  0.10317  0.52866  0.75390  1.0000
  C   C22       1.0  0.51044  0.52934  0.76273  1.0000
  C   C23       1.0  0.47630  0.98493  0.73719  1.0000
  C   C24       1.0  0.59373  0.57059  0.79053  1.0000
  C   C25       1.0  0.43976  0.03235  0.72294  1.0000
  C   C26       1.0  0.63379  0.52165  0.78190  1.0000
  C   C27       1.0  0.48728  0.11907  0.72755  1.0000
  H   H11       1.0  0.34651  0.49318  0.77124  1.0000
  H   H12       1.0  0.51277  0.86236  0.75253  1.0000
  H   H13       1.0  0.14077  0.65297  0.73695  1.0000
  H   H14       1.0  0.62555  0.64126  0.82047  1.0000
  H   H15       1.0  0.37449  0.00011  0.70548  1.0000
  H   H16       1.0  0.69786  0.55258  0.80439  1.0000
  H   H17       1.0  0.46039  0.15586  0.71253  1.0000
  C   C28       1.0  0.59099  0.43060  0.74811  1.0000
  C   C29       1.0  0.57220  0.16052  0.74625  1.0000
  C   C30       1.0  0.50793  0.38977  0.71945  1.0000
  C   C31       1.0  0.60824  0.11261  0.76023  1.0000
  C   C32       1.0  0.46768  0.43800  0.72579  1.0000
  C   C33       1.0  0.56126  0.02601  0.75601  1.0000
  H   H18       1.0  0.47646  0.31908  0.68920  1.0000
  H   H19       1.0  0.67350  0.14555  0.77789  1.0000
  H   H20       1.0  0.40467  0.40480  0.69652  1.0000
  H   H21       1.0  0.58981  0.99140  0.77315  1.0000
  H   H22       1.0  0.51142  0.64689  0.76957  1.0000
  H   H23       1.0  0.36091  0.86928  0.72766  1.0000
  H   H24       1.0  0.13155  0.49336  0.76216  1.0000
  N   N10       1.0  0.58368  0.29502  0.74086  1.0000
  N   N11       1.0  0.70572  0.28687  0.75635  1.0000
  N   N12       1.0  0.71483  0.42009  0.75560  1.0000
  C   C34       1.0  0.63188  0.37922  0.74690  1.0000
  C   C35       1.0  0.62302  0.25197  0.74779  1.0000
  C   C36       1.0  0.74885  0.37110  0.75917  1.0000
  C   C37       1.0  0.42472  0.70308  0.75589  1.0000
  C   C38       1.0  0.30172  0.72685  0.74510  1.0000
  C   C39       1.0  0.27502  0.58167  0.76489  1.0000
  C   C40       1.0  0.36539  0.61515  0.76428  1.0000
  C   C41       1.0  0.39069  0.75824  0.74968  1.0000
  C   C42       1.0  0.24486  0.63824  0.75338  1.0000
  O   O4        1.0  0.50334  0.73105  0.75316  1.0000
  O   O5        1.0  0.27410  0.77448  0.73346  1.0000
  O   O6        1.0  0.22511  0.50507  0.77427  1.0000
  C  Sn1       1.0  0.56577  0.04906  0.31701  1.0000
  C   C43       1.0  0.97651  0.99695  0.29478  1.0000
  C  Sn2       1.0  0.93749  0.02233  0.22753  1.0000
  C  Sn3       1.0  0.48865  0.10140  0.18142  1.0000
  C   C44       1.0  0.57219  0.15345  0.20363  1.0000
  C  Sn4       1.0  0.61126  0.12813  0.27090  1.0000
  O  Te1       1.0  0.09785  0.02241  0.38446  1.0000
  O  Te2       1.0  0.85385  0.96917  0.20655  1.0000
  O  Te3       1.0  0.45083  0.12802  0.11394  1.0000
  O  Te4       1.0  0.69485  0.18124  0.29185  1.0000
  Mg  Mg1       1.0  0.33567  0.03341  0.10949  1.0000
  Mg  Mg2       1.0  0.71878  0.11703  0.38880  1.0000
  C  Sn5       1.0  0.91385  0.49573  0.18028  1.0000
  C   C45       1.0  0.85485  0.41487  0.20577  1.0000
  C  Sn6       1.0  0.87432  0.37204  0.27536  1.0000
  C  Sn7       1.0  0.95441  0.41086  0.32053  1.0000
  C   C46       1.0  0.01336  0.49168  0.29506  1.0000
  C  Sn8       1.0  0.99395  0.53456  0.22544  1.0000
  O  Te5       1.0  0.89303  0.53738  0.11054  1.0000
  O  Te6       1.0  0.81432  0.29123  0.29959  1.0000
  O  Te7       1.0  0.97520  0.36914  0.39031  1.0000
  O  Te8       1.0  0.05389  0.61532  0.20125  1.0000
  Mg  Mg3       1.0  0.87233  0.26007  0.39888  1.0000
  Mg  Mg4       1.0  0.99594  0.64656  0.10207  1.0000
  C  Sn9       1.0  0.91470  0.49959  0.68392  1.0000
  C   C47       1.0  0.85611  0.41837  0.70800  1.0000
  C  Sn10      1.0  0.87602  0.37534  0.77613  1.0000
  C  Sn11      1.0  0.95614  0.41432  0.82127  1.0000
  C   C48       1.0  0.01467  0.49549  0.79722  1.0000
  C  Sn12      1.0  0.99482  0.53856  0.72906  1.0000
  O  Te9       1.0  0.89344  0.54143  0.61562  1.0000
  O  Te10      1.0  0.81642  0.29418  0.79895  1.0000
  O  Te11      1.0  0.97736  0.37239  0.88961  1.0000
  O  Te12      1.0  0.05436  0.61968  0.70627  1.0000
  Mg  Mg5       1.0  0.87494  0.26286  0.89658  1.0000
  Mg  Mg6       1.0  0.99589  0.65108  0.60876  1.0000
