data_image0
_chemical_formula_structural       HC3NCH2C3NCH2C3NCH2C3NCH2C3NCH2C3NCH2C3NCH2C3NCHC4HC2HC2HC2HC2Sn2C2HTe2HMgC2Sn2C2HTe2HMgC2Sn2C2HTe2HMgC2Sn2C2HTe2HMgC2Sn2C2HTe2HMgC2Sn2C2HTe2HMgC2Sn2C2HTe2HMgC2Sn2C2HTe2HMgC2Sn2C2HTe2HMgC2Sn2C2HTe2HMgC2Sn2C2HTe2HMgC2Sn2C2HTe2HMgC2Sn2C2HTe2HMgC2Sn2C2HTe2HMgC2Sn2C2HTe2HMgC2Sn2C2HTe2HMg
_chemical_formula_sum              "H52 C106 N8 Sn32 Te32 Mg16"
_cell_length_a       23.8689
_cell_length_b       24.9814
_cell_length_c       35.2246
_cell_angle_alpha    89.6507
_cell_angle_beta     89.4903
_cell_angle_gamma    88.568

_symmetry_space_group_name_H-M    'P1'
_space_group_IT_number       1

loop_
  _space_group_symop_operation_xyz
  'x, y, z'

loop_
  _atom_site_type_symbol
  _atom_site_label
  _atom_site_symmetry_multiplicity
  _atom_site_fract_x
  _atom_site_fract_y
  _atom_site_fract_z
  _atom_site_occupancy
  H   H1        1.0  0.96998  0.25367  0.68726  1.0000
  C   C1        1.0  0.99498  0.05753  0.46664  1.0000
  C   C2        1.0  0.99523  0.11433  0.46749  1.0000
  C   C3        1.0  0.01756  0.27257  0.34918  1.0000
  N   N1        1.0  0.98491  0.31463  0.34929  1.0000
  C   C4        1.0  0.01069  0.02502  0.57117  1.0000
  H   H2        1.0  0.01905  0.94784  0.59682  1.0000
  H   H3        1.0  0.95409  0.73555  0.67496  1.0000
  C   C5        1.0  0.99728  0.94303  0.46574  1.0000
  C   C6        1.0  0.00194  0.88629  0.46568  1.0000
  C   C7        1.0  0.97659  0.73161  0.34719  1.0000
  N   N2        1.0  0.01446  0.69432  0.34273  1.0000
  C   C8        1.0  0.01194  0.97029  0.57071  1.0000
  H   H4        1.0  0.01714  0.04601  0.59763  1.0000
  H   H5        1.0  0.05439  0.26823  0.33028  1.0000
  C   C9        1.0  0.00247  0.05578  0.53723  1.0000
  C   C10       1.0  0.99989  0.11262  0.53736  1.0000
  C   C11       1.0  0.99149  0.26301  0.66034  1.0000
  N   N3        1.0  0.00750  0.31054  0.65174  1.0000
  C   C12       1.0  0.98975  0.02853  0.43204  1.0000
  H   H6        1.0  0.98731  0.95262  0.40484  1.0000
  H   H7        1.0  0.93550  0.73078  0.33329  1.0000
  C   C13       1.0  0.00607  0.94135  0.53615  1.0000
  C   C14       1.0  0.00891  0.88459  0.53525  1.0000
  C   C15       1.0  0.99190  0.73152  0.65699  1.0000
  N   N4        1.0  0.02608  0.69065  0.65840  1.0000
  C   C16       1.0  0.99085  0.97374  0.43157  1.0000
  H   H8        1.0  0.98447  0.05102  0.40573  1.0000
  H   H9        1.0  0.75540  0.44594  0.18717  1.0000
  C   C17       1.0  0.55095  0.48976  0.95681  1.0000
  C   C18       1.0  0.60057  0.47732  0.97800  1.0000
  C   C19       1.0  0.74996  0.47005  0.82358  1.0000
  N   N5        1.0  0.79616  0.49018  0.83490  1.0000
  C   C20       1.0  0.55102  0.49509  0.07867  1.0000
  H   H10       1.0  0.63853  0.46531  0.96270  1.0000
  H   H11       1.0  0.24162  0.55569  0.18729  1.0000
  C   C21       1.0  0.44810  0.50881  0.95744  1.0000
  C   C22       1.0  0.39887  0.52304  0.97893  1.0000
  C   C23       1.0  0.24765  0.52151  0.82652  1.0000
  N   N6        1.0  0.19955  0.50732  0.83953  1.0000
  C   C24       1.0  0.44870  0.50838  0.07900  1.0000
  H   H12       1.0  0.36077  0.53400  0.96380  1.0000
  H   H13       1.0  0.25237  0.53775  0.79759  1.0000
  C   C25       1.0  0.44854  0.51027  0.03869  1.0000
  C   C26       1.0  0.39896  0.52349  0.01774  1.0000
  C   C27       1.0  0.24393  0.52243  0.16694  1.0000
  N   N7        1.0  0.20344  0.48954  0.16276  1.0000
  C   C28       1.0  0.44792  0.50515  0.91713  1.0000
  H   H14       1.0  0.36094  0.53466  0.03328  1.0000
  H   H15       1.0  0.74757  0.44693  0.79716  1.0000
  C   C29       1.0  0.55140  0.49265  0.03830  1.0000
  C   C30       1.0  0.60084  0.47897  0.01684  1.0000
  C   C31       1.0  0.75360  0.48000  0.16720  1.0000
  N   N8        1.0  0.79448  0.51262  0.16318  1.0000
  C   C32       1.0  0.55010  0.48981  0.91639  1.0000
  H   H16       1.0  0.63902  0.46859  0.03211  1.0000
  C   C33       1.0  0.00121  0.49733  0.74724  1.0000
  C   C34       1.0  0.99816  0.50237  0.25250  1.0000
  C   C35       1.0  0.49993  0.50109  0.01815  1.0000
  C   C36       1.0  0.49881  0.49647  0.89783  1.0000
  H   H17       1.0  0.49849  0.49479  0.86696  1.0000
  C   C37       1.0  0.49971  0.49999  0.97741  1.0000
  C   C38       1.0  0.49971  0.50164  0.09791  1.0000
  H   H18       1.0  0.49952  0.50139  0.12882  1.0000
  C   C39       1.0  0.00067  0.97077  0.50119  1.0000
  C   C40       1.0  0.00893  0.85879  0.50011  1.0000
  H   H19       1.0  0.01092  0.81525  0.49962  1.0000
  C   C41       1.0  0.99907  0.02814  0.50172  1.0000
  C   C42       1.0  0.99659  0.14000  0.50262  1.0000
  H   H20       1.0  0.99557  0.18354  0.50290  1.0000
  C   C43       1.0  0.04980  0.17091  0.38189  1.0000
  C   C44       1.0  0.01545  0.21561  0.37390  1.0000
  C  Sn1       1.0  0.97006  0.22876  0.39767  1.0000
  C  Sn2       1.0  0.95897  0.19649  0.43003  1.0000
  C   C45       1.0  0.99361  0.15187  0.43779  1.0000
  C   C46       1.0  0.03890  0.13907  0.41381  1.0000
  H   H21       1.0  0.08486  0.16101  0.36335  1.0000
  O  Te1       1.0  0.93615  0.27354  0.38926  1.0000
  O  Te2       1.0  0.91390  0.20872  0.45427  1.0000
  H   H22       1.0  0.06551  0.10448  0.42002  1.0000
  Mg  Mg1       1.0  0.87973  0.27382  0.43084  1.0000
  C   C47       1.0  0.03253  0.39027  0.27036  1.0000
  C   C48       1.0  0.00458  0.43971  0.27470  1.0000
  C  Sn3       1.0  0.97052  0.44939  0.30650  1.0000
  C  Sn4       1.0  0.96443  0.40875  0.33444  1.0000
  C   C49       1.0  0.99260  0.35944  0.32985  1.0000
  C   C50       1.0  0.02656  0.35018  0.29791  1.0000
  H   H23       1.0  0.05884  0.38311  0.24565  1.0000
  O  Te3       1.0  0.94288  0.49900  0.31039  1.0000
  O  Te4       1.0  0.93066  0.41736  0.36652  1.0000
  H   H24       1.0  0.04823  0.31191  0.29457  1.0000
  Mg  Mg2       1.0  0.90155  0.49156  0.35907  1.0000
  C   C51       1.0  0.04482  0.78395  0.40150  1.0000
  C   C52       1.0  0.99783  0.77394  0.37949  1.0000
  C  Sn5       1.0  0.94997  0.80707  0.38232  1.0000
  C  Sn6       1.0  0.94925  0.85101  0.40766  1.0000
  C   C53       1.0  0.99648  0.86071  0.42954  1.0000
  C   C54       1.0  0.04415  0.82729  0.42650  1.0000
  H   H25       1.0  0.08171  0.75812  0.39914  1.0000
  O  Te5       1.0  0.90338  0.79649  0.36013  1.0000
  O  Te6       1.0  0.90197  0.88477  0.41104  1.0000
  H   H26       1.0  0.08053  0.83508  0.44352  1.0000
  Mg  Mg3       1.0  0.84885  0.85391  0.37480  1.0000
  C   C55       1.0  0.97011  0.64241  0.27722  1.0000
  C   C56       1.0  0.99568  0.65044  0.31219  1.0000
  C  Sn7       1.0  0.02538  0.60853  0.32993  1.0000
  C  Sn8       1.0  0.02949  0.55768  0.31226  1.0000
  C   C57       1.0  0.00379  0.55006  0.27726  1.0000
  C   C58       1.0  0.97416  0.59227  0.25976  1.0000
  H   H27       1.0  0.94720  0.67507  0.26367  1.0000
  O  Te7       1.0  0.05066  0.61724  0.36487  1.0000
  O  Te8       1.0  0.05894  0.51511  0.32935  1.0000
  H   H28       1.0  0.95439  0.58605  0.23267  1.0000
  Mg  Mg4       1.0  0.08617  0.54675  0.37696  1.0000
  C   C59       1.0  0.04171  0.22274  0.59198  1.0000
  C   C60       1.0  0.00634  0.22447  0.62381  1.0000
  C  Sn9       1.0  0.96942  0.18299  0.63094  1.0000
  C  Sn10      1.0  0.96799  0.13901  0.60569  1.0000
  C   C61       1.0  0.00357  0.13764  0.57395  1.0000
  C   C62       1.0  0.04034  0.17937  0.56708  1.0000
  H   H29       1.0  0.07019  0.25502  0.58668  1.0000
  O  Te9       1.0  0.93436  0.18536  0.66285  1.0000
  O  Te10      1.0  0.93151  0.09701  0.61215  1.0000
  H   H30       1.0  0.06775  0.17800  0.54245  1.0000
  Mg  Mg5       1.0  0.89190  0.11846  0.65950  1.0000
  C   C63       1.0  0.01817  0.35680  0.72500  1.0000
  C   C64       1.0  0.00218  0.35069  0.68724  1.0000
  C  Sn11      1.0  0.98590  0.39534  0.66555  1.0000
  C  Sn12      1.0  0.98568  0.44702  0.68206  1.0000
  C   C65       1.0  0.00178  0.45271  0.71985  1.0000
  C   C66       1.0  0.01798  0.40776  0.74130  1.0000
  H   H31       1.0  0.03073  0.32202  0.74159  1.0000
  O  Te11      1.0  0.97003  0.38852  0.62787  1.0000
  O  Te12      1.0  0.96961  0.49233  0.66102  1.0000
  H   H32       1.0  0.03040  0.41250  0.77053  1.0000
  Mg  Mg6       1.0  0.95150  0.46250  0.61078  1.0000
  C   C67       1.0  0.05538  0.79646  0.57872  1.0000
  C   C68       1.0  0.01854  0.83859  0.56900  1.0000
  C  Sn13      1.0  0.97160  0.85026  0.59172  1.0000
  C  Sn14      1.0  0.96146  0.81912  0.62478  1.0000
  C   C69       1.0  0.99859  0.77708  0.63428  1.0000
  C   C70       1.0  0.04543  0.76574  0.61133  1.0000
  H   H33       1.0  0.09164  0.78770  0.56098  1.0000
  O  Te13      1.0  0.93520  0.89249  0.58159  1.0000
  O  Te14      1.0  0.91487  0.82993  0.64801  1.0000
  H   H34       1.0  0.07397  0.73314  0.61888  1.0000
  Mg  Mg7       1.0  0.87745  0.89160  0.62230  1.0000
  C   C71       1.0  0.05593  0.58688  0.67639  1.0000
  C   C72       1.0  0.02466  0.63480  0.67883  1.0000
  C  Sn15      1.0  0.98335  0.64135  0.70688  1.0000
  C  Sn16      1.0  0.97325  0.59907  0.73294  1.0000
  C   C73       1.0  0.00479  0.55130  0.73028  1.0000
  C   C74       1.0  0.04602  0.54517  0.70210  1.0000
  H   H35       1.0  0.08786  0.58215  0.65460  1.0000
  O  Te15      1.0  0.95248  0.68948  0.70890  1.0000
  O  Te16      1.0  0.93223  0.60455  0.76126  1.0000
  H   H36       1.0  0.07025  0.50807  0.70023  1.0000
  Mg  Mg8       1.0  0.90111  0.67775  0.75247  1.0000
  C   C75       1.0  0.68808  0.51916  0.88470  1.0000
  C   C76       1.0  0.70057  0.48280  0.85566  1.0000
  C  Sn17      1.0  0.66014  0.44736  0.84354  1.0000
  C  Sn18      1.0  0.60623  0.44845  0.86087  1.0000
  C   C77       1.0  0.59414  0.48501  0.88988  1.0000
  C   C78       1.0  0.63491  0.52028  0.90179  1.0000
  H   H37       1.0  0.71961  0.54648  0.89391  1.0000
  O  Te17      1.0  0.67333  0.41127  0.81450  1.0000
  O  Te18      1.0  0.56503  0.41349  0.84930  1.0000
  H   H38       1.0  0.62521  0.54845  0.92426  1.0000
  Mg  Mg9       1.0  0.60312  0.37163  0.80862  1.0000
  C   C79       1.0  0.87946  0.50542  0.75328  1.0000
  C   C80       1.0  0.93439  0.49814  0.76609  1.0000
  C  Sn19      1.0  0.94451  0.48284  0.80367  1.0000
  C  Sn20      1.0  0.89872  0.47469  0.82883  1.0000
  C   C81       1.0  0.84392  0.48204  0.81573  1.0000
  C   C82       1.0  0.83427  0.49737  0.77807  1.0000
  H   H39       1.0  0.87198  0.51725  0.72414  1.0000
  O  Te19      1.0  0.99965  0.47577  0.81601  1.0000
  O  Te20      1.0  0.90764  0.45937  0.86653  1.0000
  H   H40       1.0  0.79174  0.50296  0.76815  1.0000
  Mg  Mg10      1.0  0.99038  0.45474  0.86996  1.0000
  C   C83       1.0  0.33209  0.47973  0.90398  1.0000
  C   C84       1.0  0.38530  0.49964  0.89655  1.0000
  C  Sn21      1.0  0.39428  0.53261  0.86501  1.0000
  C  Sn22      1.0  0.34908  0.54583  0.84052  1.0000
  C   C85       1.0  0.29599  0.52574  0.84821  1.0000
  C   C86       1.0  0.28747  0.49277  0.87985  1.0000
  H   H41       1.0  0.32548  0.45424  0.92847  1.0000
  O  Te21      1.0  0.44771  0.55214  0.85799  1.0000
  O  Te22      1.0  0.35688  0.57871  0.80880  1.0000
  H   H42       1.0  0.24626  0.47738  0.88561  1.0000
  Mg  Mg11      1.0  0.43741  0.59547  0.81118  1.0000
  C   C87       1.0  0.12011  0.47035  0.76127  1.0000
  C   C88       1.0  0.06604  0.49035  0.76901  1.0000
  C  Sn23      1.0  0.05585  0.52273  0.80065  1.0000
  C  Sn24      1.0  0.10072  0.53527  0.82494  1.0000
  C   C89       1.0  0.15467  0.51510  0.81693  1.0000
  C   C90       1.0  0.16440  0.48272  0.78520  1.0000
  H   H43       1.0  0.12765  0.44532  0.73671  1.0000
  O  Te23      1.0  0.00157  0.54235  0.80798  1.0000
  O  Te24      1.0  0.09172  0.56756  0.85675  1.0000
  H   H44       1.0  0.20628  0.46728  0.77920  1.0000
  Mg  Mg12      1.0  0.01035  0.58471  0.85481  1.0000
  C   C91       1.0  0.35362  0.55879  0.14968  1.0000
  C   C92       1.0  0.30460  0.53006  0.14543  1.0000
  C  Sn25      1.0  0.30249  0.48882  0.11891  1.0000
  C  Sn26      1.0  0.35041  0.47619  0.09626  1.0000
  C   C93       1.0  0.39927  0.50514  0.10075  1.0000
  C   C94       1.0  0.40091  0.54634  0.12737  1.0000
  H   H45       1.0  0.35490  0.59065  0.17028  1.0000
  O  Te25      1.0  0.25317  0.46053  0.11502  1.0000
  O  Te26      1.0  0.34946  0.43515  0.06955  1.0000
  H   H46       1.0  0.43889  0.56855  0.13067  1.0000
  Mg  Mg13      1.0  0.27249  0.40809  0.07473  1.0000
  C   C95       1.0  0.06311  0.47108  0.18375  1.0000
  C   C96       1.0  0.05287  0.49131  0.22013  1.0000
  C  Sn27      1.0  0.09537  0.51631  0.23985  1.0000
  C  Sn28      1.0  0.14909  0.52111  0.22277  1.0000
  C   C97       1.0  0.15890  0.50077  0.18636  1.0000
  C   C98       1.0  0.11607  0.47580  0.16688  1.0000
  H   H47       1.0  0.02997  0.45179  0.16867  1.0000
  O  Te27      1.0  0.08443  0.53629  0.27618  1.0000
  O  Te28      1.0  0.19232  0.54593  0.24184  1.0000
  H   H48       1.0  0.12401  0.46017  0.13871  1.0000
  Mg  Mg14      1.0  0.15690  0.56679  0.29078  1.0000
  C   C99       1.0  0.66206  0.53096  0.09583  1.0000
  C   C100      1.0  0.61529  0.49843  0.09730  1.0000
  C  Sn29      1.0  0.61101  0.45881  0.12527  1.0000
  C  Sn30      1.0  0.65441  0.45173  0.15223  1.0000
  C   C101      1.0  0.70101  0.48450  0.15054  1.0000
  C   C102      1.0  0.70488  0.52401  0.12242  1.0000
  H   H49       1.0  0.66504  0.56155  0.07409  1.0000
  O  Te29      1.0  0.56400  0.42665  0.12632  1.0000
  O  Te30      1.0  0.65119  0.41246  0.18050  1.0000
  H   H50       1.0  0.74108  0.54921  0.12131  1.0000
  Mg  Mg15      1.0  0.57881  0.37858  0.17021  1.0000
  C   C103      1.0  0.85466  0.47199  0.22799  1.0000
  C   C104      1.0  0.84139  0.50204  0.19556  1.0000
  C  Sn31      1.0  0.88261  0.53128  0.17690  1.0000
  C  Sn32      1.0  0.93811  0.53032  0.19104  1.0000
  C   C105      1.0  0.95097  0.50010  0.22348  1.0000
  C   C106      1.0  0.90939  0.47101  0.24194  1.0000
  H   H51       1.0  0.82250  0.44946  0.24227  1.0000
  O  Te31      1.0  0.86863  0.56111  0.14455  1.0000
  O  Te32      1.0  0.98012  0.55916  0.17293  1.0000
  H   H52       1.0  0.91969  0.44772  0.26704  1.0000
  Mg  Mg16      1.0  0.94045  0.59378  0.12981  1.0000
