data_image0
_chemical_formula_structural       H5C6NC9HCH5C6NC4H8C6NCHCH6C3NC9H9C3NCH4C3NC7H5C3NC3HCH2C6NC7HC4HC2HC2HC2HC2Sn2C2HTe2HMgC2Sn2C2HTe2HMgC2Sn2C2HTe2HMgC2Sn2C2HTe2HMgC2Sn2C2HTe2HMgC2Sn2C2HTe2HMgC2Sn2C2HTe2HMgC2Sn2C2HTe2HMg
_chemical_formula_sum              "H68 C122 N8 Sn16 Te16 Mg8"
_cell_length_a       23.8689
_cell_length_b       24.9814
_cell_length_c       35.2246
_cell_angle_alpha    89.6507
_cell_angle_beta     89.4903
_cell_angle_gamma    88.568

_symmetry_space_group_name_H-M    'P1'
_space_group_IT_number       1

loop_
  _space_group_symop_operation_xyz
  'x, y, z'

loop_
  _atom_site_type_symbol
  _atom_site_label
  _atom_site_symmetry_multiplicity
  _atom_site_fract_x
  _atom_site_fract_y
  _atom_site_fract_z
  _atom_site_occupancy
  H   H1        1.0  0.05973  0.26326  0.59997  1.0000
  H   H2        1.0  0.94099  0.10281  0.60532  1.0000
  H   H3        1.0  0.94008  0.16666  0.65877  1.0000
  H   H4        1.0  0.96998  0.25367  0.68726  1.0000
  H   H5        1.0  0.95439  0.67944  0.72124  1.0000
  C   C1        1.0  0.99498  0.05753  0.46664  1.0000
  C   C2        1.0  0.99523  0.11433  0.46749  1.0000
  C   C3        1.0  0.99620  0.14945  0.43343  1.0000
  C   C4        1.0  0.96469  0.23298  0.40342  1.0000
  C   C5        1.0  0.00822  0.22886  0.37620  1.0000
  C   C6        1.0  0.01756  0.27257  0.34918  1.0000
  N   N1        1.0  0.98491  0.31463  0.34929  1.0000
  C   C7        1.0  0.99259  0.35818  0.32467  1.0000
  C   C8        1.0  0.02426  0.35806  0.29073  1.0000
  C   C9        1.0  0.96432  0.40613  0.33499  1.0000
  C   C10       1.0  0.02731  0.40426  0.26837  1.0000
  C   C11       1.0  0.96792  0.45204  0.31268  1.0000
  C   C12       1.0  0.99920  0.45216  0.27864  1.0000
  C   C13       1.0  0.04119  0.81517  0.42292  1.0000
  C   C14       1.0  0.94308  0.81450  0.38064  1.0000
  C   C15       1.0  0.01069  0.02502  0.57117  1.0000
  H   H6        1.0  0.06384  0.19734  0.54720  1.0000
  C   C16       1.0  0.03779  0.14388  0.40506  1.0000
  H   H7        1.0  0.01905  0.94784  0.59682  1.0000
  H   H8        1.0  0.95409  0.73555  0.67496  1.0000
  H   H9        1.0  0.08104  0.60334  0.65122  1.0000
  H   H10       1.0  0.07059  0.51886  0.68784  1.0000
  H   H11       1.0  0.94302  0.59548  0.75681  1.0000
  C   C17       1.0  0.99728  0.94303  0.46574  1.0000
  C   C18       1.0  0.00194  0.88629  0.46568  1.0000
  C   C19       1.0  0.99782  0.85275  0.43127  1.0000
  C   C20       1.0  0.03530  0.77741  0.39463  1.0000
  C   C21       1.0  0.98542  0.77551  0.37365  1.0000
  C   C22       1.0  0.97659  0.73161  0.34719  1.0000
  N   N2        1.0  0.01446  0.69432  0.34273  1.0000
  C   C23       1.0  0.95892  0.19415  0.43140  1.0000
  C   C24       1.0  0.04382  0.18305  0.37696  1.0000
  C   C25       1.0  0.01194  0.97029  0.57071  1.0000
  C   C26       1.0  0.94932  0.85278  0.40892  1.0000
  H   H12       1.0  0.01714  0.04601  0.59763  1.0000
  H   H13       1.0  0.93679  0.26805  0.40229  1.0000
  H   H14       1.0  0.06698  0.10976  0.40621  1.0000
  H   H15       1.0  0.07745  0.17878  0.35599  1.0000
  H   H16       1.0  0.05439  0.26823  0.33028  1.0000
  H   H17       1.0  0.93954  0.40607  0.36105  1.0000
  H   H18       1.0  0.94560  0.48837  0.32159  1.0000
  H   H19       1.0  0.05200  0.40292  0.24231  1.0000
  C   C27       1.0  0.00247  0.05578  0.53723  1.0000
  C   C28       1.0  0.99989  0.11262  0.53736  1.0000
  C   C29       1.0  0.00182  0.14581  0.57193  1.0000
  C   C30       1.0  0.03454  0.22759  0.60086  1.0000
  C   C31       1.0  0.99879  0.22018  0.63237  1.0000
  C   C32       1.0  0.99149  0.26301  0.66034  1.0000
  N   N3        1.0  0.00750  0.31054  0.65174  1.0000
  C   C33       1.0  0.98975  0.02853  0.43204  1.0000
  H   H20       1.0  0.92562  0.19831  0.45255  1.0000
  C   C34       1.0  0.96820  0.13709  0.60432  1.0000
  H   H21       1.0  0.98731  0.95262  0.40484  1.0000
  H   H22       1.0  0.06807  0.74751  0.38870  1.0000
  H   H23       1.0  0.91542  0.88138  0.41512  1.0000
  H   H24       1.0  0.90432  0.81370  0.36458  1.0000
  H   H25       1.0  0.93550  0.73078  0.33329  1.0000
  H   H26       1.0  0.04607  0.32169  0.28124  1.0000
  C   C35       1.0  0.00607  0.94135  0.53615  1.0000
  C   C36       1.0  0.00891  0.88459  0.53525  1.0000
  C   C37       1.0  0.99190  0.73152  0.65699  1.0000
  N   N4        1.0  0.02608  0.69065  0.65840  1.0000
  C   C38       1.0  0.01731  0.64670  0.68241  1.0000
  C   C39       1.0  0.97911  0.64411  0.71303  1.0000
  C   C40       1.0  0.05046  0.60072  0.67419  1.0000
  C   C41       1.0  0.97276  0.59641  0.73328  1.0000
  C   C42       1.0  0.04408  0.55357  0.69462  1.0000
  C   C43       1.0  0.00406  0.54985  0.72397  1.0000
  C   C44       1.0  0.03613  0.19108  0.57143  1.0000
  C   C45       1.0  0.96725  0.17345  0.63430  1.0000
  C   C46       1.0  0.99085  0.97374  0.43157  1.0000
  H   H27       1.0  0.07943  0.81569  0.43947  1.0000
  H   H28       1.0  0.98447  0.05102  0.40573  1.0000
  H   H29       1.0  0.73152  0.54861  0.10899  1.0000
  H   H30       1.0  0.57366  0.42867  0.13834  1.0000
  H   H31       1.0  0.66046  0.42294  0.17647  1.0000
  H   H32       1.0  0.75540  0.44594  0.18717  1.0000
  H   H33       1.0  0.88852  0.55536  0.14623  1.0000
  H   H34       1.0  0.97717  0.55116  0.18250  1.0000
  H   H35       1.0  0.89720  0.45287  0.26668  1.0000
  C   C47       1.0  0.55095  0.48976  0.95681  1.0000
  C   C48       1.0  0.60057  0.47732  0.97800  1.0000
  C   C49       1.0  0.74996  0.47005  0.82358  1.0000
  N   N5        1.0  0.79616  0.49018  0.83490  1.0000
  C   C50       1.0  0.55102  0.49509  0.07867  1.0000
  H   H36       1.0  0.63853  0.46531  0.96270  1.0000
  H   H37       1.0  0.64454  0.55386  0.07024  1.0000
  H   H38       1.0  0.24162  0.55569  0.18729  1.0000
  H   H39       1.0  0.80991  0.45849  0.23172  1.0000
  C   C51       1.0  0.44810  0.50881  0.95744  1.0000
  C   C52       1.0  0.39887  0.52304  0.97893  1.0000
  C   C53       1.0  0.24765  0.52151  0.82652  1.0000
  N   N6        1.0  0.19955  0.50732  0.83953  1.0000
  C   C54       1.0  0.15321  0.50697  0.81539  1.0000
  C   C55       1.0  0.15352  0.47710  0.78170  1.0000
  C   C56       1.0  0.10350  0.53449  0.82619  1.0000
  C   C57       1.0  0.10465  0.47297  0.76050  1.0000
  C   C58       1.0  0.05576  0.53178  0.80399  1.0000
  C   C59       1.0  0.05457  0.49915  0.77160  1.0000
  C   C60       1.0  0.44870  0.50838  0.07900  1.0000
  H   H40       1.0  0.36077  0.53400  0.96380  1.0000
  H   H41       1.0  0.25237  0.53775  0.79759  1.0000
  H   H42       1.0  0.10325  0.55835  0.85190  1.0000
  H   H43       1.0  0.01836  0.55470  0.81235  1.0000
  H   H44       1.0  0.10573  0.44830  0.73517  1.0000
  C   C61       1.0  0.44854  0.51027  0.03869  1.0000
  C   C62       1.0  0.39896  0.52349  0.01774  1.0000
  C   C63       1.0  0.24393  0.52243  0.16694  1.0000
  N   N7        1.0  0.20344  0.48954  0.16276  1.0000
  C   C64       1.0  0.64837  0.52494  0.09334  1.0000
  C   C65       1.0  0.65704  0.45172  0.15318  1.0000
  C   C66       1.0  0.44792  0.50515  0.91713  1.0000
  H   H45       1.0  0.36094  0.53466  0.03328  1.0000
  C   C67       1.0  0.60812  0.45501  0.13186  1.0000
  H   H46       1.0  0.74757  0.44693  0.79716  1.0000
  H   H47       1.0  0.19160  0.45540  0.77313  1.0000
  C   C68       1.0  0.55140  0.49265  0.03830  1.0000
  C   C69       1.0  0.60084  0.47897  0.01684  1.0000
  C   C70       1.0  0.60313  0.49110  0.10118  1.0000
  C   C71       1.0  0.69683  0.52231  0.11490  1.0000
  C   C72       1.0  0.70232  0.48510  0.14497  1.0000
  C   C73       1.0  0.75360  0.48000  0.16720  1.0000
  N   N8        1.0  0.79448  0.51262  0.16318  1.0000
  C   C74       1.0  0.84278  0.50688  0.18560  1.0000
  C   C75       1.0  0.84638  0.47834  0.22011  1.0000
  C   C76       1.0  0.89105  0.53304  0.17280  1.0000
  C   C77       1.0  0.89622  0.47572  0.24037  1.0000
  C   C78       1.0  0.94075  0.53047  0.19339  1.0000
  C   C79       1.0  0.94457  0.50182  0.22787  1.0000
  C   C80       1.0  0.55010  0.48981  0.91639  1.0000
  H   H48       1.0  0.63902  0.46859  0.03211  1.0000
  C   C81       1.0  0.00121  0.49733  0.74724  1.0000
  C   C82       1.0  0.99816  0.50237  0.25250  1.0000
  C   C83       1.0  0.49993  0.50109  0.01815  1.0000
  C   C84       1.0  0.49881  0.49647  0.89783  1.0000
  H   H49       1.0  0.49849  0.49479  0.86696  1.0000
  C   C85       1.0  0.49971  0.49999  0.97741  1.0000
  C   C86       1.0  0.49971  0.50164  0.09791  1.0000
  H   H50       1.0  0.49952  0.50139  0.12882  1.0000
  C   C87       1.0  0.00067  0.97077  0.50119  1.0000
  C   C88       1.0  0.00893  0.85879  0.50011  1.0000
  H   H51       1.0  0.01092  0.81525  0.49962  1.0000
  C   C89       1.0  0.99907  0.02814  0.50172  1.0000
  C   C90       1.0  0.99659  0.14000  0.50262  1.0000
  H   H52       1.0  0.99557  0.18354  0.50290  1.0000
  C   C91       1.0  0.95733  0.84946  0.60506  1.0000
  C   C92       1.0  0.99993  0.85468  0.57792  1.0000
  C  Sn1       1.0  0.04366  0.81656  0.57579  1.0000
  C  Sn2       1.0  0.04464  0.77243  0.60134  1.0000
  C   C93       1.0  0.00181  0.76755  0.62838  1.0000
  C   C94       1.0  0.95825  0.80594  0.63027  1.0000
  H   H53       1.0  0.92361  0.87915  0.60651  1.0000
  O  Te1       1.0  0.08589  0.82239  0.54851  1.0000
  O  Te2       1.0  0.08784  0.73373  0.59983  1.0000
  H   H54       1.0  0.92526  0.80187  0.65127  1.0000
  Mg  Mg1       1.0  0.13586  0.75923  0.55766  1.0000
  C   C95       1.0  0.96567  0.61603  0.26690  1.0000
  C   C96       1.0  0.99247  0.56627  0.27250  1.0000
  C  Sn3       1.0  0.02649  0.55743  0.30411  1.0000
  C  Sn4       1.0  0.03371  0.59925  0.33056  1.0000
  C   C97       1.0  0.00668  0.64887  0.32472  1.0000
  C   C98       1.0  0.97275  0.65729  0.29298  1.0000
  H   H55       1.0  0.93939  0.62254  0.24236  1.0000
  O  Te3       1.0  0.05298  0.50748  0.30926  1.0000
  O  Te4       1.0  0.06746  0.59149  0.36241  1.0000
  H   H56       1.0  0.95197  0.69581  0.28867  1.0000
  Mg  Mg2       1.0  0.09477  0.51640  0.35705  1.0000
  C   C99       1.0  0.68808  0.51916  0.88470  1.0000
  C   C100      1.0  0.70057  0.48280  0.85566  1.0000
  C  Sn5       1.0  0.66014  0.44736  0.84354  1.0000
  C  Sn6       1.0  0.60623  0.44845  0.86087  1.0000
  C   C101      1.0  0.59414  0.48501  0.88988  1.0000
  C   C102      1.0  0.63491  0.52028  0.90179  1.0000
  H   H57       1.0  0.71961  0.54648  0.89391  1.0000
  O  Te5       1.0  0.67333  0.41127  0.81450  1.0000
  O  Te6       1.0  0.56503  0.41349  0.84930  1.0000
  H   H58       1.0  0.62521  0.54845  0.92426  1.0000
  Mg  Mg3       1.0  0.60312  0.37163  0.80862  1.0000
  C   C103      1.0  0.01495  0.38163  0.73732  1.0000
  C   C104      1.0  0.00599  0.43500  0.72639  1.0000
  C  Sn7       1.0  0.99197  0.44776  0.68893  1.0000
  C  Sn8       1.0  0.98684  0.40623  0.66198  1.0000
  C   C105      1.0  0.99585  0.35295  0.67320  1.0000
  C   C106      1.0  0.00988  0.34063  0.71076  1.0000
  H   H59       1.0  0.02578  0.37209  0.76638  1.0000
  O  Te7       1.0  0.98318  0.50130  0.67848  1.0000
  O  Te8       1.0  0.97285  0.41785  0.62436  1.0000
  H   H60       1.0  0.01678  0.29930  0.71922  1.0000
  Mg  Mg4       1.0  0.96497  0.49694  0.62385  1.0000
  C   C107      1.0  0.35362  0.55879  0.14968  1.0000
  C   C108      1.0  0.30460  0.53006  0.14543  1.0000
  C  Sn9       1.0  0.30249  0.48882  0.11891  1.0000
  C  Sn10      1.0  0.35041  0.47619  0.09626  1.0000
  C   C109      1.0  0.39927  0.50514  0.10075  1.0000
  C   C110      1.0  0.40091  0.54634  0.12737  1.0000
  H   H61       1.0  0.35490  0.59065  0.17028  1.0000
  O  Te9       1.0  0.25317  0.46053  0.11502  1.0000
  O  Te10      1.0  0.34946  0.43515  0.06955  1.0000
  H   H62       1.0  0.43889  0.56855  0.13067  1.0000
  Mg  Mg5       1.0  0.27249  0.40809  0.07473  1.0000
  C   C111      1.0  0.09110  0.46647  0.17346  1.0000
  C   C112      1.0  0.14229  0.49023  0.18065  1.0000
  C  Sn11      1.0  0.14975  0.51891  0.21407  1.0000
  C  Sn12      1.0  0.10506  0.52382  0.24076  1.0000
  C   C113      1.0  0.05403  0.49987  0.23331  1.0000
  C   C114      1.0  0.04701  0.47127  0.19977  1.0000
  H   H63       1.0  0.08568  0.44432  0.14752  1.0000
  O  Te11      1.0  0.20117  0.54242  0.22080  1.0000
  O  Te12      1.0  0.11139  0.55224  0.27440  1.0000
  H   H64       1.0  0.00738  0.45285  0.19422  1.0000
  Mg  Mg6       1.0  0.18938  0.57712  0.27075  1.0000
  C   C115      1.0  0.93879  0.47554  0.81838  1.0000
  C   C116      1.0  0.94733  0.48474  0.77961  1.0000
  C  Sn13      1.0  0.90218  0.49898  0.75636  1.0000
  C  Sn14      1.0  0.84752  0.50409  0.77229  1.0000
  C   C117      1.0  0.83942  0.49484  0.81112  1.0000
  C   C118      1.0  0.88489  0.48059  0.83413  1.0000
  H   H65       1.0  0.97397  0.46454  0.83619  1.0000
  O  Te13      1.0  0.91145  0.50800  0.71768  1.0000
  O  Te14      1.0  0.80165  0.51829  0.74970  1.0000
  H   H66       1.0  0.87827  0.47350  0.86415  1.0000
  Mg  Mg7       1.0  0.83556  0.52645  0.69856  1.0000
  C   C119      1.0  0.30699  0.47926  0.89094  1.0000
  C   C120      1.0  0.29596  0.51228  0.85958  1.0000
  C  Sn15      1.0  0.33819  0.54358  0.84402  1.0000
  C  Sn16      1.0  0.39243  0.54168  0.86021  1.0000
  C   C121      1.0  0.40305  0.50849  0.89157  1.0000
  C   C122      1.0  0.36048  0.47735  0.90692  1.0000
  H   H67       1.0  0.27406  0.45514  0.90280  1.0000
  O  Te15      1.0  0.32646  0.57636  0.81270  1.0000
  O  Te16      1.0  0.43541  0.57253  0.84522  1.0000
  H   H68       1.0  0.36903  0.45176  0.93118  1.0000
  Mg  Mg8       1.0  0.39885  0.61095  0.80241  1.0000
