data_image0
_chemical_formula_structural       HC3NCH2C3NCH2C3NCH2C3NCH2C3NCH2C3NCH2C3NCH2C3NCH2C3NCH2C3NCH2C3NCH2C3NCH2C3NCH2C3NCH2C3NCH2C3NCHC6HC2HC2HC2HC2HC2HC2HC2HSnCSn2CSnTe4Mg2SnCSn2CSnTe4Mg2SnCSn2CSnTe4Mg2SnCSn2CSnTe4Mg2SnCSn2CSnTe4Mg2SnCSn2CSnTe4Mg2SnCSn2CSnTe4Mg2SnCSn2CSnTe4Mg2SnCSn2CSnTe4Mg2SnCSn2CSnTe4Mg2SnCSn2CSnTe4Mg2SnCSn2CSnTe4Mg2SnCSn2CSnTe4Mg2SnCSn2CSnTe4Mg2SnCSn2CSnTe4Mg2SnCSn2CSnTe4Mg2SnCSn2CSnTe4Mg2SnCSn2CSnTe4Mg2SnCSn2CSnTe4Mg2SnCSn2CSnTe4Mg2SnCSn2CSnTe4Mg2SnCSn2CSnTe4Mg2SnCSn2CSnTe4Mg2SnCSn2CSnTe4Mg2SnCSn2CSnTe4Mg2SnCSn2CSnTe4Mg2SnCSn2CSnTe4Mg2SnCSn2CSnTe4Mg2SnCSn2CSnTe4Mg2SnCSn2CSnTe4Mg2SnCSn2CSnTe4Mg2SnCSn2CSnTe4Mg2
_chemical_formula_sum              "H40 C148 N16 Sn128 Te128 Mg64"
_cell_length_a       23.9172
_cell_length_b       25.2554
_cell_length_c       34.6343
_cell_angle_alpha    90.2813
_cell_angle_beta     89.9323
_cell_angle_gamma    91.0084

_symmetry_space_group_name_H-M    'P1'
_space_group_IT_number       1

loop_
  _space_group_symop_operation_xyz
  'x, y, z'

loop_
  _atom_site_type_symbol
  _atom_site_label
  _atom_site_symmetry_multiplicity
  _atom_site_fract_x
  _atom_site_fract_y
  _atom_site_fract_z
  _atom_site_occupancy
  H   H1        1.0  0.54299  0.76302  0.67911  1.0000
  C   C1        1.0  0.51354  0.55794  0.46668  1.0000
  C   C2        1.0  0.50608  0.61368  0.46671  1.0000
  C   C3        1.0  0.50507  0.76760  0.34416  1.0000
  N   N1        1.0  0.51747  0.81626  0.35288  1.0000
  C   C4        1.0  0.48787  0.52710  0.57229  1.0000
  H   H2        1.0  0.48131  0.45124  0.59860  1.0000
  H   H3        1.0  0.95472  0.27215  0.67004  1.0000
  C   C5        1.0  0.00116  0.05534  0.46382  1.0000
  C   C6        1.0  0.00258  0.11160  0.46429  1.0000
  C   C7        1.0  0.97373  0.26314  0.34265  1.0000
  N   N2        1.0  0.99403  0.30989  0.34915  1.0000
  C   C8        1.0  0.00130  0.02641  0.57120  1.0000
  H   H4        1.0  0.99816  0.95072  0.59824  1.0000
  H   H5        1.0  0.53075  0.24092  0.68382  1.0000
  C   C9        1.0  0.51793  0.44482  0.46651  1.0000
  C   C10       1.0  0.51463  0.38868  0.46610  1.0000
  C   C11       1.0  0.49686  0.23722  0.34231  1.0000
  N   N3        1.0  0.50926  0.18920  0.35069  1.0000
  C   C12       1.0  0.48989  0.47301  0.57219  1.0000
  H   H6        1.0  0.47834  0.54840  0.59880  1.0000
  H   H7        1.0  0.05001  0.73330  0.67389  1.0000
  C   C13       1.0  0.99978  0.94198  0.46386  1.0000
  C   C14       1.0  0.99831  0.88577  0.46438  1.0000
  C   C15       1.0  0.01979  0.73273  0.34175  1.0000
  N   N4        1.0  0.00195  0.68552  0.34925  1.0000
  C   C16       1.0  0.99952  0.97226  0.57116  1.0000
  H   H8        1.0  0.00253  0.04822  0.59835  1.0000
  H   H9        1.0  0.48924  0.75507  0.31563  1.0000
  C   C17       1.0  0.49640  0.55690  0.53772  1.0000
  C   C18       1.0  0.49257  0.61287  0.53729  1.0000
  C   C19       1.0  0.50520  0.76451  0.66104  1.0000
  N   N5        1.0  0.47190  0.80425  0.66098  1.0000
  C   C20       1.0  0.53003  0.52908  0.43299  1.0000
  H   H10       1.0  0.54444  0.45376  0.40700  1.0000
  H   H11       1.0  0.94655  0.25394  0.31780  1.0000
  C   C21       1.0  0.00203  0.05557  0.53591  1.0000
  C   C22       1.0  0.00484  0.11162  0.53540  1.0000
  C   C23       1.0  0.99314  0.27195  0.65254  1.0000
  N   N6        1.0  0.02846  0.31129  0.65261  1.0000
  C   C24       1.0  0.00097  0.02545  0.42864  1.0000
  H   H12       1.0  0.99894  0.94975  0.40144  1.0000
  H   H13       1.0  0.47667  0.24757  0.31491  1.0000
  C   C25       1.0  0.50103  0.44399  0.53754  1.0000
  C   C26       1.0  0.50181  0.38779  0.53667  1.0000
  C   C27       1.0  0.50856  0.23226  0.65662  1.0000
  N   N7        1.0  0.49205  0.18504  0.64723  1.0000
  C   C28       1.0  0.53181  0.47494  0.43289  1.0000
  H   H14       1.0  0.54178  0.55110  0.40724  1.0000
  H   H15       1.0  0.04367  0.74226  0.31545  1.0000
  C   C29       1.0  0.99926  0.94263  0.53588  1.0000
  C   C30       1.0  0.99709  0.88652  0.53543  1.0000
  C   C31       1.0  0.01335  0.73076  0.65473  1.0000
  N   N8        1.0  0.97960  0.69027  0.65376  1.0000
  C   C32       1.0  0.99995  0.97130  0.42867  1.0000
  H   H16       1.0  0.00215  0.04657  0.40138  1.0000
  H   H17       1.0  0.26150  0.95528  0.18566  1.0000
  C   C33       1.0  0.05194  0.99972  0.95825  1.0000
  C   C34       1.0  0.10290  0.00170  0.97982  1.0000
  C   C35       1.0  0.25764  0.00944  0.83100  1.0000
  N   N9        1.0  0.29670  0.97493  0.83403  1.0000
  C   C36       1.0  0.05147  0.99868  0.08199  1.0000
  H   H18       1.0  0.14222  0.00391  0.96412  1.0000
  H   H19       1.0  0.75142  0.54441  0.19598  1.0000
  C   C37       1.0  0.54982  0.50662  0.95777  1.0000
  C   C38       1.0  0.59907  0.51933  0.97955  1.0000
  C   C39       1.0  0.74926  0.52298  0.82336  1.0000
  N   N10       1.0  0.79646  0.50492  0.83475  1.0000
  C   C40       1.0  0.54850  0.50659  0.08154  1.0000
  H   H20       1.0  0.63714  0.53003  0.96413  1.0000
  H   H21       1.0  0.73915  0.04145  0.18574  1.0000
  C   C41       1.0  0.94795  0.99902  0.95825  1.0000
  C   C42       1.0  0.89701  0.99671  0.97999  1.0000
  C   C43       1.0  0.74785  0.99566  0.82527  1.0000
  N   N11       1.0  0.70778  0.02901  0.82912  1.0000
  C   C44       1.0  0.94881  0.99517  0.08214  1.0000
  H   H22       1.0  0.85741  0.99556  0.96463  1.0000
  H   H23       1.0  0.24854  0.46230  0.19823  1.0000
  C   C45       1.0  0.44712  0.48860  0.95757  1.0000
  C   C46       1.0  0.39800  0.47533  0.97936  1.0000
  C   C47       1.0  0.24990  0.47861  0.82109  1.0000
  N   N12       1.0  0.20165  0.49070  0.83496  1.0000
  C   C48       1.0  0.44604  0.49730  0.08127  1.0000
  H   H24       1.0  0.36069  0.46187  0.96410  1.0000
  H   H25       1.0  0.74435  0.96127  0.80570  1.0000
  C   C49       1.0  0.94805  0.99587  0.04109  1.0000
  C   C50       1.0  0.89707  0.99575  0.01947  1.0000
  C   C51       1.0  0.74266  0.00485  0.16852  1.0000
  N   N13       1.0  0.70224  0.97027  0.16673  1.0000
  C   C52       1.0  0.94884  0.00046  0.91720  1.0000
  H   H26       1.0  0.85760  0.99492  0.03506  1.0000
  H   H27       1.0  0.25525  0.46443  0.79121  1.0000
  C   C53       1.0  0.44622  0.49287  0.04030  1.0000
  C   C54       1.0  0.39726  0.47827  0.01882  1.0000
  C   C55       1.0  0.24645  0.49187  0.17504  1.0000
  N   N14       1.0  0.20245  0.51951  0.16853  1.0000
  C   C56       1.0  0.44746  0.49119  0.91650  1.0000
  H   H28       1.0  0.35921  0.46799  0.03449  1.0000
  H   H29       1.0  0.26307  0.04492  0.81293  1.0000
  C   C57       1.0  0.05203  0.99951  0.04097  1.0000
  C   C58       1.0  0.10300  0.00122  0.01928  1.0000
  C   C59       1.0  0.25649  0.99237  0.16953  1.0000
  N   N15       1.0  0.29550  0.02846  0.16896  1.0000
  C   C60       1.0  0.05143  0.00012  0.91723  1.0000
  H   H30       1.0  0.14253  0.00246  0.03472  1.0000
  H   H31       1.0  0.74523  0.54435  0.79590  1.0000
  C   C61       1.0  0.54914  0.50780  0.04048  1.0000
  C   C62       1.0  0.59890  0.51955  0.01905  1.0000
  C   C63       1.0  0.74952  0.51352  0.17346  1.0000
  N   N16       1.0  0.79075  0.48228  0.16689  1.0000
  C   C64       1.0  0.54964  0.50498  0.91668  1.0000
  H   H32       1.0  0.63681  0.53010  0.03481  1.0000
  C   C65       1.0  0.50026  0.00092  0.74537  1.0000
  C   C66       1.0  0.99962  0.50069  0.74444  1.0000
  C   C67       1.0  0.49992  0.00132  0.25531  1.0000
  C   C68       1.0  0.99567  0.49701  0.25465  1.0000
  C   C69       1.0  0.00000  0.99793  0.02035  1.0000
  C   C70       1.0  0.00027  0.00075  0.89785  1.0000
  H   H33       1.0  0.00043  0.00177  0.86643  1.0000
  C   C71       1.0  0.49789  0.49958  0.01970  1.0000
  C   C72       1.0  0.49856  0.49894  0.89744  1.0000
  H   H34       1.0  0.49836  0.50070  0.86607  1.0000
  C   C73       1.0  0.99992  0.99880  0.97892  1.0000
  C   C74       1.0  0.00018  0.99637  0.10148  1.0000
  H   H35       1.0  0.00029  0.99584  0.13291  1.0000
  C   C75       1.0  0.49828  0.49821  0.97827  1.0000
  C   C76       1.0  0.49716  0.50256  0.10073  1.0000
  H   H36       1.0  0.49693  0.50333  0.13217  1.0000
  C   C77       1.0  0.50877  0.47261  0.50214  1.0000
  C   C78       1.0  0.50706  0.36200  0.50107  1.0000
  H   H37       1.0  0.50525  0.31896  0.50049  1.0000
  C   C79       1.0  0.00004  0.97054  0.49984  1.0000
  C   C80       1.0  0.99600  0.85990  0.49996  1.0000
  H   H38       1.0  0.99635  0.81687  0.50014  1.0000
  C   C81       1.0  0.50631  0.52925  0.50215  1.0000
  C   C82       1.0  0.49508  0.63923  0.50194  1.0000
  H   H39       1.0  0.48975  0.68193  0.50178  1.0000
  C   C83       1.0  0.00096  0.02726  0.49983  1.0000
  C   C84       1.0  0.00567  0.13786  0.49994  1.0000
  H   H40       1.0  0.00549  0.18091  0.50023  1.0000
  C  Sn1       1.0  0.46855  0.67175  0.37652  1.0000
  C   C85       1.0  0.49568  0.72121  0.37610  1.0000
  C  Sn2       1.0  0.53719  0.73348  0.40321  1.0000
  C  Sn3       1.0  0.55192  0.69552  0.43130  1.0000
  C   C86       1.0  0.52480  0.64610  0.43170  1.0000
  C  Sn4       1.0  0.48328  0.63379  0.40461  1.0000
  O  Te1       1.0  0.42718  0.66033  0.34915  1.0000
  O  Te2       1.0  0.56371  0.78320  0.40222  1.0000
  O  Te3       1.0  0.59332  0.70698  0.45868  1.0000
  O  Te4       1.0  0.45677  0.58411  0.40558  1.0000
  Mg  Mg1       1.0  0.61743  0.78009  0.44557  1.0000
  Mg  Mg2       1.0  0.40307  0.58716  0.36224  1.0000
  C  Sn5       1.0  0.54755  0.94122  0.31776  1.0000
  C   C87       1.0  0.51989  0.94732  0.28258  1.0000
  C  Sn6       1.0  0.48126  0.90899  0.26982  1.0000
  C  Sn7       1.0  0.47001  0.86362  0.29272  1.0000
  C   C88       1.0  0.49764  0.85754  0.32787  1.0000
  C  Sn8       1.0  0.53629  0.89585  0.34065  1.0000
  O  Te5       1.0  0.58600  0.98004  0.32994  1.0000
  O  Te6       1.0  0.45416  0.91596  0.23454  1.0000
  O  Te7       1.0  0.43152  0.82479  0.28050  1.0000
  O  Te8       1.0  0.56338  0.88890  0.37591  1.0000
  Mg  Mg3       1.0  0.40526  0.85212  0.23035  1.0000
  Mg  Mg4       1.0  0.61227  0.95272  0.38014  1.0000
  C  Sn9       1.0  0.53401  0.26985  0.41540  1.0000
  C   C89       1.0  0.50166  0.27263  0.38191  1.0000
  C  Sn10      1.0  0.48003  0.32092  0.37006  1.0000
  C  Sn11      1.0  0.49099  0.36741  0.39211  1.0000
  C   C90       1.0  0.52333  0.36462  0.42556  1.0000
  C  Sn12      1.0  0.54497  0.31635  0.43745  1.0000
  O  Te9       1.0  0.55521  0.22116  0.42671  1.0000
  O  Te10      1.0  0.44779  0.32271  0.33649  1.0000
  O  Te11      1.0  0.46976  0.41613  0.38077  1.0000
  O  Te12      1.0  0.57720  0.31455  0.47099  1.0000
  Mg  Mg5       1.0  0.42818  0.39836  0.33291  1.0000
  Mg  Mg6       1.0  0.59685  0.23893  0.47458  1.0000
  C  Sn13      1.0  0.02514  0.20833  0.42853  1.0000
  C   C91       1.0  0.99594  0.16054  0.43405  1.0000
  C  Sn14      1.0  0.96264  0.13905  0.40459  1.0000
  C  Sn15      1.0  0.95845  0.16587  0.36886  1.0000
  C   C92       1.0  0.98764  0.21362  0.36334  1.0000
  C  Sn16      1.0  0.02095  0.23514  0.39279  1.0000
  O  Te13      1.0  0.05819  0.22908  0.45838  1.0000
  O  Te14      1.0  0.93383  0.09123  0.41080  1.0000
  O  Te15      1.0  0.92537  0.14507  0.33900  1.0000
  O  Te16      1.0  0.04975  0.28293  0.38660  1.0000
  Mg  Mg7       1.0  0.89418  0.07887  0.36133  1.0000
  Mg  Mg8       1.0  0.08943  0.29531  0.43603  1.0000
  C  Sn17      1.0  0.02164  0.36163  0.28173  1.0000
  C   C93       1.0  0.00297  0.35520  0.31970  1.0000
  C  Sn18      1.0  0.97093  0.39417  0.33741  1.0000
  C  Sn19      1.0  0.95724  0.44050  0.31674  1.0000
  C   C94       1.0  0.97590  0.44691  0.27879  1.0000
  C  Sn20      1.0  0.00795  0.40796  0.26106  1.0000
  O  Te17      1.0  0.05362  0.32216  0.26459  1.0000
  O  Te18      1.0  0.95276  0.38687  0.37540  1.0000
  O  Te19      1.0  0.92524  0.47998  0.33391  1.0000
  O  Te20      1.0  0.02611  0.41524  0.22309  1.0000
  Mg  Mg9       1.0  0.91025  0.45185  0.38622  1.0000
  Mg  Mg10      1.0  0.06860  0.35028  0.21224  1.0000
  C  Sn21      1.0  0.95381  0.78469  0.39802  1.0000
  C   C95       1.0  0.99483  0.78238  0.36932  1.0000
  C  Sn22      1.0  0.04351  0.81353  0.37220  1.0000
  C  Sn23      1.0  0.05137  0.84768  0.40444  1.0000
  C   C96       1.0  0.01037  0.84997  0.43312  1.0000
  C  Sn24      1.0  0.96167  0.81884  0.43027  1.0000
  O  Te21      1.0  0.90548  0.75320  0.39456  1.0000
  O  Te22      1.0  0.08392  0.81055  0.34314  1.0000
  O  Te23      1.0  0.09975  0.87918  0.40789  1.0000
  O  Te24      1.0  0.92129  0.82180  0.45931  1.0000
  Mg  Mg11      1.0  0.14268  0.86119  0.36087  1.0000
  Mg  Mg12      1.0  0.86252  0.77116  0.44161  1.0000
  C  Sn25      1.0  0.48551  0.08447  0.33956  1.0000
  C   C97       1.0  0.51089  0.13329  0.33103  1.0000
  C  Sn26      1.0  0.52668  0.14534  0.29319  1.0000
  C  Sn27      1.0  0.51685  0.10783  0.26324  1.0000
  C   C98       1.0  0.49147  0.05905  0.27178  1.0000
  C  Sn28      1.0  0.47568  0.04696  0.30961  1.0000
  O  Te25      1.0  0.47007  0.07327  0.37759  1.0000
  O  Te26      1.0  0.55201  0.19441  0.28537  1.0000
  O  Te27      1.0  0.53231  0.11907  0.22519  1.0000
  O  Te28      1.0  0.46894  0.99793  0.31743  1.0000
  Mg  Mg13      1.0  0.56549  0.19126  0.22900  1.0000
  Mg  Mg14      1.0  0.45542  0.00105  0.37379  1.0000
  C  Sn29      1.0  0.96320  0.63054  0.28597  1.0000
  C   C99       1.0  0.99105  0.63920  0.32094  1.0000
  C  Sn30      1.0  0.03030  0.60312  0.33400  1.0000
  C  Sn31      1.0  0.04200  0.55745  0.31162  1.0000
  C   C100      1.0  0.01417  0.54881  0.27667  1.0000
  C  Sn32      1.0  0.97490  0.58486  0.26359  1.0000
  O  Te29      1.0  0.92413  0.66714  0.27347  1.0000
  O  Te30      1.0  0.05759  0.61262  0.36907  1.0000
  O  Te31      1.0  0.08111  0.52084  0.32415  1.0000
  O  Te32      1.0  0.94763  0.57539  0.22854  1.0000
  Mg  Mg15      1.0  0.10739  0.55120  0.37384  1.0000
  Mg  Mg16      1.0  0.89784  0.63679  0.22373  1.0000
  C  Sn33      1.0  0.52794  0.63970  0.61456  1.0000
  C   C101      1.0  0.48767  0.63592  0.58542  1.0000
  C  Sn34      1.0  0.45230  0.67818  0.57823  1.0000
  C  Sn35      1.0  0.45731  0.72520  0.60061  1.0000
  C   C102      1.0  0.49756  0.72897  0.62972  1.0000
  C  Sn36      1.0  0.53295  0.68673  0.63693  1.0000
  O  Te33      1.0  0.56286  0.59697  0.62124  1.0000
  O  Te34      1.0  0.41235  0.67346  0.54896  1.0000
  O  Te35      1.0  0.42235  0.76795  0.59390  1.0000
  O  Te36      1.0  0.57289  0.69143  0.66618  1.0000
  Mg  Mg17      1.0  0.37448  0.74251  0.55082  1.0000
  Mg  Mg18      1.0  0.61080  0.62242  0.66433  1.0000
  C  Sn37      1.0  0.44668  0.93312  0.68885  1.0000
  C   C103      1.0  0.47756  0.94404  0.72228  1.0000
  C  Sn38      1.0  0.51570  0.90744  0.73611  1.0000
  C  Sn39      1.0  0.52317  0.85893  0.71611  1.0000
  C   C104      1.0  0.49232  0.84804  0.68271  1.0000
  C  Sn40      1.0  0.45415  0.88461  0.66885  1.0000
  O  Te37      1.0  0.40878  0.97028  0.67554  1.0000
  O  Te38      1.0  0.54608  0.91923  0.76960  1.0000
  O  Te39      1.0  0.56111  0.82176  0.72946  1.0000
  O  Te40      1.0  0.42380  0.87284  0.63539  1.0000
  Mg  Mg19      1.0  0.59272  0.85596  0.77632  1.0000
  Mg  Mg20      1.0  0.37716  0.93610  0.62863  1.0000
  C  Sn41      1.0  0.44765  0.30536  0.58035  1.0000
  C   C105      1.0  0.47908  0.35234  0.57748  1.0000
  C  Sn42      1.0  0.52696  0.36017  0.60000  1.0000
  C  Sn43      1.0  0.54379  0.32019  0.62592  1.0000
  C   C106      1.0  0.51237  0.27323  0.62878  1.0000
  C  Sn44      1.0  0.46448  0.26537  0.60627  1.0000
  O  Te41      1.0  0.39993  0.29838  0.55756  1.0000
  O  Te42      1.0  0.55770  0.40749  0.59663  1.0000
  O  Te43      1.0  0.59155  0.32720  0.64872  1.0000
  O  Te44      1.0  0.43375  0.21809  0.60963  1.0000
  Mg  Mg21      1.0  0.61958  0.39842  0.63380  1.0000
  Mg  Mg22      1.0  0.37188  0.22710  0.57246  1.0000
  C  Sn45      1.0  0.96414  0.16727  0.62738  1.0000
  C   C107      1.0  0.00146  0.20970  0.63342  1.0000
  C  Sn46      1.0  0.04078  0.22345  0.60518  1.0000
  C  Sn47      1.0  0.04283  0.19421  0.57016  1.0000
  C   C108      1.0  0.00553  0.15182  0.56412  1.0000
  C  Sn48      1.0  0.96619  0.13803  0.59235  1.0000
  O  Te45      1.0  0.92518  0.15423  0.65600  1.0000
  O  Te46      1.0  0.07767  0.26601  0.61189  1.0000
  O  Te47      1.0  0.08184  0.20729  0.54152  1.0000
  O  Te48      1.0  0.92932  0.09550  0.58565  1.0000
  Mg  Mg23      1.0  0.12319  0.26851  0.56413  1.0000
  Mg  Mg24      1.0  0.88376  0.09299  0.63338  1.0000
  C  Sn49      1.0  0.99767  0.38678  0.73605  1.0000
  C   C109      1.0  0.01427  0.43838  0.72641  1.0000
  C  Sn50      1.0  0.03038  0.45055  0.68866  1.0000
  C  Sn51      1.0  0.02986  0.41033  0.65994  1.0000
  C   C110      1.0  0.01326  0.35877  0.66958  1.0000
  C  Sn52      1.0  0.99714  0.34655  0.70733  1.0000
  O  Te49      1.0  0.98172  0.37550  0.77398  1.0000
  O  Te50      1.0  0.04684  0.50242  0.67972  1.0000
  O  Te51      1.0  0.04583  0.42165  0.62199  1.0000
  O  Te52      1.0  0.98069  0.29472  0.71627  1.0000
  Mg  Mg25      1.0  0.06487  0.49820  0.62400  1.0000
  Mg  Mg26      1.0  0.96262  0.29891  0.77198  1.0000
  C  Sn53      1.0  0.05439  0.83991  0.59741  1.0000
  C   C111      1.0  0.01272  0.84486  0.56947  1.0000
  C  Sn54      1.0  0.96200  0.81705  0.57310  1.0000
  C  Sn55      1.0  0.95272  0.78360  0.60534  1.0000
  C   C112      1.0  0.99437  0.77867  0.63326  1.0000
  C  Sn56      1.0  0.04510  0.80647  0.62965  1.0000
  O  Te53      1.0  0.10477  0.86810  0.59320  1.0000
  O  Te54      1.0  0.92098  0.82262  0.54479  1.0000
  O  Te55      1.0  0.90229  0.75541  0.60954  1.0000
  O  Te56      1.0  0.08610  0.80091  0.65794  1.0000
  Mg  Mg27      1.0  0.85926  0.77607  0.56338  1.0000
  Mg  Mg28      1.0  0.14782  0.84746  0.63939  1.0000
  C  Sn57      1.0  0.49125  0.14092  0.72197  1.0000
  C   C113      1.0  0.50890  0.14656  0.68371  1.0000
  C  Sn58      1.0  0.51910  0.10194  0.66094  1.0000
  C  Sn59      1.0  0.51146  0.05061  0.67674  1.0000
  C   C114      1.0  0.49382  0.04499  0.71498  1.0000
  C  Sn60      1.0  0.48362  0.08959  0.73777  1.0000
  O  Te57      1.0  0.48130  0.18607  0.74420  1.0000
  O  Te58      1.0  0.53673  0.10858  0.62277  1.0000
  O  Te59      1.0  0.52143  0.00545  0.65447  1.0000
  O  Te60      1.0  0.46599  0.08297  0.77592  1.0000
  Mg  Mg29      1.0  0.54486  0.03493  0.60402  1.0000
  Mg  Mg30      1.0  0.45782  0.15658  0.79468  1.0000
  C  Sn61      1.0  0.03129  0.63572  0.71454  1.0000
  C   C115      1.0  0.00348  0.64335  0.67960  1.0000
  C  Sn62      1.0  0.96578  0.60501  0.66561  1.0000
  C  Sn63      1.0  0.95563  0.55807  0.68701  1.0000
  C   C116      1.0  0.98341  0.55046  0.72194  1.0000
  C  Sn64      1.0  0.02113  0.58878  0.73594  1.0000
  O  Te61      1.0  0.06880  0.67458  0.72798  1.0000
  O  Te62      1.0  0.93850  0.61351  0.63059  1.0000
  O  Te63      1.0  0.91808  0.51919  0.67355  1.0000
  O  Te64      1.0  0.04840  0.58030  0.77094  1.0000
  Mg  Mg31      1.0  0.89115  0.54896  0.62433  1.0000
  Mg  Mg32      1.0  0.09573  0.64483  0.77724  1.0000
  C  Sn65      1.0  0.17618  0.95033  0.87395  1.0000
  C   C117      1.0  0.19433  0.98951  0.84824  1.0000
  C  Sn66      1.0  0.14995  0.03868  0.84762  1.0000
  C  Sn67      1.0  0.10509  0.04894  0.87326  1.0000
  C   C118      1.0  0.08697  0.00978  0.89895  1.0000
  C  Sn68      1.0  0.13133  0.96058  0.89958  1.0000
  O  Te65      1.0  0.20260  0.90145  0.87406  1.0000
  O  Te66      1.0  0.16881  0.07722  0.82165  1.0000
  O  Te67      1.0  0.07868  0.09786  0.87312  1.0000
  O  Te68      1.0  0.11249  0.92206  0.92554  1.0000
  Mg  Mg33      1.0  0.11942  0.13763  0.83246  1.0000
  Mg  Mg34      1.0  0.16186  0.86165  0.91477  1.0000
  C  Sn69      1.0  0.38517  0.02618  0.76212  1.0000
  C   C119      1.0  0.43888  0.01130  0.77302  1.0000
  C  Sn70      1.0  0.46484  0.97509  0.80287  1.0000
  C  Sn71      1.0  0.41755  0.95328  0.82222  1.0000
  C   C120      1.0  0.36388  0.96815  0.81131  1.0000
  C  Sn72      1.0  0.35647  0.00436  0.78147  1.0000
  O  Te69      1.0  0.37879  0.06243  0.73220  1.0000
  O  Te70      1.0  0.51894  0.96084  0.81326  1.0000
  O  Te71      1.0  0.42398  0.91700  0.85216  1.0000
  O  Te72      1.0  0.28382  0.01861  0.77108  1.0000
  Mg  Mg35      1.0  0.50609  0.90995  0.85580  1.0000
  Mg  Mg36      1.0  0.29662  0.06947  0.72853  1.0000
  C  Sn73      1.0  0.82382  0.05117  0.87533  1.0000
  C   C121      1.0  0.80879  0.01532  0.84611  1.0000
  C  Sn74      1.0  0.85543  0.96756  0.84209  1.0000
  C  Sn75      1.0  0.89940  0.95535  0.86782  1.0000
  C   C122      1.0  0.91440  0.99118  0.89702  1.0000
  C  Sn76      1.0  0.86778  0.03896  0.90106  1.0000
  O  Te73      1.0  0.79519  0.09868  0.87881  1.0000
  O  Te74      1.0  0.83967  0.93236  0.81265  1.0000
  O  Te75      1.0  0.92802  0.90779  0.86432  1.0000
  O  Te76      1.0  0.88351  0.07414  0.93049  1.0000
  Mg  Mg37      1.0  0.89122  0.87268  0.81964  1.0000
  Mg  Mg38      1.0  0.83198  0.13381  0.92353  1.0000
  C  Sn77      1.0  0.64450  0.55953  0.84720  1.0000
  C   C123      1.0  0.69444  0.53217  0.85116  1.0000
  C  Sn78      1.0  0.69697  0.48790  0.87508  1.0000
  C  Sn79      1.0  0.64857  0.47059  0.89544  1.0000
  C   C124      1.0  0.59867  0.49794  0.89147  1.0000
  C  Sn80      1.0  0.59610  0.54222  0.86756  1.0000
  O  Te77      1.0  0.64293  0.60367  0.82313  1.0000
  O  Te78      1.0  0.74737  0.46121  0.87859  1.0000
  O  Te79      1.0  0.65018  0.42641  0.91953  1.0000
  O  Te80      1.0  0.54574  0.56890  0.86404  1.0000
  Mg  Mg39      1.0  0.72852  0.40320  0.91485  1.0000
  Mg  Mg40      1.0  0.56452  0.62689  0.82777  1.0000
  C  Sn81      1.0  0.93839  0.51626  0.81612  1.0000
  C   C125      1.0  0.94692  0.49566  0.77909  1.0000
  C  Sn82      1.0  0.90145  0.48397  0.75506  1.0000
  C  Sn83      1.0  0.84630  0.49309  0.76829  1.0000
  C   C126      1.0  0.83778  0.51368  0.80529  1.0000
  C  Sn84      1.0  0.88323  0.52538  0.82935  1.0000
  O  Te81      1.0  0.98446  0.52766  0.83965  1.0000
  O  Te82      1.0  0.91104  0.46338  0.71817  1.0000
  O  Te83      1.0  0.80021  0.48167  0.74472  1.0000
  O  Te84      1.0  0.87367  0.54596  0.86622  1.0000
  Mg  Mg41      1.0  0.83470  0.45423  0.69683  1.0000
  Mg  Mg42      1.0  0.94997  0.55516  0.88757  1.0000
  C  Sn85      1.0  0.39429  0.47018  0.84511  1.0000
  C   C127      1.0  0.39992  0.49395  0.88145  1.0000
  C  Sn86      1.0  0.35270  0.50953  0.90206  1.0000
  C  Sn87      1.0  0.29871  0.50114  0.88603  1.0000
  C   C128      1.0  0.29309  0.47738  0.84971  1.0000
  C  Sn88      1.0  0.34030  0.46179  0.82907  1.0000
  O  Te85      1.0  0.44208  0.45492  0.82501  1.0000
  O  Te86      1.0  0.35939  0.53323  0.93834  1.0000
  O  Te87      1.0  0.25090  0.51643  0.90616  1.0000
  O  Te88      1.0  0.33363  0.43809  0.79282  1.0000
  Mg  Mg43      1.0  0.28158  0.54713  0.95454  1.0000
  Mg  Mg44      1.0  0.41140  0.42416  0.77660  1.0000
  C  Sn89      1.0  0.59405  0.02576  0.82642  1.0000
  C   C129      1.0  0.64754  0.01323  0.81335  1.0000
  C  Sn90      1.0  0.67542  0.00216  0.77433  1.0000
  C  Sn91      1.0  0.63033  0.00368  0.74782  1.0000
  C   C130      1.0  0.55830  0.01621  0.76090  1.0000
  C  Sn92      1.0  0.54896  0.02728  0.79991  1.0000
  O  Te89      1.0  0.58572  0.03669  0.86555  1.0000
  O  Te90      1.0  0.72925  0.98972  0.76195  1.0000
  O  Te91      1.0  0.63870  0.99274  0.70866  1.0000
  O  Te92      1.0  0.49517  0.03972  0.81230  1.0000
  Mg  Mg45      1.0  0.71958  0.97786  0.70578  1.0000
  Mg  Mg46      1.0  0.50480  0.05161  0.86845  1.0000
  C  Sn93      1.0  0.05959  0.48477  0.81591  1.0000
  C   C131      1.0  0.05220  0.50526  0.77889  1.0000
  C  Sn94      1.0  0.09836  0.51604  0.75527  1.0000
  C  Sn95      1.0  0.15304  0.50609  0.76893  1.0000
  C   C132      1.0  0.16041  0.48560  0.80592  1.0000
  C  Sn96      1.0  0.11427  0.47482  0.82956  1.0000
  O  Te93      1.0  0.01284  0.47429  0.83902  1.0000
  O  Te94      1.0  0.08992  0.53653  0.71838  1.0000
  O  Te95      1.0  0.19980  0.51659  0.74578  1.0000
  O  Te96      1.0  0.12269  0.45433  0.86643  1.0000
  Mg  Mg47      1.0  0.16682  0.54428  0.69770  1.0000
  Mg  Mg48      1.0  0.04582  0.44654  0.88712  1.0000
  C  Sn97      1.0  0.83641  0.96007  0.09598  1.0000
  C   C133      1.0  0.88167  0.99581  0.09700  1.0000
  C  Sn98      1.0  0.86804  0.03292  0.12689  1.0000
  C  Sn99      1.0  0.82691  0.03432  0.15640  1.0000
  C   C134      1.0  0.80027  0.99859  0.15538  1.0000
  C  Sn100     1.0  0.79528  0.96147  0.12549  1.0000
  O  Te97      1.0  0.83230  0.92331  0.06582  1.0000
  O  Te98      1.0  0.91365  0.06825  0.12728  1.0000
  O  Te99      1.0  0.83105  0.07112  0.18657  1.0000
  O  Te100     1.0  0.74971  0.92615  0.12509  1.0000
  Mg  Mg49      1.0  0.90083  0.11097  0.17445  1.0000
  Mg  Mg50      1.0  0.76250  0.88340  0.07795  1.0000
  C  Sn101     1.0  0.56234  0.95224  0.19318  1.0000
  C   C135      1.0  0.55545  0.97699  0.22901  1.0000
  C  Sn102     1.0  0.58035  0.00735  0.24515  1.0000
  C  Sn103     1.0  0.63178  0.01313  0.22505  1.0000
  C   C136      1.0  0.65723  0.98841  0.18924  1.0000
  C  Sn104     1.0  0.61377  0.95803  0.17308  1.0000
  O  Te101     1.0  0.51831  0.92208  0.17758  1.0000
  O  Te102     1.0  0.57248  0.03169  0.28101  1.0000
  O  Te103     1.0  0.67583  0.04332  0.24068  1.0000
  O  Te104     1.0  0.62162  0.93371  0.13724  1.0000
  Mg  Mg51      1.0  0.64488  0.06875  0.29031  1.0000
  Mg  Mg52      1.0  0.54924  0.89666  0.12790  1.0000
  C  Sn105     1.0  0.11610  0.96071  0.14460  1.0000
  C   C137      1.0  0.09931  0.99933  0.11850  1.0000
  C  Sn106     1.0  0.11943  0.03627  0.10403  1.0000
  C  Sn107     1.0  0.17611  0.03455  0.11588  1.0000
  C   C138      1.0  0.21146  0.99595  0.14196  1.0000
  C  Sn108     1.0  0.17278  0.95899  0.15645  1.0000
  O  Te105     1.0  0.07669  0.92418  0.15869  1.0000
  O  Te106     1.0  0.10164  0.07452  0.07798  1.0000
  O  Te107     1.0  0.21552  0.07113  0.10177  1.0000
  O  Te108     1.0  0.19054  0.92076  0.18248  1.0000
  Mg  Mg53      1.0  0.17099  0.11565  0.06687  1.0000
  Mg  Mg54      1.0  0.12124  0.87959  0.19359  1.0000
  C  Sn109     1.0  0.34214  0.54179  0.10438  1.0000
  C   C139      1.0  0.39089  0.51290  0.10930  1.0000
  C  Sn110     1.0  0.39137  0.46950  0.13414  1.0000
  C  Sn111     1.0  0.34207  0.45464  0.15447  1.0000
  C   C140      1.0  0.29335  0.48352  0.14954  1.0000
  C  Sn112     1.0  0.29284  0.52694  0.12471  1.0000
  O  Te109     1.0  0.34262  0.58504  0.07940  1.0000
  O  Te110     1.0  0.44062  0.44123  0.13860  1.0000
  O  Te111     1.0  0.34162  0.41136  0.17946  1.0000
  O  Te112     1.0  0.24362  0.55519  0.12024  1.0000
  Mg  Mg55      1.0  0.41903  0.38531  0.17589  1.0000
  Mg  Mg56      1.0  0.26515  0.61110  0.08295  1.0000
  C  Sn113     1.0  0.13851  0.46798  0.22610  1.0000
  C   C141      1.0  0.14999  0.49695  0.19265  1.0000
  C  Sn114     1.0  0.11155  0.53332  0.17888  1.0000
  C  Sn115     1.0  0.06059  0.54092  0.19898  1.0000
  C   C142      1.0  0.04914  0.51196  0.23240  1.0000
  C  Sn116     1.0  0.08755  0.47558  0.24619  1.0000
  O  Te113     1.0  0.17755  0.43184  0.23935  1.0000
  O  Te114     1.0  0.12395  0.56181  0.14538  1.0000
  O  Te115     1.0  0.02154  0.57709  0.18570  1.0000
  O  Te116     1.0  0.07518  0.44711  0.27968  1.0000
  Mg  Mg57      1.0  0.05748  0.60649  0.13877  1.0000
  Mg  Mg58      1.0  0.14162  0.40244  0.28632  1.0000
  C  Sn117     1.0  0.63586  0.53743  0.16245  1.0000
  C   C143      1.0  0.68379  0.50713  0.15794  1.0000
  C  Sn118     1.0  0.69293  0.47912  0.12370  1.0000
  C  Sn119     1.0  0.65336  0.48146  0.09332  1.0000
  C   C144      1.0  0.60547  0.51175  0.09783  1.0000
  C  Sn120     1.0  0.59629  0.53977  0.13206  1.0000
  O  Te117     1.0  0.62758  0.56511  0.19693  1.0000
  O  Te118     1.0  0.74115  0.44909  0.11988  1.0000
  O  Te119     1.0  0.66168  0.45374  0.05882  1.0000
  O  Te120     1.0  0.54811  0.56980  0.13589  1.0000
  Mg  Mg59      1.0  0.73378  0.41837  0.06739  1.0000
  Mg  Mg60      1.0  0.55546  0.60055  0.18836  1.0000
  C  Sn121     1.0  0.33227  0.00485  0.23885  1.0000
  C   C145      1.0  0.32424  0.02992  0.20345  1.0000
  C  Sn122     1.0  0.36953  0.03997  0.17889  1.0000
  C  Sn123     1.0  0.42396  0.02463  0.18993  1.0000
  C   C146      1.0  0.45054  0.99958  0.22530  1.0000
  C  Sn124     1.0  0.40528  0.98951  0.24989  1.0000
  O  Te121     1.0  0.30497  0.99519  0.26294  1.0000
  O  Te122     1.0  0.36047  0.06510  0.14365  1.0000
  O  Te123     1.0  0.46985  0.03432  0.16580  1.0000
  O  Te124     1.0  0.41432  0.96440  0.28510  1.0000
  Mg  Mg61      1.0  0.43627  0.06961  0.12073  1.0000
  Mg  Mg62      1.0  0.33855  0.95984  0.30804  1.0000
  C  Sn125     1.0  0.93332  0.48692  0.18245  1.0000
  C   C147      1.0  0.94219  0.50278  0.22070  1.0000
  C  Sn126     1.0  0.89739  0.50550  0.24650  1.0000
  C  Sn127     1.0  0.84257  0.49205  0.23381  1.0000
  C   C148      1.0  0.83372  0.47619  0.19559  1.0000
  C  Sn128     1.0  0.87850  0.47347  0.16976  1.0000
  O  Te125     1.0  0.97873  0.48449  0.15716  1.0000
  O  Te126     1.0  0.90730  0.52148  0.28460  1.0000
  O  Te127     1.0  0.79715  0.49449  0.25915  1.0000
  O  Te128     1.0  0.86862  0.45749  0.13169  1.0000
  Mg  Mg63      1.0  0.83187  0.51851  0.30819  1.0000
  Mg  Mg64      1.0  0.94401  0.46042  0.10808  1.0000
