data_image0
_chemical_formula_structural       H4C3NC3H10C3NC9H6C6NC7HCH6C6NC2H3C6NC4H5C6NC8H8C6NC3HCH6C3NC9H4C3NC9HCH2C3NCH8C6NC7H6C3NC7H9C6NC7H6C3NC7H6C3NC3HCH2C3NCHC6HC2HC2HC2HC2HC2HC2HC2HSnCSn2CSnTe4Mg2SnCSn2CSnTe4Mg2SnCSn2CSnTe4Mg2SnCSn2CSnTe4Mg2SnCSn2CSnTe4Mg2SnCSn2CSnTe4Mg2SnCSn2CSnTe4Mg2SnCSn2CSnTe4Mg2SnCSn2CSnTe4Mg2SnCSn2CSnTe4Mg2SnCSn2CSnTe4Mg2SnCSn2CSnTe4Mg2SnCSn2CSnTe4Mg2SnCSn2CSnTe4Mg2SnCSn2CSnTe4Mg2SnCSn2CSnTe4Mg2
_chemical_formula_sum              "H104 C212 N16 Sn64 Te64 Mg32"
_cell_length_a       23.9172
_cell_length_b       25.2554
_cell_length_c       34.6343
_cell_angle_alpha    90.2813
_cell_angle_beta     89.9323
_cell_angle_gamma    91.0084

_symmetry_space_group_name_H-M    'P1'
_space_group_IT_number       1

loop_
  _space_group_symop_operation_xyz
  'x, y, z'

loop_
  _atom_site_type_symbol
  _atom_site_label
  _atom_site_symmetry_multiplicity
  _atom_site_fract_x
  _atom_site_fract_y
  _atom_site_fract_z
  _atom_site_occupancy
  H   H1        1.0  0.42020  0.75118  0.61116  1.0000
  H   H2        1.0  0.56495  0.61367  0.59711  1.0000
  H   H3        1.0  0.57155  0.67973  0.65031  1.0000
  H   H4        1.0  0.54299  0.76302  0.67911  1.0000
  C   C1        1.0  0.51354  0.55794  0.46668  1.0000
  C   C2        1.0  0.50608  0.61368  0.46671  1.0000
  C   C3        1.0  0.50507  0.76760  0.34416  1.0000
  N   N1        1.0  0.51747  0.81626  0.35288  1.0000
  C   C4        1.0  0.54780  0.30852  0.43141  1.0000
  C   C5        1.0  0.47823  0.32778  0.36868  1.0000
  C   C6        1.0  0.48787  0.52710  0.57229  1.0000
  H   H5        1.0  0.41380  0.68521  0.55720  1.0000
  H   H6        1.0  0.48131  0.45124  0.59860  1.0000
  H   H7        1.0  0.07842  0.25475  0.60368  1.0000
  H   H8        1.0  0.92759  0.11697  0.59464  1.0000
  H   H9        1.0  0.92290  0.18797  0.64437  1.0000
  H   H10       1.0  0.95472  0.27215  0.67004  1.0000
  H   H11       1.0  0.06403  0.40520  0.63608  1.0000
  H   H12       1.0  0.04977  0.48800  0.67326  1.0000
  H   H13       1.0  0.96188  0.39907  0.76057  1.0000
  H   H14       1.0  0.03054  0.68356  0.72572  1.0000
  C   C7        1.0  0.00116  0.05534  0.46382  1.0000
  C   C8        1.0  0.00258  0.11160  0.46429  1.0000
  C   C9        1.0  0.97373  0.26314  0.34265  1.0000
  N   N2        1.0  0.99403  0.30989  0.34915  1.0000
  C   C10       1.0  0.98794  0.35238  0.32398  1.0000
  C   C11       1.0  0.00407  0.35074  0.28492  1.0000
  C   C12       1.0  0.97002  0.40075  0.33950  1.0000
  C   C13       1.0  0.00608  0.39715  0.26320  1.0000
  C   C14       1.0  0.97050  0.44636  0.31714  1.0000
  C   C15       1.0  0.99164  0.44622  0.27929  1.0000
  C   C16       1.0  0.96313  0.80794  0.42682  1.0000
  C   C17       1.0  0.04683  0.82004  0.37137  1.0000
  C   C18       1.0  0.00130  0.02641  0.57120  1.0000
  H   H15       1.0  0.08309  0.18350  0.55336  1.0000
  H   H16       1.0  0.99816  0.95072  0.59824  1.0000
  H   H17       1.0  0.43788  0.23440  0.59683  1.0000
  H   H18       1.0  0.55944  0.39571  0.60517  1.0000
  H   H19       1.0  0.56201  0.32810  0.65692  1.0000
  H   H20       1.0  0.53075  0.24092  0.68382  1.0000
  C   C19       1.0  0.51793  0.44482  0.46651  1.0000
  C   C20       1.0  0.51463  0.38868  0.46610  1.0000
  C   C21       1.0  0.51649  0.35537  0.43091  1.0000
  C   C22       1.0  0.54291  0.27128  0.40203  1.0000
  C   C23       1.0  0.50677  0.27966  0.37067  1.0000
  C   C24       1.0  0.49686  0.23722  0.34231  1.0000
  N   N3        1.0  0.50926  0.18920  0.35069  1.0000
  C   C25       1.0  0.50249  0.14706  0.32463  1.0000
  C   C26       1.0  0.52724  0.14635  0.28777  1.0000
  C   C27       1.0  0.47407  0.10108  0.33743  1.0000
  C   C28       1.0  0.52662  0.09984  0.26566  1.0000
  C   C29       1.0  0.47213  0.05574  0.31456  1.0000
  C   C30       1.0  0.50070  0.05323  0.27915  1.0000
  C   C31       1.0  0.48989  0.47301  0.57219  1.0000
  H   H21       1.0  0.43374  0.30295  0.54546  1.0000
  C   C32       1.0  0.48285  0.36507  0.39847  1.0000
  H   H22       1.0  0.47834  0.54840  0.59880  1.0000
  H   H23       1.0  0.05001  0.73330  0.67389  1.0000
  H   H24       1.0  0.93996  0.59909  0.63701  1.0000
  H   H25       1.0  0.94802  0.51571  0.67439  1.0000
  H   H26       1.0  0.03935  0.60082  0.76232  1.0000
  H   H27       1.0  0.97533  0.31707  0.72332  1.0000
  C   C33       1.0  0.99978  0.94198  0.46386  1.0000
  C   C34       1.0  0.99831  0.88577  0.46438  1.0000
  C   C35       1.0  0.00067  0.85150  0.42964  1.0000
  C   C36       1.0  0.96846  0.77023  0.39785  1.0000
  C   C37       1.0  0.01100  0.77536  0.36994  1.0000
  C   C38       1.0  0.01979  0.73273  0.34175  1.0000
  N   N4        1.0  0.00195  0.68552  0.34925  1.0000
  C   C39       1.0  0.99952  0.97226  0.57116  1.0000
  C   C40       1.0  0.04227  0.85721  0.40113  1.0000
  H   H28       1.0  0.00253  0.04822  0.59835  1.0000
  H   H29       1.0  0.48924  0.75507  0.31563  1.0000
  H   H30       1.0  0.54927  0.18159  0.27742  1.0000
  C   C41       1.0  0.49640  0.55690  0.53772  1.0000
  C   C42       1.0  0.49257  0.61287  0.53729  1.0000
  C   C43       1.0  0.48976  0.64565  0.57284  1.0000
  C   C44       1.0  0.45135  0.72063  0.60773  1.0000
  C   C45       1.0  0.49668  0.72066  0.63372  1.0000
  C   C46       1.0  0.50520  0.76451  0.66104  1.0000
  N   N5        1.0  0.47190  0.80425  0.66098  1.0000
  C   C47       1.0  0.46220  0.30814  0.56973  1.0000
  C   C48       1.0  0.53354  0.32281  0.63263  1.0000
  C   C49       1.0  0.53003  0.52908  0.43299  1.0000
  C   C50       1.0  0.53279  0.64329  0.60044  1.0000
  H   H31       1.0  0.54444  0.45376  0.40700  1.0000
  H   H32       1.0  0.94655  0.25394  0.31780  1.0000
  H   H33       1.0  0.95626  0.40175  0.36943  1.0000
  H   H34       1.0  0.95600  0.48302  0.32991  1.0000
  H   H35       1.0  0.02010  0.39524  0.23334  1.0000
  C   C51       1.0  0.00203  0.05557  0.53591  1.0000
  C   C52       1.0  0.00484  0.11162  0.53540  1.0000
  C   C53       1.0  0.00538  0.14596  0.57019  1.0000
  C   C54       1.0  0.04615  0.22400  0.60160  1.0000
  C   C55       1.0  0.00016  0.22645  0.62693  1.0000
  C   C56       1.0  0.99314  0.27195  0.65254  1.0000
  N   N6        1.0  0.02846  0.31129  0.65261  1.0000
  C   C57       1.0  0.01936  0.35558  0.67619  1.0000
  C   C58       1.0  0.99087  0.35454  0.71182  1.0000
  C   C59       1.0  0.04122  0.40445  0.66325  1.0000
  C   C60       1.0  0.98346  0.40099  0.73294  1.0000
  C   C61       1.0  0.03287  0.45077  0.68425  1.0000
  C   C62       1.0  0.00328  0.45020  0.71930  1.0000
  C   C63       1.0  0.00097  0.02545  0.42864  1.0000
  C   C64       1.0  0.96126  0.14635  0.59702  1.0000
  H   H36       1.0  0.99894  0.94975  0.40144  1.0000
  H   H37       1.0  0.56572  0.23444  0.40299  1.0000
  H   H38       1.0  0.45802  0.40073  0.39773  1.0000
  H   H39       1.0  0.45031  0.33492  0.34449  1.0000
  H   H40       1.0  0.47667  0.24757  0.31491  1.0000
  H   H41       1.0  0.45413  0.10150  0.36565  1.0000
  H   H42       1.0  0.44971  0.02088  0.32510  1.0000
  H   H43       1.0  0.54788  0.09951  0.23787  1.0000
  C   C65       1.0  0.50103  0.44399  0.53754  1.0000
  C   C66       1.0  0.50181  0.38779  0.53667  1.0000
  C   C67       1.0  0.49751  0.35352  0.57109  1.0000
  C   C68       1.0  0.46401  0.27003  0.59833  1.0000
  C   C69       1.0  0.50115  0.27598  0.62962  1.0000
  C   C70       1.0  0.50856  0.23226  0.65662  1.0000
  N   N7        1.0  0.49205  0.18504  0.64723  1.0000
  C   C71       1.0  0.44819  0.68404  0.57771  1.0000
  C   C72       1.0  0.53645  0.68047  0.63030  1.0000
  C   C73       1.0  0.53181  0.47494  0.43289  1.0000
  H   H44       1.0  0.57563  0.30161  0.45562  1.0000
  C   C74       1.0  0.53190  0.36103  0.60368  1.0000
  H   H45       1.0  0.54178  0.55110  0.40724  1.0000
  H   H46       1.0  0.94050  0.73583  0.39644  1.0000
  H   H47       1.0  0.07266  0.88962  0.40339  1.0000
  H   H48       1.0  0.08029  0.82422  0.35019  1.0000
  H   H49       1.0  0.04367  0.74226  0.31545  1.0000
  H   H50       1.0  0.01751  0.31347  0.27240  1.0000
  C   C75       1.0  0.99926  0.94263  0.53588  1.0000
  C   C76       1.0  0.99709  0.88652  0.53543  1.0000
  C   C77       1.0  0.01335  0.73076  0.65473  1.0000
  N   N8        1.0  0.97960  0.69027  0.65376  1.0000
  C   C78       1.0  0.98633  0.64649  0.67771  1.0000
  C   C79       1.0  0.01364  0.64674  0.71373  1.0000
  C   C80       1.0  0.96206  0.59862  0.66442  1.0000
  C   C81       1.0  0.01831  0.59996  0.73452  1.0000
  C   C82       1.0  0.96716  0.55213  0.68533  1.0000
  C   C83       1.0  0.99662  0.55159  0.72032  1.0000
  C   C84       1.0  0.04839  0.18461  0.57367  1.0000
  C   C85       1.0  0.95860  0.18638  0.62488  1.0000
  C   C86       1.0  0.99995  0.97130  0.42867  1.0000
  H   H51       1.0  0.93004  0.80405  0.44825  1.0000
  H   H52       1.0  0.00215  0.04657  0.40138  1.0000
  H   H53       1.0  0.26150  0.95528  0.18566  1.0000
  H   H54       1.0  0.69482  0.01262  0.23938  1.0000
  C   C87       1.0  0.05194  0.99972  0.95825  1.0000
  C   C88       1.0  0.10290  0.00170  0.97982  1.0000
  C   C89       1.0  0.25764  0.00944  0.83100  1.0000
  N   N9        1.0  0.29670  0.97493  0.83403  1.0000
  C   C90       1.0  0.34536  0.98173  0.81184  1.0000
  C   C91       1.0  0.34579  0.00465  0.77483  1.0000
  C   C92       1.0  0.39618  0.96345  0.82674  1.0000
  C   C93       1.0  0.39572  0.01181  0.75487  1.0000
  C   C94       1.0  0.44615  0.97103  0.80651  1.0000
  C   C95       1.0  0.44711  0.99663  0.77059  1.0000
  C   C96       1.0  0.85548  0.03846  0.89938  1.0000
  C   C97       1.0  0.84185  0.96266  0.84124  1.0000
  C   C98       1.0  0.05147  0.99868  0.08199  1.0000
  H   H55       1.0  0.14222  0.00391  0.96412  1.0000
  C   C99       1.0  0.89014  0.96327  0.86368  1.0000
  H   H56       1.0  0.75142  0.54441  0.19598  1.0000
  H   H57       1.0  0.18799  0.46844  0.23921  1.0000
  C   C100      1.0  0.54982  0.50662  0.95777  1.0000
  C   C101      1.0  0.59907  0.51933  0.97955  1.0000
  C   C102      1.0  0.74926  0.52298  0.82336  1.0000
  N   N10       1.0  0.79646  0.50492  0.83475  1.0000
  C   C103      1.0  0.54850  0.50659  0.08154  1.0000
  H   H58       1.0  0.63714  0.53003  0.96413  1.0000
  H   H59       1.0  0.77404  0.92544  0.11960  1.0000
  H   H60       1.0  0.91810  0.06865  0.13423  1.0000
  H   H61       1.0  0.82872  0.07277  0.17079  1.0000
  H   H62       1.0  0.73915  0.04145  0.18574  1.0000
  H   H63       1.0  0.60118  0.94163  0.14620  1.0000
  H   H64       1.0  0.51314  0.95686  0.18190  1.0000
  H   H65       1.0  0.60744  0.02743  0.27505  1.0000
  C   C104      1.0  0.94795  0.99902  0.95825  1.0000
  C   C105      1.0  0.89701  0.99671  0.97999  1.0000
  C   C106      1.0  0.89737  0.00061  0.89359  1.0000
  C   C107      1.0  0.80743  0.03812  0.87688  1.0000
  C   C108      1.0  0.79940  0.99957  0.84775  1.0000
  C   C109      1.0  0.74785  0.99566  0.82527  1.0000
  N   N11       1.0  0.70778  0.02901  0.82912  1.0000
  C   C110      1.0  0.65890  0.02221  0.80712  1.0000
  C   C111      1.0  0.65689  0.99976  0.76979  1.0000
  C   C112      1.0  0.60868  0.04009  0.82334  1.0000
  C   C113      1.0  0.60595  0.99238  0.75093  1.0000
  C   C114      1.0  0.55788  0.03252  0.80423  1.0000
  C   C115      1.0  0.55520  0.00701  0.76817  1.0000
  C   C116      1.0  0.94881  0.99517  0.08214  1.0000
  H   H66       1.0  0.85741  0.99556  0.96463  1.0000
  H   H67       1.0  0.86331  0.92182  0.08214  1.0000
  H   H68       1.0  0.24854  0.46230  0.19823  1.0000
  H   H69       1.0  0.10758  0.55836  0.15071  1.0000
  H   H70       1.0  0.01724  0.54872  0.18555  1.0000
  H   H71       1.0  0.09820  0.45655  0.27242  1.0000
  C   C117      1.0  0.44712  0.48860  0.95757  1.0000
  C   C118      1.0  0.39800  0.47533  0.97936  1.0000
  C   C119      1.0  0.24990  0.47861  0.82109  1.0000
  N   N12       1.0  0.20165  0.49070  0.83496  1.0000
  C   C120      1.0  0.15434  0.49139  0.81130  1.0000
  C   C121      1.0  0.15418  0.51499  0.77456  1.0000
  C   C122      1.0  0.10378  0.47034  0.82588  1.0000
  C   C123      1.0  0.10449  0.51862  0.75382  1.0000
  C   C124      1.0  0.05478  0.47285  0.80439  1.0000
  C   C125      1.0  0.05364  0.49873  0.76863  1.0000
  C   C126      1.0  0.44604  0.49730  0.08127  1.0000
  H   H72       1.0  0.36069  0.46187  0.96410  1.0000
  H   H73       1.0  0.77497  0.06709  0.88160  1.0000
  H   H74       1.0  0.92216  0.93387  0.85888  1.0000
  H   H75       1.0  0.83653  0.93293  0.81862  1.0000
  H   H76       1.0  0.74435  0.96127  0.80570  1.0000
  H   H77       1.0  0.61040  0.05913  0.85155  1.0000
  H   H78       1.0  0.51977  0.04641  0.81774  1.0000
  H   H79       1.0  0.60538  0.97493  0.72215  1.0000
  H   H80       1.0  0.30664  0.01581  0.76143  1.0000
  C   C127      1.0  0.94805  0.99587  0.04109  1.0000
  C   C128      1.0  0.89707  0.99575  0.01947  1.0000
  C   C129      1.0  0.89645  0.99544  0.10513  1.0000
  C   C130      1.0  0.80568  0.95672  0.12233  1.0000
  C   C131      1.0  0.79516  0.99959  0.14735  1.0000
  C   C132      1.0  0.74266  0.00485  0.16852  1.0000
  N   N13       1.0  0.70224  0.97027  0.16673  1.0000
  C   C133      1.0  0.65407  0.97848  0.18907  1.0000
  C   C134      1.0  0.65499  0.00187  0.22612  1.0000
  C   C135      1.0  0.60212  0.96123  0.17421  1.0000
  C   C136      1.0  0.60553  0.00986  0.24634  1.0000
  C   C137      1.0  0.55268  0.97003  0.19448  1.0000
  C   C138      1.0  0.55322  0.99550  0.23060  1.0000
  C   C139      1.0  0.94884  0.00046  0.91720  1.0000
  H   H81       1.0  0.85760  0.99492  0.03506  1.0000
  H   H82       1.0  0.86160  0.06849  0.92167  1.0000
  H   H83       1.0  0.25525  0.46443  0.79121  1.0000
  H   H84       1.0  0.10408  0.45187  0.85418  1.0000
  H   H85       1.0  0.01647  0.45527  0.81589  1.0000
  H   H86       1.0  0.10522  0.53793  0.72582  1.0000
  C   C140      1.0  0.44622  0.49287  0.04030  1.0000
  C   C141      1.0  0.39726  0.47827  0.01882  1.0000
  C   C142      1.0  0.24645  0.49187  0.17504  1.0000
  N   N14       1.0  0.20245  0.51951  0.16853  1.0000
  C   C143      1.0  0.15404  0.51264  0.19123  1.0000
  C   C144      1.0  0.15062  0.48483  0.22639  1.0000
  C   C145      1.0  0.10489  0.53573  0.17731  1.0000
  C   C146      1.0  0.09972  0.47835  0.24544  1.0000
  C   C147      1.0  0.05418  0.52966  0.19682  1.0000
  C   C148      1.0  0.05015  0.49970  0.23079  1.0000
  C   C149      1.0  0.44746  0.49119  0.91650  1.0000
  H   H87       1.0  0.35921  0.46799  0.03449  1.0000
  H   H88       1.0  0.26307  0.04492  0.81293  1.0000
  H   H89       1.0  0.39569  0.94389  0.85465  1.0000
  H   H90       1.0  0.48480  0.95659  0.81882  1.0000
  H   H91       1.0  0.39500  0.02922  0.72625  1.0000
  H   H92       1.0  0.69546  0.98883  0.75536  1.0000
  C   C150      1.0  0.05203  0.99951  0.04097  1.0000
  C   C151      1.0  0.10300  0.00122  0.01928  1.0000
  C   C152      1.0  0.25649  0.99237  0.16953  1.0000
  N   N15       1.0  0.29550  0.02846  0.16896  1.0000
  C   C153      1.0  0.85535  0.95496  0.10147  1.0000
  C   C154      1.0  0.83654  0.03949  0.15153  1.0000
  C   C155      1.0  0.05143  0.00012  0.91723  1.0000
  H   H93       1.0  0.14253  0.00246  0.03472  1.0000
  C   C156      1.0  0.88664  0.03728  0.13104  1.0000
  H   H94       1.0  0.74523  0.54435  0.79590  1.0000
  H   H95       1.0  0.19273  0.53227  0.76313  1.0000
  C   C157      1.0  0.54914  0.50780  0.04048  1.0000
  C   C158      1.0  0.59890  0.51955  0.01905  1.0000
  C   C159      1.0  0.74952  0.51352  0.17346  1.0000
  N   N16       1.0  0.79075  0.48228  0.16689  1.0000
  C   C160      1.0  0.54964  0.50498  0.91668  1.0000
  H   H96       1.0  0.63681  0.53010  0.03481  1.0000
  C   C161      1.0  0.50026  0.00092  0.74537  1.0000
  C   C162      1.0  0.99962  0.50069  0.74444  1.0000
  C   C163      1.0  0.49992  0.00132  0.25531  1.0000
  C   C164      1.0  0.99567  0.49701  0.25465  1.0000
  C   C165      1.0  0.00000  0.99793  0.02035  1.0000
  C   C166      1.0  0.00027  0.00075  0.89785  1.0000
  H   H97       1.0  0.00043  0.00177  0.86643  1.0000
  C   C167      1.0  0.49789  0.49958  0.01970  1.0000
  C   C168      1.0  0.49856  0.49894  0.89744  1.0000
  H   H98       1.0  0.49836  0.50070  0.86607  1.0000
  C   C169      1.0  0.99992  0.99880  0.97892  1.0000
  C   C170      1.0  0.00018  0.99637  0.10148  1.0000
  H   H99       1.0  0.00029  0.99584  0.13291  1.0000
  C   C171      1.0  0.49828  0.49821  0.97827  1.0000
  C   C172      1.0  0.49716  0.50256  0.10073  1.0000
  H   H100      1.0  0.49693  0.50333  0.13217  1.0000
  C   C173      1.0  0.50877  0.47261  0.50214  1.0000
  C   C174      1.0  0.50706  0.36200  0.50107  1.0000
  H   H101      1.0  0.50525  0.31896  0.50049  1.0000
  C   C175      1.0  0.00004  0.97054  0.49984  1.0000
  C   C176      1.0  0.99600  0.85990  0.49996  1.0000
  H   H102      1.0  0.99635  0.81687  0.50014  1.0000
  C   C177      1.0  0.50631  0.52925  0.50215  1.0000
  C   C178      1.0  0.49508  0.63923  0.50194  1.0000
  H   H103      1.0  0.48975  0.68193  0.50178  1.0000
  C   C179      1.0  0.00096  0.02726  0.49983  1.0000
  C   C180      1.0  0.00567  0.13786  0.49994  1.0000
  H   H104      1.0  0.00549  0.18091  0.50023  1.0000
  C  Sn1       1.0  0.36137  0.47445  0.16413  1.0000
  C   C181      1.0  0.31181  0.50183  0.15841  1.0000
  C  Sn2       1.0  0.30028  0.52435  0.12260  1.0000
  C  Sn3       1.0  0.33908  0.51937  0.09185  1.0000
  C   C182      1.0  0.38860  0.49200  0.09757  1.0000
  C  Sn4       1.0  0.40017  0.46947  0.13338  1.0000
  O  Te1       1.0  0.37202  0.45225  0.20018  1.0000
  O  Te2       1.0  0.25046  0.55155  0.11758  1.0000
  O  Te3       1.0  0.32838  0.54160  0.05579  1.0000
  O  Te4       1.0  0.44994  0.44228  0.13841  1.0000
  Mg  Mg1       1.0  0.25478  0.57485  0.06315  1.0000
  Mg  Mg2       1.0  0.44566  0.41894  0.19282  1.0000
  C  Sn5       1.0  0.62168  0.55830  0.13504  1.0000
  C   C183      1.0  0.60829  0.52407  0.10447  1.0000
  C  Sn6       1.0  0.63877  0.47806  0.09848  1.0000
  C  Sn7       1.0  0.68354  0.46600  0.12358  1.0000
  C   C184      1.0  0.69690  0.50022  0.15413  1.0000
  C  Sn8       1.0  0.66645  0.54624  0.16014  1.0000
  O  Te5       1.0  0.59064  0.60407  0.14048  1.0000
  O  Te6       1.0  0.62461  0.44446  0.06771  1.0000
  O  Te7       1.0  0.71458  0.42019  0.11811  1.0000
  O  Te8       1.0  0.68058  0.57983  0.19089  1.0000
  Mg  Mg3       1.0  0.67927  0.38684  0.07219  1.0000
  Mg  Mg4       1.0  0.62594  0.63744  0.18645  1.0000
  C  Sn9       1.0  0.11610  0.96071  0.14460  1.0000
  C   C185      1.0  0.09931  0.99933  0.11850  1.0000
  C  Sn10      1.0  0.11943  0.03627  0.10403  1.0000
  C  Sn11      1.0  0.17611  0.03455  0.11588  1.0000
  C   C186      1.0  0.21146  0.99595  0.14196  1.0000
  C  Sn12      1.0  0.17278  0.95899  0.15645  1.0000
  O  Te9       1.0  0.07669  0.92418  0.15869  1.0000
  O  Te10      1.0  0.10164  0.07452  0.07798  1.0000
  O  Te11      1.0  0.21552  0.07113  0.10177  1.0000
  O  Te12      1.0  0.19054  0.92076  0.18248  1.0000
  Mg  Mg5       1.0  0.17099  0.11565  0.06687  1.0000
  Mg  Mg6       1.0  0.12124  0.87959  0.19359  1.0000
  C  Sn13      1.0  0.46855  0.67175  0.37652  1.0000
  C   C187      1.0  0.49568  0.72121  0.37610  1.0000
  C  Sn14      1.0  0.53719  0.73348  0.40321  1.0000
  C  Sn15      1.0  0.55192  0.69552  0.43130  1.0000
  C   C188      1.0  0.52480  0.64610  0.43170  1.0000
  C  Sn16      1.0  0.48328  0.63379  0.40461  1.0000
  O  Te13      1.0  0.42718  0.66033  0.34915  1.0000
  O  Te14      1.0  0.56371  0.78320  0.40222  1.0000
  O  Te15      1.0  0.59332  0.70698  0.45868  1.0000
  O  Te16      1.0  0.45677  0.58411  0.40558  1.0000
  Mg  Mg7       1.0  0.61743  0.78009  0.44557  1.0000
  Mg  Mg8       1.0  0.40307  0.58716  0.36224  1.0000
  C  Sn17      1.0  0.04283  0.21371  0.39801  1.0000
  C   C189      1.0  0.00188  0.21391  0.36926  1.0000
  C  Sn18      1.0  0.95468  0.18077  0.37207  1.0000
  C  Sn19      1.0  0.94826  0.14675  0.40429  1.0000
  C   C190      1.0  0.98919  0.14658  0.43302  1.0000
  C  Sn20      1.0  0.03641  0.17970  0.43023  1.0000
  O  Te17      1.0  0.08967  0.24717  0.39460  1.0000
  O  Te18      1.0  0.91431  0.18165  0.34296  1.0000
  O  Te19      1.0  0.90137  0.11328  0.40767  1.0000
  O  Te20      1.0  0.07675  0.17883  0.45932  1.0000
  Mg  Mg9       1.0  0.85787  0.12881  0.36061  1.0000
  Mg  Mg10      1.0  0.13320  0.23168  0.44171  1.0000
  C  Sn21      1.0  0.94513  0.81102  0.58570  1.0000
  C   C191      1.0  0.98182  0.85342  0.57820  1.0000
  C  Sn22      1.0  0.03531  0.85481  0.59435  1.0000
  C  Sn23      1.0  0.05252  0.81293  0.61849  1.0000
  C   C192      1.0  0.01585  0.77057  0.62598  1.0000
  C  Sn24      1.0  0.96234  0.76915  0.60984  1.0000
  O  Te21      1.0  0.89184  0.81045  0.56925  1.0000
  O  Te22      1.0  0.07124  0.89762  0.58644  1.0000
  O  Te23      1.0  0.10585  0.81354  0.63495  1.0000
  O  Te24      1.0  0.92642  0.72637  0.61774  1.0000
  Mg  Mg11      1.0  0.13967  0.88040  0.61558  1.0000
  Mg  Mg12      1.0  0.85800  0.74353  0.58860  1.0000
  C  Sn25      1.0  0.89978  0.45419  0.17854  1.0000
  C   C193      1.0  0.84658  0.46833  0.19123  1.0000
  C  Sn26      1.0  0.84040  0.50012  0.22403  1.0000
  C  Sn27      1.0  0.88840  0.51819  0.24455  1.0000
  C   C194      1.0  0.94156  0.50406  0.23185  1.0000
  C  Sn28      1.0  0.94778  0.47226  0.19906  1.0000
  O  Te25      1.0  0.90497  0.42238  0.14568  1.0000
  O  Te26      1.0  0.78678  0.51372  0.23617  1.0000
  O  Te27      1.0  0.88317  0.55002  0.27743  1.0000
  O  Te28      1.0  0.00136  0.45867  0.18692  1.0000
  Mg  Mg13      1.0  0.80130  0.55791  0.28258  1.0000
  Mg  Mg14      1.0  0.98689  0.41451  0.14050  1.0000
  C  Sn29      1.0  0.53816  0.06282  0.67872  1.0000
  C   C195      1.0  0.51908  0.05674  0.71662  1.0000
  C  Sn30      1.0  0.48264  0.09339  0.73277  1.0000
  C  Sn31      1.0  0.46485  0.13700  0.71055  1.0000
  C   C196      1.0  0.48391  0.14305  0.67267  1.0000
  C  Sn32      1.0  0.52037  0.10643  0.65651  1.0000
  O  Te29      1.0  0.57457  0.02570  0.66317  1.0000
  O  Te30      1.0  0.46415  0.08649  0.77072  1.0000
  O  Te31      1.0  0.42840  0.17413  0.72614  1.0000
  O  Te32      1.0  0.53884  0.11331  0.61857  1.0000
  Mg  Mg15      1.0  0.41480  0.14763  0.77907  1.0000
  Mg  Mg16      1.0  0.58817  0.05218  0.61019  1.0000
  C  Sn33      1.0  0.46251  0.89487  0.27732  1.0000
  C   C197      1.0  0.48540  0.94523  0.28457  1.0000
  C  Sn34      1.0  0.52665  0.95245  0.31271  1.0000
  C  Sn35      1.0  0.54545  0.90841  0.33405  1.0000
  C   C198      1.0  0.52257  0.85808  0.32679  1.0000
  C  Sn36      1.0  0.48131  0.85083  0.29866  1.0000
  O  Te33      1.0  0.42131  0.88857  0.24905  1.0000
  O  Te34      1.0  0.53031  0.00318  0.31945  1.0000
  O  Te35      1.0  0.58668  0.91474  0.36234  1.0000
  O  Te36      1.0  0.45908  0.80013  0.29191  1.0000
  Mg  Mg17      1.0  0.60415  0.99161  0.36095  1.0000
  Mg  Mg18      1.0  0.40384  0.81165  0.25041  1.0000
  C  Sn37      1.0  0.60510  0.53299  0.84724  1.0000
  C   C199      1.0  0.59735  0.50420  0.88125  1.0000
  C  Sn38      1.0  0.64322  0.48404  0.90090  1.0000
  C  Sn39      1.0  0.69799  0.49286  0.88628  1.0000
  C   C200      1.0  0.70573  0.52163  0.85230  1.0000
  C  Sn40      1.0  0.65988  0.54181  0.83262  1.0000
  O  Te37      1.0  0.55864  0.55278  0.82807  1.0000
  O  Te38      1.0  0.63442  0.45537  0.93483  1.0000
  O  Te39      1.0  0.74447  0.47303  0.90548  1.0000
  O  Te40      1.0  0.66866  0.57047  0.79871  1.0000
  Mg  Mg19      1.0  0.71104  0.43646  0.95058  1.0000
  Mg  Mg20      1.0  0.59207  0.58942  0.78295  1.0000
  C  Sn41      1.0  0.38380  0.97310  0.23859  1.0000
  C   C201      1.0  0.43752  0.99070  0.22841  1.0000
  C  Sn42      1.0  0.42634  0.02984  0.20042  1.0000
  C  Sn43      1.0  0.37907  0.05187  0.18223  1.0000
  C   C202      1.0  0.32540  0.03428  0.19241  1.0000
  C  Sn44      1.0  0.33653  0.99513  0.22040  1.0000
  O  Te41      1.0  0.37737  0.93393  0.26665  1.0000
  O  Te42      1.0  0.48046  0.04679  0.19071  1.0000
  O  Te43      1.0  0.38554  0.09107  0.15415  1.0000
  O  Te44      1.0  0.28245  0.97819  0.23011  1.0000
  Mg  Mg21      1.0  0.46766  0.10110  0.15081  1.0000
  Mg  Mg22      1.0  0.29520  0.92391  0.27002  1.0000
  C  Sn45      1.0  0.01744  0.55415  0.32553  1.0000
  C   C203      1.0  0.99429  0.54689  0.28881  1.0000
  C  Sn46      1.0  0.98035  0.59053  0.26637  1.0000
  C  Sn47      1.0  0.98978  0.64251  0.28093  1.0000
  C   C204      1.0  0.01293  0.64975  0.31762  1.0000
  C  Sn48      1.0  0.02687  0.60613  0.34008  1.0000
  O  Te45      1.0  0.03105  0.50996  0.34745  1.0000
  O  Te46      1.0  0.95724  0.58228  0.22976  1.0000
  O  Te47      1.0  0.97615  0.68672  0.25896  1.0000
  O  Te48      1.0  0.04997  0.61437  0.37667  1.0000
  Mg  Mg23      1.0  0.94568  0.65510  0.21082  1.0000
  Mg  Mg24      1.0  0.06157  0.54157  0.39562  1.0000
  C  Sn49      1.0  0.93839  0.51626  0.81612  1.0000
  C   C205      1.0  0.94692  0.49566  0.77909  1.0000
  C  Sn50      1.0  0.90145  0.48397  0.75506  1.0000
  C  Sn51      1.0  0.84630  0.49309  0.76829  1.0000
  C   C206      1.0  0.83778  0.51368  0.80529  1.0000
  C  Sn52      1.0  0.88323  0.52538  0.82935  1.0000
  O  Te49      1.0  0.98446  0.52766  0.83965  1.0000
  O  Te50      1.0  0.91104  0.46338  0.71817  1.0000
  O  Te51      1.0  0.80021  0.48167  0.74472  1.0000
  O  Te52      1.0  0.87367  0.54596  0.86622  1.0000
  Mg  Mg25      1.0  0.83470  0.45423  0.69683  1.0000
  Mg  Mg26      1.0  0.94997  0.55516  0.88757  1.0000
  C  Sn53      1.0  0.50169  0.85898  0.73053  1.0000
  C   C207      1.0  0.47278  0.84844  0.69623  1.0000
  C  Sn54      1.0  0.45881  0.88970  0.67152  1.0000
  C  Sn55      1.0  0.47408  0.94260  0.68130  1.0000
  C   C208      1.0  0.50299  0.95312  0.71558  1.0000
  C  Sn56      1.0  0.51697  0.91188  0.74030  1.0000
  O  Te53      1.0  0.51523  0.81711  0.75479  1.0000
  O  Te54      1.0  0.42987  0.87819  0.63739  1.0000
  O  Te55      1.0  0.46051  0.98447  0.65700  1.0000
  O  Te56      1.0  0.54590  0.92337  0.77441  1.0000
  Mg  Mg27      1.0  0.42089  0.94873  0.61374  1.0000
  Mg  Mg28      1.0  0.55493  0.85285  0.79807  1.0000
  C  Sn57      1.0  0.15997  0.05561  0.85933  1.0000
  C   C209      1.0  0.20330  0.01921  0.85928  1.0000
  C  Sn58      1.0  0.21332  0.96848  0.87430  1.0000
  C  Sn59      1.0  0.16032  0.95381  0.88968  1.0000
  C   C210      1.0  0.11702  0.99019  0.88972  1.0000
  C  Sn60      1.0  0.10697  0.04094  0.87471  1.0000
  O  Te57      1.0  0.16947  0.10611  0.84417  1.0000
  O  Te58      1.0  0.25729  0.93278  0.87393  1.0000
  O  Te59      1.0  0.15085  0.90326  0.90485  1.0000
  O  Te60      1.0  0.06303  0.07662  0.87507  1.0000
  Mg  Mg29      1.0  0.22379  0.86863  0.89786  1.0000
  Mg  Mg30      1.0  0.09647  0.14077  0.85113  1.0000
  C  Sn61      1.0  0.32982  0.50098  0.90612  1.0000
  C   C211      1.0  0.38262  0.48035  0.89869  1.0000
  C  Sn62      1.0  0.39657  0.46298  0.86162  1.0000
  C  Sn63      1.0  0.35695  0.46633  0.83133  1.0000
  C   C212      1.0  0.30420  0.48696  0.83876  1.0000
  C  Sn64      1.0  0.29020  0.50433  0.87583  1.0000
  O  Te61      1.0  0.31677  0.51811  0.94341  1.0000
  O  Te62      1.0  0.44961  0.44248  0.85490  1.0000
  O  Te63      1.0  0.37005  0.44917  0.79403  1.0000
  O  Te64      1.0  0.23721  0.52483  0.88256  1.0000
  Mg  Mg31      1.0  0.44768  0.42429  0.79924  1.0000
  Mg  Mg32      1.0  0.23911  0.54305  0.93820  1.0000
