data_image0
_chemical_formula_structural       H5C6NC10H6C6NC4H8C3NC7H7C3NC7H3C6NC3HCH4C6NC3H2CH4C6NCH6C3NC3H2C5HC2HC2HC2HSnCSn2CSnTe4Mg2SnCSn2CSnTe4Mg2SnCSn2CSnTe4Mg2SnCSn2CSnTe4Mg2SnCSn2CSnTe4Mg2SnCSn2CSnTe4Mg2SnCSn2CSnTe4Mg2SnCSn2CSnTe4Mg2
_chemical_formula_sum              "H52 C106 N8 Sn32 Te32 Mg16"
_cell_length_a       23.8689
_cell_length_b       24.9814
_cell_length_c       35.2246
_cell_angle_alpha    89.6507
_cell_angle_beta     89.4903
_cell_angle_gamma    88.568

_symmetry_space_group_name_H-M    'P1'
_space_group_IT_number       1

loop_
  _space_group_symop_operation_xyz
  'x, y, z'

loop_
  _atom_site_type_symbol
  _atom_site_label
  _atom_site_symmetry_multiplicity
  _atom_site_fract_x
  _atom_site_fract_y
  _atom_site_fract_z
  _atom_site_occupancy
  H   H1        1.0  0.96998  0.25367  0.68726  1.0000
  H   H2        1.0  0.97804  0.40634  0.63102  1.0000
  H   H3        1.0  0.97439  0.48788  0.67071  1.0000
  H   H4        1.0  0.02480  0.39363  0.76762  1.0000
  H   H5        1.0  0.95439  0.67944  0.72124  1.0000
  C   C1        1.0  0.99498  0.05753  0.46664  1.0000
  C   C2        1.0  0.99523  0.11433  0.46749  1.0000
  C   C3        1.0  0.99620  0.14945  0.43343  1.0000
  C   C4        1.0  0.96469  0.23298  0.40342  1.0000
  C   C5        1.0  0.00822  0.22886  0.37620  1.0000
  C   C6        1.0  0.01756  0.27257  0.34918  1.0000
  N   N1        1.0  0.98491  0.31463  0.34929  1.0000
  C   C7        1.0  0.99259  0.35818  0.32467  1.0000
  C   C8        1.0  0.02426  0.35806  0.29073  1.0000
  C   C9        1.0  0.96432  0.40613  0.33499  1.0000
  C   C10       1.0  0.02731  0.40426  0.26837  1.0000
  C   C11       1.0  0.96792  0.45204  0.31268  1.0000
  C   C12       1.0  0.99920  0.45216  0.27864  1.0000
  C   C13       1.0  0.04119  0.81517  0.42292  1.0000
  C   C14       1.0  0.94308  0.81450  0.38064  1.0000
  C   C15       1.0  0.01069  0.02502  0.57117  1.0000
  C   C16       1.0  0.03779  0.14388  0.40506  1.0000
  H   H6        1.0  0.01905  0.94784  0.59682  1.0000
  H   H7        1.0  0.95409  0.73555  0.67496  1.0000
  H   H8        1.0  0.08104  0.60334  0.65122  1.0000
  H   H9        1.0  0.07059  0.51886  0.68784  1.0000
  H   H10       1.0  0.94302  0.59548  0.75681  1.0000
  H   H11       1.0  0.02712  0.31193  0.72820  1.0000
  C   C17       1.0  0.99728  0.94303  0.46574  1.0000
  C   C18       1.0  0.00194  0.88629  0.46568  1.0000
  C   C19       1.0  0.99782  0.85275  0.43127  1.0000
  C   C20       1.0  0.03530  0.77741  0.39463  1.0000
  C   C21       1.0  0.98542  0.77551  0.37365  1.0000
  C   C22       1.0  0.97659  0.73161  0.34719  1.0000
  N   N2        1.0  0.01446  0.69432  0.34273  1.0000
  C   C23       1.0  0.95892  0.19415  0.43140  1.0000
  C   C24       1.0  0.04382  0.18305  0.37696  1.0000
  C   C25       1.0  0.01194  0.97029  0.57071  1.0000
  C   C26       1.0  0.94932  0.85278  0.40892  1.0000
  H   H12       1.0  0.01714  0.04601  0.59763  1.0000
  H   H13       1.0  0.93679  0.26805  0.40229  1.0000
  H   H14       1.0  0.06698  0.10976  0.40621  1.0000
  H   H15       1.0  0.07745  0.17878  0.35599  1.0000
  H   H16       1.0  0.05439  0.26823  0.33028  1.0000
  H   H17       1.0  0.93954  0.40607  0.36105  1.0000
  H   H18       1.0  0.94560  0.48837  0.32159  1.0000
  H   H19       1.0  0.05200  0.40292  0.24231  1.0000
  C   C27       1.0  0.00247  0.05578  0.53723  1.0000
  C   C28       1.0  0.99989  0.11262  0.53736  1.0000
  C   C29       1.0  0.99149  0.26301  0.66034  1.0000
  N   N3        1.0  0.00750  0.31054  0.65174  1.0000
  C   C30       1.0  0.00237  0.35356  0.67677  1.0000
  C   C31       1.0  0.01474  0.35038  0.71576  1.0000
  C   C32       1.0  0.98768  0.40385  0.66111  1.0000
  C   C33       1.0  0.01387  0.39659  0.73776  1.0000
  C   C34       1.0  0.98596  0.44954  0.68353  1.0000
  C   C35       1.0  0.00095  0.44716  0.72192  1.0000
  C   C36       1.0  0.98975  0.02853  0.43204  1.0000
  H   H20       1.0  0.92562  0.19831  0.45255  1.0000
  H   H21       1.0  0.98731  0.95262  0.40484  1.0000
  H   H22       1.0  0.06807  0.74751  0.38870  1.0000
  H   H23       1.0  0.91542  0.88138  0.41512  1.0000
  H   H24       1.0  0.90432  0.81370  0.36458  1.0000
  H   H25       1.0  0.93550  0.73078  0.33329  1.0000
  H   H26       1.0  0.04607  0.32169  0.28124  1.0000
  C   C37       1.0  0.00607  0.94135  0.53615  1.0000
  C   C38       1.0  0.00891  0.88459  0.53525  1.0000
  C   C39       1.0  0.99190  0.73152  0.65699  1.0000
  N   N4        1.0  0.02608  0.69065  0.65840  1.0000
  C   C40       1.0  0.01731  0.64670  0.68241  1.0000
  C   C41       1.0  0.97911  0.64411  0.71303  1.0000
  C   C42       1.0  0.05046  0.60072  0.67419  1.0000
  C   C43       1.0  0.97276  0.59641  0.73328  1.0000
  C   C44       1.0  0.04408  0.55357  0.69462  1.0000
  C   C45       1.0  0.00406  0.54985  0.72397  1.0000
  C   C46       1.0  0.99085  0.97374  0.43157  1.0000
  H   H27       1.0  0.07943  0.81569  0.43947  1.0000
  H   H28       1.0  0.98447  0.05102  0.40573  1.0000
  H   H29       1.0  0.75540  0.44594  0.18717  1.0000
  C   C47       1.0  0.55095  0.48976  0.95681  1.0000
  C   C48       1.0  0.60057  0.47732  0.97800  1.0000
  C   C49       1.0  0.60148  0.48383  0.89287  1.0000
  C   C50       1.0  0.69606  0.51155  0.87720  1.0000
  C   C51       1.0  0.69873  0.47573  0.84647  1.0000
  C   C52       1.0  0.74996  0.47005  0.82358  1.0000
  N   N5        1.0  0.79616  0.49018  0.83490  1.0000
  C   C53       1.0  0.34742  0.48226  0.90484  1.0000
  C   C54       1.0  0.34684  0.54455  0.83880  1.0000
  C   C55       1.0  0.55102  0.49509  0.07867  1.0000
  H   H30       1.0  0.63853  0.46531  0.96270  1.0000
  C   C56       1.0  0.39479  0.54126  0.86109  1.0000
  H   H31       1.0  0.26971  0.45145  0.11152  1.0000
  H   H32       1.0  0.42153  0.57974  0.13484  1.0000
  H   H33       1.0  0.33298  0.58533  0.17238  1.0000
  H   H34       1.0  0.24162  0.55569  0.18729  1.0000
  C   C57       1.0  0.44810  0.50881  0.95744  1.0000
  C   C58       1.0  0.39887  0.52304  0.97893  1.0000
  C   C59       1.0  0.39607  0.51014  0.89457  1.0000
  C   C60       1.0  0.29928  0.48629  0.88307  1.0000
  C   C61       1.0  0.29818  0.51758  0.84970  1.0000
  C   C62       1.0  0.24765  0.52151  0.82652  1.0000
  N   N6        1.0  0.19955  0.50732  0.83953  1.0000
  C   C63       1.0  0.64827  0.51569  0.89981  1.0000
  C   C64       1.0  0.65169  0.44492  0.83876  1.0000
  C   C65       1.0  0.44870  0.50838  0.07900  1.0000
  H   H35       1.0  0.36077  0.53400  0.96380  1.0000
  H   H36       1.0  0.35799  0.44692  0.07277  1.0000
  C   C66       1.0  0.60391  0.44865  0.86179  1.0000
  H   H37       1.0  0.26177  0.46485  0.89101  1.0000
  H   H38       1.0  0.43163  0.56354  0.85295  1.0000
  H   H39       1.0  0.34669  0.56898  0.81307  1.0000
  H   H40       1.0  0.25237  0.53775  0.79759  1.0000
  C   C67       1.0  0.44854  0.51027  0.03869  1.0000
  C   C68       1.0  0.39896  0.52349  0.01774  1.0000
  C   C69       1.0  0.39601  0.51272  0.10137  1.0000
  C   C70       1.0  0.30327  0.47925  0.11621  1.0000
  C   C71       1.0  0.29564  0.51826  0.14463  1.0000
  C   C72       1.0  0.24393  0.52243  0.16694  1.0000
  N   N7        1.0  0.20344  0.48954  0.16276  1.0000
  C   C73       1.0  0.44792  0.50515  0.91713  1.0000
  H   H41       1.0  0.36094  0.53466  0.03328  1.0000
  H   H42       1.0  0.34820  0.45644  0.92980  1.0000
  H   H43       1.0  0.73235  0.53580  0.88255  1.0000
  H   H44       1.0  0.56838  0.42346  0.85618  1.0000
  H   H45       1.0  0.65313  0.41702  0.81511  1.0000
  H   H46       1.0  0.74757  0.44693  0.79716  1.0000
  C   C74       1.0  0.55140  0.49265  0.03830  1.0000
  C   C75       1.0  0.60084  0.47897  0.01684  1.0000
  C   C76       1.0  0.75360  0.48000  0.16720  1.0000
  N   N8        1.0  0.79448  0.51262  0.16318  1.0000
  C   C77       1.0  0.35233  0.47696  0.09479  1.0000
  C   C78       1.0  0.33884  0.55438  0.15097  1.0000
  C   C79       1.0  0.55010  0.48981  0.91639  1.0000
  H   H47       1.0  0.63902  0.46859  0.03211  1.0000
  H   H48       1.0  0.64603  0.54459  0.92278  1.0000
  C   C80       1.0  0.38858  0.55134  0.12993  1.0000
  C   C81       1.0  0.00121  0.49733  0.74724  1.0000
  C   C82       1.0  0.99816  0.50237  0.25250  1.0000
  C   C83       1.0  0.49993  0.50109  0.01815  1.0000
  C   C84       1.0  0.49881  0.49647  0.89783  1.0000
  H   H49       1.0  0.49849  0.49479  0.86696  1.0000
  C   C85       1.0  0.49971  0.49999  0.97741  1.0000
  C   C86       1.0  0.49971  0.50164  0.09791  1.0000
  H   H50       1.0  0.49952  0.50139  0.12882  1.0000
  C   C87       1.0  0.00067  0.97077  0.50119  1.0000
  C   C88       1.0  0.00893  0.85879  0.50011  1.0000
  H   H51       1.0  0.01092  0.81525  0.49962  1.0000
  C   C89       1.0  0.99907  0.02814  0.50172  1.0000
  C   C90       1.0  0.99659  0.14000  0.50262  1.0000
  H   H52       1.0  0.99557  0.18354  0.50290  1.0000
  C  Sn1       1.0  0.11245  0.45855  0.76948  1.0000
  C   C91       1.0  0.06016  0.48351  0.77573  1.0000
  C  Sn2       1.0  0.05461  0.52638  0.80089  1.0000
  C  Sn3       1.0  0.10232  0.54470  0.82017  1.0000
  C   C92       1.0  0.15458  0.51975  0.81390  1.0000
  C  Sn4       1.0  0.16016  0.47687  0.78876  1.0000
  O  Te1       1.0  0.11702  0.41577  0.74421  1.0000
  O  Te2       1.0  0.00189  0.55068  0.80669  1.0000
  O  Te3       1.0  0.09771  0.58751  0.84545  1.0000
  O  Te4       1.0  0.21284  0.45258  0.78295  1.0000
  Mg  Mg1       1.0  0.01701  0.60754  0.84386  1.0000
  Mg  Mg2       1.0  0.19778  0.39574  0.74577  1.0000
  C  Sn5       1.0  0.61028  0.46253  0.14520  1.0000
  C   C93       1.0  0.59882  0.49571  0.11399  1.0000
  C  Sn6       1.0  0.64212  0.52198  0.09525  1.0000
  C  Sn7       1.0  0.69806  0.51490  0.10794  1.0000
  C   C94       1.0  0.70950  0.48173  0.13912  1.0000
  C  Sn8       1.0  0.66622  0.45546  0.15789  1.0000
  O  Te5       1.0  0.56634  0.43667  0.16350  1.0000
  O  Te6       1.0  0.62962  0.55496  0.06413  1.0000
  O  Te7       1.0  0.74201  0.54080  0.08960  1.0000
  O  Te8       1.0  0.67870  0.42248  0.18898  1.0000
  Mg  Mg3       1.0  0.70386  0.58157  0.04854  1.0000
  Mg  Mg4       1.0  0.60450  0.39583  0.20458  1.0000
  C  Sn9       1.0  0.11059  0.53888  0.23335  1.0000
  C   C95       1.0  0.05860  0.51824  0.22409  1.0000
  C  Sn10      1.0  0.05473  0.47907  0.19617  1.0000
  C  Sn11      1.0  0.10385  0.46011  0.17711  1.0000
  C   C96       1.0  0.15580  0.48074  0.18638  1.0000
  C  Sn12      1.0  0.15971  0.51991  0.21430  1.0000
  O  Te9       1.0  0.11346  0.57801  0.26137  1.0000
  O  Te10      1.0  0.00229  0.45906  0.18739  1.0000
  O  Te11      1.0  0.10094  0.42095  0.14908  1.0000
  O  Te12      1.0  0.21211  0.53991  0.22308  1.0000
  Mg  Mg5       1.0  0.01994  0.40610  0.14717  1.0000
  Mg  Mg6       1.0  0.19451  0.59285  0.26331  1.0000
  C  Sn13      1.0  0.05864  0.78584  0.60209  1.0000
  C   C97       1.0  0.01709  0.78308  0.63019  1.0000
  C  Sn14      1.0  0.96688  0.81251  0.62648  1.0000
  C  Sn15      1.0  0.95800  0.84535  0.59399  1.0000
  C   C98       1.0  0.99953  0.84809  0.56592  1.0000
  C  Sn16      1.0  0.04976  0.81869  0.56961  1.0000
  O  Te13      1.0  0.10851  0.75608  0.60639  1.0000
  O  Te14      1.0  0.92597  0.80912  0.65495  1.0000
  O  Te15      1.0  0.90808  0.87513  0.58971  1.0000
  O  Te16      1.0  0.09065  0.82206  0.54116  1.0000
  Mg  Mg7       1.0  0.86500  0.85722  0.63616  1.0000
  Mg  Mg8       1.0  0.15161  0.77395  0.55991  1.0000
  C  Sn17      1.0  0.92713  0.54654  0.19287  1.0000
  C   C99       1.0  0.93830  0.51916  0.22679  1.0000
  C  Sn18      1.0  0.90218  0.47989  0.23998  1.0000
  C  Sn19      1.0  0.85390  0.46771  0.21882  1.0000
  C   C100      1.0  0.84276  0.49507  0.18492  1.0000
  C  Sn20      1.0  0.87886  0.53436  0.17171  1.0000
  O  Te17      1.0  0.96383  0.58564  0.18022  1.0000
  O  Te18      1.0  0.91421  0.45307  0.27398  1.0000
  O  Te19      1.0  0.81720  0.42857  0.23150  1.0000
  O  Te20      1.0  0.86685  0.56116  0.13773  1.0000
  Mg  Mg9       1.0  0.85157  0.40303  0.27945  1.0000
  Mg  Mg10      1.0  0.92947  0.61118  0.13222  1.0000
  C  Sn21      1.0  0.91050  0.48984  0.83045  1.0000
  C   C101      1.0  0.85618  0.50076  0.81756  1.0000
  C  Sn22      1.0  0.84515  0.50273  0.77869  1.0000
  C  Sn23      1.0  0.88933  0.49356  0.75215  1.0000
  C   C102      1.0  0.94361  0.48264  0.76504  1.0000
  C  Sn24      1.0  0.95468  0.48067  0.80391  1.0000
  O  Te21      1.0  0.92056  0.48806  0.86944  1.0000
  O  Te22      1.0  0.79051  0.51374  0.76649  1.0000
  O  Te23      1.0  0.87923  0.49535  0.71314  1.0000
  O  Te24      1.0  0.00929  0.46966  0.81612  1.0000
  Mg  Mg11      1.0  0.79781  0.51184  0.71048  1.0000
  Mg  Mg12      1.0  0.00202  0.47152  0.87212  1.0000
  C  Sn25      1.0  0.02535  0.23019  0.58793  1.0000
  C   C103      1.0  0.99372  0.22814  0.62146  1.0000
  C  Sn26      1.0  0.96918  0.18046  0.63297  1.0000
  C  Sn27      1.0  0.97643  0.13383  0.61050  1.0000
  C   C104      1.0  0.00804  0.13588  0.57700  1.0000
  C  Sn28      1.0  0.03260  0.18356  0.56546  1.0000
  O  Te25      1.0  0.04950  0.27829  0.57697  1.0000
  O  Te26      1.0  0.93773  0.17940  0.66660  1.0000
  O  Te27      1.0  0.95224  0.08571  0.62149  1.0000
  O  Te28      1.0  0.06404  0.18462  0.53186  1.0000
  Mg  Mg13      1.0  0.91315  0.10437  0.66958  1.0000
  Mg  Mg14      1.0  0.08866  0.25962  0.52886  1.0000
  C  Sn29      1.0  0.01851  0.55967  0.32295  1.0000
  C   C105      1.0  0.98978  0.55190  0.28911  1.0000
  C  Sn30      1.0  0.97253  0.59571  0.26691  1.0000
  C  Sn31      1.0  0.98426  0.64838  0.27877  1.0000
  C   C106      1.0  0.01299  0.65613  0.31258  1.0000
  C  Sn32      1.0  0.03025  0.61235  0.33481  1.0000
  O  Te29      1.0  0.03537  0.51530  0.34469  1.0000
  O  Te30      1.0  0.94384  0.58693  0.23319  1.0000
  O  Te31      1.0  0.96738  0.69277  0.25699  1.0000
  O  Te32      1.0  0.05893  0.62110  0.36850  1.0000
  Mg  Mg15      1.0  0.92955  0.66027  0.21332  1.0000
  Mg  Mg16      1.0  0.07327  0.54780  0.38838  1.0000
