data_image0
_chemical_formula_structural       H5C3NCH5C3NCH10C3NC7H3C3NC7H3C3NC9H3C6NC2H5C6NC8H5C3NC3H5C6NC9H2CH8C3NCH6C6NC9H2CH5C3NC7H9C6NC3H2CH4C3NC9HCH8C6NC3H2CH2C6NC7HC6HC2HC2HC2HC2HC2HC2HC2HC2Sn2C2HTe2HMgC2Sn2C2HTe2HMgC2Sn2C2HTe2HMgC2Sn2C2HTe2HMgC2Sn2C2HTe2HMgC2Sn2C2HTe2HMgC2Sn2C2HTe2HMgC2Sn2C2HTe2HMgC2Sn2C2HTe2HMgC2Sn2C2HTe2HMgC2Sn2C2HTe2HMgC2Sn2C2HTe2HMgC2Sn2C2HTe2HMgC2Sn2C2HTe2HMgC2Sn2C2HTe2HMgC2Sn2C2HTe2HMg
_chemical_formula_sum              "H136 C244 N16 Sn32 Te32 Mg16"
_cell_length_a       23.9172
_cell_length_b       25.2554
_cell_length_c       34.6343
_cell_angle_alpha    90.2813
_cell_angle_beta     89.9323
_cell_angle_gamma    91.0084

_symmetry_space_group_name_H-M    'P1'
_space_group_IT_number       1

loop_
  _space_group_symop_operation_xyz
  'x, y, z'

loop_
  _atom_site_type_symbol
  _atom_site_label
  _atom_site_symmetry_multiplicity
  _atom_site_fract_x
  _atom_site_fract_y
  _atom_site_fract_z
  _atom_site_occupancy
  H   H1        1.0  0.54299  0.76302  0.67911  1.0000
  H   H2        1.0  0.43152  0.89331  0.64356  1.0000
  H   H3        1.0  0.44514  0.97953  0.67694  1.0000
  H   H4        1.0  0.54325  0.90342  0.76376  1.0000
  H   H5        1.0  0.45926  0.18020  0.72214  1.0000
  C   C1        1.0  0.51354  0.55794  0.46668  1.0000
  C   C2        1.0  0.50608  0.61368  0.46671  1.0000
  C   C3        1.0  0.50507  0.76760  0.34416  1.0000
  N   N1        1.0  0.51747  0.81626  0.35288  1.0000
  C   C4        1.0  0.48787  0.52710  0.57229  1.0000
  H   H6        1.0  0.48131  0.45124  0.59860  1.0000
  H   H7        1.0  0.07842  0.25475  0.60368  1.0000
  H   H8        1.0  0.92759  0.11697  0.59464  1.0000
  H   H9        1.0  0.92290  0.18797  0.64437  1.0000
  H   H10       1.0  0.95472  0.27215  0.67004  1.0000
  C   C5        1.0  0.00116  0.05534  0.46382  1.0000
  C   C6        1.0  0.00258  0.11160  0.46429  1.0000
  C   C7        1.0  0.97373  0.26314  0.34265  1.0000
  N   N2        1.0  0.99403  0.30989  0.34915  1.0000
  C   C8        1.0  0.00130  0.02641  0.57120  1.0000
  H   H11       1.0  0.08309  0.18350  0.55336  1.0000
  H   H12       1.0  0.99816  0.95072  0.59824  1.0000
  H   H13       1.0  0.43788  0.23440  0.59683  1.0000
  H   H14       1.0  0.55944  0.39571  0.60517  1.0000
  H   H15       1.0  0.56201  0.32810  0.65692  1.0000
  H   H16       1.0  0.53075  0.24092  0.68382  1.0000
  H   H17       1.0  0.53492  0.09401  0.62909  1.0000
  H   H18       1.0  0.53965  0.01453  0.67050  1.0000
  H   H19       1.0  0.46177  0.10027  0.76302  1.0000
  H   H20       1.0  0.52882  0.81746  0.73095  1.0000
  C   C9        1.0  0.51793  0.44482  0.46651  1.0000
  C   C10       1.0  0.51463  0.38868  0.46610  1.0000
  C   C11       1.0  0.49686  0.23722  0.34231  1.0000
  N   N3        1.0  0.50926  0.18920  0.35069  1.0000
  C   C12       1.0  0.50249  0.14706  0.32463  1.0000
  C   C13       1.0  0.52724  0.14635  0.28777  1.0000
  C   C14       1.0  0.47407  0.10108  0.33743  1.0000
  C   C15       1.0  0.52662  0.09984  0.26566  1.0000
  C   C16       1.0  0.47213  0.05574  0.31456  1.0000
  C   C17       1.0  0.50070  0.05323  0.27915  1.0000
  C   C18       1.0  0.48989  0.47301  0.57219  1.0000
  H   H21       1.0  0.43374  0.30295  0.54546  1.0000
  H   H22       1.0  0.47834  0.54840  0.59880  1.0000
  H   H23       1.0  0.05001  0.73330  0.67389  1.0000
  C   C19       1.0  0.99978  0.94198  0.46386  1.0000
  C   C20       1.0  0.99831  0.88577  0.46438  1.0000
  C   C21       1.0  0.01979  0.73273  0.34175  1.0000
  N   N4        1.0  0.00195  0.68552  0.34925  1.0000
  C   C22       1.0  0.00620  0.64309  0.32340  1.0000
  C   C23       1.0  0.98042  0.64271  0.28693  1.0000
  C   C24       1.0  0.03184  0.59656  0.33610  1.0000
  C   C25       1.0  0.97674  0.59584  0.26539  1.0000
  C   C26       1.0  0.02960  0.55075  0.31368  1.0000
  C   C27       1.0  0.99941  0.54855  0.27889  1.0000
  C   C28       1.0  0.99952  0.97226  0.57116  1.0000
  H   H24       1.0  0.00253  0.04822  0.59835  1.0000
  H   H25       1.0  0.48924  0.75507  0.31563  1.0000
  H   H26       1.0  0.54927  0.18159  0.27742  1.0000
  C   C29       1.0  0.49640  0.55690  0.53772  1.0000
  C   C30       1.0  0.49257  0.61287  0.53729  1.0000
  C   C31       1.0  0.50520  0.76451  0.66104  1.0000
  N   N5        1.0  0.47190  0.80425  0.66098  1.0000
  C   C32       1.0  0.48098  0.84967  0.68363  1.0000
  C   C33       1.0  0.51175  0.85305  0.71828  1.0000
  C   C34       1.0  0.45646  0.89616  0.66975  1.0000
  C   C35       1.0  0.51956  0.90168  0.73698  1.0000
  C   C36       1.0  0.46457  0.94444  0.68854  1.0000
  C   C37       1.0  0.49704  0.94850  0.72220  1.0000
  C   C38       1.0  0.46220  0.30814  0.56973  1.0000
  C   C39       1.0  0.53354  0.32281  0.63263  1.0000
  C   C40       1.0  0.53003  0.52908  0.43299  1.0000
  H   H27       1.0  0.54444  0.45376  0.40700  1.0000
  H   H28       1.0  0.94655  0.25394  0.31780  1.0000
  H   H29       1.0  0.96105  0.67859  0.27652  1.0000
  C   C41       1.0  0.00203  0.05557  0.53591  1.0000
  C   C42       1.0  0.00484  0.11162  0.53540  1.0000
  C   C43       1.0  0.00538  0.14596  0.57019  1.0000
  C   C44       1.0  0.04615  0.22400  0.60160  1.0000
  C   C45       1.0  0.00016  0.22645  0.62693  1.0000
  C   C46       1.0  0.99314  0.27195  0.65254  1.0000
  N   N6        1.0  0.02846  0.31129  0.65261  1.0000
  C   C47       1.0  0.00097  0.02545  0.42864  1.0000
  C   C48       1.0  0.96126  0.14635  0.59702  1.0000
  H   H30       1.0  0.99894  0.94975  0.40144  1.0000
  H   H31       1.0  0.47667  0.24757  0.31491  1.0000
  H   H32       1.0  0.45413  0.10150  0.36565  1.0000
  H   H33       1.0  0.44971  0.02088  0.32510  1.0000
  H   H34       1.0  0.54788  0.09951  0.23787  1.0000
  C   C49       1.0  0.50103  0.44399  0.53754  1.0000
  C   C50       1.0  0.50181  0.38779  0.53667  1.0000
  C   C51       1.0  0.49751  0.35352  0.57109  1.0000
  C   C52       1.0  0.46401  0.27003  0.59833  1.0000
  C   C53       1.0  0.50115  0.27598  0.62962  1.0000
  C   C54       1.0  0.50856  0.23226  0.65662  1.0000
  N   N7        1.0  0.49205  0.18504  0.64723  1.0000
  C   C55       1.0  0.49707  0.14260  0.67272  1.0000
  C   C56       1.0  0.47743  0.14398  0.71102  1.0000
  C   C57       1.0  0.51945  0.09513  0.65862  1.0000
  C   C58       1.0  0.47859  0.09863  0.73385  1.0000
  C   C59       1.0  0.52166  0.05055  0.68202  1.0000
  C   C60       1.0  0.49938  0.05069  0.71957  1.0000
  C   C61       1.0  0.53181  0.47494  0.43289  1.0000
  C   C62       1.0  0.53190  0.36103  0.60368  1.0000
  H   H35       1.0  0.54178  0.55110  0.40724  1.0000
  H   H36       1.0  0.04367  0.74226  0.31545  1.0000
  H   H37       1.0  0.05297  0.59698  0.36388  1.0000
  H   H38       1.0  0.05023  0.51556  0.32406  1.0000
  H   H39       1.0  0.95476  0.59602  0.23792  1.0000
  C   C63       1.0  0.99926  0.94263  0.53588  1.0000
  C   C64       1.0  0.99709  0.88652  0.53543  1.0000
  C   C65       1.0  0.01335  0.73076  0.65473  1.0000
  N   N8        1.0  0.97960  0.69027  0.65376  1.0000
  C   C66       1.0  0.04839  0.18461  0.57367  1.0000
  C   C67       1.0  0.95860  0.18638  0.62488  1.0000
  C   C68       1.0  0.99995  0.97130  0.42867  1.0000
  H   H40       1.0  0.00215  0.04657  0.40138  1.0000
  H   H41       1.0  0.22359  0.07201  0.12222  1.0000
  H   H42       1.0  0.08360  0.92466  0.13248  1.0000
  H   H43       1.0  0.17213  0.92215  0.17011  1.0000
  H   H44       1.0  0.26150  0.95528  0.18566  1.0000
  C   C69       1.0  0.05194  0.99972  0.95825  1.0000
  C   C70       1.0  0.10290  0.00170  0.97982  1.0000
  C   C71       1.0  0.10372  0.00100  0.89428  1.0000
  C   C72       1.0  0.19298  0.96241  0.87693  1.0000
  C   C73       1.0  0.20473  0.00499  0.85188  1.0000
  C   C74       1.0  0.25764  0.00944  0.83100  1.0000
  N   N9        1.0  0.29670  0.97493  0.83403  1.0000
  C   C75       1.0  0.34536  0.98173  0.81184  1.0000
  C   C76       1.0  0.34579  0.00465  0.77483  1.0000
  C   C77       1.0  0.39618  0.96345  0.82674  1.0000
  C   C78       1.0  0.39572  0.01181  0.75487  1.0000
  C   C79       1.0  0.44615  0.97103  0.80651  1.0000
  C   C80       1.0  0.44711  0.99663  0.77059  1.0000
  C   C81       1.0  0.85548  0.03846  0.89938  1.0000
  C   C82       1.0  0.84185  0.96266  0.84124  1.0000
  C   C83       1.0  0.05147  0.99868  0.08199  1.0000
  H   H45       1.0  0.14222  0.00391  0.96412  1.0000
  H   H46       1.0  0.13527  0.07411  0.08386  1.0000
  C   C84       1.0  0.89014  0.96327  0.86368  1.0000
  H   H47       1.0  0.72621  0.44726  0.11405  1.0000
  H   H48       1.0  0.57231  0.57156  0.14240  1.0000
  H   H49       1.0  0.65885  0.57394  0.18212  1.0000
  H   H50       1.0  0.75142  0.54441  0.19598  1.0000
  H   H51       1.0  0.88806  0.45445  0.14325  1.0000
  H   H52       1.0  0.97807  0.46125  0.17873  1.0000
  H   H53       1.0  0.89104  0.52070  0.27809  1.0000
  H   H54       1.0  0.18799  0.46844  0.23921  1.0000
  C   C85       1.0  0.54982  0.50662  0.95777  1.0000
  C   C86       1.0  0.59907  0.51933  0.97955  1.0000
  C   C87       1.0  0.74926  0.52298  0.82336  1.0000
  N   N10       1.0  0.79646  0.50492  0.83475  1.0000
  C   C88       1.0  0.54850  0.50659  0.08154  1.0000
  H   H55       1.0  0.63714  0.53003  0.96413  1.0000
  H   H56       1.0  0.64012  0.44593  0.07338  1.0000
  H   H57       1.0  0.77404  0.92544  0.11960  1.0000
  H   H58       1.0  0.91810  0.06865  0.13423  1.0000
  H   H59       1.0  0.82872  0.07277  0.17079  1.0000
  H   H60       1.0  0.73915  0.04145  0.18574  1.0000
  C   C89       1.0  0.94795  0.99902  0.95825  1.0000
  C   C90       1.0  0.89701  0.99671  0.97999  1.0000
  C   C91       1.0  0.89737  0.00061  0.89359  1.0000
  C   C92       1.0  0.80743  0.03812  0.87688  1.0000
  C   C93       1.0  0.79940  0.99957  0.84775  1.0000
  C   C94       1.0  0.74785  0.99566  0.82527  1.0000
  N   N11       1.0  0.70778  0.02901  0.82912  1.0000
  C   C95       1.0  0.65890  0.02221  0.80712  1.0000
  C   C96       1.0  0.65689  0.99976  0.76979  1.0000
  C   C97       1.0  0.60868  0.04009  0.82334  1.0000
  C   C98       1.0  0.60595  0.99238  0.75093  1.0000
  C   C99       1.0  0.55788  0.03252  0.80423  1.0000
  C   C100      1.0  0.55520  0.00701  0.76817  1.0000
  C   C101      1.0  0.14347  0.96072  0.89792  1.0000
  C   C102      1.0  0.16448  0.04449  0.84742  1.0000
  C   C103      1.0  0.94881  0.99517  0.08214  1.0000
  H   H61       1.0  0.85741  0.99556  0.96463  1.0000
  H   H62       1.0  0.86331  0.92182  0.08214  1.0000
  C   C104      1.0  0.11439  0.04222  0.86803  1.0000
  H   H63       1.0  0.24854  0.46230  0.19823  1.0000
  H   H64       1.0  0.10758  0.55836  0.15071  1.0000
  H   H65       1.0  0.01724  0.54872  0.18555  1.0000
  H   H66       1.0  0.09820  0.45655  0.27242  1.0000
  H   H67       1.0  0.80142  0.51239  0.24318  1.0000
  C   C105      1.0  0.44712  0.48860  0.95757  1.0000
  C   C106      1.0  0.39800  0.47533  0.97936  1.0000
  C   C107      1.0  0.24990  0.47861  0.82109  1.0000
  N   N12       1.0  0.20165  0.49070  0.83496  1.0000
  C   C108      1.0  0.15434  0.49139  0.81130  1.0000
  C   C109      1.0  0.15418  0.51499  0.77456  1.0000
  C   C110      1.0  0.10378  0.47034  0.82588  1.0000
  C   C111      1.0  0.10449  0.51862  0.75382  1.0000
  C   C112      1.0  0.05478  0.47285  0.80439  1.0000
  C   C113      1.0  0.05364  0.49873  0.76863  1.0000
  C   C114      1.0  0.44604  0.49730  0.08127  1.0000
  H   H68       1.0  0.36069  0.46187  0.96410  1.0000
  H   H69       1.0  0.77497  0.06709  0.88160  1.0000
  H   H70       1.0  0.92216  0.93387  0.85888  1.0000
  H   H71       1.0  0.83653  0.93293  0.81862  1.0000
  H   H72       1.0  0.74435  0.96127  0.80570  1.0000
  H   H73       1.0  0.61040  0.05913  0.85155  1.0000
  H   H74       1.0  0.51977  0.04641  0.81774  1.0000
  H   H75       1.0  0.60538  0.97493  0.72215  1.0000
  H   H76       1.0  0.30664  0.01581  0.76143  1.0000
  C   C115      1.0  0.94805  0.99587  0.04109  1.0000
  C   C116      1.0  0.89707  0.99575  0.01947  1.0000
  C   C117      1.0  0.89645  0.99544  0.10513  1.0000
  C   C118      1.0  0.80568  0.95672  0.12233  1.0000
  C   C119      1.0  0.79516  0.99959  0.14735  1.0000
  C   C120      1.0  0.74266  0.00485  0.16852  1.0000
  N   N13       1.0  0.70224  0.97027  0.16673  1.0000
  C   C121      1.0  0.14373  0.04063  0.10252  1.0000
  C   C122      1.0  0.16389  0.95548  0.15122  1.0000
  C   C123      1.0  0.94884  0.00046  0.91720  1.0000
  H   H77       1.0  0.85760  0.99492  0.03506  1.0000
  H   H78       1.0  0.86160  0.06849  0.92167  1.0000
  C   C124      1.0  0.11430  0.95682  0.13017  1.0000
  H   H79       1.0  0.25525  0.46443  0.79121  1.0000
  H   H80       1.0  0.10408  0.45187  0.85418  1.0000
  H   H81       1.0  0.01647  0.45527  0.81589  1.0000
  H   H82       1.0  0.10522  0.53793  0.72582  1.0000
  C   C125      1.0  0.44622  0.49287  0.04030  1.0000
  C   C126      1.0  0.39726  0.47827  0.01882  1.0000
  C   C127      1.0  0.24645  0.49187  0.17504  1.0000
  N   N14       1.0  0.20245  0.51951  0.16853  1.0000
  C   C128      1.0  0.15404  0.51264  0.19123  1.0000
  C   C129      1.0  0.15062  0.48483  0.22639  1.0000
  C   C130      1.0  0.10489  0.53573  0.17731  1.0000
  C   C131      1.0  0.09972  0.47835  0.24544  1.0000
  C   C132      1.0  0.05418  0.52966  0.19682  1.0000
  C   C133      1.0  0.05015  0.49970  0.23079  1.0000
  C   C134      1.0  0.64455  0.47420  0.09701  1.0000
  C   C135      1.0  0.65455  0.54572  0.15835  1.0000
  C   C136      1.0  0.44746  0.49119  0.91650  1.0000
  H   H83       1.0  0.35921  0.46799  0.03449  1.0000
  C   C137      1.0  0.60598  0.54442  0.13610  1.0000
  H   H84       1.0  0.22370  0.93133  0.87939  1.0000
  H   H85       1.0  0.08352  0.07302  0.86475  1.0000
  H   H86       1.0  0.17297  0.07738  0.82791  1.0000
  H   H87       1.0  0.26307  0.04492  0.81293  1.0000
  H   H88       1.0  0.39569  0.94389  0.85465  1.0000
  H   H89       1.0  0.48480  0.95659  0.81882  1.0000
  H   H90       1.0  0.39500  0.02922  0.72625  1.0000
  H   H91       1.0  0.69546  0.98883  0.75536  1.0000
  C   C138      1.0  0.05203  0.99951  0.04097  1.0000
  C   C139      1.0  0.10300  0.00122  0.01928  1.0000
  C   C140      1.0  0.10383  0.99892  0.10494  1.0000
  C   C141      1.0  0.19291  0.03974  0.12388  1.0000
  C   C142      1.0  0.20416  0.99656  0.14814  1.0000
  C   C143      1.0  0.25649  0.99237  0.16953  1.0000
  N   N15       1.0  0.29550  0.02846  0.16896  1.0000
  C   C144      1.0  0.85535  0.95496  0.10147  1.0000
  C   C145      1.0  0.83654  0.03949  0.15153  1.0000
  C   C146      1.0  0.05143  0.00012  0.91723  1.0000
  H   H92       1.0  0.14253  0.00246  0.03472  1.0000
  H   H93       1.0  0.13458  0.92784  0.91729  1.0000
  C   C147      1.0  0.88664  0.03728  0.13104  1.0000
  H   H94       1.0  0.74523  0.54435  0.79590  1.0000
  H   H95       1.0  0.19273  0.53227  0.76313  1.0000
  C   C148      1.0  0.54914  0.50780  0.04048  1.0000
  C   C149      1.0  0.59890  0.51955  0.01905  1.0000
  C   C150      1.0  0.60035  0.50906  0.10477  1.0000
  C   C151      1.0  0.69248  0.47469  0.11955  1.0000
  C   C152      1.0  0.69849  0.51095  0.15041  1.0000
  C   C153      1.0  0.74952  0.51352  0.17346  1.0000
  N   N16       1.0  0.79075  0.48228  0.16689  1.0000
  C   C154      1.0  0.83908  0.48588  0.18965  1.0000
  C   C155      1.0  0.84029  0.50324  0.22842  1.0000
  C   C156      1.0  0.88943  0.46971  0.17266  1.0000
  C   C157      1.0  0.89077  0.50748  0.24814  1.0000
  C   C158      1.0  0.93985  0.47399  0.19272  1.0000
  C   C159      1.0  0.94174  0.49441  0.23043  1.0000
  C   C160      1.0  0.54964  0.50498  0.91668  1.0000
  H   H96       1.0  0.63681  0.53010  0.03481  1.0000
  C   C161      1.0  0.50026  0.00092  0.74537  1.0000
  C   C162      1.0  0.99962  0.50069  0.74444  1.0000
  C   C163      1.0  0.49992  0.00132  0.25531  1.0000
  C   C164      1.0  0.99567  0.49701  0.25465  1.0000
  C   C165      1.0  0.00000  0.99793  0.02035  1.0000
  C   C166      1.0  0.00027  0.00075  0.89785  1.0000
  H   H97       1.0  0.00043  0.00177  0.86643  1.0000
  C   C167      1.0  0.49789  0.49958  0.01970  1.0000
  C   C168      1.0  0.49856  0.49894  0.89744  1.0000
  H   H98       1.0  0.49836  0.50070  0.86607  1.0000
  C   C169      1.0  0.99992  0.99880  0.97892  1.0000
  C   C170      1.0  0.00018  0.99637  0.10148  1.0000
  H   H99       1.0  0.00029  0.99584  0.13291  1.0000
  C   C171      1.0  0.49828  0.49821  0.97827  1.0000
  C   C172      1.0  0.49716  0.50256  0.10073  1.0000
  H   H100      1.0  0.49693  0.50333  0.13217  1.0000
  C   C173      1.0  0.50877  0.47261  0.50214  1.0000
  C   C174      1.0  0.50706  0.36200  0.50107  1.0000
  H   H101      1.0  0.50525  0.31896  0.50049  1.0000
  C   C175      1.0  0.00004  0.97054  0.49984  1.0000
  C   C176      1.0  0.99600  0.85990  0.49996  1.0000
  H   H102      1.0  0.99635  0.81687  0.50014  1.0000
  C   C177      1.0  0.50631  0.52925  0.50215  1.0000
  C   C178      1.0  0.49508  0.63923  0.50194  1.0000
  H   H103      1.0  0.48975  0.68193  0.50178  1.0000
  C   C179      1.0  0.00096  0.02726  0.49983  1.0000
  C   C180      1.0  0.00567  0.13786  0.49994  1.0000
  H   H104      1.0  0.00549  0.18091  0.50023  1.0000
  C   C181      1.0  0.47613  0.88798  0.26986  1.0000
  C   C182      1.0  0.49359  0.93985  0.27827  1.0000
  C  Sn1       1.0  0.52294  0.95113  0.31226  1.0000
  C  Sn2       1.0  0.53499  0.90963  0.33826  1.0000
  C   C183      1.0  0.51737  0.85785  0.32957  1.0000
  C   C184      1.0  0.48801  0.84701  0.29548  1.0000
  H   H105      1.0  0.45343  0.87958  0.24347  1.0000
  O  Te1       1.0  0.52148  0.00318  0.32023  1.0000
  O  Te2       1.0  0.56428  0.91979  0.37244  1.0000
  H   H106      1.0  0.47453  0.80684  0.28896  1.0000
  Mg  Mg1       1.0  0.57877  0.99716  0.37050  1.0000
  C   C185      1.0  0.03992  0.20255  0.42164  1.0000
  C   C186      1.0  0.00773  0.15737  0.43012  1.0000
  C  Sn3       1.0  0.96327  0.14212  0.40616  1.0000
  C  Sn4       1.0  0.95093  0.17274  0.37311  1.0000
  C   C187      1.0  0.98341  0.21785  0.36486  1.0000
  C   C188      1.0  0.02779  0.23276  0.38904  1.0000
  H   H107      1.0  0.07428  0.21407  0.44033  1.0000
  O  Te3       1.0  0.93152  0.09688  0.41507  1.0000
  O  Te4       1.0  0.90675  0.15839  0.34867  1.0000
  H   H108      1.0  0.05273  0.26773  0.38245  1.0000
  Mg  Mg2       1.0  0.87559  0.09347  0.37296  1.0000
  C   C189      1.0  0.85231  0.48106  0.76472  1.0000
  C   C190      1.0  0.84303  0.50000  0.80212  1.0000
  C  Sn5       1.0  0.88649  0.52445  0.82285  1.0000
  C  Sn6       1.0  0.94019  0.52999  0.80574  1.0000
  C   C191      1.0  0.94905  0.51094  0.76830  1.0000
  C   C192      1.0  0.90526  0.48653  0.74782  1.0000
  H   H109      1.0  0.81844  0.46220  0.74886  1.0000
  O  Te5       1.0  0.87649  0.54314  0.86019  1.0000
  O  Te6       1.0  0.98437  0.55428  0.82580  1.0000
  H   H110      1.0  0.91246  0.47189  0.71885  1.0000
  Mg  Mg3       1.0  0.95004  0.57334  0.87592  1.0000
  C   C193      1.0  0.55066  0.29479  0.42788  1.0000
  C   C194      1.0  0.52843  0.34551  0.43028  1.0000
  C  Sn7       1.0  0.49172  0.36307  0.40192  1.0000
  C  Sn8       1.0  0.47706  0.32913  0.37063  1.0000
  C   C195      1.0  0.49949  0.27845  0.36852  1.0000
  C   C196      1.0  0.53620  0.26128  0.39704  1.0000
  H   H111      1.0  0.57904  0.28150  0.44996  1.0000
  O  Te7       1.0  0.46990  0.41386  0.40475  1.0000
  O  Te8       1.0  0.44044  0.34566  0.34190  1.0000
  H   H112      1.0  0.55338  0.22200  0.39519  1.0000
  Mg  Mg4       1.0  0.42168  0.41837  0.35846  1.0000
  C   C197      1.0  0.96635  0.43964  0.32635  1.0000
  C   C198      1.0  0.98571  0.44732  0.28867  1.0000
  C  Sn9       1.0  0.00490  0.40454  0.26696  1.0000
  C  Sn10      1.0  0.00463  0.35316  0.28335  1.0000
  C   C199      1.0  0.98514  0.34588  0.32106  1.0000
  C   C200      1.0  0.96605  0.38897  0.34253  1.0000
  H   H113      1.0  0.95155  0.47297  0.34295  1.0000
  O  Te9       1.0  0.02412  0.41291  0.22936  1.0000
  O  Te10      1.0  0.02356  0.30970  0.26230  1.0000
  H   H114      1.0  0.95103  0.38301  0.37169  1.0000
  Mg  Mg5       1.0  0.04573  0.34118  0.21220  1.0000
  C   C201      1.0  0.62119  0.00989  0.24638  1.0000
  C   C202      1.0  0.58451  0.00109  0.23460  1.0000
  C  Sn11      1.0  0.57307  0.97696  0.19902  1.0000
  C  Sn12      1.0  0.61789  0.96137  0.17486  1.0000
  C   C203      1.0  0.67303  0.97031  0.18693  1.0000
  C   C204      1.0  0.68399  0.99451  0.22258  1.0000
  H   H115      1.0  0.62968  0.02859  0.27397  1.0000
  O  Te11      1.0  0.51762  0.96848  0.18769  1.0000
  O  Te12      1.0  0.60765  0.93715  0.13917  1.0000
  H   H116      1.0  0.72678  0.00129  0.23170  1.0000
  Mg  Mg6       1.0  0.52496  0.93408  0.13646  1.0000
  C   C205      1.0  0.44448  0.71639  0.59848  1.0000
  C   C206      1.0  0.48233  0.71907  0.62917  1.0000
  C  Sn13      1.0  0.52678  0.68400  0.63087  1.0000
  C  Sn14      1.0  0.53336  0.64559  0.60125  1.0000
  C   C207      1.0  0.49529  0.64326  0.57066  1.0000
  C   C208      1.0  0.45095  0.67853  0.56925  1.0000
  H   H117      1.0  0.41019  0.74370  0.59738  1.0000
  O  Te13      1.0  0.56421  0.68721  0.66173  1.0000
  O  Te14      1.0  0.57743  0.61007  0.60223  1.0000
  H   H118      1.0  0.42167  0.67647  0.54548  1.0000
  Mg  Mg7       1.0  0.61754  0.63011  0.65024  1.0000
  C   C209      1.0  0.05055  0.85209  0.39277  1.0000
  C   C210      1.0  0.00999  0.85538  0.42172  1.0000
  C  Sn15      1.0  0.96864  0.81591  0.42516  1.0000
  C  Sn16      1.0  0.96800  0.77238  0.39910  1.0000
  C   C211      1.0  0.00878  0.76943  0.37026  1.0000
  C   C212      1.0  0.04996  0.80916  0.36706  1.0000
  H   H119      1.0  0.08242  0.88281  0.39031  1.0000
  O  Te15      1.0  0.92842  0.81983  0.45424  1.0000
  O  Te16      1.0  0.92717  0.73237  0.40190  1.0000
  H   H120      1.0  0.08137  0.80658  0.34466  1.0000
  Mg  Mg8       1.0  0.88131  0.75541  0.44635  1.0000
  C   C213      1.0  0.66359  0.47580  0.90000  1.0000
  C   C214      1.0  0.61360  0.50332  0.89707  1.0000
  C  Sn17      1.0  0.60540  0.53840  0.86661  1.0000
  C  Sn18      1.0  0.64811  0.54597  0.83861  1.0000
  C   C215      1.0  0.69795  0.51822  0.84178  1.0000
  C   C216      1.0  0.70572  0.48323  0.87238  1.0000
  H   H121      1.0  0.66960  0.44870  0.92366  1.0000
  O  Te17      1.0  0.55522  0.56560  0.86413  1.0000
  O  Te18      1.0  0.64100  0.58078  0.80786  1.0000
  H   H122      1.0  0.74441  0.46190  0.87463  1.0000
  Mg  Mg9       1.0  0.56527  0.60875  0.81695  1.0000
  C   C217      1.0  0.05160  0.82806  0.62080  1.0000
  C   C218      1.0  0.01409  0.78701  0.63010  1.0000
  C  Sn19      1.0  0.96673  0.77750  0.60735  1.0000
  C  Sn20      1.0  0.95687  0.80972  0.57470  1.0000
  C   C219      1.0  0.99468  0.85066  0.56562  1.0000
  C   C220      1.0  0.04192  0.85985  0.58859  1.0000
  H   H123      1.0  0.08817  0.83515  0.63856  1.0000
  O  Te19      1.0  0.92967  0.73634  0.61705  1.0000
  O  Te20      1.0  0.90989  0.80107  0.55146  1.0000
  H   H124      1.0  0.07098  0.89161  0.58137  1.0000
  Mg  Mg10      1.0  0.87158  0.74015  0.57650  1.0000
  C   C221      1.0  0.35675  0.45873  0.15858  1.0000
  C   C222      1.0  0.30913  0.48975  0.15570  1.0000
  C  Sn21      1.0  0.30294  0.52425  0.12465  1.0000
  C  Sn22      1.0  0.34527  0.52767  0.09599  1.0000
  C   C223      1.0  0.39273  0.49644  0.09911  1.0000
  C   C224      1.0  0.39850  0.46206  0.13031  1.0000
  H   H125      1.0  0.36120  0.43210  0.18270  1.0000
  O  Te21      1.0  0.25512  0.55498  0.12223  1.0000
  O  Te22      1.0  0.34014  0.56181  0.06464  1.0000
  H   H126      1.0  0.43536  0.43802  0.13252  1.0000
  Mg  Mg11      1.0  0.26727  0.59560  0.07408  1.0000
  C   C225      1.0  0.96023  0.58387  0.66472  1.0000
  C   C226      1.0  0.97658  0.63544  0.67496  1.0000
  C  Sn23      1.0  0.00561  0.64501  0.70935  1.0000
  C  Sn24      1.0  0.01847  0.60207  0.73387  1.0000
  C   C227      1.0  0.00196  0.55062  0.72335  1.0000
  C   C228      1.0  0.97291  0.54150  0.68888  1.0000
  H   H127      1.0  0.93778  0.57680  0.63804  1.0000
  O  Te23      1.0  0.02162  0.69678  0.71915  1.0000
  O  Te24      1.0  0.04746  0.61051  0.76839  1.0000
  H   H128      1.0  0.96029  0.50156  0.68095  1.0000
  Mg  Mg12      1.0  0.06033  0.68817  0.76920  1.0000
  C   C229      1.0  0.33230  0.51759  0.90151  1.0000
  C   C230      1.0  0.38366  0.49285  0.89670  1.0000
  C  Sn25      1.0  0.39394  0.46255  0.86367  1.0000
  C  Sn26      1.0  0.35194  0.45701  0.83497  1.0000
  C   C231      1.0  0.30070  0.48194  0.84004  1.0000
  C   C232      1.0  0.29085  0.51215  0.87321  1.0000
  H   H129      1.0  0.32468  0.54098  0.92717  1.0000
  O  Te25      1.0  0.44549  0.43809  0.85933  1.0000
  O  Te26      1.0  0.36111  0.42697  0.80167  1.0000
  H   H130      1.0  0.25109  0.53133  0.87692  1.0000
  Mg  Mg13      1.0  0.43811  0.40127  0.80892  1.0000
  C   C233      1.0  0.54524  0.71028  0.43289  1.0000
  C   C234      1.0  0.51783  0.66100  0.43427  1.0000
  C  Sn27      1.0  0.48730  0.64238  0.40247  1.0000
  C  Sn28      1.0  0.48425  0.67376  0.36870  1.0000
  C   C235      1.0  0.51185  0.72299  0.36759  1.0000
  C   C236      1.0  0.54227  0.74125  0.39958  1.0000
  H   H131      1.0  0.56879  0.72440  0.45763  1.0000
  O  Te27      1.0  0.46015  0.59306  0.40435  1.0000
  O  Te28      1.0  0.45405  0.65610  0.33649  1.0000
  H   H132      1.0  0.56351  0.77939  0.39850  1.0000
  Mg  Mg14      1.0  0.42421  0.58617  0.35303  1.0000
  C   C237      1.0  0.97991  0.38661  0.73158  1.0000
  C   C238      1.0  0.00100  0.43761  0.72455  1.0000
  C  Sn29      1.0  0.03112  0.44831  0.69081  1.0000
  C  Sn30      1.0  0.04020  0.40710  0.66364  1.0000
  C   C239      1.0  0.01888  0.35622  0.67092  1.0000
  C   C240      1.0  0.98882  0.34595  0.70479  1.0000
  H   H133      1.0  0.95662  0.37866  0.75777  1.0000
  O  Te29      1.0  0.05192  0.49948  0.68425  1.0000
  O  Te30      1.0  0.07013  0.41671  0.62967  1.0000
  H   H134      1.0  0.97246  0.30646  0.71021  1.0000
  Mg  Mg15      1.0  0.09013  0.49294  0.63372  1.0000
  C   C241      1.0  0.35187  0.98782  0.23486  1.0000
  C   C242      1.0  0.32347  0.01733  0.20161  1.0000
  C  Sn31      1.0  0.36812  0.04054  0.18144  1.0000
  C  Sn32      1.0  0.42357  0.03400  0.19487  1.0000
  C   C243      1.0  0.43296  0.00436  0.22816  1.0000
  C   C244      1.0  0.40656  0.98132  0.24813  1.0000
  H   H135      1.0  0.31707  0.96997  0.25030  1.0000
  O  Te31      1.0  0.35756  0.06992  0.14827  1.0000
  O  Te32      1.0  0.46897  0.05674  0.17526  1.0000
  H   H136      1.0  0.41417  0.95844  0.27387  1.0000
  Mg  Mg16      1.0  0.43324  0.09324  0.13151  1.0000
