data_image0
_chemical_formula_structural       HC3NCH2C3NCH2C3NCH2C3NCH2C3NCH2C3NCH2C3NCH2C3NCHC4HC2HC2HC2HSnCSn2CSnTe4Mg2SnCSn2CSnTe4Mg2SnCSn2CSnTe4Mg2SnCSn2CSnTe4Mg2SnCSn2CSnTe4Mg2SnCSn2CSnTe4Mg2SnCSn2CSnTe4Mg2SnCSn2CSnTe4Mg2SnCSn2CSnTe4Mg2SnCSn2CSnTe4Mg2SnCSn2CSnTe4Mg2SnCSn2CSnTe4Mg2SnCSn2CSnTe4Mg2SnCSn2CSnTe4Mg2SnCSn2CSnTe4Mg2SnCSn2CSnTe4Mg2
_chemical_formula_sum              "H20 C74 N8 Sn64 Te64 Mg32"
_cell_length_a       23.8689
_cell_length_b       24.9814
_cell_length_c       35.2246
_cell_angle_alpha    89.6507
_cell_angle_beta     89.4903
_cell_angle_gamma    88.568

_symmetry_space_group_name_H-M    'P1'
_space_group_IT_number       1

loop_
  _space_group_symop_operation_xyz
  'x, y, z'

loop_
  _atom_site_type_symbol
  _atom_site_label
  _atom_site_symmetry_multiplicity
  _atom_site_fract_x
  _atom_site_fract_y
  _atom_site_fract_z
  _atom_site_occupancy
  H   H1        1.0  0.96998  0.25367  0.68726  1.0000
  C   C1        1.0  0.99498  0.05753  0.46664  1.0000
  C   C2        1.0  0.99523  0.11433  0.46749  1.0000
  C   C3        1.0  0.01756  0.27257  0.34918  1.0000
  N   N1        1.0  0.98491  0.31463  0.34929  1.0000
  C   C4        1.0  0.01069  0.02502  0.57117  1.0000
  H   H2        1.0  0.01905  0.94784  0.59682  1.0000
  H   H3        1.0  0.95409  0.73555  0.67496  1.0000
  C   C5        1.0  0.99728  0.94303  0.46574  1.0000
  C   C6        1.0  0.00194  0.88629  0.46568  1.0000
  C   C7        1.0  0.97659  0.73161  0.34719  1.0000
  N   N2        1.0  0.01446  0.69432  0.34273  1.0000
  C   C8        1.0  0.01194  0.97029  0.57071  1.0000
  H   H4        1.0  0.01714  0.04601  0.59763  1.0000
  H   H5        1.0  0.05439  0.26823  0.33028  1.0000
  C   C9        1.0  0.00247  0.05578  0.53723  1.0000
  C   C10       1.0  0.99989  0.11262  0.53736  1.0000
  C   C11       1.0  0.99149  0.26301  0.66034  1.0000
  N   N3        1.0  0.00750  0.31054  0.65174  1.0000
  C   C12       1.0  0.98975  0.02853  0.43204  1.0000
  H   H6        1.0  0.98731  0.95262  0.40484  1.0000
  H   H7        1.0  0.93550  0.73078  0.33329  1.0000
  C   C13       1.0  0.00607  0.94135  0.53615  1.0000
  C   C14       1.0  0.00891  0.88459  0.53525  1.0000
  C   C15       1.0  0.99190  0.73152  0.65699  1.0000
  N   N4        1.0  0.02608  0.69065  0.65840  1.0000
  C   C16       1.0  0.99085  0.97374  0.43157  1.0000
  H   H8        1.0  0.98447  0.05102  0.40573  1.0000
  H   H9        1.0  0.75540  0.44594  0.18717  1.0000
  C   C17       1.0  0.55095  0.48976  0.95681  1.0000
  C   C18       1.0  0.60057  0.47732  0.97800  1.0000
  C   C19       1.0  0.74996  0.47005  0.82358  1.0000
  N   N5        1.0  0.79616  0.49018  0.83490  1.0000
  C   C20       1.0  0.55102  0.49509  0.07867  1.0000
  H   H10       1.0  0.63853  0.46531  0.96270  1.0000
  H   H11       1.0  0.24162  0.55569  0.18729  1.0000
  C   C21       1.0  0.44810  0.50881  0.95744  1.0000
  C   C22       1.0  0.39887  0.52304  0.97893  1.0000
  C   C23       1.0  0.24765  0.52151  0.82652  1.0000
  N   N6        1.0  0.19955  0.50732  0.83953  1.0000
  C   C24       1.0  0.44870  0.50838  0.07900  1.0000
  H   H12       1.0  0.36077  0.53400  0.96380  1.0000
  H   H13       1.0  0.25237  0.53775  0.79759  1.0000
  C   C25       1.0  0.44854  0.51027  0.03869  1.0000
  C   C26       1.0  0.39896  0.52349  0.01774  1.0000
  C   C27       1.0  0.24393  0.52243  0.16694  1.0000
  N   N7        1.0  0.20344  0.48954  0.16276  1.0000
  C   C28       1.0  0.44792  0.50515  0.91713  1.0000
  H   H14       1.0  0.36094  0.53466  0.03328  1.0000
  H   H15       1.0  0.74757  0.44693  0.79716  1.0000
  C   C29       1.0  0.55140  0.49265  0.03830  1.0000
  C   C30       1.0  0.60084  0.47897  0.01684  1.0000
  C   C31       1.0  0.75360  0.48000  0.16720  1.0000
  N   N8        1.0  0.79448  0.51262  0.16318  1.0000
  C   C32       1.0  0.55010  0.48981  0.91639  1.0000
  H   H16       1.0  0.63902  0.46859  0.03211  1.0000
  C   C33       1.0  0.00121  0.49733  0.74724  1.0000
  C   C34       1.0  0.99816  0.50237  0.25250  1.0000
  C   C35       1.0  0.49993  0.50109  0.01815  1.0000
  C   C36       1.0  0.49881  0.49647  0.89783  1.0000
  H   H17       1.0  0.49849  0.49479  0.86696  1.0000
  C   C37       1.0  0.49971  0.49999  0.97741  1.0000
  C   C38       1.0  0.49971  0.50164  0.09791  1.0000
  H   H18       1.0  0.49952  0.50139  0.12882  1.0000
  C   C39       1.0  0.00067  0.97077  0.50119  1.0000
  C   C40       1.0  0.00893  0.85879  0.50011  1.0000
  H   H19       1.0  0.01092  0.81525  0.49962  1.0000
  C   C41       1.0  0.99907  0.02814  0.50172  1.0000
  C   C42       1.0  0.99659  0.14000  0.50262  1.0000
  H   H20       1.0  0.99557  0.18354  0.50290  1.0000
  C  Sn1       1.0  0.03534  0.16470  0.37513  1.0000
  C   C43       1.0  0.00384  0.21207  0.37005  1.0000
  C  Sn2       1.0  0.96927  0.23180  0.39923  1.0000
  C  Sn3       1.0  0.96613  0.20360  0.43423  1.0000
  C   C44       1.0  0.99762  0.15627  0.43929  1.0000
  C  Sn4       1.0  0.03220  0.13650  0.41012  1.0000
  O  Te1       1.0  0.06962  0.14572  0.34556  1.0000
  O  Te2       1.0  0.93816  0.27923  0.39349  1.0000
  O  Te3       1.0  0.93181  0.22263  0.46380  1.0000
  O  Te4       1.0  0.06330  0.08911  0.41586  1.0000
  Mg  Mg1       1.0  0.89754  0.28898  0.44230  1.0000
  Mg  Mg2       1.0  0.10396  0.07934  0.36707  1.0000
  C  Sn5       1.0  0.01529  0.38821  0.26544  1.0000
  C   C45       1.0  0.99150  0.43891  0.27245  1.0000
  C  Sn6       1.0  0.97078  0.45187  0.30854  1.0000
  C  Sn7       1.0  0.97395  0.41337  0.33825  1.0000
  C   C46       1.0  0.99773  0.36271  0.33124  1.0000
  C  Sn8       1.0  0.01845  0.34970  0.29515  1.0000
  O  Te5       1.0  0.03573  0.37612  0.22914  1.0000
  O  Te6       1.0  0.94717  0.50281  0.31486  1.0000
  O  Te7       1.0  0.95347  0.42550  0.37457  1.0000
  O  Te8       1.0  0.04206  0.29880  0.28883  1.0000
  Mg  Mg3       1.0  0.92510  0.50026  0.36914  1.0000
  Mg  Mg4       1.0  0.06417  0.30132  0.23456  1.0000
  C  Sn9       1.0  0.94749  0.83417  0.37841  1.0000
  C   C47       1.0  0.98497  0.79297  0.36777  1.0000
  C  Sn10      1.0  0.02948  0.77798  0.39136  1.0000
  C  Sn11      1.0  0.03666  0.80471  0.42632  1.0000
  C   C48       1.0  0.99919  0.84588  0.43695  1.0000
  C  Sn12      1.0  0.95467  0.86090  0.41337  1.0000
  O  Te9       1.0  0.90329  0.84848  0.35438  1.0000
  O  Te10      1.0  0.06642  0.73668  0.38010  1.0000
  O  Te11      1.0  0.08091  0.79036  0.45035  1.0000
  O  Te12      1.0  0.91773  0.90216  0.42461  1.0000
  Mg  Mg5       1.0  0.12014  0.73166  0.42256  1.0000
  Mg  Mg6       1.0  0.86399  0.90720  0.38219  1.0000
  C  Sn13      1.0  0.98294  0.61747  0.26166  1.0000
  C   C49       1.0  0.00557  0.56667  0.27004  1.0000
  C  Sn14      1.0  0.02618  0.55505  0.30623  1.0000
  C  Sn15      1.0  0.02410  0.59503  0.33466  1.0000
  C   C50       1.0  0.00147  0.64579  0.32629  1.0000
  C  Sn16      1.0  0.98086  0.65745  0.29009  1.0000
  O  Te13      1.0  0.96257  0.62819  0.22529  1.0000
  O  Te14      1.0  0.04863  0.50399  0.31393  1.0000
  O  Te15      1.0  0.04449  0.58427  0.37106  1.0000
  O  Te16      1.0  0.95842  0.70847  0.28240  1.0000
  Mg  Mg7       1.0  0.07106  0.50874  0.36775  1.0000
  Mg  Mg8       1.0  0.93595  0.70376  0.22859  1.0000
  C  Sn17      1.0  0.05102  0.19298  0.58161  1.0000
  C   C51       1.0  0.02067  0.14619  0.57798  1.0000
  C  Sn18      1.0  0.97373  0.13755  0.60096  1.0000
  C  Sn19      1.0  0.95673  0.17650  0.62812  1.0000
  C   C52       1.0  0.98707  0.22326  0.63174  1.0000
  C  Sn20      1.0  0.03403  0.23193  0.60878  1.0000
  O  Te17      1.0  0.09782  0.20078  0.55834  1.0000
  O  Te18      1.0  0.94407  0.09046  0.59681  1.0000
  O  Te19      1.0  0.90989  0.16866  0.65140  1.0000
  O  Te20      1.0  0.06367  0.27899  0.61291  1.0000
  Mg  Mg9       1.0  0.88316  0.09814  0.63506  1.0000
  Mg  Mg10      1.0  0.12457  0.27137  0.57467  1.0000
  C  Sn21      1.0  0.99930  0.35552  0.72527  1.0000
  C   C53       1.0  0.98866  0.35131  0.68647  1.0000
  C  Sn22      1.0  0.98749  0.39693  0.66333  1.0000
  C  Sn23      1.0  0.99718  0.44781  0.67930  1.0000
  C   C54       1.0  0.00782  0.45201  0.71808  1.0000
  C  Sn24      1.0  0.00900  0.40641  0.74124  1.0000
  O  Te21      1.0  0.00028  0.30939  0.74787  1.0000
  O  Te22      1.0  0.97674  0.39172  0.62462  1.0000
  O  Te23      1.0  0.99619  0.49397  0.65666  1.0000
  O  Te24      1.0  0.01974  0.41160  0.77993  1.0000
  Mg  Mg11      1.0  0.97978  0.46630  0.60552  1.0000
  Mg  Mg12      1.0  0.01674  0.33705  0.79905  1.0000
  C  Sn25      1.0  0.97121  0.85810  0.61094  1.0000
  C   C55       1.0  0.01113  0.85930  0.58171  1.0000
  C  Sn26      1.0  0.04478  0.81410  0.57385  1.0000
  C  Sn27      1.0  0.03838  0.76669  0.59565  1.0000
  C   C56       1.0  0.99848  0.76550  0.62486  1.0000
  C  Sn28      1.0  0.96481  0.81069  0.63275  1.0000
  O  Te25      1.0  0.93803  0.90375  0.61830  1.0000
  O  Te26      1.0  0.08442  0.81627  0.54448  1.0000
  O  Te27      1.0  0.07161  0.72102  0.58827  1.0000
  O  Te28      1.0  0.92519  0.80853  0.66209  1.0000
  Mg  Mg13      1.0  0.11971  0.74371  0.54534  1.0000
  Mg  Mg14      1.0  0.88986  0.88105  0.66124  1.0000
  C  Sn29      1.0  0.04020  0.58428  0.66965  1.0000
  C   C57       1.0  0.01235  0.63352  0.67520  1.0000
  C  Sn30      1.0  0.98300  0.64374  0.70898  1.0000
  C  Sn31      1.0  0.98149  0.60392  0.73782  1.0000
  C   C58       1.0  0.00934  0.55472  0.73227  1.0000
  C  Sn32      1.0  0.03870  0.54447  0.69849  1.0000
  O  Te29      1.0  0.06929  0.57494  0.63566  1.0000
  O  Te30      1.0  0.95546  0.69326  0.71387  1.0000
  O  Te31      1.0  0.95237  0.61330  0.77183  1.0000
  O  Te32      1.0  0.06623  0.49499  0.69360  1.0000
  Mg  Mg15      1.0  0.92150  0.68700  0.76514  1.0000
  Mg  Mg16      1.0  0.10023  0.50121  0.64235  1.0000
  C  Sn33      1.0  0.61864  0.43349  0.86219  1.0000
  C   C59       1.0  0.60883  0.46722  0.89318  1.0000
  C  Sn34      1.0  0.64290  0.51098  0.89917  1.0000
  C  Sn35      1.0  0.68769  0.52127  0.87364  1.0000
  C   C60       1.0  0.69748  0.48757  0.84267  1.0000
  C  Sn36      1.0  0.66343  0.44379  0.83666  1.0000
  O  Te33      1.0  0.58405  0.38998  0.85675  1.0000
  O  Te34      1.0  0.63228  0.54411  0.93036  1.0000
  O  Te35      1.0  0.72229  0.56483  0.87911  1.0000
  O  Te36      1.0  0.67403  0.41067  0.80549  1.0000
  Mg  Mg17      1.0  0.69101  0.59840  0.92570  1.0000
  Mg  Mg18      1.0  0.61531  0.35639  0.81011  1.0000
  C  Sn37      1.0  0.93555  0.45979  0.81263  1.0000
  C   C61       1.0  0.94362  0.47453  0.77468  1.0000
  C  Sn38      1.0  0.90133  0.50215  0.75492  1.0000
  C  Sn39      1.0  0.84990  0.51534  0.77350  1.0000
  C   C62       1.0  0.84185  0.50061  0.81143  1.0000
  C  Sn40      1.0  0.88412  0.47298  0.83121  1.0000
  O  Te37      1.0  0.97842  0.43220  0.83183  1.0000
  O  Te38      1.0  0.91037  0.51644  0.71699  1.0000
  O  Te39      1.0  0.80702  0.54295  0.75427  1.0000
  O  Te40      1.0  0.87511  0.45869  0.86912  1.0000
  Mg  Mg19      1.0  0.83931  0.55371  0.70292  1.0000
  Mg  Mg20      1.0  0.94614  0.42145  0.88323  1.0000
  C  Sn41      1.0  0.36463  0.53361  0.83571  1.0000
  C   C63       1.0  0.31322  0.50933  0.84194  1.0000
  C  Sn42      1.0  0.30010  0.48778  0.87751  1.0000
  C  Sn43      1.0  0.33917  0.49059  0.90749  1.0000
  C   C64       1.0  0.39054  0.51487  0.90126  1.0000
  C  Sn44      1.0  0.40370  0.53642  0.86569  1.0000
  O  Te41      1.0  0.37686  0.55490  0.79992  1.0000
  O  Te42      1.0  0.24844  0.46369  0.88305  1.0000
  O  Te43      1.0  0.32689  0.46928  0.94330  1.0000
  O  Te44      1.0  0.45532  0.56051  0.86015  1.0000
  Mg  Mg21      1.0  0.25107  0.44051  0.93687  1.0000
  Mg  Mg22      1.0  0.45272  0.58372  0.80635  1.0000
  C  Sn45      1.0  0.08617  0.52368  0.82931  1.0000
  C   C65       1.0  0.13856  0.49898  0.82292  1.0000
  C  Sn46      1.0  0.15238  0.47800  0.78728  1.0000
  C  Sn47      1.0  0.11302  0.48181  0.75739  1.0000
  C   C66       1.0  0.06068  0.50650  0.76378  1.0000
  C  Sn48      1.0  0.04682  0.52749  0.79942  1.0000
  O  Te45      1.0  0.07325  0.54437  0.86516  1.0000
  O  Te46      1.0  0.20501  0.45347  0.78159  1.0000
  O  Te47      1.0  0.12599  0.46108  0.72152  1.0000
  O  Te48      1.0  0.99423  0.55201  0.80512  1.0000
  Mg  Mg23      1.0  0.20304  0.43139  0.72774  1.0000
  Mg  Mg24      1.0  0.99616  0.57412  0.85894  1.0000
  C  Sn49      1.0  0.33351  0.48463  0.09025  1.0000
  C   C67       1.0  0.38060  0.51644  0.09323  1.0000
  C  Sn50      1.0  0.38809  0.54791  0.12534  1.0000
  C  Sn51      1.0  0.34770  0.54757  0.15511  1.0000
  C   C68       1.0  0.30066  0.51577  0.15213  1.0000
  C  Sn52      1.0  0.29312  0.48429  0.12002  1.0000
  O  Te49      1.0  0.32688  0.45348  0.05789  1.0000
  O  Te50      1.0  0.43549  0.57940  0.12766  1.0000
  O  Te51      1.0  0.35438  0.57876  0.18749  1.0000
  O  Te52      1.0  0.24577  0.45281  0.11769  1.0000
  Mg  Mg25      1.0  0.42589  0.61494  0.17746  1.0000
  Mg  Mg26      1.0  0.25534  0.41723  0.06792  1.0000
  C  Sn53      1.0  0.14688  0.50941  0.23262  1.0000
  C   C69       1.0  0.15714  0.48521  0.19749  1.0000
  C  Sn54      1.0  0.11265  0.47243  0.17398  1.0000
  C  Sn55      1.0  0.05675  0.48410  0.18582  1.0000
  C   C70       1.0  0.04651  0.50829  0.22092  1.0000
  C  Sn56      1.0  0.09098  0.52109  0.24446  1.0000
  O  Te53      1.0  0.19200  0.52185  0.25567  1.0000
  O  Te54      1.0  0.12395  0.44823  0.13899  1.0000
  O  Te55      1.0  0.01162  0.47164  0.16274  1.0000
  O  Te56      1.0  0.07970  0.54528  0.27943  1.0000
  Mg  Mg27      1.0  0.04840  0.43897  0.11762  1.0000
  Mg  Mg28      1.0  0.15522  0.55457  0.30081  1.0000
  C  Sn57      1.0  0.68152  0.53687  0.11597  1.0000
  C   C71       1.0  0.69396  0.50205  0.14611  1.0000
  C  Sn58      1.0  0.66203  0.45669  0.15239  1.0000
  C  Sn59      1.0  0.61674  0.44588  0.12803  1.0000
  C   C72       1.0  0.60432  0.48068  0.09792  1.0000
  C  Sn60      1.0  0.63623  0.52607  0.09161  1.0000
  O  Te57      1.0  0.71401  0.58199  0.11022  1.0000
  O  Te58      1.0  0.67525  0.42248  0.18271  1.0000
  O  Te59      1.0  0.58425  0.40073  0.13381  1.0000
  O  Te60      1.0  0.62303  0.56026  0.06131  1.0000
  Mg  Mg29      1.0  0.61872  0.36615  0.17891  1.0000
  Mg  Mg30      1.0  0.67955  0.61658  0.06508  1.0000
  C  Sn61      1.0  0.90826  0.52140  0.16947  1.0000
  C   C73       1.0  0.85677  0.49908  0.17878  1.0000
  C  Sn62      1.0  0.84621  0.48080  0.21565  1.0000
  C  Sn63      1.0  0.88796  0.48494  0.24381  1.0000
  C   C74       1.0  0.93940  0.50725  0.23450  1.0000
  C  Sn64      1.0  0.95000  0.52553  0.19763  1.0000
  O  Te61      1.0  0.91790  0.53941  0.13244  1.0000
  O  Te62      1.0  0.79443  0.45862  0.22427  1.0000
  O  Te63      1.0  0.87827  0.46689  0.28087  1.0000
  O  Te64      1.0  0.00174  0.54770  0.18901  1.0000
  Mg  Mg31      1.0  0.80116  0.43976  0.27874  1.0000
  Mg  Mg32      1.0  0.99505  0.56661  0.13456  1.0000
