data_image0
_chemical_formula_structural       HC3NCH2C3NCH2C3NCH2C3NCH2C3NCH2C3NCH2C3NCH2C3NCH2C3NCH2C3NCH2C3NCH2C3NCH2C3NCH2C3NCH2C3NCH2C3NCHC6HC2HC2HC2HC2HC2HC2HC2HC2Sn2C2HTe2HMgC2Sn2C2HTe2HMgC2Sn2C2HTe2HMgC2Sn2C2HTe2HMgC2Sn2C2HTe2HMgC2Sn2C2HTe2HMgC2Sn2C2HTe2HMgC2Sn2C2HTe2HMgC2Sn2C2HTe2HMgC2Sn2C2HTe2HMgC2Sn2C2HTe2HMgC2Sn2C2HTe2HMgC2Sn2C2HTe2HMgC2Sn2C2HTe2HMgC2Sn2C2HTe2HMgC2Sn2C2HTe2HMgC2Sn2C2HTe2HMgC2Sn2C2HTe2HMgC2Sn2C2HTe2HMgC2Sn2C2HTe2HMgC2Sn2C2HTe2HMgC2Sn2C2HTe2HMgC2Sn2C2HTe2HMgC2Sn2C2HTe2HMgC2Sn2C2HTe2HMgC2Sn2C2HTe2HMgC2Sn2C2HTe2HMgC2Sn2C2HTe2HMgC2Sn2C2HTe2HMgC2Sn2C2HTe2HMgC2Sn2C2HTe2HMgC2Sn2C2HTe2HMg
_chemical_formula_sum              "H104 C212 N16 Sn64 Te64 Mg32"
_cell_length_a       23.9172
_cell_length_b       25.2554
_cell_length_c       34.6343
_cell_angle_alpha    90.2813
_cell_angle_beta     89.9323
_cell_angle_gamma    91.0084

_symmetry_space_group_name_H-M    'P1'
_space_group_IT_number       1

loop_
  _space_group_symop_operation_xyz
  'x, y, z'

loop_
  _atom_site_type_symbol
  _atom_site_label
  _atom_site_symmetry_multiplicity
  _atom_site_fract_x
  _atom_site_fract_y
  _atom_site_fract_z
  _atom_site_occupancy
  H   H1        1.0  0.54299  0.76302  0.67911  1.0000
  C   C1        1.0  0.51354  0.55794  0.46668  1.0000
  C   C2        1.0  0.50608  0.61368  0.46671  1.0000
  C   C3        1.0  0.50507  0.76760  0.34416  1.0000
  N   N1        1.0  0.51747  0.81626  0.35288  1.0000
  C   C4        1.0  0.48787  0.52710  0.57229  1.0000
  H   H2        1.0  0.48131  0.45124  0.59860  1.0000
  H   H3        1.0  0.95472  0.27215  0.67004  1.0000
  C   C5        1.0  0.00116  0.05534  0.46382  1.0000
  C   C6        1.0  0.00258  0.11160  0.46429  1.0000
  C   C7        1.0  0.97373  0.26314  0.34265  1.0000
  N   N2        1.0  0.99403  0.30989  0.34915  1.0000
  C   C8        1.0  0.00130  0.02641  0.57120  1.0000
  H   H4        1.0  0.99816  0.95072  0.59824  1.0000
  H   H5        1.0  0.53075  0.24092  0.68382  1.0000
  C   C9        1.0  0.51793  0.44482  0.46651  1.0000
  C   C10       1.0  0.51463  0.38868  0.46610  1.0000
  C   C11       1.0  0.49686  0.23722  0.34231  1.0000
  N   N3        1.0  0.50926  0.18920  0.35069  1.0000
  C   C12       1.0  0.48989  0.47301  0.57219  1.0000
  H   H6        1.0  0.47834  0.54840  0.59880  1.0000
  H   H7        1.0  0.05001  0.73330  0.67389  1.0000
  C   C13       1.0  0.99978  0.94198  0.46386  1.0000
  C   C14       1.0  0.99831  0.88577  0.46438  1.0000
  C   C15       1.0  0.01979  0.73273  0.34175  1.0000
  N   N4        1.0  0.00195  0.68552  0.34925  1.0000
  C   C16       1.0  0.99952  0.97226  0.57116  1.0000
  H   H8        1.0  0.00253  0.04822  0.59835  1.0000
  H   H9        1.0  0.48924  0.75507  0.31563  1.0000
  C   C17       1.0  0.49640  0.55690  0.53772  1.0000
  C   C18       1.0  0.49257  0.61287  0.53729  1.0000
  C   C19       1.0  0.50520  0.76451  0.66104  1.0000
  N   N5        1.0  0.47190  0.80425  0.66098  1.0000
  C   C20       1.0  0.53003  0.52908  0.43299  1.0000
  H   H10       1.0  0.54444  0.45376  0.40700  1.0000
  H   H11       1.0  0.94655  0.25394  0.31780  1.0000
  C   C21       1.0  0.00203  0.05557  0.53591  1.0000
  C   C22       1.0  0.00484  0.11162  0.53540  1.0000
  C   C23       1.0  0.99314  0.27195  0.65254  1.0000
  N   N6        1.0  0.02846  0.31129  0.65261  1.0000
  C   C24       1.0  0.00097  0.02545  0.42864  1.0000
  H   H12       1.0  0.99894  0.94975  0.40144  1.0000
  H   H13       1.0  0.47667  0.24757  0.31491  1.0000
  C   C25       1.0  0.50103  0.44399  0.53754  1.0000
  C   C26       1.0  0.50181  0.38779  0.53667  1.0000
  C   C27       1.0  0.50856  0.23226  0.65662  1.0000
  N   N7        1.0  0.49205  0.18504  0.64723  1.0000
  C   C28       1.0  0.53181  0.47494  0.43289  1.0000
  H   H14       1.0  0.54178  0.55110  0.40724  1.0000
  H   H15       1.0  0.04367  0.74226  0.31545  1.0000
  C   C29       1.0  0.99926  0.94263  0.53588  1.0000
  C   C30       1.0  0.99709  0.88652  0.53543  1.0000
  C   C31       1.0  0.01335  0.73076  0.65473  1.0000
  N   N8        1.0  0.97960  0.69027  0.65376  1.0000
  C   C32       1.0  0.99995  0.97130  0.42867  1.0000
  H   H16       1.0  0.00215  0.04657  0.40138  1.0000
  H   H17       1.0  0.26150  0.95528  0.18566  1.0000
  C   C33       1.0  0.05194  0.99972  0.95825  1.0000
  C   C34       1.0  0.10290  0.00170  0.97982  1.0000
  C   C35       1.0  0.25764  0.00944  0.83100  1.0000
  N   N9        1.0  0.29670  0.97493  0.83403  1.0000
  C   C36       1.0  0.05147  0.99868  0.08199  1.0000
  H   H18       1.0  0.14222  0.00391  0.96412  1.0000
  H   H19       1.0  0.75142  0.54441  0.19598  1.0000
  C   C37       1.0  0.54982  0.50662  0.95777  1.0000
  C   C38       1.0  0.59907  0.51933  0.97955  1.0000
  C   C39       1.0  0.74926  0.52298  0.82336  1.0000
  N   N10       1.0  0.79646  0.50492  0.83475  1.0000
  C   C40       1.0  0.54850  0.50659  0.08154  1.0000
  H   H20       1.0  0.63714  0.53003  0.96413  1.0000
  H   H21       1.0  0.73915  0.04145  0.18574  1.0000
  C   C41       1.0  0.94795  0.99902  0.95825  1.0000
  C   C42       1.0  0.89701  0.99671  0.97999  1.0000
  C   C43       1.0  0.74785  0.99566  0.82527  1.0000
  N   N11       1.0  0.70778  0.02901  0.82912  1.0000
  C   C44       1.0  0.94881  0.99517  0.08214  1.0000
  H   H22       1.0  0.85741  0.99556  0.96463  1.0000
  H   H23       1.0  0.24854  0.46230  0.19823  1.0000
  C   C45       1.0  0.44712  0.48860  0.95757  1.0000
  C   C46       1.0  0.39800  0.47533  0.97936  1.0000
  C   C47       1.0  0.24990  0.47861  0.82109  1.0000
  N   N12       1.0  0.20165  0.49070  0.83496  1.0000
  C   C48       1.0  0.44604  0.49730  0.08127  1.0000
  H   H24       1.0  0.36069  0.46187  0.96410  1.0000
  H   H25       1.0  0.74435  0.96127  0.80570  1.0000
  C   C49       1.0  0.94805  0.99587  0.04109  1.0000
  C   C50       1.0  0.89707  0.99575  0.01947  1.0000
  C   C51       1.0  0.74266  0.00485  0.16852  1.0000
  N   N13       1.0  0.70224  0.97027  0.16673  1.0000
  C   C52       1.0  0.94884  0.00046  0.91720  1.0000
  H   H26       1.0  0.85760  0.99492  0.03506  1.0000
  H   H27       1.0  0.25525  0.46443  0.79121  1.0000
  C   C53       1.0  0.44622  0.49287  0.04030  1.0000
  C   C54       1.0  0.39726  0.47827  0.01882  1.0000
  C   C55       1.0  0.24645  0.49187  0.17504  1.0000
  N   N14       1.0  0.20245  0.51951  0.16853  1.0000
  C   C56       1.0  0.44746  0.49119  0.91650  1.0000
  H   H28       1.0  0.35921  0.46799  0.03449  1.0000
  H   H29       1.0  0.26307  0.04492  0.81293  1.0000
  C   C57       1.0  0.05203  0.99951  0.04097  1.0000
  C   C58       1.0  0.10300  0.00122  0.01928  1.0000
  C   C59       1.0  0.25649  0.99237  0.16953  1.0000
  N   N15       1.0  0.29550  0.02846  0.16896  1.0000
  C   C60       1.0  0.05143  0.00012  0.91723  1.0000
  H   H30       1.0  0.14253  0.00246  0.03472  1.0000
  H   H31       1.0  0.74523  0.54435  0.79590  1.0000
  C   C61       1.0  0.54914  0.50780  0.04048  1.0000
  C   C62       1.0  0.59890  0.51955  0.01905  1.0000
  C   C63       1.0  0.74952  0.51352  0.17346  1.0000
  N   N16       1.0  0.79075  0.48228  0.16689  1.0000
  C   C64       1.0  0.54964  0.50498  0.91668  1.0000
  H   H32       1.0  0.63681  0.53010  0.03481  1.0000
  C   C65       1.0  0.50026  0.00092  0.74537  1.0000
  C   C66       1.0  0.99962  0.50069  0.74444  1.0000
  C   C67       1.0  0.49992  0.00132  0.25531  1.0000
  C   C68       1.0  0.99567  0.49701  0.25465  1.0000
  C   C69       1.0  0.00000  0.99793  0.02035  1.0000
  C   C70       1.0  0.00027  0.00075  0.89785  1.0000
  H   H33       1.0  0.00043  0.00177  0.86643  1.0000
  C   C71       1.0  0.49789  0.49958  0.01970  1.0000
  C   C72       1.0  0.49856  0.49894  0.89744  1.0000
  H   H34       1.0  0.49836  0.50070  0.86607  1.0000
  C   C73       1.0  0.99992  0.99880  0.97892  1.0000
  C   C74       1.0  0.00018  0.99637  0.10148  1.0000
  H   H35       1.0  0.00029  0.99584  0.13291  1.0000
  C   C75       1.0  0.49828  0.49821  0.97827  1.0000
  C   C76       1.0  0.49716  0.50256  0.10073  1.0000
  H   H36       1.0  0.49693  0.50333  0.13217  1.0000
  C   C77       1.0  0.50877  0.47261  0.50214  1.0000
  C   C78       1.0  0.50706  0.36200  0.50107  1.0000
  H   H37       1.0  0.50525  0.31896  0.50049  1.0000
  C   C79       1.0  0.00004  0.97054  0.49984  1.0000
  C   C80       1.0  0.99600  0.85990  0.49996  1.0000
  H   H38       1.0  0.99635  0.81687  0.50014  1.0000
  C   C81       1.0  0.50631  0.52925  0.50215  1.0000
  C   C82       1.0  0.49508  0.63923  0.50194  1.0000
  H   H39       1.0  0.48975  0.68193  0.50178  1.0000
  C   C83       1.0  0.00096  0.02726  0.49983  1.0000
  C   C84       1.0  0.00567  0.13786  0.49994  1.0000
  H   H40       1.0  0.00549  0.18091  0.50023  1.0000
  C   C85       1.0  0.54524  0.71028  0.43289  1.0000
  C   C86       1.0  0.51783  0.66100  0.43427  1.0000
  C  Sn1       1.0  0.48730  0.64238  0.40247  1.0000
  C  Sn2       1.0  0.48425  0.67376  0.36870  1.0000
  C   C87       1.0  0.51185  0.72299  0.36759  1.0000
  C   C88       1.0  0.54227  0.74125  0.39958  1.0000
  H   H41       1.0  0.56879  0.72440  0.45763  1.0000
  O  Te1       1.0  0.46015  0.59306  0.40435  1.0000
  O  Te2       1.0  0.45405  0.65610  0.33649  1.0000
  H   H42       1.0  0.56351  0.77939  0.39850  1.0000
  Mg  Mg1       1.0  0.42421  0.58617  0.35303  1.0000
  C   C89       1.0  0.53903  0.92134  0.33734  1.0000
  C   C90       1.0  0.51469  0.87123  0.33151  1.0000
  C  Sn3       1.0  0.48457  0.86014  0.29780  1.0000
  C  Sn4       1.0  0.47879  0.90004  0.26945  1.0000
  C   C91       1.0  0.50332  0.95003  0.27555  1.0000
  C   C92       1.0  0.53336  0.96071  0.30939  1.0000
  H   H43       1.0  0.56229  0.92959  0.36351  1.0000
  O  Te3       1.0  0.46051  0.80987  0.29244  1.0000
  O  Te4       1.0  0.44892  0.89002  0.23549  1.0000
  H   H44       1.0  0.55222  0.99950  0.31389  1.0000
  Mg  Mg2       1.0  0.42379  0.81538  0.24142  1.0000
  C   C93       1.0  0.47276  0.34004  0.37336  1.0000
  C   C94       1.0  0.50276  0.29369  0.36753  1.0000
  C  Sn5       1.0  0.54045  0.27668  0.39545  1.0000
  C  Sn6       1.0  0.54815  0.30671  0.42982  1.0000
  C   C95       1.0  0.51791  0.35301  0.43540  1.0000
  C   C96       1.0  0.48032  0.36968  0.40726  1.0000
  H   H45       1.0  0.44365  0.35293  0.35161  1.0000
  O  Te5       1.0  0.57009  0.23028  0.38915  1.0000
  O  Te6       1.0  0.58553  0.29060  0.45821  1.0000
  H   H46       1.0  0.45707  0.40555  0.41180  1.0000
  Mg  Mg3       1.0  0.61626  0.22461  0.43635  1.0000
  C   C97       1.0  0.94909  0.14249  0.39274  1.0000
  C   C98       1.0  0.99017  0.14089  0.42135  1.0000
  C  Sn7       1.0  0.02970  0.18202  0.42479  1.0000
  C  Sn8       1.0  0.02796  0.22552  0.39907  1.0000
  C   C99       1.0  0.98668  0.22677  0.37056  1.0000
  C   C100      1.0  0.94733  0.18539  0.36737  1.0000
  H   H47       1.0  0.91862  0.11049  0.39028  1.0000
  O  Te7       1.0  0.07047  0.17979  0.45353  1.0000
  O  Te8       1.0  0.06695  0.26717  0.40187  1.0000
  H   H48       1.0  0.91551  0.18665  0.34523  1.0000
  Mg  Mg4       1.0  0.11446  0.24608  0.44578  1.0000
  C   C101      1.0  0.96848  0.41546  0.33909  1.0000
  C   C102      1.0  0.98060  0.36358  0.32814  1.0000
  C  Sn9       1.0  0.99962  0.35272  0.29082  1.0000
  C  Sn10      1.0  0.00661  0.39466  0.26404  1.0000
  C   C103      1.0  0.99441  0.44643  0.27529  1.0000
  C   C104      1.0  0.97539  0.45686  0.31270  1.0000
  H   H49       1.0  0.95379  0.42354  0.36804  1.0000
  O  Te9       1.0  0.01151  0.30066  0.28035  1.0000
  O  Te10      1.0  0.02558  0.38492  0.22657  1.0000
  H   H50       1.0  0.96604  0.49703  0.32118  1.0000
  Mg  Mg5       1.0  0.03623  0.30735  0.22596  1.0000
  C   C105      1.0  0.96153  0.77425  0.40708  1.0000
  C   C106      1.0  0.99849  0.77390  0.37580  1.0000
  C  Sn11      1.0  0.03952  0.81363  0.37216  1.0000
  C  Sn12      1.0  0.04353  0.85440  0.40040  1.0000
  C   C107      1.0  0.00638  0.85438  0.43160  1.0000
  C   C108      1.0  0.96547  0.81444  0.43496  1.0000
  H   H51       1.0  0.92989  0.74334  0.40970  1.0000
  O  Te11      1.0  0.07610  0.81269  0.34072  1.0000
  O  Te12      1.0  0.08417  0.89458  0.39747  1.0000
  H   H52       1.0  0.93688  0.81471  0.45919  1.0000
  Mg  Mg6       1.0  0.12440  0.87614  0.34938  1.0000
  C   C109      1.0  0.46780  0.08758  0.33573  1.0000
  C   C110      1.0  0.49764  0.13488  0.32962  1.0000
  C  Sn13      1.0  0.52710  0.14285  0.29522  1.0000
  C  Sn14      1.0  0.52660  0.10266  0.26645  1.0000
  C   C111      1.0  0.49658  0.05550  0.27282  1.0000
  C   C112      1.0  0.46726  0.04793  0.30736  1.0000
  H   H53       1.0  0.44508  0.08173  0.36244  1.0000
  O  Te13      1.0  0.55671  0.19033  0.28960  1.0000
  O  Te14      1.0  0.55567  0.10960  0.23180  1.0000
  H   H54       1.0  0.44413  0.01132  0.31206  1.0000
  Mg  Mg7       1.0  0.58985  0.18116  0.23761  1.0000
  C   C113      1.0  0.03455  0.58203  0.33534  1.0000
  C   C114      1.0  0.01525  0.63250  0.32665  1.0000
  C  Sn15      1.0  0.98604  0.64115  0.29241  1.0000
  C  Sn16      1.0  0.97601  0.59840  0.26645  1.0000
  C   C115      1.0  0.99545  0.54805  0.27543  1.0000
  C   C116      1.0  0.02465  0.53984  0.30977  1.0000
  H   H55       1.0  0.05711  0.57567  0.36192  1.0000
  O  Te15      1.0  0.96708  0.69183  0.28416  1.0000
  O  Te16      1.0  0.94691  0.60593  0.23204  1.0000
  H   H56       1.0  0.03955  0.50076  0.31650  1.0000
  Mg  Mg8       1.0  0.92944  0.68226  0.23363  1.0000
  C   C117      1.0  0.44129  0.69479  0.58336  1.0000
  C   C118      1.0  0.47947  0.65616  0.57254  1.0000
  C  Sn17      1.0  0.52705  0.64772  0.59489  1.0000
  C  Sn18      1.0  0.53647  0.67857  0.62868  1.0000
  C   C119      1.0  0.49800  0.71709  0.63927  1.0000
  C   C120      1.0  0.45053  0.72522  0.61669  1.0000
  H   H57       1.0  0.40455  0.70107  0.56590  1.0000
  O  Te17      1.0  0.56478  0.60897  0.58366  1.0000
  O  Te18      1.0  0.58367  0.67094  0.65155  1.0000
  H   H58       1.0  0.42096  0.75511  0.62509  1.0000
  Mg  Mg9       1.0  0.62293  0.61338  0.62428  1.0000
  C   C121      1.0  0.45254  0.91040  0.67066  1.0000
  C   C122      1.0  0.47583  0.86138  0.67892  1.0000
  C  Sn19      1.0  0.50885  0.85526  0.71179  1.0000
  C  Sn20      1.0  0.51865  0.89909  0.73681  1.0000
  C   C123      1.0  0.49513  0.94796  0.72831  1.0000
  C   C124      1.0  0.46217  0.95365  0.69533  1.0000
  H   H59       1.0  0.42701  0.91480  0.64516  1.0000
  O  Te19      1.0  0.53181  0.80601  0.71961  1.0000
  O  Te20      1.0  0.55147  0.89406  0.76987  1.0000
  H   H60       1.0  0.44411  0.99160  0.68895  1.0000
  Mg  Mg10      1.0  0.57364  0.81892  0.76817  1.0000
  C   C125      1.0  0.45671  0.27520  0.58960  1.0000
  C   C126      1.0  0.49279  0.27236  0.62121  1.0000
  C  Sn21      1.0  0.53056  0.31383  0.62908  1.0000
  C  Sn22      1.0  0.53213  0.35895  0.60482  1.0000
  C   C127      1.0  0.49583  0.36143  0.57330  1.0000
  C   C128      1.0  0.45821  0.31970  0.56567  1.0000
  H   H61       1.0  0.42758  0.24293  0.58372  1.0000
  O  Te21      1.0  0.56633  0.31034  0.66076  1.0000
  O  Te22      1.0  0.56945  0.40097  0.61204  1.0000
  H   H62       1.0  0.43026  0.32192  0.54122  1.0000
  Mg  Mg11      1.0  0.60981  0.37775  0.65870  1.0000
  C   C129      1.0  0.95141  0.17510  0.61974  1.0000
  C   C130      1.0  0.99089  0.21461  0.62892  1.0000
  C  Sn23      1.0  0.03943  0.22062  0.60677  1.0000
  C  Sn24      1.0  0.04848  0.18638  0.57485  1.0000
  C   C131      1.0  0.00871  0.14700  0.56589  1.0000
  C   C132      1.0  0.96030  0.14133  0.58826  1.0000
  H   H63       1.0  0.91393  0.17073  0.63703  1.0000
  O  Te23      1.0  0.07846  0.26029  0.61635  1.0000
  O  Te24      1.0  0.09662  0.19153  0.55222  1.0000
  H   H64       1.0  0.92972  0.11076  0.58113  1.0000
  Mg  Mg12      1.0  0.13752  0.25159  0.57680  1.0000
  C   C133      1.0  0.04208  0.41926  0.66357  1.0000
  C   C134      1.0  0.02886  0.36701  0.67365  1.0000
  C  Sn25      1.0  0.99969  0.35616  0.70776  1.0000
  C  Sn26      1.0  0.98350  0.39849  0.73217  1.0000
  C   C135      1.0  0.99688  0.45064  0.72182  1.0000
  C   C136      1.0  0.02610  0.46104  0.68763  1.0000
  H   H65       1.0  0.06466  0.42732  0.63711  1.0000
  O  Te25      1.0  0.98684  0.30372  0.71739  1.0000
  O  Te26      1.0  0.95429  0.38877  0.76642  1.0000
  H   H66       1.0  0.03630  0.50151  0.67983  1.0000
  Mg  Mg13      1.0  0.94646  0.31060  0.76708  1.0000
  C   C137      1.0  0.95184  0.79882  0.57738  1.0000
  C   C138      1.0  0.98461  0.84449  0.57176  1.0000
  C  Sn27      1.0  0.03142  0.85455  0.59494  1.0000
  C  Sn28      1.0  0.04558  0.81812  0.62426  1.0000
  C   C139      1.0  0.01255  0.77252  0.62963  1.0000
  C   C140      1.0  0.96579  0.76286  0.60629  1.0000
  H   H67       1.0  0.91569  0.79132  0.55931  1.0000
  O  Te27      1.0  0.06369  0.90038  0.58894  1.0000
  O  Te28      1.0  0.09214  0.82719  0.64782  1.0000
  H   H68       1.0  0.94045  0.72747  0.61063  1.0000
  Mg  Mg14      1.0  0.12312  0.89527  0.62846  1.0000
  C   C141      1.0  0.47618  0.11320  0.73316  1.0000
  C   C142      1.0  0.49217  0.06189  0.72340  1.0000
  C  Sn29      1.0  0.51428  0.05121  0.68689  1.0000
  C  Sn30      1.0  0.52047  0.09276  0.65971  1.0000
  C   C143      1.0  0.50438  0.14397  0.66976  1.0000
  C   C144      1.0  0.48229  0.15421  0.70638  1.0000
  H   H69       1.0  0.45911  0.12114  0.76150  1.0000
  O  Te29      1.0  0.54861  0.99971  0.67761  1.0000
  O  Te30      1.0  0.54247  0.08319  0.62301  1.0000
  H   H70       1.0  0.46994  0.19395  0.71393  1.0000
  Mg  Mg15      1.0  0.55788  0.00643  0.62394  1.0000
  C   C145      1.0  0.96073  0.55919  0.67700  1.0000
  C   C146      1.0  0.99006  0.55013  0.71114  1.0000
  C  Sn31      1.0  0.01648  0.59217  0.73063  1.0000
  C  Sn32      1.0  0.01338  0.64419  0.71559  1.0000
  C   C147      1.0  0.98390  0.65284  0.68143  1.0000
  C   C148      1.0  0.95764  0.61049  0.66216  1.0000
  H   H71       1.0  0.94038  0.52643  0.66210  1.0000
  O  Te31      1.0  0.04563  0.58242  0.76470  1.0000
  O  Te32      1.0  0.03938  0.68692  0.73449  1.0000
  H   H72       1.0  0.93490  0.61752  0.63574  1.0000
  Mg  Mg16      1.0  0.07414  0.65358  0.77996  1.0000
  C   C149      1.0  0.18469  0.95606  0.88489  1.0000
  C   C150      1.0  0.20118  0.99174  0.85616  1.0000
  C  Sn33      1.0  0.14930  0.03495  0.84739  1.0000
  C  Sn34      1.0  0.09858  0.04249  0.86782  1.0000
  C   C151      1.0  0.08247  0.00659  0.89653  1.0000
  C   C152      1.0  0.13468  0.96348  0.90506  1.0000
  H   H73       1.0  0.21072  0.92272  0.89151  1.0000
  O  Te33      1.0  0.16639  0.07021  0.81860  1.0000
  O  Te34      1.0  0.06451  0.08536  0.85965  1.0000
  H   H74       1.0  0.12192  0.93588  0.92733  1.0000
  Mg  Mg17      1.0  0.10571  0.12257  0.81792  1.0000
  C   C153      1.0  0.35335  0.01095  0.76652  1.0000
  C   C154      1.0  0.36204  0.98422  0.80116  1.0000
  C  Sn35      1.0  0.40664  0.96429  0.82232  1.0000
  C  Sn36      1.0  0.46211  0.97134  0.80847  1.0000
  C   C155      1.0  0.47157  0.99817  0.77379  1.0000
  C   C156      1.0  0.40805  0.01793  0.75284  1.0000
  H   H75       1.0  0.31859  0.02626  0.75032  1.0000
  O  Te35      1.0  0.39601  0.93767  0.85687  1.0000
  O  Te36      1.0  0.50745  0.95185  0.82905  1.0000
  H   H76       1.0  0.41573  0.03866  0.72604  1.0000
  Mg  Mg18      1.0  0.47164  0.91830  0.87456  1.0000
  C   C157      1.0  0.88130  0.95617  0.85632  1.0000
  C   C158      1.0  0.89827  0.99274  0.88455  1.0000
  C  Sn37      1.0  0.84440  0.03365  0.89559  1.0000
  C  Sn38      1.0  0.79114  0.03792  0.87798  1.0000
  C   C159      1.0  0.79311  0.00111  0.84979  1.0000
  C   C160      1.0  0.82876  0.96034  0.83895  1.0000
  H   H77       1.0  0.90886  0.92461  0.84795  1.0000
  O  Te37      1.0  0.86203  0.06986  0.92383  1.0000
  O  Te38      1.0  0.75503  0.07841  0.88848  1.0000
  H   H78       1.0  0.81559  0.93201  0.81711  1.0000
  Mg  Mg19      1.0  0.79794  0.11812  0.92836  1.0000
  C   C161      1.0  0.63539  0.54881  0.83870  1.0000
  C   C162      1.0  0.68764  0.52616  0.84428  1.0000
  C  Sn39      1.0  0.69607  0.49157  0.87501  1.0000
  C  Sn40      1.0  0.65127  0.47948  0.90056  1.0000
  C   C163      1.0  0.59915  0.50231  0.89471  1.0000
  C   C164      1.0  0.59118  0.53689  0.86388  1.0000
  H   H79       1.0  0.62922  0.57554  0.81484  1.0000
  O  Te39      1.0  0.74854  0.46931  0.88017  1.0000
  O  Te40      1.0  0.65853  0.44502  0.93149  1.0000
  H   H80       1.0  0.55071  0.55439  0.85955  1.0000
  Mg  Mg20      1.0  0.73779  0.42464  0.92654  1.0000
  C   C165      1.0  0.85231  0.48106  0.76472  1.0000
  C   C166      1.0  0.84303  0.50000  0.80212  1.0000
  C  Sn41      1.0  0.88649  0.52445  0.82285  1.0000
  C  Sn42      1.0  0.94019  0.52999  0.80574  1.0000
  C   C167      1.0  0.94905  0.51094  0.76830  1.0000
  C   C168      1.0  0.90526  0.48653  0.74782  1.0000
  H   H81       1.0  0.81844  0.46220  0.74886  1.0000
  O  Te41      1.0  0.87649  0.54314  0.86019  1.0000
  O  Te42      1.0  0.98437  0.55428  0.82580  1.0000
  H   H82       1.0  0.91246  0.47189  0.71885  1.0000
  Mg  Mg21      1.0  0.95004  0.57334  0.87592  1.0000
  C   C169      1.0  0.38959  0.45345  0.84861  1.0000
  C   C170      1.0  0.39816  0.48141  0.88308  1.0000
  C  Sn43      1.0  0.35465  0.50992  0.89967  1.0000
  C  Sn44      1.0  0.30163  0.51035  0.88135  1.0000
  C   C171      1.0  0.29347  0.48223  0.84689  1.0000
  C   C172      1.0  0.33730  0.45385  0.83053  1.0000
  H   H83       1.0  0.42348  0.43147  0.83596  1.0000
  O  Te43      1.0  0.36393  0.53765  0.93411  1.0000
  O  Te44      1.0  0.25742  0.53850  0.89732  1.0000
  H   H84       1.0  0.33064  0.43218  0.80386  1.0000
  Mg  Mg22      1.0  0.29065  0.57012  0.94461  1.0000
  C   C173      1.0  0.59339  0.04296  0.82290  1.0000
  C   C174      1.0  0.64651  0.02590  0.81222  1.0000
  C  Sn45      1.0  0.67326  0.00117  0.77654  1.0000
  C  Sn46      1.0  0.62731  0.99343  0.75113  1.0000
  C   C175      1.0  0.55576  0.01066  0.76207  1.0000
  C   C176      1.0  0.54805  0.03536  0.79785  1.0000
  H   H85       1.0  0.58743  0.06209  0.85057  1.0000
  O  Te45      1.0  0.72660  0.98435  0.76633  1.0000
  O  Te46      1.0  0.63430  0.96883  0.71529  1.0000
  H   H86       1.0  0.50693  0.04859  0.80610  1.0000
  Mg  Mg23      1.0  0.71504  0.95284  0.71441  1.0000
  C   C177      1.0  0.14722  0.51824  0.76521  1.0000
  C   C178      1.0  0.15548  0.49903  0.80251  1.0000
  C  Sn47      1.0  0.11118  0.47538  0.82277  1.0000
  C  Sn48      1.0  0.05767  0.47092  0.80529  1.0000
  C   C179      1.0  0.04985  0.49022  0.76795  1.0000
  C   C180      1.0  0.09446  0.51383  0.74794  1.0000
  H   H87       1.0  0.18174  0.53648  0.74971  1.0000
  O  Te47      1.0  0.12015  0.45642  0.86001  1.0000
  O  Te48      1.0  0.01267  0.44744  0.82489  1.0000
  H   H88       1.0  0.08806  0.52867  0.71906  1.0000
  Mg  Mg24      1.0  0.04575  0.42761  0.87505  1.0000
  C   C181      1.0  0.84219  0.94801  0.10465  1.0000
  C   C182      1.0  0.88541  0.98580  0.10215  1.0000
  C  Sn49      1.0  0.86563  0.03163  0.12489  1.0000
  C  Sn50      1.0  0.82028  0.03964  0.15058  1.0000
  C   C183      1.0  0.77726  0.00158  0.15289  1.0000
  C   C184      1.0  0.79745  0.95588  0.13000  1.0000
  H   H89       1.0  0.84344  0.91264  0.08696  1.0000
  O  Te49      1.0  0.90915  0.06899  0.12202  1.0000
  O  Te50      1.0  0.81805  0.08507  0.17364  1.0000
  H   H90       1.0  0.76400  0.92662  0.13196  1.0000
  Mg  Mg25      1.0  0.88726  0.12451  0.15940  1.0000
  C   C185      1.0  0.58669  0.95874  0.17503  1.0000
  C   C186      1.0  0.64131  0.97463  0.18434  1.0000
  C  Sn51      1.0  0.65267  0.99957  0.21963  1.0000
  C  Sn52      1.0  0.58986  0.00871  0.24604  1.0000
  C   C187      1.0  0.55394  0.99263  0.23647  1.0000
  C   C188      1.0  0.54304  0.96772  0.20107  1.0000
  H   H91       1.0  0.57825  0.93944  0.14765  1.0000
  O  Te51      1.0  0.68890  0.01521  0.22846  1.0000
  O  Te52      1.0  0.60004  0.03354  0.28152  1.0000
  H   H92       1.0  0.50075  0.95539  0.19388  1.0000
  Mg  Mg26      1.0  0.68173  0.04759  0.28040  1.0000
  C   C189      1.0  0.14961  0.94969  0.14941  1.0000
  C   C190      1.0  0.19577  0.98435  0.14826  1.0000
  C  Sn53      1.0  0.17570  0.03010  0.12579  1.0000
  C  Sn54      1.0  0.12703  0.04126  0.10412  1.0000
  C   C191      1.0  0.08106  0.00635  0.10549  1.0000
  C   C192      1.0  0.10159  0.96067  0.12805  1.0000
  H   H93       1.0  0.15109  0.91436  0.16689  1.0000
  O  Te53      1.0  0.22219  0.06430  0.12495  1.0000
  O  Te54      1.0  0.12442  0.08671  0.08143  1.0000
  H   H94       1.0  0.06583  0.93386  0.12896  1.0000
  Mg  Mg27      1.0  0.19847  0.12117  0.08970  1.0000
  C   C193      1.0  0.33276  0.53106  0.09603  1.0000
  C   C194      1.0  0.38398  0.50686  0.10250  1.0000
  C  Sn55      1.0  0.39061  0.47319  0.13398  1.0000
  C  Sn56      1.0  0.34503  0.46363  0.15942  1.0000
  C   C195      1.0  0.29394  0.48800  0.15269  1.0000
  C   C196      1.0  0.28777  0.52164  0.12110  1.0000
  H   H95       1.0  0.32797  0.55707  0.07158  1.0000
  O  Te55      1.0  0.44208  0.44935  0.14002  1.0000
  O  Te56      1.0  0.35050  0.43013  0.19110  1.0000
  H   H96       1.0  0.24810  0.54034  0.11609  1.0000
  Mg  Mg28      1.0  0.42894  0.40688  0.18720  1.0000
  C   C197      1.0  0.08938  0.53749  0.17730  1.0000
  C   C198      1.0  0.14258  0.52122  0.18826  1.0000
  C  Sn57      1.0  0.14953  0.49159  0.22182  1.0000
  C  Sn58      1.0  0.10227  0.47805  0.24477  1.0000
  C   C199      1.0  0.04922  0.49448  0.23354  1.0000
  C   C200      1.0  0.04274  0.52413  0.19991  1.0000
  H   H97       1.0  0.08435  0.56040  0.15127  1.0000
  O  Te57      1.0  0.20298  0.47568  0.23236  1.0000
  O  Te58      1.0  0.10803  0.44846  0.27845  1.0000
  H   H98       1.0  0.00154  0.53669  0.19142  1.0000
  Mg  Mg29      1.0  0.18946  0.43599  0.28076  1.0000
  C   C201      1.0  0.65918  0.46955  0.09845  1.0000
  C   C202      1.0  0.61013  0.49818  0.10307  1.0000
  C  Sn59      1.0  0.60638  0.53668  0.13201  1.0000
  C  Sn60      1.0  0.65268  0.54663  0.15674  1.0000
  C   C203      1.0  0.70158  0.51780  0.15187  1.0000
  C   C204      1.0  0.70487  0.47935  0.12281  1.0000
  H   H99       1.0  0.66174  0.43982  0.07595  1.0000
  O  Te59      1.0  0.55706  0.56491  0.13624  1.0000
  O  Te60      1.0  0.65008  0.58490  0.18590  1.0000
  H   H100      1.0  0.74286  0.45721  0.11923  1.0000
  Mg  Mg30      1.0  0.57379  0.61302  0.18022  1.0000
  C   C205      1.0  0.37871  0.98635  0.24662  1.0000
  C   C206      1.0  0.43340  0.99872  0.23512  1.0000
  C  Sn61      1.0  0.42471  0.02643  0.20090  1.0000
  C  Sn62      1.0  0.37891  0.04200  0.17783  1.0000
  C   C207      1.0  0.32435  0.02946  0.18960  1.0000
  C   C208      1.0  0.31493  0.00170  0.22389  1.0000
  H   H101      1.0  0.37142  0.96489  0.27316  1.0000
  O  Te61      1.0  0.47962  0.03846  0.18984  1.0000
  O  Te62      1.0  0.38760  0.06975  0.14351  1.0000
  H   H102      1.0  0.29116  0.99215  0.23280  1.0000
  Mg  Mg31      1.0  0.47008  0.07690  0.14063  1.0000
  C   C209      1.0  0.90506  0.46921  0.17236  1.0000
  C   C210      1.0  0.85079  0.47788  0.18567  1.0000
  C  Sn63      1.0  0.84195  0.49691  0.22308  1.0000
  C  Sn64      1.0  0.88840  0.50743  0.24757  1.0000
  C   C211      1.0  0.94253  0.49866  0.23397  1.0000
  C   C212      1.0  0.95090  0.47960  0.19648  1.0000
  H   H103      1.0  0.91154  0.45448  0.14335  1.0000
  O  Te63      1.0  0.78745  0.50533  0.23592  1.0000
  O  Te64      1.0  0.88076  0.52649  0.28509  1.0000
  H   H104      1.0  0.99292  0.47292  0.18618  1.0000
  Mg  Mg32      1.0  0.79848  0.53165  0.28939  1.0000
