data_image0
_chemical_formula_structural       CNCNC2H2C3SC2SH2CNCNC2H2C3SC2SH2CNCNC2H2C3SC2SH2CNCNC2H2C3SC2SH2CNCNC2H2C3SC2SH2CNCNC2H2C3SC2SH2CNCNC2H2C3SC2SH2CNCNC2H2C3SC2SH2CNCNC2H2C3SC2SH2CNCNC2H2C3SC2SH2CNCNC2H2C3SC2SH2CNCNC2H2C3SC2SH2SnCSn2CSnTe4Mg2SnCSn2CSnTe4Mg2SnCSn2CSnTe4Mg2SnCSn2CSnTe4Mg2SnCSn2CSnTe4Mg2SnCSn2CSnTe4Mg2SnCSn2CSnTe4Mg2SnCSn2CSnTe4Mg2SnCSn2CSnTe4Mg2SnCSn2CSnTe4Mg2SnCSn2CSnTe4Mg2SnCSn2CSnTe4Mg2SnCSn2CSnTe4Mg2SnCSn2CSnTe4Mg2SnCSn2CSnTe4Mg2SnCSn2CSnTe4Mg2SnCSn2CSnTe4Mg2SnCSn2CSnTe4Mg2SnCSn2CSnTe4Mg2SnCSn2CSnTe4Mg2SnCSn2CSnTe4Mg2SnCSn2CSnTe4Mg2SnCSn2CSnTe4Mg2SnCSn2CSnTe4Mg2
_chemical_formula_sum              "C156 N24 H48 S24 Sn96 Te96 Mg48"
_cell_length_a       42.1141
_cell_length_b       42.1755
_cell_length_c       9.35482
_cell_angle_alpha    87.2927
_cell_angle_beta     91.0863
_cell_angle_gamma    120.09

_symmetry_space_group_name_H-M    'P1'
_space_group_IT_number       1

loop_
  _space_group_symop_operation_xyz
  'x, y, z'

loop_
  _atom_site_type_symbol
  _atom_site_label
  _atom_site_symmetry_multiplicity
  _atom_site_fract_x
  _atom_site_fract_y
  _atom_site_fract_z
  _atom_site_occupancy
  C   C1        1.0  0.48358  0.48476  0.25682  1.0000
  N   N1        1.0  0.34990  0.48924  0.27181  1.0000
  C   C2        1.0  0.31756  0.46206  0.24410  1.0000
  N   N2        1.0  0.45822  0.33820  0.24860  1.0000
  C   C3        1.0  0.48573  0.33252  0.25952  1.0000
  C   C4        1.0  0.48119  0.29664  0.24954  1.0000
  H   H1        1.0  0.31230  0.43437  0.22345  1.0000
  H   H2        1.0  0.51377  0.35478  0.28050  1.0000
  C   C5        1.0  0.50754  0.28651  0.27944  1.0000
  C   C6        1.0  0.49321  0.24870  0.26315  1.0000
  C   C7        1.0  0.45610  0.23027  0.21882  1.0000
  S   S1        1.0  0.43890  0.25991  0.19891  1.0000
  C   C8        1.0  0.28605  0.46673  0.24237  1.0000
  C   C9        1.0  0.24953  0.44003  0.22090  1.0000
  S   S2        1.0  0.29162  0.50998  0.27219  1.0000
  H   H3        1.0  0.53524  0.30585  0.31258  1.0000
  H   H4        1.0  0.24094  0.41170  0.20109  1.0000
  C   C10       1.0  0.51632  0.99902  0.25400  1.0000
  N   N3        1.0  0.50540  0.85807  0.24649  1.0000
  C   C11       1.0  0.53303  0.85353  0.22119  1.0000
  N   N4        1.0  0.66369  0.12034  0.23826  1.0000
  C   C12       1.0  0.66959  0.15338  0.24953  1.0000
  C   C13       1.0  0.70571  0.18506  0.23950  1.0000
  H   H5        1.0  0.56125  0.87659  0.20688  1.0000
  H   H6        1.0  0.64712  0.15882  0.26968  1.0000
  C   C14       1.0  0.71528  0.22088  0.26894  1.0000
  C   C15       1.0  0.75321  0.24515  0.25053  1.0000
  C   C16       1.0  0.77249  0.22786  0.20530  1.0000
  S   S3        1.0  0.74334  0.18118  0.18728  1.0000
  C   C17       1.0  0.52850  0.81753  0.21578  1.0000
  C   C18       1.0  0.55601  0.80870  0.20043  1.0000
  S   S4        1.0  0.48471  0.77874  0.23725  1.0000
  H   H7        1.0  0.69545  0.22828  0.30327  1.0000
  H   H8        1.0  0.58478  0.82926  0.18638  1.0000
  C   C19       1.0  0.00271  0.51919  0.24675  1.0000
  N   N5        1.0  0.14297  0.64999  0.24058  1.0000
  C   C20       1.0  0.14764  0.68282  0.23516  1.0000
  N   N6        1.0  0.88042  0.54318  0.23693  1.0000
  C   C21       1.0  0.84727  0.51585  0.22484  1.0000
  C   C22       1.0  0.81608  0.52096  0.21760  1.0000
  H   H9        1.0  0.12473  0.68814  0.24456  1.0000
  H   H10       1.0  0.84120  0.48727  0.22287  1.0000
  C   C23       1.0  0.77935  0.49337  0.21959  1.0000
  C   C24       1.0  0.75578  0.50803  0.21674  1.0000
  C   C25       1.0  0.77469  0.54687  0.21034  1.0000
  S   S5        1.0  0.82186  0.56514  0.20991  1.0000
  C   C26       1.0  0.18359  0.71443  0.22211  1.0000
  C   C27       1.0  0.19282  0.75091  0.23256  1.0000
  S   S6        1.0  0.22172  0.70911  0.19624  1.0000
  H   H11       1.0  0.77082  0.46441  0.22484  1.0000
  H   H12       1.0  0.17256  0.75909  0.24942  1.0000
  C   C28       1.0  0.51782  0.51623  0.25479  1.0000
  N   N7        1.0  0.65050  0.50996  0.25288  1.0000
  C   C29       1.0  0.68282  0.53818  0.22788  1.0000
  N   N8        1.0  0.53980  0.66188  0.23505  1.0000
  C   C30       1.0  0.51190  0.66703  0.23252  1.0000
  C   C31       1.0  0.51637  0.70314  0.22387  1.0000
  H   H13       1.0  0.68784  0.56642  0.21642  1.0000
  H   H14       1.0  0.48341  0.64412  0.23984  1.0000
  C   C32       1.0  0.48871  0.71193  0.23467  1.0000
  C   C33       1.0  0.50304  0.75017  0.22603  1.0000
  C   C34       1.0  0.54162  0.77045  0.20708  1.0000
  S   S7        1.0  0.56009  0.74188  0.20108  1.0000
  C   C35       1.0  0.71440  0.53389  0.21835  1.0000
  C   C36       1.0  0.75111  0.56155  0.20976  1.0000
  S   S8        1.0  0.70869  0.48973  0.22418  1.0000
  H   H15       1.0  0.45999  0.69135  0.24975  1.0000
  H   H16       1.0  0.75966  0.59051  0.20584  1.0000
  C   C37       1.0  0.48540  0.00273  0.25310  1.0000
  N   N9        1.0  0.48980  0.14044  0.26987  1.0000
  C   C38       1.0  0.46297  0.14598  0.23395  1.0000
  N   N10       1.0  0.33966  0.87984  0.23431  1.0000
  C   C39       1.0  0.33437  0.84747  0.21006  1.0000
  C   C40       1.0  0.29820  0.81617  0.20738  1.0000
  H   H17       1.0  0.43560  0.12405  0.20308  1.0000
  H   H18       1.0  0.35707  0.84212  0.19429  1.0000
  C   C41       1.0  0.28895  0.77981  0.19178  1.0000
  C   C42       1.0  0.25070  0.75612  0.20057  1.0000
  C   C43       1.0  0.23100  0.77465  0.22153  1.0000
  S   S9        1.0  0.26001  0.82151  0.23140  1.0000
  C   C44       1.0  0.46775  0.18209  0.23561  1.0000
  C   C45       1.0  0.44170  0.19245  0.20263  1.0000
  S   S10       1.0  0.51015  0.21887  0.28597  1.0000
  H   H19       1.0  0.30927  0.77156  0.17716  1.0000
  H   H20       1.0  0.41396  0.17320  0.16964  1.0000
  C   C46       1.0  0.99920  0.48472  0.24889  1.0000
  N   N11       1.0  0.86051  0.35121  0.25453  1.0000
  C   C47       1.0  0.85596  0.31974  0.21939  1.0000
  N   N12       1.0  0.11992  0.45790  0.25011  1.0000
  C   C48       1.0  0.15333  0.48518  0.25329  1.0000
  C   C49       1.0  0.18457  0.48016  0.24711  1.0000
  H   H21       1.0  0.87869  0.31555  0.18959  1.0000
  H   H22       1.0  0.15953  0.51360  0.26406  1.0000
  C   C50       1.0  0.22115  0.50702  0.26531  1.0000
  C   C51       1.0  0.24472  0.49251  0.25622  1.0000
  C   C52       1.0  0.22599  0.45461  0.22941  1.0000
  S   S11       1.0  0.17899  0.43698  0.21677  1.0000
  C   C53       1.0  0.82005  0.28784  0.22093  1.0000
  C   C54       1.0  0.81050  0.25220  0.18824  1.0000
  S   S12       1.0  0.78230  0.29161  0.27247  1.0000
  H   H23       1.0  0.22954  0.53532  0.28509  1.0000
  H   H24       1.0  0.83037  0.24483  0.15420  1.0000
  C   C55       1.0  0.48151  0.48403  0.75280  1.0000
  N   N13       1.0  0.34952  0.49100  0.77244  1.0000
  C   C56       1.0  0.31698  0.46283  0.75733  1.0000
  N   N14       1.0  0.46152  0.33942  0.74210  1.0000
  C   C57       1.0  0.48959  0.33465  0.73517  1.0000
  C   C58       1.0  0.48525  0.29868  0.73191  1.0000
  H   H25       1.0  0.31195  0.43463  0.75389  1.0000
  H   H26       1.0  0.51805  0.35765  0.73553  1.0000
  C   C59       1.0  0.51303  0.28981  0.74117  1.0000
  C   C60       1.0  0.49865  0.25160  0.74026  1.0000
  C   C61       1.0  0.45995  0.23149  0.72788  1.0000
  S   S13       1.0  0.44136  0.26006  0.72019  1.0000
  C   C62       1.0  0.28535  0.46722  0.74781  1.0000
  C   C63       1.0  0.24860  0.43981  0.74106  1.0000
  S   S14       1.0  0.29132  0.51147  0.74513  1.0000
  H   H27       1.0  0.54186  0.31034  0.74965  1.0000
  H   H28       1.0  0.23985  0.41081  0.74195  1.0000
  C   C64       1.0  0.51409  0.99726  0.75082  1.0000
  N   N15       1.0  0.50715  0.85831  0.74902  1.0000
  C   C65       1.0  0.53537  0.85454  0.72614  1.0000
  N   N16       1.0  0.66145  0.11782  0.73296  1.0000
  C   C66       1.0  0.66723  0.15103  0.73521  1.0000
  C   C67       1.0  0.70356  0.18238  0.73088  1.0000
  H   H29       1.0  0.56346  0.87798  0.71401  1.0000
  H   H30       1.0  0.64460  0.15676  0.74489  1.0000
  C   C68       1.0  0.71300  0.21857  0.75146  1.0000
  C   C69       1.0  0.75130  0.24215  0.74609  1.0000
  C   C70       1.0  0.77096  0.22391  0.71914  1.0000
  S   S15       1.0  0.74171  0.17723  0.70252  1.0000
  C   C71       1.0  0.53097  0.81864  0.71976  1.0000
  C   C72       1.0  0.55829  0.80932  0.71157  1.0000
  S   S16       1.0  0.48657  0.78036  0.72843  1.0000
  H   H31       1.0  0.69279  0.22671  0.77063  1.0000
  H   H32       1.0  0.58737  0.82952  0.70670  1.0000
  C   C73       1.0  0.99968  0.51617  0.74255  1.0000
  N   N17       1.0  0.14008  0.64710  0.76447  1.0000
  C   C74       1.0  0.14456  0.67990  0.75607  1.0000
  N   N18       1.0  0.87629  0.53816  0.74406  1.0000
  C   C75       1.0  0.84308  0.51073  0.73351  1.0000
  C   C76       1.0  0.81189  0.51576  0.73795  1.0000
  H   H33       1.0  0.12132  0.68492  0.75562  1.0000
  H   H34       1.0  0.83704  0.48231  0.72503  1.0000
  C   C77       1.0  0.77502  0.48853  0.73428  1.0000
  C   C78       1.0  0.75181  0.50340  0.74501  1.0000
  C   C79       1.0  0.77111  0.54200  0.75583  1.0000
  S   S17       1.0  0.81820  0.55980  0.75379  1.0000
  C   C80       1.0  0.18056  0.71182  0.74949  1.0000
  C   C81       1.0  0.18943  0.74832  0.75605  1.0000
  S   S18       1.0  0.21923  0.70689  0.73224  1.0000
  H   H35       1.0  0.76612  0.45970  0.72452  1.0000
  H   H36       1.0  0.16890  0.75643  0.76727  1.0000
  C   C82       1.0  0.51589  0.51545  0.75071  1.0000
  N   N19       1.0  0.64663  0.50581  0.78189  1.0000
  C   C83       1.0  0.67951  0.53404  0.77357  1.0000
  N   N20       1.0  0.53874  0.66147  0.72591  1.0000
  C   C84       1.0  0.51114  0.66713  0.72058  1.0000
  C   C85       1.0  0.51647  0.70351  0.71661  1.0000
  H   H37       1.0  0.68487  0.56239  0.77400  1.0000
  H   H38       1.0  0.48240  0.64467  0.72282  1.0000
  C   C86       1.0  0.48921  0.71299  0.72166  1.0000
  C   C87       1.0  0.50435  0.75129  0.72075  1.0000
  C   C88       1.0  0.54318  0.77098  0.71312  1.0000
  S   S19       1.0  0.56087  0.74171  0.70909  1.0000
  C   C89       1.0  0.71099  0.52956  0.76491  1.0000
  C   C90       1.0  0.74785  0.55684  0.76632  1.0000
  S   S20       1.0  0.70473  0.48552  0.74982  1.0000
  H   H39       1.0  0.46016  0.69281  0.72671  1.0000
  H   H40       1.0  0.75675  0.58568  0.77505  1.0000
  C   C91       1.0  0.48324  0.00099  0.75106  1.0000
  N   N21       1.0  0.49561  0.14235  0.76688  1.0000
  C   C92       1.0  0.46833  0.14802  0.74394  1.0000
  N   N22       1.0  0.33683  0.87886  0.74652  1.0000
  C   C93       1.0  0.33115  0.84601  0.73032  1.0000
  C   C94       1.0  0.29495  0.81453  0.73328  1.0000
  H   H41       1.0  0.44000  0.12550  0.72994  1.0000
  H   H42       1.0  0.35375  0.84039  0.71706  1.0000
  C   C95       1.0  0.28602  0.77806  0.72399  1.0000
  C   C96       1.0  0.24782  0.75404  0.73332  1.0000
  C   C97       1.0  0.22767  0.77233  0.74803  1.0000
  S   S21       1.0  0.25634  0.81944  0.75254  1.0000
  C   C98       1.0  0.47316  0.18426  0.73894  1.0000
  C   C99       1.0  0.44555  0.19329  0.72618  1.0000
  S   S22       1.0  0.51708  0.22287  0.75194  1.0000
  H   H43       1.0  0.30651  0.76997  0.71137  1.0000
  H   H44       1.0  0.41670  0.17284  0.71731  1.0000
  C   C100      1.0  0.99662  0.48189  0.74425  1.0000
  N   N23       1.0  0.85887  0.34727  0.76559  1.0000
  C   C101      1.0  0.85460  0.31574  0.73344  1.0000
  N   N24       1.0  0.11967  0.45896  0.74172  1.0000
  C   C102      1.0  0.15302  0.48637  0.73152  1.0000
  C   C103      1.0  0.18410  0.48106  0.72969  1.0000
  H   H45       1.0  0.87755  0.31161  0.70634  1.0000
  H   H46       1.0  0.15943  0.51511  0.72778  1.0000
  C   C104      1.0  0.22093  0.50846  0.73125  1.0000
  C   C105      1.0  0.24429  0.49353  0.73513  1.0000
  C   C106      1.0  0.22519  0.45472  0.73464  1.0000
  S   S23       1.0  0.17806  0.43680  0.72999  1.0000
  C   C107      1.0  0.81863  0.28384  0.73353  1.0000
  C   C108      1.0  0.80927  0.24771  0.71116  1.0000
  S   S24       1.0  0.78040  0.28870  0.76502  1.0000
  H   H47       1.0  0.22971  0.53745  0.73192  1.0000
  H   H48       1.0  0.82941  0.23957  0.69073  1.0000
  C  Sn1       1.0  0.38763  0.45216  0.20474  1.0000
  C   C109      1.0  0.37921  0.47478  0.28066  1.0000
  C  Sn2       1.0  0.40708  0.50610  0.34268  1.0000
  C  Sn3       1.0  0.44416  0.51501  0.32845  1.0000
  C   C110      1.0  0.45257  0.49241  0.25255  1.0000
  C  Sn4       1.0  0.42471  0.46108  0.19051  1.0000
  O  Te1       1.0  0.35932  0.42099  0.14361  1.0000
  O  Te2       1.0  0.39798  0.52828  0.41811  1.0000
  O  Te3       1.0  0.47248  0.54621  0.38966  1.0000
  O  Te4       1.0  0.43379  0.43891  0.11509  1.0000
  Mg  Mg1       1.0  0.44625  0.56782  0.48205  1.0000
  Mg  Mg2       1.0  0.38556  0.39937  0.05105  1.0000
  C  Sn5       1.0  0.43534  0.38714  0.30862  1.0000
  C   C111      1.0  0.45448  0.37435  0.23168  1.0000
  C  Sn6       1.0  0.48873  0.39896  0.17125  1.0000
  C  Sn7       1.0  0.50418  0.43715  0.18815  1.0000
  C   C112      1.0  0.48505  0.44992  0.26508  1.0000
  C  Sn8       1.0  0.45080  0.42533  0.32553  1.0000
  O  Te5       1.0  0.40115  0.36205  0.36812  1.0000
  O  Te6       1.0  0.50733  0.38553  0.09474  1.0000
  O  Te7       1.0  0.53840  0.46225  0.12858  1.0000
  O  Te8       1.0  0.43220  0.43875  0.40201  1.0000
  Mg  Mg3       1.0  0.55313  0.43058  0.03381  1.0000
  Mg  Mg4       1.0  0.38641  0.39372  0.46305  1.0000
  C  Sn9       1.0  0.49451  0.92710  0.38109  1.0000
  C   C113      1.0  0.51675  0.95923  0.29948  1.0000
  C  Sn10      1.0  0.53442  0.95813  0.17653  1.0000
  C  Sn11      1.0  0.52975  0.92421  0.13418  1.0000
  C   C114      1.0  0.50753  0.89210  0.21575  1.0000
  C  Sn12      1.0  0.48985  0.89317  0.33875  1.0000
  O  Te9       1.0  0.47711  0.92885  0.50361  1.0000
  O  Te10      1.0  0.55652  0.99062  0.09670  1.0000
  O  Te11      1.0  0.54718  0.92249  0.01155  1.0000
  O  Te12      1.0  0.46775  0.86071  0.41853  1.0000
  Mg  Mg5       1.0  0.57307  0.96297  0.93816  1.0000
  Mg  Mg6       1.0  0.44978  0.87715  0.57704  1.0000
  C  Sn13      1.0  0.58870  0.03908  0.36479  1.0000
  C   C115      1.0  0.55821  0.03518  0.28826  1.0000
  C  Sn14      1.0  0.56273  0.05862  0.17012  1.0000
  C  Sn15      1.0  0.59846  0.08653  0.12752  1.0000
  C   C116      1.0  0.62893  0.09042  0.20402  1.0000
  C  Sn16      1.0  0.62444  0.06699  0.32219  1.0000
  O  Te13      1.0  0.58354  0.01533  0.48254  1.0000
  O  Te14      1.0  0.53182  0.05420  0.09533  1.0000
  O  Te15      1.0  0.60360  0.11028  0.00967  1.0000
  O  Te16      1.0  0.65532  0.07140  0.39695  1.0000
  Mg  Mg7       1.0  0.55158  0.08213  0.94214  1.0000
  Mg  Mg8       1.0  0.63420  0.03229  0.55009  1.0000
  C  Sn17      1.0  0.09900  0.57717  0.30671  1.0000
  C   C117      1.0  0.10897  0.61019  0.23065  1.0000
  C  Sn18      1.0  0.08210  0.61687  0.17108  1.0000
  C  Sn19      1.0  0.04448  0.59000  0.18795  1.0000
  C   C118      1.0  0.03452  0.55701  0.26399  1.0000
  C  Sn20      1.0  0.06137  0.55031  0.32358  1.0000
  O  Te17      1.0  0.12632  0.57108  0.36536  1.0000
  O  Te18      1.0  0.09274  0.65008  0.09545  1.0000
  O  Te19      1.0  0.01715  0.59613  0.12922  1.0000
  O  Te20      1.0  0.05075  0.51712  0.39919  1.0000
  Mg  Mg9       1.0  0.04538  0.64562  0.03548  1.0000
  Mg  Mg10      1.0  0.09809  0.52157  0.45927  1.0000
  C  Sn21      1.0  0.91135  0.50078  0.16557  1.0000
  C   C119      1.0  0.90599  0.52490  0.24552  1.0000
  C  Sn22      1.0  0.93524  0.55266  0.31845  1.0000
  C  Sn23      1.0  0.97059  0.55642  0.31127  1.0000
  C   C120      1.0  0.97593  0.53232  0.23135  1.0000
  C  Sn24      1.0  0.94670  0.50454  0.15839  1.0000
  O  Te21      1.0  0.88172  0.47323  0.09350  1.0000
  O  Te22      1.0  0.92921  0.57644  0.39772  1.0000
  O  Te23      1.0  0.00022  0.58401  0.38343  1.0000
  O  Te24      1.0  0.95271  0.48078  0.07914  1.0000
  Mg  Mg11      1.0  0.97825  0.60964  0.47722  1.0000
  Mg  Mg12      1.0  0.90230  0.43641  0.99955  1.0000
  C  Sn25      1.0  0.57830  0.48022  0.32235  1.0000
  C   C121      1.0  0.61010  0.50301  0.24267  1.0000
  C  Sn26      1.0  0.61514  0.53554  0.17577  1.0000
  C  Sn27      1.0  0.58782  0.54552  0.18884  1.0000
  C   C122      1.0  0.55603  0.52274  0.26850  1.0000
  C  Sn28      1.0  0.55097  0.49020  0.33543  1.0000
  O  Te25      1.0  0.57384  0.44783  0.38834  1.0000
  O  Te26      1.0  0.64716  0.55787  0.09663  1.0000
  O  Te27      1.0  0.59229  0.57794  0.12277  1.0000
  O  Te28      1.0  0.51898  0.46789  0.41454  1.0000
  Mg  Mg13      1.0  0.64062  0.59926  0.02663  1.0000
  Mg  Mg14      1.0  0.52550  0.42650  0.48465  1.0000
  C  Sn29      1.0  0.54563  0.58682  0.36642  1.0000
  C   C123      1.0  0.52156  0.55707  0.28598  1.0000
  C  Sn30      1.0  0.50506  0.56247  0.16350  1.0000
  C  Sn31      1.0  0.51279  0.59835  0.12045  1.0000
  C   C124      1.0  0.53686  0.62808  0.20085  1.0000
  C  Sn32      1.0  0.55337  0.62270  0.32337  1.0000
  O  Te29      1.0  0.56182  0.58079  0.48848  1.0000
  O  Te30      1.0  0.48107  0.53230  0.08485  1.0000
  O  Te31      1.0  0.49518  0.59319  0.99828  1.0000
  O  Te32      1.0  0.57734  0.65285  0.40198  1.0000
  Mg  Mg15      1.0  0.46443  0.54334  0.92653  1.0000
  Mg  Mg16      1.0  0.59261  0.63066  0.56026  1.0000
  C  Sn33      1.0  0.46721  0.05486  0.13614  1.0000
  C   C125      1.0  0.48861  0.04394  0.21701  1.0000
  C  Sn34      1.0  0.50797  0.06343  0.33562  1.0000
  C  Sn35      1.0  0.50589  0.09445  0.37427  1.0000
  C   C126      1.0  0.48450  0.10535  0.29345  1.0000
  C  Sn36      1.0  0.46513  0.08588  0.17480  1.0000
  O  Te33      1.0  0.44808  0.03497  0.01800  1.0000
  O  Te34      1.0  0.52919  0.05200  0.41479  1.0000
  O  Te35      1.0  0.52504  0.11434  0.49252  1.0000
  O  Te36      1.0  0.44392  0.09729  0.09567  1.0000
  Mg  Mg17      1.0  0.55021  0.08802  0.56674  1.0000
  Mg  Mg18      1.0  0.42147  0.05011  0.94375  1.0000
  C  Sn37      1.0  0.38771  0.95169  0.29770  1.0000
  C   C127      1.0  0.37511  0.92092  0.21499  1.0000
  C  Sn38      1.0  0.39996  0.91302  0.15138  1.0000
  C  Sn39      1.0  0.43819  0.93635  0.17091  1.0000
  C   C128      1.0  0.45077  0.96710  0.25359  1.0000
  C  Sn40      1.0  0.42595  0.97502  0.31723  1.0000
  O  Te37      1.0  0.36238  0.95905  0.36030  1.0000
  O  Te38      1.0  0.38670  0.88211  0.06912  1.0000
  O  Te39      1.0  0.46352  0.92896  0.10822  1.0000
  O  Te40      1.0  0.93709  0.00591  0.39947  1.0000
  Mg  Mg19      1.0  0.43204  0.88361  0.00575  1.0000
  Mg  Mg20      1.0  0.89178  0.00442  0.46295  1.0000
  C  Sn41      1.0  0.90213  0.42411  0.30380  1.0000
  C   C129      1.0  0.89358  0.39253  0.23173  1.0000
  C  Sn42      1.0  0.92146  0.38795  0.17576  1.0000
  C  Sn43      1.0  0.95868  0.41549  0.19225  1.0000
  C   C130      1.0  0.96721  0.44704  0.26430  1.0000
  C  Sn44      1.0  0.93934  0.45166  0.32028  1.0000
  O  Te41      1.0  0.87381  0.42812  0.35888  1.0000
  O  Te42      1.0  0.91223  0.35614  0.10409  1.0000
  O  Te43      1.0  0.98700  0.41146  0.13708  1.0000
  O  Te44      1.0  0.94855  0.48343  0.39194  1.0000
  Mg  Mg21      1.0  0.96057  0.36329  0.04803  1.0000
  Mg  Mg22      1.0  0.90024  0.47631  0.44810  1.0000
  C  Sn45      1.0  0.06439  0.49314  0.11969  1.0000
  C   C131      1.0  0.03271  0.47560  0.20459  1.0000
  C  Sn46      1.0  0.03065  0.45326  0.32329  1.0000
  C  Sn47      1.0  0.06089  0.44836  0.35792  1.0000
  C   C132      1.0  0.09255  0.46589  0.27307  1.0000
  C  Sn48      1.0  0.09463  0.48824  0.15433  1.0000
  O  Te45      1.0  0.06585  0.51535  0.00153  1.0000
  O  Te46      1.0  0.99868  0.43600  0.40652  1.0000
  O  Te47      1.0  0.05941  0.42612  0.47619  1.0000
  O  Te48      1.0  0.12658  0.50550  0.07113  1.0000
  Mg  Mg23      1.0  0.00991  0.40846  0.55678  1.0000
  Mg  Mg24      1.0  0.11398  0.52187  0.92091  1.0000
  C  Sn49      1.0  0.42265  0.51995  0.82747  1.0000
  C   C133      1.0  0.39015  0.49865  0.75322  1.0000
  C  Sn50      1.0  0.38411  0.46689  0.68873  1.0000
  C  Sn51      1.0  0.41111  0.45619  0.69874  1.0000
  C   C134      1.0  0.44359  0.47749  0.77298  1.0000
  C  Sn52      1.0  0.44965  0.50926  0.83748  1.0000
  O  Te49      1.0  0.42811  0.55159  0.89111  1.0000
  O  Te50      1.0  0.35141  0.44604  0.61503  1.0000
  O  Te51      1.0  0.40563  0.42453  0.63501  1.0000
  O  Te52      1.0  0.48233  0.53009  0.91116  1.0000
  Mg  Mg25      1.0  0.35667  0.40521  0.54640  1.0000
  Mg  Mg26      1.0  0.47709  0.57092  0.97989  1.0000
  C  Sn53      1.0  0.43546  0.38586  0.79861  1.0000
  C   C135      1.0  0.45583  0.37463  0.72086  1.0000
  C  Sn54      1.0  0.48957  0.40053  0.66002  1.0000
  C  Sn55      1.0  0.50324  0.43843  0.67733  1.0000
  C   C136      1.0  0.48288  0.44964  0.75506  1.0000
  C  Sn56      1.0  0.44913  0.42377  0.81591  1.0000
  O  Te53      1.0  0.40180  0.35950  0.85850  1.0000
  O  Te54      1.0  0.50944  0.38864  0.58272  1.0000
  O  Te55      1.0  0.53693  0.46480  0.61735  1.0000
  O  Te56      1.0  0.42927  0.43564  0.89320  1.0000
  Mg  Mg27      1.0  0.55386  0.43502  0.52150  1.0000
  Mg  Mg28      1.0  0.38486  0.38928  0.95453  1.0000
  C  Sn57      1.0  0.54519  0.93429  0.68582  1.0000
  C   C137      1.0  0.52173  0.90144  0.76110  1.0000
  C  Sn58      1.0  0.49042  0.89693  0.82935  1.0000
  C  Sn59      1.0  0.48238  0.92584  0.82215  1.0000
  C   C138      1.0  0.50583  0.95866  0.74689  1.0000
  C  Sn60      1.0  0.53715  0.96320  0.67861  1.0000
  O  Te57      1.0  0.57634  0.93820  0.61838  1.0000
  O  Te58      1.0  0.46739  0.86384  0.90401  1.0000
  O  Te59      1.0  0.45121  0.92191  0.88967  1.0000
  O  Te60      1.0  0.05808  0.99626  0.60398  1.0000
  Mg  Mg29      1.0  0.42825  0.87169  0.97818  1.0000
  Mg  Mg30      1.0  0.59931  0.98844  0.52971  1.0000
  C  Sn61      1.0  0.58717  0.08953  0.67466  1.0000
  C   C139      1.0  0.61804  0.09251  0.74517  1.0000
  C  Sn62      1.0  0.61709  0.06155  0.81029  1.0000
  C  Sn63      1.0  0.58460  0.02687  0.80474  1.0000
  C   C140      1.0  0.55375  0.02389  0.73424  1.0000
  C  Sn64      1.0  0.55468  0.05485  0.66911  1.0000
  O  Te61      1.0  0.58874  0.12084  0.61031  1.0000
  O  Te62      1.0  0.64830  0.06522  0.88020  1.0000
  O  Te63      1.0  0.58305  0.99554  0.86918  1.0000
  O  Te64      1.0  0.52350  0.05119  0.59922  1.0000
  Mg  Mg31      1.0  0.63265  0.01452  0.95154  1.0000
  Mg  Mg32      1.0  0.53912  0.10186  0.52778  1.0000
  C  Sn65      1.0  0.06548  0.61224  0.68920  1.0000
  C   C141      1.0  0.09601  0.61877  0.77172  1.0000
  C  Sn66      1.0  0.09793  0.58961  0.84009  1.0000
  C  Sn67      1.0  0.06873  0.55316  0.82562  1.0000
  C   C142      1.0  0.03822  0.54665  0.74313  1.0000
  C  Sn68      1.0  0.03627  0.57579  0.67473  1.0000
  O  Te65      1.0  0.06415  0.64181  0.62179  1.0000
  O  Te66      1.0  0.12874  0.59682  0.92206  1.0000
  O  Te67      1.0  0.07008  0.52359  0.89313  1.0000
  O  Te68      1.0  0.00549  0.56860  0.59279  1.0000
  Mg  Mg33      1.0  0.11782  0.54739  0.99311  1.0000
  Mg  Mg34      1.0  0.01639  0.61801  0.52163  1.0000
  C  Sn69      1.0  0.90676  0.49508  0.67791  1.0000
  C   C143      1.0  0.90267  0.52129  0.74864  1.0000
  C  Sn70      1.0  0.93307  0.55104  0.80808  1.0000
  C  Sn71      1.0  0.96830  0.55470  0.79652  1.0000
  C   C144      1.0  0.97238  0.52851  0.72581  1.0000
  C  Sn72      1.0  0.94199  0.49874  0.66635  1.0000
  O  Te69      1.0  0.87599  0.46556  0.61929  1.0000
  O  Te70      1.0  0.92830  0.57688  0.87832  1.0000
  O  Te71      1.0  0.99908  0.58426  0.85522  1.0000
  O  Te72      1.0  0.94675  0.47291  0.59613  1.0000
  Mg  Mg35      1.0  0.97860  0.61230  0.94054  1.0000
  Mg  Mg36      1.0  0.89647  0.43750  0.53381  1.0000
  C  Sn73      1.0  0.58536  0.53253  0.64106  1.0000
  C   C145      1.0  0.55323  0.51197  0.72172  1.0000
  C  Sn74      1.0  0.55295  0.49145  0.84385  1.0000
  C  Sn75      1.0  0.58549  0.49150  0.88631  1.0000
  C   C146      1.0  0.61760  0.51205  0.80570  1.0000
  C  Sn76      1.0  0.61790  0.53257  0.68352  1.0000
  O  Te73      1.0  0.58501  0.55283  0.51935  1.0000
  O  Te74      1.0  0.52049  0.47111  0.92273  1.0000
  O  Te75      1.0  0.58722  0.48235  0.00813  1.0000
  O  Te76      1.0  0.65034  0.55291  0.60468  1.0000
  Mg  Mg37      1.0  0.53618  0.45904  0.08039  1.0000
  Mg  Mg38      1.0  0.63609  0.57618  0.44705  1.0000
  C  Sn77      1.0  0.54644  0.58743  0.85250  1.0000
  C   C147      1.0  0.52063  0.55686  0.78002  1.0000
  C  Sn78      1.0  0.50195  0.56111  0.66240  1.0000
  C  Sn79      1.0  0.50925  0.59666  0.61618  1.0000
  C   C148      1.0  0.53505  0.62721  0.68863  1.0000
  C  Sn80      1.0  0.55373  0.62298  0.80629  1.0000
  O  Te77      1.0  0.56478  0.58253  0.96982  1.0000
  O  Te78      1.0  0.47626  0.53013  0.59168  1.0000
  O  Te79      1.0  0.49088  0.60154  0.49877  1.0000
  O  Te80      1.0  0.57941  0.65393  0.87696  1.0000
  Mg  Mg39      1.0  0.45836  0.55091  0.43745  1.0000
  Mg  Mg40      1.0  0.59875  0.64437  0.03115  1.0000
  C  Sn81      1.0  0.45506  0.06808  0.69552  1.0000
  C   C149      1.0  0.47863  0.09794  0.77649  1.0000
  C  Sn82      1.0  0.50879  0.09890  0.84545  1.0000
  C  Sn83      1.0  0.51555  0.06941  0.83316  1.0000
  C   C150      1.0  0.49200  0.03958  0.75221  1.0000
  C  Sn84      1.0  0.46183  0.03859  0.68323  1.0000
  O  Te81      1.0  0.42507  0.06770  0.62749  1.0000
  O  Te82      1.0  0.53195  0.12904  0.92584  1.0000
  O  Te83      1.0  0.54557  0.06981  0.90127  1.0000
  O  Te84      1.0  0.43867  0.00848  0.60286  1.0000
  Mg  Mg41      1.0  0.56922  0.11691  0.99852  1.0000
  Mg  Mg42      1.0  0.40141  0.02059  0.53008  1.0000
  C  Sn85      1.0  0.41131  0.90998  0.67873  1.0000
  C   C151      1.0  0.38030  0.90486  0.75148  1.0000
  C  Sn86      1.0  0.38044  0.93430  0.81449  1.0000
  C  Sn87      1.0  0.41224  0.96961  0.80450  1.0000
  C   C152      1.0  0.44323  0.97472  0.73177  1.0000
  C  Sn88      1.0  0.44311  0.94529  0.66874  1.0000
  O  Te85      1.0  0.41056  0.88015  0.61654  1.0000
  O  Te86      1.0  0.34910  0.92851  0.88670  1.0000
  O  Te87      1.0  0.91088  0.99945  0.86677  1.0000
  O  Te88      1.0  0.47442  0.95108  0.59654  1.0000
  Mg  Mg43      1.0  0.36352  0.97776  0.95367  1.0000
  Mg  Mg44      1.0  0.46003  0.90185  0.52948  1.0000
  C  Sn89      1.0  0.94431  0.41542  0.62305  1.0000
  C   C153      1.0  0.95538  0.44491  0.71168  1.0000
  C  Sn90      1.0  0.93588  0.44073  0.83696  1.0000
  C  Sn91      1.0  0.90467  0.40635  0.87451  1.0000
  C   C154      1.0  0.89361  0.37689  0.78593  1.0000
  C  Sn92      1.0  0.91310  0.38104  0.66060  1.0000
  O  Te89      1.0  0.96422  0.42021  0.49832  1.0000
  O  Te90      1.0  0.94747  0.47062  0.92383  1.0000
  O  Te91      1.0  0.88476  0.40158  0.99936  1.0000
  O  Te92      1.0  0.90153  0.35118  0.57378  1.0000
  Mg  Mg45      1.0  0.91275  0.46163  0.08286  1.0000
  Mg  Mg46      1.0  0.93764  0.37130  0.41477  1.0000
  C  Sn93      1.0  0.06245  0.49255  0.61280  1.0000
  C   C155      1.0  0.03072  0.47376  0.69698  1.0000
  C  Sn94      1.0  0.02935  0.45138  0.81444  1.0000
  C  Sn95      1.0  0.06036  0.44773  0.84855  1.0000
  C   C156      1.0  0.09207  0.46652  0.76442  1.0000
  C  Sn96      1.0  0.09346  0.48890  0.64691  1.0000
  O  Te93      1.0  0.06321  0.51477  0.49588  1.0000
  O  Te94      1.0  0.99732  0.43286  0.89697  1.0000
  O  Te95      1.0  0.05958  0.42549  0.96558  1.0000
  O  Te96      1.0  0.12547  0.50742  0.56442  1.0000
  Mg  Mg47      1.0  0.01108  0.41702  0.04559  1.0000
  Mg  Mg48      1.0  0.11314  0.53446  0.41584  1.0000
