data_image0
_chemical_formula_structural       CNCNCH2CNCNCH2CNCNCH2CNCNCH2CNCNCH2CNCNCH2CNCNCH2CNCNCH2CNCNCH2CNCNCH2CNCNCH2CNCNCH2C2Sn2C2HTe2HMgC2Sn2C2HTe2HMgC2Sn2C2HTe2HMgC2Sn2C2HTe2HMgC2Sn2C2HTe2HMgC2Sn2C2HTe2HMgC2Sn2C2HTe2HMgC2Sn2C2HTe2HMgC2Sn2C2HTe2HMgC2Sn2C2HTe2HMgC2Sn2C2HTe2HMgC2Sn2C2HTe2HMgC2Sn2C2HTe2HMgC2Sn2C2HTe2HMgC2Sn2C2HTe2HMgC2Sn2C2HTe2HMgC2Sn2C2HTe2HMgC2Sn2C2HTe2HMgC2Sn2C2HTe2HMgC2Sn2C2HTe2HMgC2Sn2C2HTe2HMgC2Sn2C2HTe2HMgC2Sn2C2HTe2HMgC2Sn2C2HTe2HMgC2Sn2C2HTe2HMgC2Sn2C2HTe2HMgC2Sn2C2HTe2HMgC2Sn2C2HTe2HMgC2Sn2C2HTe2HMgC2Sn2C2HTe2HMgC2Sn2C2HTe2HMgC2Sn2C2HTe2HMgC2Sn2C2HTe2HMgC2Sn2C2HTe2HMgC2Sn2C2HTe2HMgC2Sn2C2HTe2HMgC2Sn2C2HTe2HMgC2Sn2C2HTe2HMgC2Sn2C2HTe2HMgC2Sn2C2HTe2HMgC2Sn2C2HTe2HMgC2Sn2C2HTe2HMgC2Sn2C2HTe2HMgC2Sn2C2HTe2HMgC2Sn2C2HTe2HMgC2Sn2C2HTe2HMgC2Sn2C2HTe2HMgC2Sn2C2HTe2HMg
_chemical_formula_sum              "C228 N24 H120 Sn96 Te96 Mg48"
_cell_length_a       47.0439
_cell_length_b       47.2475
_cell_length_c       9.09981
_cell_angle_alpha    94.7739
_cell_angle_beta     68.6447
_cell_angle_gamma    120.082

_symmetry_space_group_name_H-M    'P1'
_space_group_IT_number       1

loop_
  _space_group_symop_operation_xyz
  'x, y, z'

loop_
  _atom_site_type_symbol
  _atom_site_label
  _atom_site_symmetry_multiplicity
  _atom_site_fract_x
  _atom_site_fract_y
  _atom_site_fract_z
  _atom_site_occupancy
  C   C1        1.0  0.49287  0.49776  0.16567  1.0000
  N   N1        1.0  0.36688  0.49905  0.24984  1.0000
  C   C2        1.0  0.33847  0.47347  0.24414  1.0000
  N   N2        1.0  0.46563  0.36494  0.17485  1.0000
  C   C3        1.0  0.48957  0.36009  0.18552  1.0000
  H   H1        1.0  0.33427  0.44847  0.25273  1.0000
  H   H2        1.0  0.51374  0.38057  0.19787  1.0000
  C   C4        1.0  0.51633  0.00637  0.14118  1.0000
  N   N3        1.0  0.50721  0.88020  0.10281  1.0000
  C   C5        1.0  0.53127  0.87768  0.12727  1.0000
  N   N4        1.0  0.65374  0.11302  0.07961  1.0000
  C   C6        1.0  0.65822  0.14237  0.08577  1.0000
  H   H3        1.0  0.55219  0.89877  0.15820  1.0000
  H   H4        1.0  0.63781  0.14728  0.08387  1.0000
  C   C7        1.0  0.00991  0.51864  0.15642  1.0000
  N   N5        1.0  0.13851  0.63302  0.15289  1.0000
  C   C8        1.0  0.13967  0.66090  0.17728  1.0000
  N   N6        1.0  0.89769  0.54061  0.20398  1.0000
  C   C9        1.0  0.86849  0.51635  0.19736  1.0000
  H   H5        1.0  0.11597  0.66290  0.20502  1.0000
  H   H6        1.0  0.86339  0.49091  0.19833  1.0000
  C   C10       1.0  0.52570  0.52582  0.13976  1.0000
  N   N7        1.0  0.64084  0.51033  0.11328  1.0000
  C   C11       1.0  0.66872  0.53479  0.12873  1.0000
  N   N8        1.0  0.55029  0.65771  0.14304  1.0000
  C   C12       1.0  0.52358  0.66173  0.17195  1.0000
  H   H7        1.0  0.67099  0.55906  0.14727  1.0000
  H   H8        1.0  0.49666  0.64050  0.19835  1.0000
  C   C13       1.0  0.48779  0.01142  0.18724  1.0000
  N   N9        1.0  0.49485  0.13610  0.25394  1.0000
  C   C14       1.0  0.46764  0.13931  0.28233  1.0000
  N   N10       1.0  0.35375  0.89844  0.24558  1.0000
  C   C15       1.0  0.35348  0.87118  0.21356  1.0000
  H   H9        1.0  0.44059  0.11794  0.31600  1.0000
  H   H10       1.0  0.37707  0.86931  0.19128  1.0000
  C   C16       1.0  0.00511  0.48707  0.14590  1.0000
  N   N11       1.0  0.87267  0.36981  0.21990  1.0000
  C   C17       1.0  0.86696  0.34032  0.23806  1.0000
  N   N12       1.0  0.11864  0.46661  0.08323  1.0000
  C   C18       1.0  0.14666  0.49191  0.09336  1.0000
  H   H11       1.0  0.88561  0.33584  0.26368  1.0000
  H   H12       1.0  0.14896  0.51630  0.10390  1.0000
  C   C19       1.0  0.47381  0.47424  0.67391  1.0000
  N   N13       1.0  0.35681  0.48736  0.71552  1.0000
  C   C20       1.0  0.32535  0.46310  0.73658  1.0000
  N   N14       1.0  0.45147  0.34347  0.69458  1.0000
  C   C21       1.0  0.47833  0.34058  0.67702  1.0000
  H   H13       1.0  0.31717  0.43776  0.77449  1.0000
  H   H14       1.0  0.50411  0.36235  0.66502  1.0000
  C   C22       1.0  0.51422  0.99151  0.64666  1.0000
  N   N15       1.0  0.50527  0.86591  0.64332  1.0000
  C   C23       1.0  0.53079  0.86152  0.63323  1.0000
  N   N16       1.0  0.64803  0.10452  0.58780  1.0000
  C   C24       1.0  0.65129  0.13344  0.59519  1.0000
  H   H15       1.0  0.55593  0.88188  0.63743  1.0000
  H   H16       1.0  0.63002  0.13747  0.59760  1.0000
  C   C25       1.0  0.99539  0.51101  0.66643  1.0000
  N   N17       1.0  0.12286  0.62792  0.64350  1.0000
  C   C26       1.0  0.12660  0.65681  0.63266  1.0000
  N   N18       1.0  0.88398  0.53079  0.68476  1.0000
  C   C27       1.0  0.85287  0.50618  0.70333  1.0000
  H   H17       1.0  0.10530  0.66017  0.62938  1.0000
  H   H18       1.0  0.84536  0.48065  0.73378  1.0000
  C   C28       1.0  0.50691  0.50157  0.65041  1.0000
  N   N19       1.0  0.63107  0.50050  0.60158  1.0000
  C   C29       1.0  0.65843  0.52690  0.61063  1.0000
  N   N20       1.0  0.53106  0.63215  0.59664  1.0000
  C   C30       1.0  0.50629  0.63691  0.59675  1.0000
  H   H19       1.0  0.65879  0.55036  0.63073  1.0000
  H   H20       1.0  0.48005  0.61620  0.60648  1.0000
  C   C31       1.0  0.48410  0.99338  0.67600  1.0000
  N   N21       1.0  0.49073  0.11811  0.73611  1.0000
  C   C32       1.0  0.46497  0.12187  0.74141  1.0000
  N   N22       1.0  0.34942  0.88731  0.69348  1.0000
  C   C33       1.0  0.33919  0.85697  0.73002  1.0000
  H   H21       1.0  0.43876  0.10050  0.75581  1.0000
  H   H22       1.0  0.35407  0.85064  0.77707  1.0000
  C   C34       1.0  0.99212  0.48014  0.66845  1.0000
  N   N23       1.0  0.85919  0.36381  0.75220  1.0000
  C   C35       1.0  0.85646  0.33517  0.74849  1.0000
  N   N24       1.0  0.10743  0.46083  0.58342  1.0000
  C   C36       1.0  0.13599  0.48614  0.58955  1.0000
  H   H23       1.0  0.87722  0.33190  0.75901  1.0000
  H   H24       1.0  0.13844  0.51056  0.60127  1.0000
  C   C37       1.0  0.42456  0.51892  0.33865  1.0000
  C   C38       1.0  0.40181  0.50335  0.25620  1.0000
  C  Sn1       1.0  0.40755  0.48306  0.14255  1.0000
  C  Sn2       1.0  0.43661  0.47832  0.11116  1.0000
  C   C39       1.0  0.45919  0.49398  0.19436  1.0000
  C   C40       1.0  0.45322  0.51424  0.30780  1.0000
  H   H25       1.0  0.41993  0.53458  0.42649  1.0000
  O  Te1       1.0  0.38457  0.46771  0.06122  1.0000
  O  Te2       1.0  0.35964  0.43262  0.99823  1.0000
  H   H26       1.0  0.47082  0.52628  0.37170  1.0000
  Mg  Mg1       1.0  0.32092  0.41703  0.91830  1.0000
  C   C41       1.0  0.44331  0.41045  0.27509  1.0000
  C   C42       1.0  0.46468  0.39812  0.18199  1.0000
  C  Sn3       1.0  0.49925  0.41963  0.07843  1.0000
  C  Sn4       1.0  0.51260  0.45410  0.06819  1.0000
  C   C43       1.0  0.49102  0.46619  0.16191  1.0000
  C   C44       1.0  0.45646  0.44445  0.26510  1.0000
  H   H27       1.0  0.41657  0.39364  0.35500  1.0000
  O  Te3       1.0  0.43695  0.38135  0.98623  1.0000
  O  Te4       1.0  0.46376  0.45060  0.96572  1.0000
  H   H28       1.0  0.43992  0.45401  0.33725  1.0000
  Mg  Mg2       1.0  0.48215  0.42131  0.86431  1.0000
  C   C45       1.0  0.26891  0.44402  0.23910  1.0000
  C   C46       1.0  0.30374  0.46842  0.21580  1.0000
  C  Sn5       1.0  0.31562  0.50137  0.17402  1.0000
  C  Sn6       1.0  0.29214  0.50998  0.15535  1.0000
  C   C47       1.0  0.25733  0.48538  0.17904  1.0000
  C   C48       1.0  0.24572  0.45249  0.22078  1.0000
  H   H29       1.0  0.25991  0.41857  0.27148  1.0000
  O  Te5       1.0  0.35051  0.52544  0.15112  1.0000
  O  Te6       1.0  0.30332  0.54272  0.11370  1.0000
  H   H30       1.0  0.21875  0.43360  0.23891  1.0000
  Mg  Mg3       1.0  0.35333  0.56666  0.09537  1.0000
  C   C49       1.0  0.45679  0.29149  0.13779  1.0000
  C   C50       1.0  0.47750  0.32069  0.18959  1.0000
  C  Sn7       1.0  0.50222  0.32278  0.24691  1.0000
  C  Sn8       1.0  0.50623  0.29510  0.25227  1.0000
  C   C51       1.0  0.48541  0.26602  0.20006  1.0000
  C   C52       1.0  0.46074  0.26418  0.14298  1.0000
  H   H31       1.0  0.43772  0.29008  0.09354  1.0000
  O  Te7       1.0  0.52268  0.35213  0.29825  1.0000
  O  Te8       1.0  0.53075  0.29653  0.30895  1.0000
  H   H32       1.0  0.44473  0.24158  0.10278  1.0000
  Mg  Mg4       1.0  0.55250  0.34198  0.36558  1.0000
  C   C53       1.0  0.46177  0.92311  0.99660  1.0000
  C   C54       1.0  0.51851  0.91814  0.08630  1.0000
  C  Sn9       1.0  0.48706  0.91461  0.19978  1.0000
  C  Sn10      1.0  0.48217  0.94218  0.22360  1.0000
  C   C55       1.0  0.50888  0.97259  0.13317  1.0000
  C   C56       1.0  0.54026  0.97585  0.01997  1.0000
  H   H33       1.0  0.48604  0.92564  0.90895  1.0000
  O  Te9       1.0  0.46080  0.88395  0.28842  1.0000
  O  Te10      1.0  0.45099  0.93933  0.33618  1.0000
  H   H34       1.0  0.47751  0.97393  0.95047  1.0000
  Mg  Mg5       1.0  0.42296  0.89243  0.42771  1.0000
  C   C57       1.0  0.59458  0.08614  0.98086  1.0000
  C   C58       1.0  0.70006  0.11466  0.05705  1.0000
  C  Sn11      1.0  0.69084  0.08797  0.15646  1.0000
  C  Sn12      1.0  0.65882  0.05778  0.17974  1.0000
  C   C59       1.0  0.63682  0.05505  0.10288  1.0000
  C   C60       1.0  0.64629  0.08191  0.00371  1.0000
  H   H35       1.0  0.60192  0.10692  0.90405  1.0000
  O  Te11      1.0  0.71330  0.09137  0.23171  1.0000
  O  Te12      1.0  0.64897  0.03072  0.27841  1.0000
  H   H36       1.0  0.54583  0.05405  0.94465  1.0000
  Mg  Mg6       1.0  0.68836  0.04747  0.35483  1.0000
  C   C61       1.0  0.55711  0.82366  0.20211  1.0000
  C   C62       1.0  0.53527  0.79305  0.16411  1.0000
  C  Sn13      1.0  0.51215  0.78995  0.09343  1.0000
  C  Sn14      1.0  0.51095  0.81807  0.06029  1.0000
  C   C63       1.0  0.53293  0.84859  0.09867  1.0000
  C   C64       1.0  0.55595  0.85140  0.16941  1.0000
  H   H37       1.0  0.57494  0.82584  0.25676  1.0000
  O  Te13      1.0  0.49049  0.75919  0.05629  1.0000
  O  Te14      1.0  0.40480  0.79013  0.98967  1.0000
  H   H38       1.0  0.57288  0.87511  0.19872  1.0000
  Mg  Mg7       1.0  0.38047  0.74287  0.96122  1.0000
  C   C65       1.0  0.71162  0.22535  0.12958  1.0000
  C   C66       1.0  0.73863  0.22686  0.16675  1.0000
  C  Sn15      1.0  0.74190  0.19904  0.16594  1.0000
  C  Sn16      1.0  0.71765  0.16919  0.12712  1.0000
  C   C67       1.0  0.69073  0.16794  0.08999  1.0000
  C   C68       1.0  0.68769  0.19593  0.09121  1.0000
  H   H39       1.0  0.70928  0.24701  0.13043  1.0000
  O  Te15      1.0  0.76904  0.20097  0.20343  1.0000
  O  Te16      1.0  0.72032  0.14102  0.12535  1.0000
  H   H40       1.0  0.66678  0.19476  0.06233  1.0000
  Mg  Mg8       1.0  0.76176  0.15594  0.18491  1.0000
  C   C69       1.0  0.07456  0.55035  0.22456  1.0000
  C   C70       1.0  0.04784  0.54760  0.18042  1.0000
  C  Sn17      1.0  0.05194  0.57523  0.10980  1.0000
  C  Sn18      1.0  0.08339  0.60616  0.08300  1.0000
  C   C71       1.0  0.10997  0.60864  0.12749  1.0000
  C   C72       1.0  0.10560  0.58084  0.19811  1.0000
  H   H41       1.0  0.07118  0.52883  0.27913  1.0000
  O  Te17      1.0  0.02498  0.57205  0.06648  1.0000
  O  Te18      1.0  0.08818  0.63417  0.01258  1.0000
  H   H42       1.0  0.12629  0.58297  0.23218  1.0000
  Mg  Mg9       1.0  0.96057  0.59181  0.97434  1.0000
  C   C73       1.0  0.93889  0.51070  0.06493  1.0000
  C   C74       1.0  0.92453  0.52720  0.17342  1.0000
  C  Sn19      1.0  0.94064  0.54502  0.27852  1.0000
  C  Sn20      1.0  0.97170  0.54631  0.27462  1.0000
  C   C75       1.0  0.98586  0.52973  0.16555  1.0000
  C   C76       1.0  0.96952  0.51196  0.06096  1.0000
  H   H43       1.0  0.84296  0.47142  0.98393  1.0000
  O  Te19      1.0  0.92594  0.56136  0.38620  1.0000
  O  Te20      1.0  0.98834  0.56395  0.37828  1.0000
  H   H44       1.0  0.89736  0.47366  0.97690  1.0000
  Mg  Mg10      1.0  0.95825  0.58213  0.50345  1.0000
  C   C77       1.0  0.17311  0.72842  0.22501  1.0000
  C   C78       1.0  0.17075  0.69880  0.17501  1.0000
  C  Sn21      1.0  0.19997  0.69463  0.13365  1.0000
  C  Sn22      1.0  0.23210  0.72063  0.14268  1.0000
  C   C79       1.0  0.23418  0.75016  0.19295  1.0000
  C   C80       1.0  0.20479  0.75408  0.23401  1.0000
  H   H45       1.0  0.15037  0.73145  0.25686  1.0000
  O  Te21      1.0  0.19716  0.66488  0.08388  1.0000
  O  Te22      1.0  0.26170  0.71711  0.10210  1.0000
  H   H46       1.0  0.20662  0.77700  0.27282  1.0000
  Mg  Mg11      1.0  0.24479  0.67192  0.04115  1.0000
  C   C81       1.0  0.82530  0.55779  0.15874  1.0000
  C   C82       1.0  0.79338  0.53298  0.14885  1.0000
  C  Sn23      1.0  0.78366  0.49991  0.16786  1.0000
  C  Sn24      1.0  0.80636  0.49159  0.19734  1.0000
  C   C83       1.0  0.83822  0.51660  0.20713  1.0000
  C   C84       1.0  0.84770  0.54962  0.18787  1.0000
  H   H47       1.0  0.83262  0.58334  0.14393  1.0000
  O  Te23      1.0  0.75169  0.47542  0.15757  1.0000
  O  Te24      1.0  0.79729  0.45874  0.21686  1.0000
  H   H48       1.0  0.87240  0.56882  0.19563  1.0000
  Mg  Mg12      1.0  0.75096  0.43420  0.19247  1.0000
  C   C85       1.0  0.57106  0.49615  0.26235  1.0000
  C   C86       1.0  0.60412  0.50765  0.13933  1.0000
  C  Sn25      1.0  0.61458  0.52949  0.01058  1.0000
  C  Sn26      1.0  0.59146  0.53998  0.00524  1.0000
  C   C87       1.0  0.55846  0.52836  0.12896  1.0000
  C   C88       1.0  0.54825  0.50650  0.25721  1.0000
  H   H49       1.0  0.56317  0.47926  0.36163  1.0000
  O  Te25      1.0  0.56439  0.51518  0.88865  1.0000
  O  Te26      1.0  0.51796  0.53626  0.87799  1.0000
  H   H50       1.0  0.52267  0.49762  0.35248  1.0000
  Mg  Mg13      1.0  0.56577  0.54467  0.74042  1.0000
  C   C89       1.0  0.51490  0.59265  0.06407  1.0000
  C   C90       1.0  0.53686  0.61946  0.12400  1.0000
  C  Sn27      1.0  0.55940  0.61707  0.18198  1.0000
  C  Sn28      1.0  0.55989  0.58725  0.17971  1.0000
  C   C91       1.0  0.53783  0.56058  0.11940  1.0000
  C   C92       1.0  0.51538  0.56324  0.06174  1.0000
  H   H51       1.0  0.49754  0.59471  0.01937  1.0000
  O  Te27      1.0  0.58116  0.64408  0.24149  1.0000
  O  Te28      1.0  0.58217  0.58419  0.23686  1.0000
  H   H52       1.0  0.49840  0.54249  0.01524  1.0000
  Mg  Mg14      1.0  0.60691  0.62787  0.30611  1.0000
  C   C93       1.0  0.74721  0.56043  0.19612  1.0000
  C   C94       1.0  0.75358  0.53421  0.16940  1.0000
  C  Sn29      1.0  0.73239  0.50642  0.11141  1.0000
  C  Sn30      1.0  0.70432  0.50493  0.07966  1.0000
  C   C95       1.0  0.69818  0.53129  0.10668  1.0000
  C   C96       1.0  0.71953  0.55898  0.16478  1.0000
  H   H53       1.0  0.76374  0.58186  0.24099  1.0000
  O  Te29      1.0  0.73912  0.48044  0.08544  1.0000
  O  Te30      1.0  0.68275  0.47745  0.02159  1.0000
  H   H54       1.0  0.71460  0.57929  0.18536  1.0000
  Mg  Mg15      1.0  0.70241  0.44829  0.00536  1.0000
  C   C97       1.0  0.56288  0.73286  0.15211  1.0000
  C   C98       1.0  0.53399  0.70094  0.17626  1.0000
  C  Sn31      1.0  0.50169  0.69599  0.18237  1.0000
  C  Sn32      1.0  0.49832  0.72357  0.16388  1.0000
  C   C99       1.0  0.52739  0.75540  0.13966  1.0000
  C   C100      1.0  0.55959  0.76007  0.13380  1.0000
  H   H55       1.0  0.58780  0.73647  0.14749  1.0000
  O  Te31      1.0  0.47309  0.66393  0.20665  1.0000
  O  Te32      1.0  0.46635  0.71933  0.16942  1.0000
  H   H56       1.0  0.58196  0.78479  0.11499  1.0000
  Mg  Mg16      1.0  0.43498  0.67082  0.20517  1.0000
  C   C101      1.0  0.46031  0.05325  0.18746  1.0000
  C   C102      1.0  0.48333  0.04458  0.20550  1.0000
  C  Sn33      1.0  0.51066  0.06686  0.25514  1.0000
  C  Sn34      1.0  0.51495  0.09838  0.28727  1.0000
  C   C103      1.0  0.49177  0.10681  0.26897  1.0000
  C   C104      1.0  0.46452  0.08433  0.21919  1.0000
  H   H57       1.0  0.43922  0.03586  0.14903  1.0000
  O  Te33      1.0  0.53343  0.05780  0.27249  1.0000
  O  Te34      1.0  0.54203  0.12111  0.33710  1.0000
  H   H58       1.0  0.44669  0.09104  0.20534  1.0000
  Mg  Mg17      1.0  0.56632  0.09730  0.34328  1.0000
  C   C105      1.0  0.44291  0.95796  0.05726  1.0000
  C   C106      1.0  0.45046  0.98102  0.16451  1.0000
  C  Sn35      1.0  0.42466  0.97582  0.31480  1.0000
  C  Sn36      1.0  0.39069  0.94698  0.35820  1.0000
  C   C107      1.0  0.38341  0.92405  0.25009  1.0000
  C   C108      1.0  0.40942  0.92950  0.09999  1.0000
  H   H59       1.0  0.37974  0.93662  0.94116  1.0000
  O  Te35      1.0  0.92924  0.99911  0.42048  1.0000
  O  Te36      1.0  0.36442  0.94116  0.50766  1.0000
  H   H60       1.0  0.40357  0.91163  0.01702  1.0000
  Mg  Mg18      1.0  0.38804  0.98016  0.61036  1.0000
  C   C109      1.0  0.51017  0.20978  0.21505  1.0000
  C   C110      1.0  0.47964  0.17864  0.26597  1.0000
  C  Sn37      1.0  0.44662  0.17474  0.29267  1.0000
  C  Sn38      1.0  0.44420  0.20258  0.26779  1.0000
  C   C111      1.0  0.47491  0.23363  0.21673  1.0000
  C   C112      1.0  0.50781  0.23725  0.19042  1.0000
  H   H61       1.0  0.53564  0.21258  0.19461  1.0000
  O  Te37      1.0  0.41638  0.14345  0.34358  1.0000
  O  Te38      1.0  0.41154  0.19938  0.29352  1.0000
  H   H62       1.0  0.53145  0.26137  0.15090  1.0000
  Mg  Mg19      1.0  0.37789  0.15164  0.36253  1.0000
  C   C113      1.0  0.26964  0.82183  0.17933  1.0000
  C   C114      1.0  0.26362  0.78970  0.17844  1.0000
  C  Sn39      1.0  0.28729  0.78274  0.20236  1.0000
  C  Sn40      1.0  0.31754  0.80847  0.22765  1.0000
  C   C115      1.0  0.32332  0.84052  0.22844  1.0000
  C   C116      1.0  0.29946  0.84722  0.20433  1.0000
  H   H63       1.0  0.25118  0.82700  0.16077  1.0000
  O  Te39      1.0  0.28088  0.75050  0.20105  1.0000
  O  Te40      1.0  0.34162  0.80219  0.25193  1.0000
  H   H64       1.0  0.30412  0.87209  0.20513  1.0000
  Mg  Mg20      1.0  0.32139  0.75427  0.23961  1.0000
  C   C117      1.0  0.94755  0.40486  0.09434  1.0000
  C   C118      1.0  0.91297  0.39638  0.19254  1.0000
  C  Sn41      1.0  0.90644  0.41928  0.28369  1.0000
  C  Sn42      1.0  0.93510  0.45126  0.27609  1.0000
  C   C119      1.0  0.96960  0.45951  0.17739  1.0000
  C   C120      1.0  0.97584  0.43640  0.08673  1.0000
  H   H65       1.0  0.95239  0.38699  0.02412  1.0000
  O  Te41      1.0  0.87172  0.41039  0.38122  1.0000
  O  Te42      1.0  0.92932  0.47463  0.36588  1.0000
  H   H66       1.0  0.00262  0.44299  0.01063  1.0000
  Mg  Mg21      1.0  0.87730  0.45081  0.48099  1.0000
  C   C121      1.0  0.04772  0.44809  0.21579  1.0000
  C   C122      1.0  0.08221  0.46316  0.10195  1.0000
  C  Sn43      1.0  0.01051  0.46325  0.98931  1.0000
  C  Sn44      1.0  0.98710  0.47395  0.99100  1.0000
  C   C123      1.0  0.03595  0.48427  0.10545  1.0000
  C   C124      1.0  0.02461  0.45863  0.21758  1.0000
  H   H67       1.0  0.03895  0.42826  0.30261  1.0000
  O  Te43      1.0  0.04505  0.47803  0.87637  1.0000
  O  Te44      1.0  0.99801  0.49953  0.87984  1.0000
  H   H68       1.0  0.99792  0.44698  0.30577  1.0000
  Mg  Mg22      1.0  0.04759  0.51192  0.74957  1.0000
  C   C125      1.0  0.82059  0.27040  0.28071  1.0000
  C   C126      1.0  0.83592  0.30353  0.22626  1.0000
  C  Sn45      1.0  0.81964  0.31315  0.15616  1.0000
  C  Sn46      1.0  0.78742  0.28910  0.14048  1.0000
  C   C127      1.0  0.77229  0.25602  0.19543  1.0000
  C   C128      1.0  0.78880  0.24667  0.26534  1.0000
  H   H69       1.0  0.83335  0.26317  0.33488  1.0000
  O  Te45      1.0  0.83533  0.34635  0.10236  1.0000
  O  Te46      1.0  0.77059  0.29803  0.07094  1.0000
  H   H70       1.0  0.77691  0.22102  0.30758  1.0000
  Mg  Mg23      1.0  0.80230  0.34635  0.01588  1.0000
  C   C129      1.0  0.20854  0.51929  0.16672  1.0000
  C   C130      1.0  0.18346  0.49769  0.10355  1.0000
  C  Sn47      1.0  0.18071  0.46741  0.06476  1.0000
  C  Sn48      1.0  0.20352  0.45866  0.08984  1.0000
  C   C131      1.0  0.22850  0.48043  0.15320  1.0000
  C   C132      1.0  0.23103  0.51067  0.19156  1.0000
  H   H71       1.0  0.21048  0.54268  0.19648  1.0000
  O  Te47      1.0  0.15552  0.44612  0.00170  1.0000
  O  Te48      1.0  0.20133  0.42854  0.05218  1.0000
  H   H72       1.0  0.25043  0.52739  0.24056  1.0000
  Mg  Mg24      1.0  0.07944  0.38231  0.96914  1.0000
  C   C133      1.0  0.41461  0.50638  0.80133  1.0000
  C   C134      1.0  0.38964  0.48850  0.73171  1.0000
  C  Sn49      1.0  0.38959  0.46199  0.65115  1.0000
  C  Sn50      1.0  0.41502  0.45327  0.64032  1.0000
  C   C135      1.0  0.43988  0.47130  0.71047  1.0000
  C   C136      1.0  0.43970  0.49779  0.79076  1.0000
  H   H73       1.0  0.41447  0.52687  0.86353  1.0000
  O  Te49      1.0  0.36446  0.44439  0.58223  1.0000
  O  Te50      1.0  0.41556  0.42687  0.56055  1.0000
  H   H74       1.0  0.45902  0.51162  0.84474  1.0000
  Mg  Mg25      1.0  0.37591  0.41041  0.48609  1.0000
  C   C137      1.0  0.48964  0.42417  0.52419  1.0000
  C   C138      1.0  0.47090  0.43736  0.63242  1.0000
  C  Sn51      1.0  0.44453  0.41889  0.77719  1.0000
  C  Sn52      1.0  0.43686  0.38661  0.81398  1.0000
  C   C139      1.0  0.45578  0.37364  0.70495  1.0000
  C   C140      1.0  0.48210  0.39234  0.56040  1.0000
  H   H75       1.0  0.51002  0.43864  0.41239  1.0000
  O  Te51      1.0  0.42605  0.43244  0.88394  1.0000
  O  Te52      1.0  0.41065  0.36761  0.95783  1.0000
  H   H76       1.0  0.49663  0.38212  0.47667  1.0000
  Mg  Mg26      1.0  0.47601  0.42244  0.06458  1.0000
  C   C141      1.0  0.25442  0.43731  0.75910  1.0000
  C   C142      1.0  0.29073  0.45963  0.71339  1.0000
  C  Sn53      1.0  0.30538  0.49150  0.64297  1.0000
  C  Sn54      1.0  0.28321  0.50114  0.61805  1.0000
  C   C143      1.0  0.24691  0.47864  0.66431  1.0000
  C   C144      1.0  0.23252  0.44680  0.73463  1.0000
  H   H77       1.0  0.24328  0.41268  0.81359  1.0000
  O  Te53      1.0  0.34172  0.51349  0.59795  1.0000
  O  Te54      1.0  0.29716  0.53285  0.54798  1.0000
  H   H78       1.0  0.20440  0.42953  0.77011  1.0000
  Mg  Mg27      1.0  0.34827  0.55396  0.50693  1.0000
  C   C145      1.0  0.44427  0.25472  0.65111  1.0000
  C   C146      1.0  0.46861  0.24820  0.67094  1.0000
  C  Sn55      1.0  0.49731  0.27303  0.70501  1.0000
  C  Sn56      1.0  0.50165  0.30496  0.71946  1.0000
  C   C147      1.0  0.47713  0.31124  0.69952  1.0000
  C   C148      1.0  0.44852  0.28621  0.66541  1.0000
  H   H79       1.0  0.42211  0.23536  0.62481  1.0000
  O  Te55      1.0  0.52140  0.26609  0.72440  1.0000
  O  Te56      1.0  0.53009  0.33023  0.75350  1.0000
  H   H80       1.0  0.42966  0.29126  0.65017  1.0000
  Mg  Mg28      1.0  0.55586  0.30868  0.76955  1.0000
  C   C149      1.0  0.48231  0.92447  0.78946  1.0000
  C   C150      1.0  0.50804  0.95384  0.68852  1.0000
  C  Sn57      1.0  0.53534  0.95461  0.55492  1.0000
  C  Sn58      1.0  0.53684  0.92540  0.52205  1.0000
  C   C151      1.0  0.51096  0.89614  0.62371  1.0000
  C   C152      1.0  0.48377  0.89564  0.75709  1.0000
  H   H81       1.0  0.46126  0.92408  0.89262  1.0000
  O  Te57      1.0  0.56083  0.98417  0.45535  1.0000
  O  Te58      1.0  0.56383  0.92548  0.38931  1.0000
  H   H82       1.0  0.46384  0.87289  0.83516  1.0000
  Mg  Mg29      1.0  0.59243  0.97181  0.28914  1.0000
  C   C153      1.0  0.58604  0.07529  0.50951  1.0000
  C   C154      1.0  0.61078  0.07893  0.57088  1.0000
  C  Sn59      1.0  0.60566  0.05178  0.65098  1.0000
  C  Sn60      1.0  0.57518  0.02044  0.66975  1.0000
  C   C155      1.0  0.55060  0.01705  0.60782  1.0000
  C   C156      1.0  0.55598  0.04438  0.52792  1.0000
  H   H83       1.0  0.59021  0.09643  0.44762  1.0000
  O  Te59      1.0  0.63064  0.05586  0.71161  1.0000
  O  Te60      1.0  0.56942  0.99290  0.74924  1.0000
  H   H84       1.0  0.53683  0.04155  0.48032  1.0000
  Mg  Mg30      1.0  0.61104  0.01092  0.81080  1.0000
  C   C157      1.0  0.49473  0.79389  0.57793  1.0000
  C   C158      1.0  0.51805  0.82193  0.62652  1.0000
  C  Sn61      1.0  0.54526  0.82242  0.65756  1.0000
  C  Sn62      1.0  0.54914  0.79428  0.63947  1.0000
  C   C159      1.0  0.52568  0.76635  0.59069  1.0000
  C   C160      1.0  0.49854  0.76613  0.55999  1.0000
  H   H85       1.0  0.47374  0.79372  0.55409  1.0000
  O  Te61      1.0  0.56831  0.85063  0.70607  1.0000
  O  Te62      1.0  0.57611  0.79410  0.66964  1.0000
  H   H86       1.0  0.48050  0.74443  0.52227  1.0000
  Mg  Mg31      1.0  0.60089  0.83844  0.73301  1.0000
  C   C161      1.0  0.71955  0.16482  0.62308  1.0000
  C   C162      1.0  0.68786  0.16064  0.62450  1.0000
  C  Sn63      1.0  0.68241  0.18738  0.63836  1.0000
  C  Sn64      1.0  0.70925  0.21886  0.65095  1.0000
  C   C163      1.0  0.74086  0.22278  0.64929  1.0000
  C   C164      1.0  0.74603  0.19586  0.63543  1.0000
  H   H87       1.0  0.72356  0.14399  0.61226  1.0000
  O  Te63      1.0  0.65059  0.18277  0.63965  1.0000
  O  Te64      1.0  0.70450  0.24600  0.66487  1.0000
  H   H88       1.0  0.77058  0.19910  0.63422  1.0000
  Mg  Mg32      1.0  0.65658  0.22731  0.66102  1.0000
  C   C165      1.0  0.07268  0.56239  0.75565  1.0000
  C   C166      1.0  0.09090  0.59201  0.65645  1.0000
  C  Sn65      1.0  0.07594  0.59704  0.56104  1.0000
  C  Sn66      1.0  0.04211  0.57189  0.56532  1.0000
  C   C167      1.0  0.02409  0.54235  0.66506  1.0000
  C   C168      1.0  0.03931  0.53758  0.76000  1.0000
  H   H89       1.0  0.08445  0.55870  0.82918  1.0000
  O  Te65      1.0  0.09451  0.62678  0.46256  1.0000
  O  Te66      1.0  0.02654  0.57627  0.47124  1.0000
  H   H90       1.0  0.02518  0.51465  0.83687  1.0000
  Mg  Mg33      1.0  0.06225  0.62108  0.35646  1.0000
  C   C169      1.0  0.93369  0.49187  0.59260  1.0000
  C   C170      1.0  0.96177  0.51155  0.64258  1.0000
  C  Sn67      1.0  0.96315  0.53850  0.72259  1.0000
  C  Sn68      1.0  0.93586  0.54580  0.75299  1.0000
  C   C171      1.0  0.90786  0.52594  0.70260  1.0000
  C   C172      1.0  0.90675  0.49904  0.62259  1.0000
  H   H91       1.0  0.93282  0.47105  0.53077  1.0000
  O  Te67      1.0  0.99141  0.55792  0.77165  1.0000
  O  Te68      1.0  0.93657  0.57257  0.83276  1.0000
  H   H92       1.0  0.88499  0.48379  0.58399  1.0000
  Mg  Mg34      1.0  0.98060  0.59173  0.87605  1.0000
  C   C173      1.0  0.21114  0.70452  0.65581  1.0000
  C   C174      1.0  0.21919  0.73721  0.64407  1.0000
  C  Sn69      1.0  0.19467  0.74454  0.63296  1.0000
  C  Sn70      1.0  0.16150  0.71861  0.63370  1.0000
  C   C175      1.0  0.15370  0.68598  0.64562  1.0000
  C   C176      1.0  0.17843  0.67892  0.65662  1.0000
  H   H93       1.0  0.23027  0.69905  0.66441  1.0000
  O  Te69      1.0  0.20314  0.77734  0.62124  1.0000
  O  Te70      1.0  0.13650  0.72524  0.62281  1.0000
  H   H94       1.0  0.17219  0.65360  0.66582  1.0000
  Mg  Mg35      1.0  0.16034  0.77390  0.60902  1.0000
  C   C177      1.0  0.76911  0.48091  0.69564  1.0000
  C   C178      1.0  0.77046  0.50978  0.65844  1.0000
  C  Sn71      1.0  0.80188  0.54012  0.62448  1.0000
  C  Sn72      1.0  0.83247  0.54151  0.62788  1.0000
  C   C179      1.0  0.83084  0.51248  0.66512  1.0000
  C   C180      1.0  0.79927  0.48225  0.69896  1.0000
  H   H95       1.0  0.74468  0.45752  0.72174  1.0000
  O  Te71      1.0  0.80277  0.56873  0.58760  1.0000
  O  Te72      1.0  0.86421  0.57150  0.59436  1.0000
  H   H96       1.0  0.79823  0.45991  0.72766  1.0000
  Mg  Mg36      1.0  0.85221  0.60372  0.55065  1.0000
  C   C181      1.0  0.55812  0.47012  0.70829  1.0000
  C   C182      1.0  0.59333  0.49279  0.61617  1.0000
  C  Sn73      1.0  0.60179  0.52150  0.53523  1.0000
  C  Sn74      1.0  0.57444  0.52756  0.54701  1.0000
  C   C183      1.0  0.53930  0.50474  0.63957  1.0000
  C   C184      1.0  0.53113  0.47609  0.72002  1.0000
  H   H97       1.0  0.55180  0.44796  0.77061  1.0000
  O  Te73      1.0  0.63710  0.54387  0.44367  1.0000
  O  Te74      1.0  0.58215  0.55606  0.46741  1.0000
  H   H98       1.0  0.50387  0.45856  0.79142  1.0000
  Mg  Mg37      1.0  0.63430  0.57914  0.35735  1.0000
  C   C185      1.0  0.53880  0.56954  0.71320  1.0000
  C   C186      1.0  0.51747  0.54112  0.65899  1.0000
  C  Sn75      1.0  0.50127  0.54295  0.56123  1.0000
  C  Sn76      1.0  0.50659  0.57385  0.51709  1.0000
  C   C187      1.0  0.52800  0.60214  0.57186  1.0000
  C   C188      1.0  0.54407  0.60002  0.66967  1.0000
  H   H99       1.0  0.55125  0.56790  0.78881  1.0000
  O  Te75      1.0  0.48003  0.51431  0.50818  1.0000
  O  Te76      1.0  0.49073  0.57638  0.41947  1.0000
  H   H100      1.0  0.56061  0.62203  0.71153  1.0000
  Mg  Mg38      1.0  0.46410  0.53038  0.37746  1.0000
  C   C189      1.0  0.73969  0.55536  0.65730  1.0000
  C   C190      1.0  0.74483  0.52840  0.63778  1.0000
  C  Sn77      1.0  0.72210  0.49982  0.58976  1.0000
  C  Sn78      1.0  0.69372  0.49829  0.56078  1.0000
  C   C191      1.0  0.68882  0.52541  0.58054  1.0000
  C   C192      1.0  0.71172  0.55388  0.62868  1.0000
  H   H101      1.0  0.75742  0.57739  0.69447  1.0000
  O  Te77      1.0  0.72761  0.47311  0.57089  1.0000
  O  Te78      1.0  0.67062  0.47005  0.51262  1.0000
  H   H102      1.0  0.70775  0.57476  0.64368  1.0000
  Mg  Mg39      1.0  0.68901  0.44005  0.50336  1.0000
  C   C193      1.0  0.54947  0.70746  0.56779  1.0000
  C   C194      1.0  0.51907  0.67642  0.59673  1.0000
  C  Sn79      1.0  0.48680  0.67367  0.61787  1.0000
  C  Sn80      1.0  0.48502  0.70257  0.60978  1.0000
  C   C195      1.0  0.51559  0.73351  0.58066  1.0000
  C   C196      1.0  0.54774  0.73598  0.55973  1.0000
  H   H103      1.0  0.57435  0.70938  0.55151  1.0000
  O  Te79      1.0  0.45668  0.64247  0.64675  1.0000
  O  Te80      1.0  0.45311  0.70053  0.63041  1.0000
  H   H104      1.0  0.57128  0.76002  0.53722  1.0000
  Mg  Mg40      1.0  0.41933  0.65244  0.66701  1.0000
  C   C197      1.0  0.50422  0.07172  0.82150  1.0000
  C   C198      1.0  0.49352  0.08608  0.74049  1.0000
  C  Sn81      1.0  0.47553  0.06822  0.64153  1.0000
  C  Sn82      1.0  0.46814  0.03539  0.62362  1.0000
  C   C199      1.0  0.47893  0.02123  0.70527  1.0000
  C   C200      1.0  0.49693  0.03933  0.80395  1.0000
  H   H105      1.0  0.51813  0.08571  0.89792  1.0000
  O  Te81      1.0  0.46504  0.08295  0.56142  1.0000
  O  Te82      1.0  0.45018  0.01698  0.52552  1.0000
  H   H106      1.0  0.50519  0.02820  0.86674  1.0000
  Mg  Mg41      1.0  0.44131  0.04785  0.44125  1.0000
  C   C201      1.0  0.42334  0.91541  0.59119  1.0000
  C   C202      1.0  0.38945  0.90985  0.68254  1.0000
  C  Sn83      1.0  0.38523  0.93356  0.77535  1.0000
  C  Sn84      1.0  0.41555  0.96339  0.77645  1.0000
  C   C203      1.0  0.44934  0.96873  0.68455  1.0000
  C   C204      1.0  0.45326  0.94482  0.59215  1.0000
  H   H107      1.0  0.42638  0.89692  0.51963  1.0000
  O  Te83      1.0  0.35118  0.92760  0.86596  1.0000
  O  Te84      1.0  0.90869  0.98752  0.86808  1.0000
  H   H108      1.0  0.47951  0.94915  0.52135  1.0000
  Mg  Mg42      1.0  0.36013  0.96797  0.97156  1.0000
  C   C205      1.0  0.50702  0.20934  0.68254  1.0000
  C   C206      1.0  0.48071  0.21579  0.68874  1.0000
  C  Sn85      1.0  0.44585  0.18999  0.72543  1.0000
  C  Sn86      1.0  0.43725  0.15713  0.75648  1.0000
  C   C207      1.0  0.46375  0.15093  0.75010  1.0000
  C   C208      1.0  0.49855  0.17694  0.71322  1.0000
  H   H109      1.0  0.53394  0.22946  0.65409  1.0000
  O  Te85      1.0  0.41989  0.19687  0.73106  1.0000
  O  Te86      1.0  0.40262  0.13088  0.79350  1.0000
  H   H110      1.0  0.51891  0.17194  0.70853  1.0000
  Mg  Mg43      1.0  0.37651  0.15276  0.78669  1.0000
  C   C209      1.0  0.28416  0.82945  0.60283  1.0000
  C   C210      1.0  0.30216  0.83153  0.69984  1.0000
  C  Sn87      1.0  0.29337  0.80308  0.78433  1.0000
  C  Sn88      1.0  0.26604  0.77201  0.77118  1.0000
  C   C211      1.0  0.24820  0.77019  0.67372  1.0000
  C   C212      1.0  0.25721  0.79881  0.58975  1.0000
  H   H111      1.0  0.29113  0.85160  0.53778  1.0000
  O  Te87      1.0  0.31161  0.80560  0.88076  1.0000
  O  Te88      1.0  0.25672  0.74318  0.85426  1.0000
  H   H112      1.0  0.24328  0.79719  0.51457  1.0000
  Mg  Mg44      1.0  0.28928  0.75931  0.97047  1.0000
  C   C213      1.0  0.91600  0.43869  0.84889  1.0000
  C   C214      1.0  0.95006  0.44725  0.74261  1.0000
  C  Sn89      1.0  0.95490  0.42725  0.62555  1.0000
  C  Sn90      1.0  0.92504  0.39814  0.61496  1.0000
  C   C215      1.0  0.89108  0.38980  0.72178  1.0000
  C   C216      1.0  0.88653  0.41000  0.83849  1.0000
  H   H113      1.0  0.91248  0.45432  0.93914  1.0000
  O  Te89      1.0  0.98911  0.43616  0.52036  1.0000
  O  Te90      1.0  0.92913  0.37771  0.49907  1.0000
  H   H114      1.0  0.86016  0.40337  0.92070  1.0000
  Mg  Mg45      1.0  0.98108  0.40032  0.38297  1.0000
  C   C217      1.0  0.02034  0.44113  0.71197  1.0000
  C   C218      1.0  0.02073  0.46792  0.65485  1.0000
  C  Sn91      1.0  0.05230  0.49384  0.55033  1.0000
  C  Sn92      1.0  0.08403  0.49284  0.50229  1.0000
  C   C219      1.0  0.08336  0.46591  0.56002  1.0000
  C   C220      1.0  0.05162  0.44011  0.66460  1.0000
  H   H115      1.0  0.99578  0.42115  0.79281  1.0000
  O  Te91      1.0  0.05223  0.52044  0.49445  1.0000
  O  Te92      1.0  0.11595  0.51841  0.39790  1.0000
  H   H116      1.0  0.05132  0.41936  0.70872  1.0000
  Mg  Mg46      1.0  0.10235  0.54934  0.35430  1.0000
  C   C221      1.0  0.81423  0.26525  0.77393  1.0000
  C   C222      1.0  0.82767  0.29828  0.72528  1.0000
  C  Sn93      1.0  0.80978  0.30694  0.66154  1.0000
  C  Sn94      1.0  0.77785  0.28202  0.64641  1.0000
  C   C223      1.0  0.76460  0.24905  0.69554  1.0000
  C   C224      1.0  0.78272  0.24065  0.75911  1.0000
  H   H117      1.0  0.82823  0.25876  0.82321  1.0000
  O  Te93      1.0  0.82359  0.34006  0.61347  1.0000
  O  Te94      1.0  0.75942  0.28998  0.58316  1.0000
  H   H118      1.0  0.77229  0.21508  0.79687  1.0000
  Mg  Mg47      1.0  0.78887  0.33858  0.53444  1.0000
  C   C225      1.0  0.19931  0.51373  0.65106  1.0000
  C   C226      1.0  0.17335  0.49184  0.59301  1.0000
  C  Sn95      1.0  0.16942  0.46094  0.56001  1.0000
  C  Sn96      1.0  0.19193  0.45187  0.58576  1.0000
  C   C227      1.0  0.21781  0.47394  0.64397  1.0000
  C   C228      1.0  0.22151  0.50479  0.67655  1.0000
  H   H119      1.0  0.20216  0.53760  0.67635  1.0000
  O  Te95      1.0  0.14336  0.43937  0.50202  1.0000
  O  Te96      1.0  0.18858  0.42114  0.55383  1.0000
  H   H120      1.0  0.24160  0.52173  0.72159  1.0000
  Mg  Mg48      1.0  0.14910  0.40027  0.47632  1.0000
