data_image0
_chemical_formula_structural       CNCNC2H2C3SC2SH2CNCNC2H2C3SC2SH2CNCNC2H2C3SC2SH2CNCNC2H2C3SC2SH2CNCNC2H2C3SC2SH2CNCNC2H2C3SC2SH2CNCNC2H2C3SC2SH2CNCNC2H2C3SC2SH2CNCNC2H2C3SC2SH2CNCNC2H2C3SC2SH2CNCNC2H2C3SC2SH2CNCNC2H2C3SC2SH2C2Sn2C2HTe2HMgC2Sn2C2HTe2HMgC2Sn2C2HTe2HMgC2Sn2C2HTe2HMgC2Sn2C2HTe2HMgC2Sn2C2HTe2HMgC2Sn2C2HTe2HMgC2Sn2C2HTe2HMgC2Sn2C2HTe2HMgC2Sn2C2HTe2HMgC2Sn2C2HTe2HMgC2Sn2C2HTe2HMgC2Sn2C2HTe2HMgC2Sn2C2HTe2HMgC2Sn2C2HTe2HMgC2Sn2C2HTe2HMgC2Sn2C2HTe2HMgC2Sn2C2HTe2HMgC2Sn2C2HTe2HMgC2Sn2C2HTe2HMgC2Sn2C2HTe2HMgC2Sn2C2HTe2HMgC2Sn2C2HTe2HMgC2Sn2C2HTe2HMg
_chemical_formula_sum              "C204 N24 H96 S24 Sn48 Te48 Mg24"
_cell_length_a       42.1141
_cell_length_b       42.1755
_cell_length_c       9.35482
_cell_angle_alpha    87.2927
_cell_angle_beta     91.0863
_cell_angle_gamma    120.09

_symmetry_space_group_name_H-M    'P1'
_space_group_IT_number       1

loop_
  _space_group_symop_operation_xyz
  'x, y, z'

loop_
  _atom_site_type_symbol
  _atom_site_label
  _atom_site_symmetry_multiplicity
  _atom_site_fract_x
  _atom_site_fract_y
  _atom_site_fract_z
  _atom_site_occupancy
  C   C1        1.0  0.48358  0.48476  0.25682  1.0000
  N   N1        1.0  0.34990  0.48924  0.27181  1.0000
  C   C2        1.0  0.31756  0.46206  0.24410  1.0000
  N   N2        1.0  0.45822  0.33820  0.24860  1.0000
  C   C3        1.0  0.48573  0.33252  0.25952  1.0000
  C   C4        1.0  0.48119  0.29664  0.24954  1.0000
  H   H1        1.0  0.31230  0.43437  0.22345  1.0000
  H   H2        1.0  0.51377  0.35478  0.28050  1.0000
  C   C5        1.0  0.50754  0.28651  0.27944  1.0000
  C   C6        1.0  0.49321  0.24870  0.26315  1.0000
  C   C7        1.0  0.45610  0.23027  0.21882  1.0000
  S   S1        1.0  0.43890  0.25991  0.19891  1.0000
  C   C8        1.0  0.28605  0.46673  0.24237  1.0000
  C   C9        1.0  0.24953  0.44003  0.22090  1.0000
  S   S2        1.0  0.29162  0.50998  0.27219  1.0000
  H   H3        1.0  0.53524  0.30585  0.31258  1.0000
  H   H4        1.0  0.24094  0.41170  0.20109  1.0000
  C   C10       1.0  0.51632  0.99902  0.25400  1.0000
  N   N3        1.0  0.50540  0.85807  0.24649  1.0000
  C   C11       1.0  0.53303  0.85353  0.22119  1.0000
  N   N4        1.0  0.66369  0.12034  0.23826  1.0000
  C   C12       1.0  0.66959  0.15338  0.24953  1.0000
  C   C13       1.0  0.70571  0.18506  0.23950  1.0000
  H   H5        1.0  0.56125  0.87659  0.20688  1.0000
  H   H6        1.0  0.64712  0.15882  0.26968  1.0000
  C   C14       1.0  0.71528  0.22088  0.26894  1.0000
  C   C15       1.0  0.75321  0.24515  0.25053  1.0000
  C   C16       1.0  0.77249  0.22786  0.20530  1.0000
  S   S3        1.0  0.74334  0.18118  0.18728  1.0000
  C   C17       1.0  0.52850  0.81753  0.21578  1.0000
  C   C18       1.0  0.55601  0.80870  0.20043  1.0000
  S   S4        1.0  0.48471  0.77874  0.23725  1.0000
  H   H7        1.0  0.69545  0.22828  0.30327  1.0000
  H   H8        1.0  0.58478  0.82926  0.18638  1.0000
  C   C19       1.0  0.00271  0.51919  0.24675  1.0000
  N   N5        1.0  0.14297  0.64999  0.24058  1.0000
  C   C20       1.0  0.14764  0.68282  0.23516  1.0000
  N   N6        1.0  0.88042  0.54318  0.23693  1.0000
  C   C21       1.0  0.84727  0.51585  0.22484  1.0000
  C   C22       1.0  0.81608  0.52096  0.21760  1.0000
  H   H9        1.0  0.12473  0.68814  0.24456  1.0000
  H   H10       1.0  0.84120  0.48727  0.22287  1.0000
  C   C23       1.0  0.77935  0.49337  0.21959  1.0000
  C   C24       1.0  0.75578  0.50803  0.21674  1.0000
  C   C25       1.0  0.77469  0.54687  0.21034  1.0000
  S   S5        1.0  0.82186  0.56514  0.20991  1.0000
  C   C26       1.0  0.18359  0.71443  0.22211  1.0000
  C   C27       1.0  0.19282  0.75091  0.23256  1.0000
  S   S6        1.0  0.22172  0.70911  0.19624  1.0000
  H   H11       1.0  0.77082  0.46441  0.22484  1.0000
  H   H12       1.0  0.17256  0.75909  0.24942  1.0000
  C   C28       1.0  0.51782  0.51623  0.25479  1.0000
  N   N7        1.0  0.65050  0.50996  0.25288  1.0000
  C   C29       1.0  0.68282  0.53818  0.22788  1.0000
  N   N8        1.0  0.53980  0.66188  0.23505  1.0000
  C   C30       1.0  0.51190  0.66703  0.23252  1.0000
  C   C31       1.0  0.51637  0.70314  0.22387  1.0000
  H   H13       1.0  0.68784  0.56642  0.21642  1.0000
  H   H14       1.0  0.48341  0.64412  0.23984  1.0000
  C   C32       1.0  0.48871  0.71193  0.23467  1.0000
  C   C33       1.0  0.50304  0.75017  0.22603  1.0000
  C   C34       1.0  0.54162  0.77045  0.20708  1.0000
  S   S7        1.0  0.56009  0.74188  0.20108  1.0000
  C   C35       1.0  0.71440  0.53389  0.21835  1.0000
  C   C36       1.0  0.75111  0.56155  0.20976  1.0000
  S   S8        1.0  0.70869  0.48973  0.22418  1.0000
  H   H15       1.0  0.45999  0.69135  0.24975  1.0000
  H   H16       1.0  0.75966  0.59051  0.20584  1.0000
  C   C37       1.0  0.48540  0.00273  0.25310  1.0000
  N   N9        1.0  0.48980  0.14044  0.26987  1.0000
  C   C38       1.0  0.46297  0.14598  0.23395  1.0000
  N   N10       1.0  0.33966  0.87984  0.23431  1.0000
  C   C39       1.0  0.33437  0.84747  0.21006  1.0000
  C   C40       1.0  0.29820  0.81617  0.20738  1.0000
  H   H17       1.0  0.43560  0.12405  0.20308  1.0000
  H   H18       1.0  0.35707  0.84212  0.19429  1.0000
  C   C41       1.0  0.28895  0.77981  0.19178  1.0000
  C   C42       1.0  0.25070  0.75612  0.20057  1.0000
  C   C43       1.0  0.23100  0.77465  0.22153  1.0000
  S   S9        1.0  0.26001  0.82151  0.23140  1.0000
  C   C44       1.0  0.46775  0.18209  0.23561  1.0000
  C   C45       1.0  0.44170  0.19245  0.20263  1.0000
  S   S10       1.0  0.51015  0.21887  0.28597  1.0000
  H   H19       1.0  0.30927  0.77156  0.17716  1.0000
  H   H20       1.0  0.41396  0.17320  0.16964  1.0000
  C   C46       1.0  0.99920  0.48472  0.24889  1.0000
  N   N11       1.0  0.86051  0.35121  0.25453  1.0000
  C   C47       1.0  0.85596  0.31974  0.21939  1.0000
  N   N12       1.0  0.11992  0.45790  0.25011  1.0000
  C   C48       1.0  0.15333  0.48518  0.25329  1.0000
  C   C49       1.0  0.18457  0.48016  0.24711  1.0000
  H   H21       1.0  0.87869  0.31555  0.18959  1.0000
  H   H22       1.0  0.15953  0.51360  0.26406  1.0000
  C   C50       1.0  0.22115  0.50702  0.26531  1.0000
  C   C51       1.0  0.24472  0.49251  0.25622  1.0000
  C   C52       1.0  0.22599  0.45461  0.22941  1.0000
  S   S11       1.0  0.17899  0.43698  0.21677  1.0000
  C   C53       1.0  0.82005  0.28784  0.22093  1.0000
  C   C54       1.0  0.81050  0.25220  0.18824  1.0000
  S   S12       1.0  0.78230  0.29161  0.27247  1.0000
  H   H23       1.0  0.22954  0.53532  0.28509  1.0000
  H   H24       1.0  0.83037  0.24483  0.15420  1.0000
  C   C55       1.0  0.48151  0.48403  0.75280  1.0000
  N   N13       1.0  0.34952  0.49100  0.77244  1.0000
  C   C56       1.0  0.31698  0.46283  0.75733  1.0000
  N   N14       1.0  0.46152  0.33942  0.74210  1.0000
  C   C57       1.0  0.48959  0.33465  0.73517  1.0000
  C   C58       1.0  0.48525  0.29868  0.73191  1.0000
  H   H25       1.0  0.31195  0.43463  0.75389  1.0000
  H   H26       1.0  0.51805  0.35765  0.73553  1.0000
  C   C59       1.0  0.51303  0.28981  0.74117  1.0000
  C   C60       1.0  0.49865  0.25160  0.74026  1.0000
  C   C61       1.0  0.45995  0.23149  0.72788  1.0000
  S   S13       1.0  0.44136  0.26006  0.72019  1.0000
  C   C62       1.0  0.28535  0.46722  0.74781  1.0000
  C   C63       1.0  0.24860  0.43981  0.74106  1.0000
  S   S14       1.0  0.29132  0.51147  0.74513  1.0000
  H   H27       1.0  0.54186  0.31034  0.74965  1.0000
  H   H28       1.0  0.23985  0.41081  0.74195  1.0000
  C   C64       1.0  0.51409  0.99726  0.75082  1.0000
  N   N15       1.0  0.50715  0.85831  0.74902  1.0000
  C   C65       1.0  0.53537  0.85454  0.72614  1.0000
  N   N16       1.0  0.66145  0.11782  0.73296  1.0000
  C   C66       1.0  0.66723  0.15103  0.73521  1.0000
  C   C67       1.0  0.70356  0.18238  0.73088  1.0000
  H   H29       1.0  0.56346  0.87798  0.71401  1.0000
  H   H30       1.0  0.64460  0.15676  0.74489  1.0000
  C   C68       1.0  0.71300  0.21857  0.75146  1.0000
  C   C69       1.0  0.75130  0.24215  0.74609  1.0000
  C   C70       1.0  0.77096  0.22391  0.71914  1.0000
  S   S15       1.0  0.74171  0.17723  0.70252  1.0000
  C   C71       1.0  0.53097  0.81864  0.71976  1.0000
  C   C72       1.0  0.55829  0.80932  0.71157  1.0000
  S   S16       1.0  0.48657  0.78036  0.72843  1.0000
  H   H31       1.0  0.69279  0.22671  0.77063  1.0000
  H   H32       1.0  0.58737  0.82952  0.70670  1.0000
  C   C73       1.0  0.99968  0.51617  0.74255  1.0000
  N   N17       1.0  0.14008  0.64710  0.76447  1.0000
  C   C74       1.0  0.14456  0.67990  0.75607  1.0000
  N   N18       1.0  0.87629  0.53816  0.74406  1.0000
  C   C75       1.0  0.84308  0.51073  0.73351  1.0000
  C   C76       1.0  0.81189  0.51576  0.73795  1.0000
  H   H33       1.0  0.12132  0.68492  0.75562  1.0000
  H   H34       1.0  0.83704  0.48231  0.72503  1.0000
  C   C77       1.0  0.77502  0.48853  0.73428  1.0000
  C   C78       1.0  0.75181  0.50340  0.74501  1.0000
  C   C79       1.0  0.77111  0.54200  0.75583  1.0000
  S   S17       1.0  0.81820  0.55980  0.75379  1.0000
  C   C80       1.0  0.18056  0.71182  0.74949  1.0000
  C   C81       1.0  0.18943  0.74832  0.75605  1.0000
  S   S18       1.0  0.21923  0.70689  0.73224  1.0000
  H   H35       1.0  0.76612  0.45970  0.72452  1.0000
  H   H36       1.0  0.16890  0.75643  0.76727  1.0000
  C   C82       1.0  0.51589  0.51545  0.75071  1.0000
  N   N19       1.0  0.64663  0.50581  0.78189  1.0000
  C   C83       1.0  0.67951  0.53404  0.77357  1.0000
  N   N20       1.0  0.53874  0.66147  0.72591  1.0000
  C   C84       1.0  0.51114  0.66713  0.72058  1.0000
  C   C85       1.0  0.51647  0.70351  0.71661  1.0000
  H   H37       1.0  0.68487  0.56239  0.77400  1.0000
  H   H38       1.0  0.48240  0.64467  0.72282  1.0000
  C   C86       1.0  0.48921  0.71299  0.72166  1.0000
  C   C87       1.0  0.50435  0.75129  0.72075  1.0000
  C   C88       1.0  0.54318  0.77098  0.71312  1.0000
  S   S19       1.0  0.56087  0.74171  0.70909  1.0000
  C   C89       1.0  0.71099  0.52956  0.76491  1.0000
  C   C90       1.0  0.74785  0.55684  0.76632  1.0000
  S   S20       1.0  0.70473  0.48552  0.74982  1.0000
  H   H39       1.0  0.46016  0.69281  0.72671  1.0000
  H   H40       1.0  0.75675  0.58568  0.77505  1.0000
  C   C91       1.0  0.48324  0.00099  0.75106  1.0000
  N   N21       1.0  0.49561  0.14235  0.76688  1.0000
  C   C92       1.0  0.46833  0.14802  0.74394  1.0000
  N   N22       1.0  0.33683  0.87886  0.74652  1.0000
  C   C93       1.0  0.33115  0.84601  0.73032  1.0000
  C   C94       1.0  0.29495  0.81453  0.73328  1.0000
  H   H41       1.0  0.44000  0.12550  0.72994  1.0000
  H   H42       1.0  0.35375  0.84039  0.71706  1.0000
  C   C95       1.0  0.28602  0.77806  0.72399  1.0000
  C   C96       1.0  0.24782  0.75404  0.73332  1.0000
  C   C97       1.0  0.22767  0.77233  0.74803  1.0000
  S   S21       1.0  0.25634  0.81944  0.75254  1.0000
  C   C98       1.0  0.47316  0.18426  0.73894  1.0000
  C   C99       1.0  0.44555  0.19329  0.72618  1.0000
  S   S22       1.0  0.51708  0.22287  0.75194  1.0000
  H   H43       1.0  0.30651  0.76997  0.71137  1.0000
  H   H44       1.0  0.41670  0.17284  0.71731  1.0000
  C   C100      1.0  0.99662  0.48189  0.74425  1.0000
  N   N23       1.0  0.85887  0.34727  0.76559  1.0000
  C   C101      1.0  0.85460  0.31574  0.73344  1.0000
  N   N24       1.0  0.11967  0.45896  0.74172  1.0000
  C   C102      1.0  0.15302  0.48637  0.73152  1.0000
  C   C103      1.0  0.18410  0.48106  0.72969  1.0000
  H   H45       1.0  0.87755  0.31161  0.70634  1.0000
  H   H46       1.0  0.15943  0.51511  0.72778  1.0000
  C   C104      1.0  0.22093  0.50846  0.73125  1.0000
  C   C105      1.0  0.24429  0.49353  0.73513  1.0000
  C   C106      1.0  0.22519  0.45472  0.73464  1.0000
  S   S23       1.0  0.17806  0.43680  0.72999  1.0000
  C   C107      1.0  0.81863  0.28384  0.73353  1.0000
  C   C108      1.0  0.80927  0.24771  0.71116  1.0000
  S   S24       1.0  0.78040  0.28870  0.76502  1.0000
  H   H47       1.0  0.22971  0.53745  0.73192  1.0000
  H   H48       1.0  0.82941  0.23957  0.69073  1.0000
  C   C109      1.0  0.43877  0.51368  0.36028  1.0000
  C   C110      1.0  0.44751  0.49068  0.28876  1.0000
  C  Sn1       1.0  0.42222  0.46505  0.19614  1.0000
  C  Sn2       1.0  0.38757  0.46249  0.17491  1.0000
  C   C111      1.0  0.37910  0.48564  0.24688  1.0000
  C   C112      1.0  0.40460  0.51117  0.33936  1.0000
  H   H49       1.0  0.45850  0.53345  0.43177  1.0000
  O  Te1       1.0  0.43139  0.44227  0.12557  1.0000
  O  Te2       1.0  0.36179  0.43713  0.08290  1.0000
  H   H50       1.0  0.39784  0.52900  0.39465  1.0000
  Mg  Mg1       1.0  0.38706  0.41210  0.01104  1.0000
  C   C113      1.0  0.44381  0.40825  0.34689  1.0000
  C   C114      1.0  0.47159  0.44035  0.27999  1.0000
  C  Sn3       1.0  0.49615  0.43880  0.18619  1.0000
  C  Sn4       1.0  0.49276  0.40442  0.15903  1.0000
  C   C115      1.0  0.46487  0.37246  0.22641  1.0000
  C   C116      1.0  0.44045  0.37433  0.32012  1.0000
  H   H51       1.0  0.42490  0.40969  0.41934  1.0000
  O  Te3       1.0  0.52374  0.47114  0.12030  1.0000
  O  Te4       1.0  0.51693  0.40208  0.06572  1.0000
  H   H52       1.0  0.41893  0.34946  0.37183  1.0000
  Mg  Mg2       1.0  0.55002  0.45382  0.00174  1.0000
  C   C117      1.0  0.48386  0.90430  0.35654  1.0000
  C   C118      1.0  0.50225  0.89331  0.26607  1.0000
  C  Sn5       1.0  0.52895  0.91872  0.17045  1.0000
  C  Sn6       1.0  0.53733  0.95581  0.16559  1.0000
  C   C119      1.0  0.51879  0.96653  0.25662  1.0000
  C   C120      1.0  0.49212  0.94087  0.35186  1.0000
  H   H53       1.0  0.46324  0.88445  0.43029  1.0000
  O  Te5       1.0  0.54705  0.90728  0.08078  1.0000
  O  Te6       1.0  0.56389  0.98178  0.07109  1.0000
  H   H54       1.0  0.47790  0.94939  0.42195  1.0000
  Mg  Mg3       1.0  0.57968  0.94168  0.97030  1.0000
  C   C121      1.0  0.61172  0.04998  0.33881  1.0000
  C   C122      1.0  0.62657  0.08228  0.25299  1.0000
  C  Sn7       1.0  0.60393  0.08963  0.16321  1.0000
  C  Sn8       1.0  0.56572  0.06412  0.15953  1.0000
  C   C123      1.0  0.55113  0.03190  0.24588  1.0000
  C   C124      1.0  0.57404  0.02481  0.33529  1.0000
  H   H55       1.0  0.62943  0.04450  0.40806  1.0000
  O  Te7       1.0  0.61922  0.12203  0.07813  1.0000
  O  Te8       1.0  0.54247  0.07079  0.07082  1.0000
  H   H56       1.0  0.56252  0.99981  0.40180  1.0000
  Mg  Mg4       1.0  0.57488  0.10762  0.97479  1.0000
  C   C125      1.0  0.09584  0.57951  0.34925  1.0000
  C   C126      1.0  0.10759  0.61148  0.26330  1.0000
  C  Sn9       1.0  0.08302  0.61521  0.17135  1.0000
  C  Sn10      1.0  0.04602  0.58637  0.16561  1.0000
  C   C127      1.0  0.03453  0.55450  0.25211  1.0000
  C   C128      1.0  0.05935  0.55105  0.34370  1.0000
  H   H57       1.0  0.11504  0.57684  0.42017  1.0000
  O  Te9       1.0  0.09522  0.64733  0.08617  1.0000
  O  Te10      1.0  0.02089  0.58938  0.07472  1.0000
  H   H58       1.0  0.05024  0.52631  0.41030  1.0000
  Mg  Mg5       1.0  0.04923  0.62732  0.97945  1.0000
  C   C129      1.0  0.96521  0.55586  0.34008  1.0000
  C   C130      1.0  0.97039  0.53074  0.26630  1.0000
  C  Sn11      1.0  0.94485  0.50909  0.16476  1.0000
  C  Sn12      1.0  0.91356  0.51272  0.13676  1.0000
  C   C131      1.0  0.90864  0.53795  0.21106  1.0000
  C   C132      1.0  0.93437  0.55947  0.31248  1.0000
  H   H59       1.0  0.98513  0.57253  0.41849  1.0000
  O  Te11      1.0  0.95044  0.48411  0.09206  1.0000
  O  Te12      1.0  0.88760  0.49143  0.03578  1.0000
  H   H60       1.0  0.93037  0.57893  0.36952  1.0000
  Mg  Mg6       1.0  0.90593  0.45006  0.96436  1.0000
  C   C133      1.0  0.60909  0.54276  0.14980  1.0000
  C   C134      1.0  0.61974  0.52162  0.23510  1.0000
  C  Sn13      1.0  0.59532  0.49548  0.33518  1.0000
  C  Sn14      1.0  0.55959  0.49046  0.34986  1.0000
  C   C135      1.0  0.54919  0.51173  0.26394  1.0000
  C   C136      1.0  0.57385  0.53782  0.16417  1.0000
  H   H61       1.0  0.62816  0.56294  0.07254  1.0000
  O  Te13      1.0  0.60640  0.47460  0.41958  1.0000
  O  Te14      1.0  0.53463  0.46451  0.44900  1.0000
  H   H62       1.0  0.56559  0.55417  0.09807  1.0000
  Mg  Mg7       1.0  0.56257  0.44271  0.53956  1.0000
  C   C137      1.0  0.49919  0.57023  0.14069  1.0000
  C   C138      1.0  0.51876  0.55643  0.21744  1.0000
  C  Sn15      1.0  0.54668  0.57863  0.31054  1.0000
  C  Sn16      1.0  0.55510  0.61531  0.32690  1.0000
  C   C139      1.0  0.53534  0.62885  0.24971  1.0000
  C   C140      1.0  0.50746  0.60640  0.15681  1.0000
  H   H63       1.0  0.47761  0.55286  0.06886  1.0000
  O  Te15      1.0  0.56598  0.56441  0.38637  1.0000
  O  Te16      1.0  0.58286  0.63809  0.41926  1.0000
  H   H64       1.0  0.49230  0.61709  0.09746  1.0000
  Mg  Mg8       1.0  0.60140  0.60616  0.49923  1.0000
  C   C141      1.0  0.45820  0.06858  0.15990  1.0000
  C   C142      1.0  0.47870  0.09863  0.24467  1.0000
  C  Sn17      1.0  0.50527  0.09911  0.33775  1.0000
  C  Sn18      1.0  0.51136  0.06890  0.34584  1.0000
  C   C143      1.0  0.49072  0.03897  0.26052  1.0000
  C   C144      1.0  0.46421  0.03877  0.16778  1.0000
  H   H65       1.0  0.43770  0.06843  0.08808  1.0000
  O  Te17      1.0  0.52549  0.12935  0.42172  1.0000
  O  Te18      1.0  0.53774  0.06867  0.43792  1.0000
  H   H66       1.0  0.44835  0.01551  0.10209  1.0000
  Mg  Mg9       1.0  0.55834  0.11622  0.53080  1.0000
  C   C145      1.0  0.41320  0.91756  0.12941  1.0000
  C   C146      1.0  0.38230  0.90883  0.21177  1.0000
  C  Sn19      1.0  0.38385  0.93308  0.31208  1.0000
  C  Sn20      1.0  0.41698  0.96667  0.33000  1.0000
  C   C147      1.0  0.44773  0.97515  0.24702  1.0000
  C   C148      1.0  0.44588  0.95068  0.14699  1.0000
  H   H67       1.0  0.41176  0.89864  0.05195  1.0000
  O  Te19      1.0  0.35273  0.92393  0.39351  1.0000
  O  Te20      1.0  0.41928  0.99140  0.42945  1.0000
  H   H68       1.0  0.46980  0.95746  0.08318  1.0000
  Mg  Mg10      1.0  0.36949  0.96660  0.51522  1.0000
  C   C149      1.0  0.92277  0.43953  0.34279  1.0000
  C   C150      1.0  0.95623  0.44897  0.27845  1.0000
  C  Sn21      1.0  0.95875  0.42467  0.18917  1.0000
  C  Sn22      1.0  0.92714  0.39032  0.16401  1.0000
  C   C151      1.0  0.89379  0.38114  0.22879  1.0000
  C   C152      1.0  0.89158  0.40566  0.31798  1.0000
  H   H69       1.0  0.92105  0.45850  0.41173  1.0000
  O  Te21      1.0  0.99239  0.43453  0.12579  1.0000
  O  Te22      1.0  0.92889  0.36553  0.07521  1.0000
  H   H70       1.0  0.86567  0.39835  0.36770  1.0000
  Mg  Mg11      1.0  0.98093  0.39146  0.01327  1.0000
  C   C153      1.0  0.05078  0.44101  0.34847  1.0000
  C   C154      1.0  0.08231  0.45757  0.26265  1.0000
  C  Sn23      1.0  0.08910  0.48689  0.16767  1.0000
  C  Sn24      1.0  0.06381  0.49982  0.15871  1.0000
  C   C155      1.0  0.03236  0.48308  0.24510  1.0000
  C   C156      1.0  0.02583  0.45375  0.33974  1.0000
  H   H71       1.0  0.04573  0.41832  0.42176  1.0000
  O  Te23      1.0  0.12073  0.50312  0.08267  1.0000
  O  Te24      1.0  0.06993  0.52909  0.06474  1.0000
  H   H72       1.0  0.00143  0.44095  0.40624  1.0000
  Mg  Mg12      1.0  0.11556  0.53101  0.97105  1.0000
  C   C157      1.0  0.40657  0.45768  0.66735  1.0000
  C   C158      1.0  0.43973  0.47940  0.73695  1.0000
  C  Sn25      1.0  0.44283  0.50541  0.83183  1.0000
  C  Sn26      1.0  0.41210  0.50967  0.85731  1.0000
  C   C159      1.0  0.37903  0.48779  0.78723  1.0000
  C   C160      1.0  0.37624  0.46186  0.69247  1.0000
  H   H73       1.0  0.40440  0.43760  0.59409  1.0000
  O  Te25      1.0  0.47617  0.52690  0.90043  1.0000
  O  Te26      1.0  0.41443  0.53545  0.95165  1.0000
  H   H74       1.0  0.35055  0.44502  0.63866  1.0000
  Mg  Mg13      1.0  0.46716  0.56946  0.01944  1.0000
  C   C161      1.0  0.44144  0.38810  0.84087  1.0000
  C   C162      1.0  0.45886  0.37540  0.75336  1.0000
  C  Sn27      1.0  0.48703  0.39978  0.66043  1.0000
  C  Sn28      1.0  0.49791  0.43757  0.65529  1.0000
  C   C163      1.0  0.48034  0.45000  0.74334  1.0000
  C   C164      1.0  0.45217  0.42536  0.83590  1.0000
  H   H75       1.0  0.41967  0.36904  0.91255  1.0000
  O  Te27      1.0  0.50412  0.38663  0.57369  1.0000
  O  Te28      1.0  0.52599  0.46254  0.56343  1.0000
  H   H76       1.0  0.43871  0.43521  0.90371  1.0000
  Mg  Mg14      1.0  0.54096  0.43136  0.46613  1.0000
  C   C165      1.0  0.54037  0.95110  0.65101  1.0000
  C   C166      1.0  0.51818  0.96032  0.72753  1.0000
  C  Sn29      1.0  0.49175  0.93469  0.82346  1.0000
  C  Sn30      1.0  0.48754  0.89921  0.84295  1.0000
  C   C167      1.0  0.50990  0.89027  0.76595  1.0000
  C   C168      1.0  0.53624  0.91612  0.67020  1.0000
  H   H77       1.0  0.56077  0.97110  0.57698  1.0000
  O  Te29      1.0  0.46980  0.94435  0.89902  1.0000
  O  Te30      1.0  0.46135  0.87308  0.93818  1.0000
  H   H78       1.0  0.55344  0.90898  0.61104  1.0000
  Mg  Mg15      1.0  0.43937  0.91044  0.01650  1.0000
  C   C169      1.0  0.58811  0.08515  0.63269  1.0000
  C   C170      1.0  0.61861  0.09043  0.71277  1.0000
  C  Sn31      1.0  0.61592  0.06299  0.80996  1.0000
  C  Sn32      1.0  0.58204  0.02967  0.82703  1.0000
  C   C171      1.0  0.55170  0.02464  0.74634  1.0000
  C   C172      1.0  0.55468  0.05228  0.64942  1.0000
  H   H79       1.0  0.59042  0.10652  0.55765  1.0000
  O  Te31      1.0  0.64666  0.06873  0.88915  1.0000
  O  Te32      1.0  0.57860  0.00178  0.92337  1.0000
  H   H80       1.0  0.53107  0.04817  0.58737  1.0000
  Mg  Mg16      1.0  0.62968  0.03374  0.00694  1.0000
  C   C173      1.0  0.06818  0.60872  0.64841  1.0000
  C   C174      1.0  0.09774  0.61722  0.73999  1.0000
  C  Sn33      1.0  0.09649  0.59078  0.83910  1.0000
  C  Sn34      1.0  0.06503  0.55517  0.84638  1.0000
  C   C175      1.0  0.03562  0.54693  0.75422  1.0000
  C   C176      1.0  0.03715  0.57361  0.65548  1.0000
  H   H81       1.0  0.06937  0.62935  0.57195  1.0000
  O  Te33      1.0  0.12625  0.59974  0.92983  1.0000
  O  Te34      1.0  0.06307  0.52822  0.94439  1.0000
  H   H82       1.0  0.01427  0.56701  0.58452  1.0000
  Mg  Mg17      1.0  0.11200  0.56484  0.04537  1.0000
  C   C177      1.0  0.96341  0.55483  0.82639  1.0000
  C   C178      1.0  0.96779  0.52828  0.75978  1.0000
  C  Sn35      1.0  0.94060  0.50395  0.66902  1.0000
  C  Sn36      1.0  0.90848  0.50631  0.64468  1.0000
  C   C179      1.0  0.90438  0.53298  0.71175  1.0000
  C   C180      1.0  0.93175  0.55719  0.80239  1.0000
  H   H83       1.0  0.98460  0.57357  0.89646  1.0000
  O  Te35      1.0  0.94541  0.47758  0.60338  1.0000
  O  Te36      1.0  0.88089  0.48234  0.55445  1.0000
  H   H84       1.0  0.92836  0.57776  0.85388  1.0000
  Mg  Mg18      1.0  0.90007  0.45109  0.48955  1.0000
  C   C181      1.0  0.57575  0.48282  0.87495  1.0000
  C   C182      1.0  0.60782  0.50235  0.79311  1.0000
  C  Sn37      1.0  0.61180  0.53002  0.69430  1.0000
  C  Sn38      1.0  0.58309  0.53822  0.67736  1.0000
  C   C183      1.0  0.55113  0.51854  0.75981  1.0000
  C   C184      1.0  0.54743  0.49090  0.85835  1.0000
  H   H85       1.0  0.57289  0.46145  0.95124  1.0000
  O  Te37      1.0  0.64402  0.54926  0.61337  1.0000
  O  Te38      1.0  0.58636  0.56575  0.57942  1.0000
  H   H86       1.0  0.52260  0.47580  0.92176  1.0000
  Mg  Mg19      1.0  0.63553  0.58431  0.49380  1.0000
  C   C185      1.0  0.49601  0.56891  0.64053  1.0000
  C   C186      1.0  0.51675  0.55558  0.71131  1.0000
  C  Sn39      1.0  0.54648  0.57853  0.79601  1.0000
  C  Sn40      1.0  0.55554  0.61549  0.80994  1.0000
  C   C187      1.0  0.53460  0.62855  0.73877  1.0000
  C   C188      1.0  0.50491  0.60535  0.65425  1.0000
  H   H87       1.0  0.47302  0.55095  0.57520  1.0000
  O  Te39      1.0  0.56693  0.56478  0.86594  1.0000
  O  Te40      1.0  0.58510  0.63901  0.89395  1.0000
  H   H88       1.0  0.48884  0.61567  0.59954  1.0000
  Mg  Mg20      1.0  0.60470  0.60750  0.96820  1.0000
  C   C189      1.0  0.51513  0.09166  0.87012  1.0000
  C   C190      1.0  0.49803  0.10620  0.78155  1.0000
  C  Sn41      1.0  0.47218  0.08448  0.68099  1.0000
  C  Sn42      1.0  0.46333  0.04752  0.66916  1.0000
  C   C191      1.0  0.48057  0.03322  0.75833  1.0000
  C   C192      1.0  0.50640  0.05521  0.85856  1.0000
  H   H89       1.0  0.53510  0.10867  0.94773  1.0000
  O  Te41      1.0  0.45537  0.09944  0.59331  1.0000
  O  Te42      1.0  0.43759  0.02519  0.56961  1.0000
  H   H90       1.0  0.51962  0.04394  0.92718  1.0000
  Mg  Mg21      1.0  0.42208  0.05810  0.47407  1.0000
  C   C193      1.0  0.40702  0.96443  0.83407  1.0000
  C   C194      1.0  0.43874  0.96942  0.76761  1.0000
  C  Sn43      1.0  0.43673  0.94359  0.67422  1.0000
  C  Sn44      1.0  0.40228  0.91221  0.64703  1.0000
  C   C195      1.0  0.37070  0.90749  0.71397  1.0000
  C   C196      1.0  0.37303  0.93350  0.80727  1.0000
  H   H91       1.0  0.40881  0.98457  0.90620  1.0000
  O  Te43      1.0  0.46870  0.94899  0.60877  1.0000
  O  Te44      1.0  0.39949  0.88598  0.55412  1.0000
  H   H92       1.0  0.34846  0.92965  0.85863  1.0000
  Mg  Mg22      1.0  0.45082  0.90552  0.49066  1.0000
  C   C197      1.0  0.94900  0.40917  0.64724  1.0000
  C   C198      1.0  0.95933  0.44047  0.72424  1.0000
  C  Sn45      1.0  0.93567  0.44049  0.82684  1.0000
  C  Sn46      1.0  0.90103  0.40854  0.85262  1.0000
  C   C199      1.0  0.89096  0.37736  0.77509  1.0000
  C   C200      1.0  0.91485  0.37764  0.67264  1.0000
  H   H93       1.0  0.96749  0.40937  0.56803  1.0000
  O  Te45      1.0  0.94642  0.47200  0.90278  1.0000
  O  Te46      1.0  0.87685  0.40781  0.95458  1.0000
  H   H94       1.0  0.90686  0.35339  0.61310  1.0000
  Mg  Mg23      1.0  0.90533  0.46874  0.03066  1.0000
  C   C201      1.0  0.08510  0.49851  0.63533  1.0000
  C   C202      1.0  0.09161  0.47388  0.71794  1.0000
  C  Sn47      1.0  0.06485  0.44846  0.81334  1.0000
  C  Sn48      1.0  0.03097  0.44775  0.82600  1.0000
  C   C203      1.0  0.02472  0.47249  0.74280  1.0000
  C   C204      1.0  0.05169  0.49782  0.64771  1.0000
  H   H95       1.0  0.10596  0.51810  0.56170  1.0000
  O  Te47      1.0  0.07180  0.42406  0.89511  1.0000
  O  Te48      1.0  0.00375  0.42262  0.92046  1.0000
  H   H96       1.0  0.04664  0.51687  0.58369  1.0000
  Mg  Mg24      1.0  0.02756  0.40612  0.00887  1.0000
