data_image0
_chemical_formula_structural       CNCNCH2CNCNCH2CNCNCH2CNCNCH2CNCNCH2CNCNCH2CNCNCH2CNCNCH2CNCNCH2CNCNCH2CNCNCH2CNCNCH2SnCSn2CSnTe4Mg2SnCSn2CSnTe4Mg2SnCSn2CSnTe4Mg2SnCSn2CSnTe4Mg2SnCSn2CSnTe4Mg2SnCSn2CSnTe4Mg2SnCSn2CSnTe4Mg2SnCSn2CSnTe4Mg2SnCSn2CSnTe4Mg2SnCSn2CSnTe4Mg2SnCSn2CSnTe4Mg2SnCSn2CSnTe4Mg2SnCSn2CSnTe4Mg2SnCSn2CSnTe4Mg2SnCSn2CSnTe4Mg2SnCSn2CSnTe4Mg2SnCSn2CSnTe4Mg2SnCSn2CSnTe4Mg2SnCSn2CSnTe4Mg2SnCSn2CSnTe4Mg2SnCSn2CSnTe4Mg2SnCSn2CSnTe4Mg2SnCSn2CSnTe4Mg2SnCSn2CSnTe4Mg2SnCSn2CSnTe4Mg2SnCSn2CSnTe4Mg2SnCSn2CSnTe4Mg2SnCSn2CSnTe4Mg2SnCSn2CSnTe4Mg2SnCSn2CSnTe4Mg2SnCSn2CSnTe4Mg2SnCSn2CSnTe4Mg2SnCSn2CSnTe4Mg2SnCSn2CSnTe4Mg2SnCSn2CSnTe4Mg2SnCSn2CSnTe4Mg2SnCSn2CSnTe4Mg2SnCSn2CSnTe4Mg2SnCSn2CSnTe4Mg2SnCSn2CSnTe4Mg2SnCSn2CSnTe4Mg2SnCSn2CSnTe4Mg2SnCSn2CSnTe4Mg2SnCSn2CSnTe4Mg2SnCSn2CSnTe4Mg2SnCSn2CSnTe4Mg2SnCSn2CSnTe4Mg2SnCSn2CSnTe4Mg2
_chemical_formula_sum              "C132 N24 H24 Sn192 Te192 Mg96"
_cell_length_a       47.0439
_cell_length_b       47.2475
_cell_length_c       9.09981
_cell_angle_alpha    94.7739
_cell_angle_beta     68.6447
_cell_angle_gamma    120.082

_symmetry_space_group_name_H-M    'P1'
_space_group_IT_number       1

loop_
  _space_group_symop_operation_xyz
  'x, y, z'

loop_
  _atom_site_type_symbol
  _atom_site_label
  _atom_site_symmetry_multiplicity
  _atom_site_fract_x
  _atom_site_fract_y
  _atom_site_fract_z
  _atom_site_occupancy
  C   C1        1.0  0.49287  0.49776  0.16567  1.0000
  N   N1        1.0  0.36688  0.49905  0.24984  1.0000
  C   C2        1.0  0.33847  0.47347  0.24414  1.0000
  N   N2        1.0  0.46563  0.36494  0.17485  1.0000
  C   C3        1.0  0.48957  0.36009  0.18552  1.0000
  H   H1        1.0  0.33427  0.44847  0.25273  1.0000
  H   H2        1.0  0.51374  0.38057  0.19787  1.0000
  C   C4        1.0  0.51633  0.00637  0.14118  1.0000
  N   N3        1.0  0.50721  0.88020  0.10281  1.0000
  C   C5        1.0  0.53127  0.87768  0.12727  1.0000
  N   N4        1.0  0.65374  0.11302  0.07961  1.0000
  C   C6        1.0  0.65822  0.14237  0.08577  1.0000
  H   H3        1.0  0.55219  0.89877  0.15820  1.0000
  H   H4        1.0  0.63781  0.14728  0.08387  1.0000
  C   C7        1.0  0.00991  0.51864  0.15642  1.0000
  N   N5        1.0  0.13851  0.63302  0.15289  1.0000
  C   C8        1.0  0.13967  0.66090  0.17728  1.0000
  N   N6        1.0  0.89769  0.54061  0.20398  1.0000
  C   C9        1.0  0.86849  0.51635  0.19736  1.0000
  H   H5        1.0  0.11597  0.66290  0.20502  1.0000
  H   H6        1.0  0.86339  0.49091  0.19833  1.0000
  C   C10       1.0  0.52570  0.52582  0.13976  1.0000
  N   N7        1.0  0.64084  0.51033  0.11328  1.0000
  C   C11       1.0  0.66872  0.53479  0.12873  1.0000
  N   N8        1.0  0.55029  0.65771  0.14304  1.0000
  C   C12       1.0  0.52358  0.66173  0.17195  1.0000
  H   H7        1.0  0.67099  0.55906  0.14727  1.0000
  H   H8        1.0  0.49666  0.64050  0.19835  1.0000
  C   C13       1.0  0.48779  0.01142  0.18724  1.0000
  N   N9        1.0  0.49485  0.13610  0.25394  1.0000
  C   C14       1.0  0.46764  0.13931  0.28233  1.0000
  N   N10       1.0  0.35375  0.89844  0.24558  1.0000
  C   C15       1.0  0.35348  0.87118  0.21356  1.0000
  H   H9        1.0  0.44059  0.11794  0.31600  1.0000
  H   H10       1.0  0.37707  0.86931  0.19128  1.0000
  C   C16       1.0  0.00511  0.48707  0.14590  1.0000
  N   N11       1.0  0.87267  0.36981  0.21990  1.0000
  C   C17       1.0  0.86696  0.34032  0.23806  1.0000
  N   N12       1.0  0.11864  0.46661  0.08323  1.0000
  C   C18       1.0  0.14666  0.49191  0.09336  1.0000
  H   H11       1.0  0.88561  0.33584  0.26368  1.0000
  H   H12       1.0  0.14896  0.51630  0.10390  1.0000
  C   C19       1.0  0.47381  0.47424  0.67391  1.0000
  N   N13       1.0  0.35681  0.48736  0.71552  1.0000
  C   C20       1.0  0.32535  0.46310  0.73658  1.0000
  N   N14       1.0  0.45147  0.34347  0.69458  1.0000
  C   C21       1.0  0.47833  0.34058  0.67702  1.0000
  H   H13       1.0  0.31717  0.43776  0.77449  1.0000
  H   H14       1.0  0.50411  0.36235  0.66502  1.0000
  C   C22       1.0  0.51422  0.99151  0.64666  1.0000
  N   N15       1.0  0.50527  0.86591  0.64332  1.0000
  C   C23       1.0  0.53079  0.86152  0.63323  1.0000
  N   N16       1.0  0.64803  0.10452  0.58780  1.0000
  C   C24       1.0  0.65129  0.13344  0.59519  1.0000
  H   H15       1.0  0.55593  0.88188  0.63743  1.0000
  H   H16       1.0  0.63002  0.13747  0.59760  1.0000
  C   C25       1.0  0.99539  0.51101  0.66643  1.0000
  N   N17       1.0  0.12286  0.62792  0.64350  1.0000
  C   C26       1.0  0.12660  0.65681  0.63266  1.0000
  N   N18       1.0  0.88398  0.53079  0.68476  1.0000
  C   C27       1.0  0.85287  0.50618  0.70333  1.0000
  H   H17       1.0  0.10530  0.66017  0.62938  1.0000
  H   H18       1.0  0.84536  0.48065  0.73378  1.0000
  C   C28       1.0  0.50691  0.50157  0.65041  1.0000
  N   N19       1.0  0.63107  0.50050  0.60158  1.0000
  C   C29       1.0  0.65843  0.52690  0.61063  1.0000
  N   N20       1.0  0.53106  0.63215  0.59664  1.0000
  C   C30       1.0  0.50629  0.63691  0.59675  1.0000
  H   H19       1.0  0.65879  0.55036  0.63073  1.0000
  H   H20       1.0  0.48005  0.61620  0.60648  1.0000
  C   C31       1.0  0.48410  0.99338  0.67600  1.0000
  N   N21       1.0  0.49073  0.11811  0.73611  1.0000
  C   C32       1.0  0.46497  0.12187  0.74141  1.0000
  N   N22       1.0  0.34942  0.88731  0.69348  1.0000
  C   C33       1.0  0.33919  0.85697  0.73002  1.0000
  H   H21       1.0  0.43876  0.10050  0.75581  1.0000
  H   H22       1.0  0.35407  0.85064  0.77707  1.0000
  C   C34       1.0  0.99212  0.48014  0.66845  1.0000
  N   N23       1.0  0.85919  0.36381  0.75220  1.0000
  C   C35       1.0  0.85646  0.33517  0.74849  1.0000
  N   N24       1.0  0.10743  0.46083  0.58342  1.0000
  C   C36       1.0  0.13599  0.48614  0.58955  1.0000
  H   H23       1.0  0.87722  0.33190  0.75901  1.0000
  H   H24       1.0  0.13844  0.51056  0.60127  1.0000
  C  Sn1       1.0  0.43619  0.48402  0.07503  1.0000
  C   C37       1.0  0.45984  0.50163  0.15142  1.0000
  C  Sn2       1.0  0.44972  0.51496  0.29034  1.0000
  C  Sn3       1.0  0.41521  0.51058  0.35432  1.0000
  C   C38       1.0  0.39157  0.49298  0.27797  1.0000
  C  Sn4       1.0  0.40168  0.47964  0.13901  1.0000
  O  Te1       1.0  0.36358  0.44537  0.93628  1.0000
  O  Te2       1.0  0.47384  0.53247  0.36456  1.0000
  O  Te3       1.0  0.40453  0.52371  0.49318  1.0000
  O  Te4       1.0  0.37758  0.46213  0.06482  1.0000
  Mg  Mg1       1.0  0.44686  0.54562  0.55093  1.0000
  Mg  Mg2       1.0  0.32122  0.42342  0.87850  1.0000
  C  Sn5       1.0  0.45296  0.43042  0.30071  1.0000
  C   C39       1.0  0.48397  0.45902  0.21201  1.0000
  C  Sn6       1.0  0.51000  0.45692  0.08233  1.0000
  C  Sn7       1.0  0.50492  0.42560  0.04035  1.0000
  C   C40       1.0  0.47392  0.39703  0.12900  1.0000
  C  Sn8       1.0  0.44788  0.39909  0.25872  1.0000
  O  Te5       1.0  0.42729  0.43310  0.42988  1.0000
  O  Te6       1.0  0.45748  0.46031  0.99549  1.0000
  O  Te7       1.0  0.44732  0.39740  0.91106  1.0000
  O  Te8       1.0  0.41711  0.37019  0.34552  1.0000
  Mg  Mg3       1.0  0.48473  0.44389  0.82947  1.0000
  Mg  Mg4       1.0  0.38983  0.38658  0.51150  1.0000
  C  Sn9       1.0  0.30832  0.51125  0.22030  1.0000
  C   C41       1.0  0.30709  0.48265  0.26057  1.0000
  C  Sn10      1.0  0.28153  0.45180  0.24172  1.0000
  C  Sn11      1.0  0.25668  0.44950  0.18125  1.0000
  C   C42       1.0  0.25792  0.47809  0.14099  1.0000
  C  Sn12      1.0  0.28347  0.50895  0.15984  1.0000
  O  Te9       1.0  0.33411  0.54183  0.24013  1.0000
  O  Te10      1.0  0.28082  0.42355  0.28285  1.0000
  O  Te11      1.0  0.23089  0.41889  0.16145  1.0000
  O  Te12      1.0  0.28419  0.53718  0.11872  1.0000
  Mg  Mg5       1.0  0.24068  0.38752  0.23427  1.0000
  Mg  Mg6       1.0  0.32433  0.57323  0.16717  1.0000
  C  Sn13      1.0  0.46356  0.27753  0.10639  1.0000
  C   C43       1.0  0.48366  0.26931  0.15579  1.0000
  C  Sn14      1.0  0.50386  0.29030  0.24095  1.0000
  C  Sn15      1.0  0.50397  0.32012  0.27759  1.0000
  C   C44       1.0  0.48388  0.32832  0.22823  1.0000
  C  Sn16      1.0  0.46367  0.30735  0.14304  1.0000
  O  Te13      1.0  0.44355  0.25617  0.02140  1.0000
  O  Te14      1.0  0.52375  0.28157  0.28902  1.0000
  O  Te15      1.0  0.52400  0.34148  0.36266  1.0000
  O  Te16      1.0  0.44379  0.31607  0.09501  1.0000
  Mg  Mg7       1.0  0.54672  0.31875  0.40213  1.0000
  Mg  Mg8       1.0  0.33750  0.25335  0.98196  1.0000
  C  Sn17      1.0  0.54696  0.94882  0.04205  1.0000
  C   C45       1.0  0.51858  0.91797  0.12169  1.0000
  C  Sn18      1.0  0.48466  0.91333  0.20055  1.0000
  C  Sn19      1.0  0.47897  0.94008  0.19971  1.0000
  C   C46       1.0  0.50734  0.97092  0.12008  1.0000
  C  Sn20      1.0  0.54127  0.97558  0.04121  1.0000
  O  Te17      1.0  0.49735  0.92735  0.96401  1.0000
  O  Te18      1.0  0.45670  0.88225  0.27939  1.0000
  O  Te19      1.0  0.44525  0.93599  0.27785  1.0000
  O  Te20      1.0  0.98251  0.98109  0.96239  1.0000
  Mg  Mg9       1.0  0.41566  0.88899  0.36844  1.0000
  Mg  Mg10      1.0  0.52696  0.97437  0.87324  1.0000
  C  Sn21      1.0  0.60509  0.04602  0.13000  1.0000
  C   C47       1.0  0.62358  0.07716  0.04334  1.0000
  C  Sn22      1.0  0.52255  0.06296  0.99363  1.0000
  C  Sn23      1.0  0.56885  0.06831  0.03140  1.0000
  C   C48       1.0  0.55038  0.03720  0.11802  1.0000
  C  Sn24      1.0  0.56809  0.02584  0.16776  1.0000
  O  Te21      1.0  0.62336  0.03519  0.17848  1.0000
  O  Te22      1.0  0.54161  0.09417  0.90709  1.0000
  O  Te23      1.0  0.46729  0.05363  0.98283  1.0000
  O  Te24      1.0  0.54906  0.99465  0.25427  1.0000
  Mg  Mg11      1.0  0.50489  0.09799  0.86768  1.0000
  Mg  Mg12      1.0  0.08915  0.99081  0.29381  1.0000
  C  Sn25      1.0  0.51614  0.79847  0.02247  1.0000
  C   C49       1.0  0.53507  0.79122  0.08570  1.0000
  C  Sn26      1.0  0.55056  0.81145  0.18763  1.0000
  C  Sn27      1.0  0.54703  0.83951  0.22728  1.0000
  C   C50       1.0  0.52811  0.84674  0.16410  1.0000
  C  Sn28      1.0  0.51262  0.82652  0.06213  1.0000
  O  Te25      1.0  0.41758  0.75235  0.92082  1.0000
  O  Te26      1.0  0.56937  0.80371  0.24931  1.0000
  O  Te27      1.0  0.56232  0.86008  0.32902  1.0000
  O  Te28      1.0  0.49381  0.83425  0.00048  1.0000
  Mg  Mg13      1.0  0.58535  0.83925  0.38280  1.0000
  Mg  Mg14      1.0  0.39451  0.77318  0.86705  1.0000
  C  Sn29      1.0  0.71720  0.16983  0.18119  1.0000
  C   C51       1.0  0.68893  0.16837  0.15605  1.0000
  C  Sn30      1.0  0.69047  0.19727  0.11789  1.0000
  C  Sn31      1.0  0.72092  0.22827  0.10449  1.0000
  C   C52       1.0  0.74917  0.22972  0.12959  1.0000
  C  Sn32      1.0  0.74765  0.20084  0.16778  1.0000
  O  Te29      1.0  0.71508  0.14062  0.21920  1.0000
  O  Te30      1.0  0.66187  0.19518  0.09335  1.0000
  O  Te31      1.0  0.72301  0.25749  0.06644  1.0000
  O  Te32      1.0  0.77623  0.20291  0.19228  1.0000
  Mg  Mg15      1.0  0.67728  0.24188  0.04399  1.0000
  Mg  Mg16      1.0  0.76085  0.15623  0.24157  1.0000
  C  Sn33      1.0  0.06478  0.58517  0.04415  1.0000
  C   C53       1.0  0.05045  0.55296  0.10939  1.0000
  C  Sn34      1.0  0.06305  0.54681  0.21309  1.0000
  C  Sn35      1.0  0.09051  0.57340  0.25249  1.0000
  C   C54       1.0  0.10482  0.60558  0.18728  1.0000
  C  Sn36      1.0  0.09224  0.61176  0.08354  1.0000
  O  Te33      1.0  0.96848  0.56520  0.94075  1.0000
  O  Te34      1.0  0.04832  0.51440  0.27677  1.0000
  O  Te35      1.0  0.10350  0.56779  0.35597  1.0000
  O  Te36      1.0  0.10695  0.64414  0.01990  1.0000
  Mg  Mg17      1.0  0.07492  0.51935  0.41216  1.0000
  Mg  Mg18      1.0  0.99707  0.61368  0.88458  1.0000
  C  Sn37      1.0  0.96169  0.54156  0.31396  1.0000
  C   C55       1.0  0.97334  0.52215  0.21551  1.0000
  C  Sn38      1.0  0.96320  0.51115  0.08577  1.0000
  C  Sn39      1.0  0.94095  0.51973  0.05371  1.0000
  C   C56       1.0  0.92932  0.53913  0.15211  1.0000
  C  Sn40      1.0  0.93945  0.55014  0.28190  1.0000
  O  Te37      1.0  0.97216  0.55229  0.44299  1.0000
  O  Te38      1.0  0.89188  0.46623  0.98907  1.0000
  O  Te39      1.0  0.84719  0.48344  0.92455  1.0000
  O  Te40      1.0  0.92749  0.56951  0.37855  1.0000
  Mg  Mg19      1.0  0.87040  0.45760  0.82745  1.0000
  Mg  Mg20      1.0  0.94896  0.57817  0.54014  1.0000
  C  Sn41      1.0  0.17714  0.72995  0.17131  1.0000
  C   C57       1.0  0.17449  0.69953  0.13668  1.0000
  C  Sn42      1.0  0.20035  0.69316  0.13818  1.0000
  C  Sn43      1.0  0.22946  0.71768  0.17517  1.0000
  C   C58       1.0  0.23210  0.74807  0.20980  1.0000
  C  Sn44      1.0  0.20626  0.75447  0.20830  1.0000
  O  Te41      1.0  0.15098  0.73578  0.16912  1.0000
  O  Te42      1.0  0.19713  0.66257  0.10311  1.0000
  O  Te43      1.0  0.25563  0.71182  0.17733  1.0000
  O  Te44      1.0  0.20947  0.78503  0.24337  1.0000
  Mg  Mg21      1.0  0.23952  0.66633  0.12146  1.0000
  Mg  Mg22      1.0  0.16708  0.78129  0.22513  1.0000
  C  Sn45      1.0  0.83544  0.55410  0.21005  1.0000
  C   C59       1.0  0.83624  0.52553  0.23011  1.0000
  C  Sn46      1.0  0.81173  0.49538  0.20019  1.0000
  C  Sn47      1.0  0.78589  0.49373  0.14907  1.0000
  C   C60       1.0  0.78510  0.52229  0.12901  1.0000
  C  Sn48      1.0  0.80960  0.55246  0.15893  1.0000
  O  Te45      1.0  0.86021  0.58398  0.24064  1.0000
  O  Te46      1.0  0.81304  0.46715  0.22114  1.0000
  O  Te47      1.0  0.76111  0.46381  0.11848  1.0000
  O  Te48      1.0  0.80830  0.58067  0.13798  1.0000
  Mg  Mg23      1.0  0.77364  0.43220  0.16420  1.0000
  Mg  Mg24      1.0  0.84770  0.61564  0.19481  1.0000
  C  Sn49      1.0  0.61670  0.54699  0.01811  1.0000
  C   C61       1.0  0.61682  0.52726  0.12382  1.0000
  C  Sn50      1.0  0.58496  0.50218  0.23129  1.0000
  C  Sn51      1.0  0.55230  0.49671  0.23307  1.0000
  C   C62       1.0  0.55220  0.51643  0.12739  1.0000
  C  Sn52      1.0  0.58404  0.54151  0.01990  1.0000
  O  Te49      1.0  0.56557  0.54637  0.91170  1.0000
  O  Te50      1.0  0.58575  0.48278  0.33585  1.0000
  O  Te51      1.0  0.52013  0.47176  0.33961  1.0000
  O  Te52      1.0  0.49997  0.53536  0.91536  1.0000
  Mg  Mg25      1.0  0.53495  0.45187  0.45855  1.0000
  Mg  Mg26      1.0  0.55074  0.56627  0.79257  1.0000
  C  Sn53      1.0  0.52051  0.57796  0.02465  1.0000
  C   C63       1.0  0.53708  0.56516  0.07433  1.0000
  C  Sn54      1.0  0.55669  0.58230  0.16847  1.0000
  C  Sn55      1.0  0.55977  0.61286  0.21398  1.0000
  C   C64       1.0  0.54320  0.62564  0.16432  1.0000
  C  Sn56      1.0  0.52359  0.60852  0.07016  1.0000
  O  Te53      1.0  0.41774  0.53486  0.93060  1.0000
  O  Te54      1.0  0.57303  0.56902  0.21663  1.0000
  O  Te55      1.0  0.57926  0.63042  0.30809  1.0000
  O  Te56      1.0  0.50725  0.62179  0.02202  1.0000
  Mg  Mg27      1.0  0.59665  0.60217  0.34391  1.0000
  Mg  Mg28      1.0  0.40032  0.56310  0.89482  1.0000
  C  Sn57      1.0  0.70132  0.49735  0.12571  1.0000
  C   C65       1.0  0.69348  0.52248  0.16782  1.0000
  C  Sn58      1.0  0.71896  0.55325  0.18778  1.0000
  C  Sn59      1.0  0.75301  0.55903  0.16508  1.0000
  C   C66       1.0  0.76084  0.53392  0.12297  1.0000
  C  Sn60      1.0  0.73537  0.50313  0.10301  1.0000
  O  Te57      1.0  0.67544  0.46678  0.10638  1.0000
  O  Te58      1.0  0.71050  0.57798  0.22995  1.0000
  O  Te59      1.0  0.77889  0.58963  0.18445  1.0000
  O  Te60      1.0  0.74382  0.47841  0.06084  1.0000
  Mg  Mg29      1.0  0.75469  0.61550  0.24236  1.0000
  Mg  Mg30      1.0  0.69966  0.44089  0.04832  1.0000
  C  Sn61      1.0  0.49829  0.70094  0.12385  1.0000
  C   C67       1.0  0.52448  0.69518  0.12674  1.0000
  C  Sn62      1.0  0.55363  0.71995  0.15797  1.0000
  C  Sn63      1.0  0.55668  0.75113  0.18702  1.0000
  C   C68       1.0  0.53050  0.75688  0.18416  1.0000
  C  Sn64      1.0  0.50134  0.73212  0.15291  1.0000
  O  Te61      1.0  0.46937  0.67582  0.09239  1.0000
  O  Te62      1.0  0.57948  0.71361  0.16018  1.0000
  O  Te63      1.0  0.58563  0.77626  0.21850  1.0000
  O  Te64      1.0  0.47550  0.73845  0.15072  1.0000
  Mg  Mg31      1.0  0.61392  0.75570  0.20871  1.0000
  Mg  Mg32      1.0  0.44104  0.69637  0.10229  1.0000
  C  Sn65      1.0  0.50964  0.07414  0.32060  1.0000
  C   C69       1.0  0.48710  0.04578  0.27050  1.0000
  C  Sn66      1.0  0.46760  0.04734  0.18996  1.0000
  C  Sn67      1.0  0.47069  0.07789  0.15875  1.0000
  C   C70       1.0  0.49322  0.10622  0.20881  1.0000
  C  Sn68      1.0  0.51274  0.10468  0.28938  1.0000
  O  Te65      1.0  0.52889  0.07200  0.40091  1.0000
  O  Te66      1.0  0.44523  0.01866  0.14110  1.0000
  O  Te67      1.0  0.45142  0.08000  0.07837  1.0000
  O  Te68      1.0  0.53510  0.13334  0.33821  1.0000
  Mg  Mg33      1.0  0.42450  0.03414  0.03566  1.0000
  Mg  Mg34      1.0  0.55585  0.11789  0.44358  1.0000
  C  Sn69      1.0  0.42673  0.93741  0.08970  1.0000
  C   C71       1.0  0.39465  0.92397  0.22042  1.0000
  C  Sn70      1.0  0.38933  0.94262  0.34382  1.0000
  C  Sn71      1.0  0.41664  0.97538  0.33640  1.0000
  C   C72       1.0  0.44869  0.98880  0.20574  1.0000
  C  Sn72      1.0  0.45403  0.97017  0.08228  1.0000
  O  Te69      1.0  0.34817  0.89278  0.96768  1.0000
  O  Te70      1.0  0.35704  0.92865  0.47331  1.0000
  O  Te71      1.0  0.90847  0.99447  0.45857  1.0000
  O  Te72      1.0  0.40300  0.95858  0.95285  1.0000
  Mg  Mg35      1.0  0.36326  0.96451  0.60997  1.0000
  Mg  Mg36      1.0  0.39681  0.92276  0.81608  1.0000
  C  Sn73      1.0  0.43934  0.19725  0.31966  1.0000
  C   C73       1.0  0.47006  0.22832  0.27587  1.0000
  C  Sn74      1.0  0.50340  0.23121  0.21105  1.0000
  C  Sn75      1.0  0.50610  0.20245  0.18945  1.0000
  C   C74       1.0  0.47540  0.17141  0.23321  1.0000
  C  Sn76      1.0  0.44204  0.16849  0.29807  1.0000
  O  Te73      1.0  0.40629  0.19495  0.38423  1.0000
  O  Te74      1.0  0.53372  0.26254  0.16822  1.0000
  O  Te75      1.0  0.53919  0.20478  0.12483  1.0000
  O  Te76      1.0  0.41173  0.13719  0.34086  1.0000
  Mg  Mg37      1.0  0.57276  0.25292  0.08493  1.0000
  Mg  Mg38      1.0  0.37268  0.14678  0.42408  1.0000
  C  Sn77      1.0  0.28217  0.83604  0.22720  1.0000
  C   C75       1.0  0.31148  0.83976  0.25143  1.0000
  C  Sn78      1.0  0.31865  0.81406  0.23227  1.0000
  C  Sn79      1.0  0.29607  0.78402  0.18786  1.0000
  C   C76       1.0  0.26678  0.78032  0.16363  1.0000
  C  Sn80      1.0  0.25959  0.80601  0.18280  1.0000
  O  Te77      1.0  0.27550  0.86206  0.24703  1.0000
  O  Te78      1.0  0.34810  0.81835  0.25720  1.0000
  O  Te79      1.0  0.30276  0.75800  0.16805  1.0000
  O  Te80      1.0  0.23016  0.80173  0.15786  1.0000
  Mg  Mg39      1.0  0.34612  0.77572  0.21548  1.0000
  Mg  Mg40      1.0  0.23212  0.84434  0.19947  1.0000
  C  Sn81      1.0  0.94600  0.40135  0.14287  1.0000
  C   C77       1.0  0.91150  0.39471  0.22932  1.0000
  C  Sn82      1.0  0.90515  0.42032  0.28350  1.0000
  C  Sn83      1.0  0.93388  0.45324  0.25051  1.0000
  C   C78       1.0  0.96836  0.45986  0.16410  1.0000
  C  Sn84      1.0  0.97474  0.43427  0.10989  1.0000
  O  Te81      1.0  0.95173  0.37537  0.08987  1.0000
  O  Te82      1.0  0.87042  0.41307  0.36974  1.0000
  O  Te83      1.0  0.92813  0.47923  0.30360  1.0000
  O  Te84      1.0  0.00944  0.44150  0.02367  1.0000
  Mg  Mg41      1.0  0.87611  0.45689  0.41637  1.0000
  Mg  Mg42      1.0  0.92048  0.37216  0.97692  1.0000
  C  Sn85      1.0  0.17807  0.53014  0.00564  1.0000
  C   C79       1.0  0.17711  0.50648  0.09286  1.0000
  C  Sn86      1.0  0.14475  0.47919  0.18301  1.0000
  C  Sn87      1.0  0.11269  0.47546  0.18597  1.0000
  C   C80       1.0  0.11367  0.49912  0.09877  1.0000
  C  Sn88      1.0  0.14601  0.52642  0.00860  1.0000
  O  Te85      1.0  0.12742  0.53168  0.91634  1.0000
  O  Te86      1.0  0.14446  0.45586  0.26927  1.0000
  O  Te87      1.0  0.08004  0.44835  0.27537  1.0000
  O  Te88      1.0  0.06302  0.52419  0.92236  1.0000
  Mg  Mg43      1.0  0.09337  0.42322  0.37284  1.0000
  Mg  Mg44      1.0  0.11409  0.55683  0.81869  1.0000
  C  Sn89      1.0  0.79824  0.25671  0.30692  1.0000
  C   C81       1.0  0.77481  0.25563  0.24352  1.0000
  C  Sn90      1.0  0.78378  0.28327  0.15183  1.0000
  C  Sn91      1.0  0.81687  0.31258  0.12281  1.0000
  C   C82       1.0  0.84029  0.31364  0.18616  1.0000
  C  Sn92      1.0  0.83134  0.28602  0.27790  1.0000
  O  Te89      1.0  0.78873  0.22879  0.39824  1.0000
  O  Te90      1.0  0.75991  0.28160  0.08976  1.0000
  O  Te91      1.0  0.82638  0.34051  0.03141  1.0000
  O  Te92      1.0  0.85519  0.28767  0.33992  1.0000
  Mg  Mg45      1.0  0.70164  0.30056  0.97265  1.0000
  Mg  Mg46      1.0  0.83020  0.24319  0.45698  1.0000
  C  Sn93      1.0  0.20423  0.46078  0.04056  1.0000
  C   C83       1.0  0.23079  0.48388  0.09249  1.0000
  C  Sn94      1.0  0.22815  0.50996  0.16756  1.0000
  C  Sn95      1.0  0.19833  0.51300  0.19133  1.0000
  C   C84       1.0  0.17178  0.48990  0.13945  1.0000
  C  Sn96      1.0  0.17440  0.46382  0.06433  1.0000
  O  Te93      1.0  0.12412  0.40937  0.96580  1.0000
  O  Te94      1.0  0.25505  0.53275  0.21840  1.0000
  O  Te95      1.0  0.19516  0.53889  0.26616  1.0000
  O  Te96      1.0  0.14753  0.44103  0.01354  1.0000
  Mg  Mg47      1.0  0.23867  0.56369  0.31430  1.0000
  Mg  Mg48      1.0  0.08057  0.38453  0.91771  1.0000
  C  Sn97      1.0  0.41558  0.45792  0.59604  1.0000
  C   C85       1.0  0.44117  0.47708  0.66090  1.0000
  C  Sn98      1.0  0.43594  0.49766  0.77382  1.0000
  C  Sn99      1.0  0.40446  0.49911  0.82302  1.0000
  C   C86       1.0  0.37889  0.47995  0.75820  1.0000
  C  Sn100     1.0  0.38411  0.45937  0.64524  1.0000
  O  Te97      1.0  0.42137  0.43752  0.48333  1.0000
  O  Te98      1.0  0.46191  0.51659  0.83693  1.0000
  O  Te99      1.0  0.39869  0.51953  0.93583  1.0000
  O  Te100     1.0  0.35816  0.44045  0.58217  1.0000
  Mg  Mg49      1.0  0.44184  0.54058  0.98717  1.0000
  Mg  Mg50      1.0  0.37819  0.41644  0.43200  1.0000
  C  Sn101     1.0  0.42782  0.38748  0.80133  1.0000
  C   C87       1.0  0.44558  0.37422  0.68725  1.0000
  C  Sn102     1.0  0.47732  0.39485  0.56314  1.0000
  C  Sn103     1.0  0.49163  0.42945  0.55288  1.0000
  C   C88       1.0  0.47388  0.44270  0.66693  1.0000
  C  Sn104     1.0  0.44213  0.42209  0.79108  1.0000
  O  Te101     1.0  0.39612  0.36639  0.92439  1.0000
  O  Te102     1.0  0.49459  0.38101  0.45047  1.0000
  O  Te103     1.0  0.52335  0.45054  0.42969  1.0000
  O  Te104     1.0  0.42487  0.43590  0.90371  1.0000
  Mg  Mg51      1.0  0.53703  0.41994  0.30508  1.0000
  Mg  Mg52      1.0  0.46573  0.42254  0.04919  1.0000
  C  Sn105     1.0  0.25932  0.43642  0.70727  1.0000
  C   C89       1.0  0.29478  0.46024  0.67536  1.0000
  C  Sn106     1.0  0.30654  0.49362  0.64633  1.0000
  C  Sn107     1.0  0.28235  0.50340  0.64935  1.0000
  C   C90       1.0  0.24692  0.47959  0.68127  1.0000
  C  Sn108     1.0  0.23513  0.44620  0.71029  1.0000
  O  Te105     1.0  0.24814  0.40319  0.73596  1.0000
  O  Te106     1.0  0.34212  0.51697  0.61465  1.0000
  O  Te107     1.0  0.29356  0.53666  0.62062  1.0000
  O  Te108     1.0  0.19958  0.42286  0.74198  1.0000
  Mg  Mg53      1.0  0.34461  0.55924  0.58312  1.0000
  Mg  Mg54      1.0  0.19705  0.38059  0.77361  1.0000
  C  Sn109     1.0  0.44104  0.27033  0.69223  1.0000
  C   C91       1.0  0.46523  0.30093  0.72048  1.0000
  C  Sn110     1.0  0.49729  0.30642  0.72065  1.0000
  C  Sn111     1.0  0.50535  0.28081  0.69188  1.0000
  C   C92       1.0  0.48117  0.25024  0.66363  1.0000
  C  Sn112     1.0  0.44910  0.24472  0.66346  1.0000
  O  Te109     1.0  0.40915  0.26539  0.69261  1.0000
  O  Te110     1.0  0.52105  0.33721  0.74924  1.0000
  O  Te111     1.0  0.53727  0.28578  0.69153  1.0000
  O  Te112     1.0  0.42535  0.21395  0.63487  1.0000
  Mg  Mg55      1.0  0.56105  0.33196  0.73646  1.0000
  Mg  Mg56      1.0  0.38535  0.21918  0.64753  1.0000
  C  Sn113     1.0  0.47705  0.90549  0.75630  1.0000
  C   C93       1.0  0.49949  0.89617  0.64438  1.0000
  C  Sn114     1.0  0.53242  0.92002  0.53745  1.0000
  C  Sn115     1.0  0.54317  0.95388  0.54253  1.0000
  C   C94       1.0  0.52075  0.96318  0.65441  1.0000
  C  Sn116     1.0  0.48781  0.93936  0.76139  1.0000
  O  Te113     1.0  0.44425  0.88123  0.86206  1.0000
  O  Te114     1.0  0.55439  0.91010  0.42660  1.0000
  O  Te115     1.0  0.57601  0.97814  0.43665  1.0000
  O  Te116     1.0  0.46585  0.94926  0.87220  1.0000
  Mg  Mg57      1.0  0.59659  0.95235  0.30759  1.0000
  Mg  Mg58      1.0  0.42366  0.90703  0.99131  1.0000
  C  Sn117     1.0  0.60458  0.03703  0.61746  1.0000
  C   C95       1.0  0.61901  0.06915  0.55067  1.0000
  C  Sn118     1.0  0.59767  0.07868  0.52125  1.0000
  C  Sn119     1.0  0.56114  0.05563  0.55947  1.0000
  C   C96       1.0  0.54673  0.02354  0.62624  1.0000
  C  Sn120     1.0  0.56805  0.01399  0.65568  1.0000
  O  Te117     1.0  0.62641  0.02804  0.64586  1.0000
  O  Te118     1.0  0.61270  0.11092  0.45435  1.0000
  O  Te119     1.0  0.53931  0.06465  0.53101  1.0000
  O  Te120     1.0  0.55304  0.98177  0.72256  1.0000
  Mg  Mg59      1.0  0.57209  0.11140  0.43817  1.0000
  Mg  Mg60      1.0  0.59362  0.98127  0.73887  1.0000
  C  Sn121     1.0  0.49018  0.79220  0.63168  1.0000
  C   C97       1.0  0.51600  0.82095  0.66453  1.0000
  C  Sn122     1.0  0.54778  0.82372  0.65259  1.0000
  C  Sn123     1.0  0.55388  0.79721  0.60678  1.0000
  C   C98       1.0  0.52807  0.76848  0.57393  1.0000
  C  Sn124     1.0  0.49628  0.76569  0.58586  1.0000
  O  Te121     1.0  0.45861  0.78997  0.64437  1.0000
  O  Te122     1.0  0.57319  0.85270  0.68608  1.0000
  O  Te123     1.0  0.58548  0.79946  0.59411  1.0000
  O  Te124     1.0  0.47088  0.73673  0.55238  1.0000
  Mg  Mg61      1.0  0.61199  0.84396  0.65193  1.0000
  Mg  Mg62      1.0  0.43208  0.74546  0.58641  1.0000
  C  Sn125     1.0  0.69281  0.20235  0.58594  1.0000
  C   C99       1.0  0.68767  0.17062  0.57002  1.0000
  C  Sn126     1.0  0.70731  0.16116  0.61574  1.0000
  C  Sn127     1.0  0.73260  0.18388  0.67879  1.0000
  C   C100      1.0  0.73773  0.21559  0.69472  1.0000
  C  Sn128     1.0  0.71810  0.22507  0.64899  1.0000
  O  Te125     1.0  0.67288  0.21127  0.53947  1.0000
  O  Te126     1.0  0.70171  0.12930  0.59864  1.0000
  O  Te127     1.0  0.75254  0.17494  0.72527  1.0000
  O  Te128     1.0  0.72368  0.25690  0.66610  1.0000
  Mg  Mg63      1.0  0.73534  0.12877  0.67886  1.0000
  Mg  Mg64      1.0  0.69007  0.25746  0.58599  1.0000
  C  Sn129     1.0  0.04997  0.55051  0.78904  1.0000
  C   C101      1.0  0.02704  0.54548  0.71328  1.0000
  C  Sn130     1.0  0.03831  0.56747  0.58351  1.0000
  C  Sn131     1.0  0.07324  0.59506  0.52824  1.0000
  C   C102      1.0  0.09615  0.60007  0.60396  1.0000
  C  Sn132     1.0  0.08490  0.57809  0.73376  1.0000
  O  Te129     1.0  0.03815  0.52820  0.91855  1.0000
  O  Te130     1.0  0.01490  0.56194  0.50975  1.0000
  O  Te131     1.0  0.08505  0.61737  0.39862  1.0000
  O  Te132     1.0  0.10829  0.58361  0.80749  1.0000
  Mg  Mg65      1.0  0.04336  0.59926  0.33767  1.0000
  Mg  Mg66      1.0  0.07987  0.54630  0.97951  1.0000
  C  Sn133     1.0  0.94175  0.50032  0.55325  1.0000
  C   C103      1.0  0.96748  0.51835  0.61875  1.0000
  C  Sn134     1.0  0.96305  0.53896  0.73312  1.0000
  C  Sn135     1.0  0.93226  0.54159  0.78315  1.0000
  C   C104      1.0  0.90655  0.52356  0.71768  1.0000
  C  Sn136     1.0  0.91096  0.50295  0.60328  1.0000
  O  Te133     1.0  0.94673  0.47987  0.43909  1.0000
  O  Te134     1.0  0.98914  0.55675  0.79684  1.0000
  O  Te135     1.0  0.92730  0.56206  0.89740  1.0000
  O  Te136     1.0  0.88489  0.48516  0.53960  1.0000
  Mg  Mg67      1.0  0.97030  0.58130  0.94909  1.0000
  Mg  Mg68      1.0  0.90369  0.46059  0.38740  1.0000
  C  Sn137     1.0  0.17792  0.73958  0.68476  1.0000
  C   C105      1.0  0.20849  0.74278  0.69277  1.0000
  C  Sn138     1.0  0.21629  0.71758  0.65365  1.0000
  C  Sn139     1.0  0.19306  0.68858  0.60542  1.0000
  C   C106      1.0  0.16252  0.68540  0.59740  1.0000
  C  Sn140     1.0  0.15469  0.71059  0.63652  1.0000
  O  Te137     1.0  0.17065  0.76509  0.72440  1.0000
  O  Te138     1.0  0.24700  0.72133  0.66263  1.0000
  O  Te139     1.0  0.20036  0.66307  0.56578  1.0000
  O  Te140     1.0  0.12401  0.70685  0.62754  1.0000
  Mg  Mg69      1.0  0.24544  0.67973  0.59655  1.0000
  Mg  Mg70      1.0  0.12555  0.74844  0.69351  1.0000
  C  Sn141     1.0  0.82631  0.54658  0.67108  1.0000
  C   C107      1.0  0.82367  0.51760  0.71719  1.0000
  C  Sn142     1.0  0.79587  0.48689  0.71170  1.0000
  C  Sn143     1.0  0.77019  0.48510  0.65893  1.0000
  C   C108      1.0  0.77284  0.51407  0.61284  1.0000
  C  Sn144     1.0  0.80063  0.54479  0.61831  1.0000
  O  Te141     1.0  0.85433  0.57701  0.67752  1.0000
  O  Te142     1.0  0.79379  0.45826  0.75845  1.0000
  O  Te143     1.0  0.74216  0.45464  0.65253  1.0000
  O  Te144     1.0  0.80272  0.57340  0.57158  1.0000
  Mg  Mg71      1.0  0.75073  0.42262  0.72849  1.0000
  Mg  Mg72      1.0  0.84578  0.60906  0.60140  1.0000
  C  Sn145     1.0  0.58092  0.52547  0.50339  1.0000
  C   C109      1.0  0.54575  0.50087  0.58315  1.0000
  C  Sn146     1.0  0.53750  0.47656  0.69412  1.0000
  C  Sn147     1.0  0.56498  0.47684  0.72613  1.0000
  C   C110      1.0  0.60012  0.50144  0.64642  1.0000
  C  Sn148     1.0  0.60839  0.52576  0.53540  1.0000
  O  Te145     1.0  0.58855  0.54954  0.39293  1.0000
  O  Te146     1.0  0.50215  0.45221  0.77232  1.0000
  O  Te147     1.0  0.55732  0.45275  0.83669  1.0000
  O  Te148     1.0  0.64372  0.55010  0.45725  1.0000
  Mg  Mg73      1.0  0.50511  0.42476  0.91265  1.0000
  Mg  Mg74      1.0  0.64078  0.57758  0.31697  1.0000
  C  Sn149     1.0  0.49433  0.56519  0.55537  1.0000
  C   C111      1.0  0.51273  0.59250  0.62458  1.0000
  C  Sn150     1.0  0.53574  0.59287  0.68866  1.0000
  C  Sn151     1.0  0.54047  0.56537  0.68339  1.0000
  C   C112      1.0  0.52208  0.53808  0.61419  1.0000
  C  Sn152     1.0  0.49906  0.53769  0.55010  1.0000
  O  Te149     1.0  0.47146  0.56536  0.49203  1.0000
  O  Te150     1.0  0.55384  0.62044  0.75727  1.0000
  O  Te151     1.0  0.56336  0.56521  0.74681  1.0000
  O  Te152     1.0  0.48097  0.51014  0.48150  1.0000
  Mg  Mg75      1.0  0.58208  0.60853  0.82757  1.0000
  Mg  Mg76      1.0  0.45274  0.52203  0.41110  1.0000
  C  Sn153     1.0  0.72858  0.55822  0.60806  1.0000
  C   C113      1.0  0.70058  0.53501  0.56460  1.0000
  C  Sn154     1.0  0.69277  0.50234  0.56044  1.0000
  C  Sn155     1.0  0.71336  0.49265  0.60064  1.0000
  C   C114      1.0  0.74133  0.51585  0.64410  1.0000
  C  Sn156     1.0  0.74917  0.54854  0.64827  1.0000
  O  Te153     1.0  0.73592  0.59075  0.61141  1.0000
  O  Te154     1.0  0.66466  0.47958  0.51656  1.0000
  O  Te155     1.0  0.70600  0.46009  0.59725  1.0000
  O  Te156     1.0  0.77726  0.57128  0.69213  1.0000
  Mg  Mg77      1.0  0.66502  0.43816  0.52993  1.0000
  Mg  Mg78      1.0  0.77691  0.61270  0.67888  1.0000
  C  Sn157     1.0  0.55120  0.72424  0.52743  1.0000
  C   C115      1.0  0.52529  0.73219  0.54608  1.0000
  C  Sn158     1.0  0.48946  0.70788  0.60474  1.0000
  C  Sn159     1.0  0.47931  0.67493  0.64571  1.0000
  C   C116      1.0  0.50521  0.66700  0.62708  1.0000
  C  Sn160     1.0  0.54105  0.69130  0.56840  1.0000
  O  Te157     1.0  0.58686  0.74894  0.46858  1.0000
  O  Te158     1.0  0.46405  0.71642  0.62229  1.0000
  O  Te159     1.0  0.44362  0.65023  0.70459  1.0000
  O  Te160     1.0  0.56646  0.68277  0.55087  1.0000
  Mg  Mg79      1.0  0.41884  0.67406  0.70729  1.0000
  Mg  Mg80      1.0  0.61167  0.72511  0.46597  1.0000
  C  Sn161     1.0  0.47571  0.04377  0.58430  1.0000
  C   C117      1.0  0.48957  0.03116  0.65500  1.0000
  C  Sn162     1.0  0.49955  0.04514  0.78209  1.0000
  C  Sn163     1.0  0.49557  0.07227  0.83980  1.0000
  C   C118      1.0  0.48171  0.08487  0.76913  1.0000
  C  Sn164     1.0  0.47173  0.07091  0.64201  1.0000
  O  Te161     1.0  0.46591  0.02942  0.45739  1.0000
  O  Te162     1.0  0.51335  0.03211  0.85080  1.0000
  O  Te163     1.0  0.50539  0.08663  0.96680  1.0000
  O  Te164     1.0  0.45793  0.08392  0.57333  1.0000
  Mg  Mg81      1.0  0.60617  0.08567  0.02093  1.0000
  Mg  Mg82      1.0  0.44838  0.05591  0.40326  1.0000
  C  Sn165     1.0  0.44140  0.93518  0.55816  1.0000
  C   C119      1.0  0.44884  0.96372  0.63306  1.0000
  C  Sn166     1.0  0.42182  0.96568  0.75686  1.0000
  C  Sn167     1.0  0.38664  0.93854  0.80693  1.0000
  C   C120      1.0  0.37922  0.91002  0.73207  1.0000
  C  Sn168     1.0  0.40622  0.90804  0.60822  1.0000
  O  Te165     1.0  0.46883  0.93376  0.43465  1.0000
  O  Te166     1.0  0.92649  0.99448  0.82988  1.0000
  O  Te167     1.0  0.35920  0.93998  0.93054  1.0000
  O  Te168     1.0  0.39816  0.87926  0.53524  1.0000
  Mg  Mg83      1.0  0.88005  0.98452  0.99286  1.0000
  Mg  Mg84      1.0  0.44458  0.88918  0.37232  1.0000
  C  Sn169     1.0  0.50204  0.19201  0.73424  1.0000
  C   C121      1.0  0.47220  0.16044  0.76813  1.0000
  C  Sn170     1.0  0.44129  0.15554  0.75640  1.0000
  C  Sn171     1.0  0.44019  0.18277  0.70973  1.0000
  C   C122      1.0  0.47002  0.21431  0.67585  1.0000
  C  Sn172     1.0  0.50094  0.21923  0.68757  1.0000
  O  Te169     1.0  0.53266  0.19633  0.74675  1.0000
  O  Te170     1.0  0.41179  0.12375  0.79094  1.0000
  O  Te171     1.0  0.40953  0.17842  0.69725  1.0000
  O  Te172     1.0  0.53043  0.25100  0.65304  1.0000
  Mg  Mg85      1.0  0.37623  0.13040  0.75663  1.0000
  Mg  Mg86      1.0  0.56601  0.24437  0.68723  1.0000
  C  Sn173     1.0  0.27756  0.83011  0.65217  1.0000
  C   C123      1.0  0.29746  0.83102  0.73693  1.0000
  C  Sn174     1.0  0.29468  0.80203  0.78374  1.0000
  C  Sn175     1.0  0.27154  0.77149  0.74494  1.0000
  C   C124      1.0  0.25167  0.77059  0.66020  1.0000
  C  Sn176     1.0  0.25443  0.79957  0.61337  1.0000
  O  Te173     1.0  0.28076  0.85939  0.60657  1.0000
  O  Te174     1.0  0.31483  0.80356  0.86843  1.0000
  O  Te175     1.0  0.26835  0.74220  0.79061  1.0000
  O  Te176     1.0  0.23429  0.79805  0.52870  1.0000
  Mg  Mg87      1.0  0.30131  0.75697  0.90408  1.0000
  Mg  Mg88      1.0  0.24781  0.84462  0.49292  1.0000
  C  Sn177     1.0  0.94818  0.42261  0.56861  1.0000
  C   C125      1.0  0.95491  0.44796  0.66513  1.0000
  C  Sn178     1.0  0.92957  0.44376  0.81541  1.0000
  C  Sn179     1.0  0.89683  0.41358  0.87044  1.0000
  C   C126      1.0  0.89011  0.38826  0.77397  1.0000
  C  Sn180     1.0  0.91543  0.39244  0.62364  1.0000
  O  Te177     1.0  0.97389  0.42735  0.41879  1.0000
  O  Te178     1.0  0.93691  0.46946  0.90973  1.0000
  O  Te179     1.0  0.95440  0.43440  0.02039  1.0000
  O  Te180     1.0  0.90811  0.36676  0.52936  1.0000
  Mg  Mg89      1.0  0.97677  0.47669  0.10496  1.0000
  Mg  Mg90      1.0  0.95153  0.38503  0.33415  1.0000
  C  Sn181     1.0  0.03600  0.43563  0.65769  1.0000
  C   C127      1.0  0.07183  0.45625  0.56570  1.0000
  C  Sn182     1.0  0.08450  0.48876  0.51155  1.0000
  C  Sn183     1.0  0.06087  0.50092  0.55023  1.0000
  C   C128      1.0  0.02506  0.48030  0.64218  1.0000
  C  Sn184     1.0  0.01237  0.44779  0.69636  1.0000
  O  Te181     1.0  0.02392  0.40322  0.71055  1.0000
  O  Te182     1.0  0.12043  0.50890  0.41971  1.0000
  O  Te183     1.0  0.07298  0.53335  0.49728  1.0000
  O  Te184     1.0  0.97646  0.42765  0.78817  1.0000
  Mg  Mg91      1.0  0.12420  0.55124  0.37568  1.0000
  Mg  Mg92      1.0  0.97267  0.38531  0.83234  1.0000
  C  Sn185     1.0  0.79064  0.30346  0.70635  1.0000
  C   C129      1.0  0.81508  0.30549  0.76550  1.0000
  C  Sn186     1.0  0.81902  0.27834  0.77398  1.0000
  C  Sn187     1.0  0.79810  0.24853  0.72218  1.0000
  C   C130      1.0  0.77368  0.24651  0.66305  1.0000
  C  Sn188     1.0  0.76972  0.27365  0.65455  1.0000
  O  Te185     1.0  0.78714  0.33091  0.69895  1.0000
  O  Te186     1.0  0.84363  0.28096  0.83361  1.0000
  O  Te187     1.0  0.80161  0.22107  0.72963  1.0000
  O  Te188     1.0  0.74513  0.27104  0.59494  1.0000
  Mg  Mg93      1.0  0.83872  0.23678  0.81994  1.0000
  Mg  Mg94      1.0  0.75003  0.31521  0.60848  1.0000
  C  Sn189     1.0  0.19231  0.45355  0.53596  1.0000
  C   C131      1.0  0.21989  0.47694  0.58141  1.0000
  C  Sn190     1.0  0.21861  0.50397  0.65120  1.0000
  C  Sn191     1.0  0.18915  0.50768  0.67618  1.0000
  C   C132      1.0  0.16159  0.48429  0.63077  1.0000
  C  Sn192     1.0  0.16285  0.45726  0.56095  1.0000
  O  Te189     1.0  0.19415  0.42673  0.46641  1.0000
  O  Te190     1.0  0.24651  0.52704  0.69560  1.0000
  O  Te191     1.0  0.18733  0.53453  0.74579  1.0000
  O  Te192     1.0  0.13497  0.43420  0.51659  1.0000
  Mg  Mg95      1.0  0.23183  0.55936  0.78604  1.0000
  Mg  Mg96      1.0  0.14961  0.40186  0.42621  1.0000
