data_image0
_chemical_formula_structural       CNCNC7H6C7NC7NC7H14CNCNC7H6C7HNC7NCH9CNCNC7H6C7NCNC7H10C7NCNC7H10CNC7NC7H10C7HC6NCNC7H13C7HC6NC7NCH13CNC7NCH6C7HC6NCNC7H13SnCSn2CSnTe4Mg2SnCSn2CSnTe4Mg2SnCSn2CSnTe4Mg2SnCSn2CSnTe4Mg2SnCSn2CSnTe4Mg2SnCSn2CSnTe4Mg2SnCSn2CSnTe4Mg2SnCSn2CSnTe4Mg2SnCSn2CSnTe4Mg2SnCSn2CSnTe4Mg2SnCSn2CSnTe4Mg2SnCSn2CSnTe4Mg2SnCSn2CSnTe4Mg2SnCSn2CSnTe4Mg2SnCSn2CSnTe4Mg2SnCSn2CSnTe4Mg2SnCSn2CSnTe4Mg2SnCSn2CSnTe4Mg2SnCSn2CSnTe4Mg2SnCSn2CSnTe4Mg2SnCSn2CSnTe4Mg2SnCSn2CSnTe4Mg2SnCSn2CSnTe4Mg2SnCSn2CSnTe4Mg2
_chemical_formula_sum              "C228 N24 H120 Sn96 Te96 Mg48"
_cell_length_a       47.0439
_cell_length_b       47.2475
_cell_length_c       9.09981
_cell_angle_alpha    94.7739
_cell_angle_beta     68.6447
_cell_angle_gamma    120.082

_symmetry_space_group_name_H-M    'P1'
_space_group_IT_number       1

loop_
  _space_group_symop_operation_xyz
  'x, y, z'

loop_
  _atom_site_type_symbol
  _atom_site_label
  _atom_site_symmetry_multiplicity
  _atom_site_fract_x
  _atom_site_fract_y
  _atom_site_fract_z
  _atom_site_occupancy
  C   C1        1.0  0.49287  0.49776  0.16567  1.0000
  N   N1        1.0  0.36688  0.49905  0.24984  1.0000
  C   C2        1.0  0.33847  0.47347  0.24414  1.0000
  N   N2        1.0  0.46563  0.36494  0.17485  1.0000
  C   C3        1.0  0.48957  0.36009  0.18552  1.0000
  C   C4        1.0  0.48629  0.32785  0.18921  1.0000
  C   C5        1.0  0.50958  0.32421  0.23765  1.0000
  C   C6        1.0  0.50660  0.29366  0.24994  1.0000
  C   C7        1.0  0.48070  0.26573  0.21029  1.0000
  C   C8        1.0  0.45808  0.26974  0.15700  1.0000
  C   C9        1.0  0.46048  0.30012  0.14833  1.0000
  H   H1        1.0  0.33427  0.44847  0.25273  1.0000
  H   H2        1.0  0.51374  0.38057  0.19787  1.0000
  H   H3        1.0  0.52944  0.34548  0.27056  1.0000
  H   H4        1.0  0.52360  0.29107  0.29611  1.0000
  H   H5        1.0  0.43895  0.24884  0.11892  1.0000
  H   H6        1.0  0.44294  0.30313  0.10796  1.0000
  C   C10       1.0  0.51633  0.00637  0.14118  1.0000
  C   C11       1.0  0.55325  0.03396  0.10733  1.0000
  C   C12       1.0  0.57405  0.03084  0.17659  1.0000
  C   C13       1.0  0.60791  0.05647  0.15724  1.0000
  C   C14       1.0  0.62176  0.08709  0.07342  1.0000
  C   C15       1.0  0.60220  0.08980  0.99445  1.0000
  C   C16       1.0  0.56892  0.06352  0.00930  1.0000
  N   N3        1.0  0.50721  0.88020  0.10281  1.0000
  C   C17       1.0  0.53127  0.87768  0.12727  1.0000
  C   C18       1.0  0.53155  0.84690  0.12496  1.0000
  C   C19       1.0  0.55334  0.84419  0.18874  1.0000
  C   C20       1.0  0.55271  0.81463  0.19831  1.0000
  C   C21       1.0  0.53085  0.78683  0.14046  1.0000
  C   C22       1.0  0.50994  0.79008  0.07160  1.0000
  C   C23       1.0  0.50990  0.81933  0.06529  1.0000
  N   N4        1.0  0.65374  0.11302  0.07961  1.0000
  C   C24       1.0  0.65822  0.14237  0.08577  1.0000
  C   C25       1.0  0.68904  0.17051  0.10629  1.0000
  C   C26       1.0  0.69151  0.20150  0.11351  1.0000
  C   C27       1.0  0.71942  0.22860  0.14160  1.0000
  C   C28       1.0  0.74628  0.22603  0.16304  1.0000
  C   C29       1.0  0.74365  0.19482  0.15509  1.0000
  C   C30       1.0  0.71574  0.16766  0.12775  1.0000
  H   H7        1.0  0.56277  0.00810  0.25094  1.0000
  H   H8        1.0  0.62316  0.05408  0.21583  1.0000
  H   H9        1.0  0.61358  0.11241  0.91887  1.0000
  H   H10       1.0  0.55450  0.06613  0.94640  1.0000
  H   H11       1.0  0.55219  0.89877  0.15820  1.0000
  H   H12       1.0  0.56998  0.86530  0.23620  1.0000
  H   H13       1.0  0.56828  0.81266  0.25645  1.0000
  H   H14       1.0  0.49412  0.76945  0.01938  1.0000
  H   H15       1.0  0.49362  0.82154  0.01257  1.0000
  H   H16       1.0  0.63781  0.14728  0.08387  1.0000
  H   H17       1.0  0.67101  0.20406  0.09777  1.0000
  H   H18       1.0  0.72008  0.25198  0.14934  1.0000
  H   H19       1.0  0.76418  0.19213  0.16918  1.0000
  H   H20       1.0  0.71384  0.14371  0.12367  1.0000
  C   C31       1.0  0.00991  0.51864  0.15642  1.0000
  N   N5        1.0  0.13851  0.63302  0.15289  1.0000
  C   C32       1.0  0.13967  0.66090  0.17728  1.0000
  N   N6        1.0  0.89769  0.54061  0.20398  1.0000
  C   C33       1.0  0.86849  0.51635  0.19736  1.0000
  C   C34       1.0  0.84034  0.52024  0.18708  1.0000
  C   C35       1.0  0.80846  0.49191  0.19339  1.0000
  C   C36       1.0  0.78112  0.49437  0.18094  1.0000
  C   C37       1.0  0.78449  0.52528  0.16000  1.0000
  C   C38       1.0  0.81664  0.55361  0.15316  1.0000
  C   C39       1.0  0.84387  0.55124  0.16700  1.0000
  H   H21       1.0  0.11597  0.66290  0.20502  1.0000
  H   H22       1.0  0.86339  0.49091  0.19833  1.0000
  H   H23       1.0  0.80519  0.46773  0.20975  1.0000
  H   H24       1.0  0.75652  0.47202  0.18978  1.0000
  H   H25       1.0  0.82049  0.57786  0.13285  1.0000
  H   H26       1.0  0.86854  0.57323  0.16098  1.0000
  C   C40       1.0  0.52570  0.52582  0.13976  1.0000
  C   C41       1.0  0.55651  0.52308  0.13076  1.0000
  C   C42       1.0  0.58992  0.54044  0.00716  1.0000
  C   C43       1.0  0.61818  0.53707  0.00148  1.0000
  C   C44       1.0  0.61355  0.51523  0.11580  1.0000
  C   C45       1.0  0.58000  0.49733  0.23768  1.0000
  C   C46       1.0  0.55283  0.50249  0.24731  1.0000
  H   H27       1.0  0.52777  0.49052  0.34772  1.0000
  N   N7        1.0  0.64084  0.51033  0.11328  1.0000
  C   C47       1.0  0.66872  0.53479  0.12873  1.0000
  C   C48       1.0  0.69828  0.53210  0.13080  1.0000
  C   C49       1.0  0.72349  0.55739  0.18451  1.0000
  C   C50       1.0  0.75121  0.55522  0.19449  1.0000
  C   C51       1.0  0.75532  0.52788  0.14794  1.0000
  C   C52       1.0  0.73017  0.50281  0.09173  1.0000
  C   C53       1.0  0.70213  0.50466  0.08435  1.0000
  N   N8        1.0  0.55029  0.65771  0.14304  1.0000
  C   C54       1.0  0.52358  0.66173  0.17195  1.0000
  H   H28       1.0  0.59379  0.55678  0.91515  1.0000
  H   H29       1.0  0.64400  0.55082  0.90653  1.0000
  H   H30       1.0  0.57634  0.48094  0.32864  1.0000
  H   H31       1.0  0.67099  0.55906  0.14727  1.0000
  H   H32       1.0  0.72065  0.57861  0.22263  1.0000
  H   H33       1.0  0.76923  0.57450  0.24362  1.0000
  H   H34       1.0  0.73323  0.48189  0.05028  1.0000
  H   H35       1.0  0.68289  0.48515  0.04134  1.0000
  H   H36       1.0  0.49666  0.64050  0.19835  1.0000
  C   C55       1.0  0.48779  0.01142  0.18724  1.0000
  N   N9        1.0  0.49485  0.13610  0.25394  1.0000
  C   C56       1.0  0.46764  0.13931  0.28233  1.0000
  N   N10       1.0  0.35375  0.89844  0.24558  1.0000
  C   C57       1.0  0.35348  0.87118  0.21356  1.0000
  C   C58       1.0  0.32228  0.84112  0.20647  1.0000
  C   C59       1.0  0.31970  0.81045  0.22111  1.0000
  C   C60       1.0  0.29008  0.78136  0.21788  1.0000
  C   C61       1.0  0.26233  0.78176  0.19375  1.0000
  C   C62       1.0  0.26548  0.81278  0.17599  1.0000
  C   C63       1.0  0.29456  0.84180  0.18393  1.0000
  H   H37       1.0  0.44059  0.11794  0.31600  1.0000
  H   H38       1.0  0.37707  0.86931  0.19128  1.0000
  H   H39       1.0  0.34081  0.80947  0.23966  1.0000
  H   H40       1.0  0.28813  0.75792  0.23650  1.0000
  H   H41       1.0  0.24539  0.81421  0.15001  1.0000
  H   H42       1.0  0.29695  0.86560  0.16860  1.0000
  C   C64       1.0  0.00511  0.48707  0.14590  1.0000
  C   C65       1.0  0.03497  0.48100  0.11210  1.0000
  C   C66       1.0  0.02980  0.45546  0.20682  1.0000
  C   C67       1.0  0.05699  0.44998  0.19219  1.0000
  C   C68       1.0  0.09139  0.47102  0.08289  1.0000
  C   C69       1.0  0.09663  0.49533  0.97993  1.0000
  C   C70       1.0  0.06873  0.49977  0.99265  1.0000
  N   N11       1.0  0.87267  0.36981  0.21990  1.0000
  C   C71       1.0  0.86696  0.34032  0.23806  1.0000
  N   N12       1.0  0.11864  0.46661  0.08323  1.0000
  C   C72       1.0  0.14666  0.49191  0.09336  1.0000
  C   C73       1.0  0.17572  0.48954  0.10264  1.0000
  C   C74       1.0  0.20128  0.51585  0.15084  1.0000
  C   C75       1.0  0.22784  0.51342  0.17233  1.0000
  C   C76       1.0  0.23003  0.48467  0.14450  1.0000
  C   C77       1.0  0.20459  0.45860  0.09368  1.0000
  C   C78       1.0  0.17796  0.46086  0.07307  1.0000
  H   H43       1.0  0.00357  0.43994  0.29524  1.0000
  H   H44       1.0  0.05265  0.43079  0.27018  1.0000
  H   H45       1.0  0.12282  0.51049  0.88958  1.0000
  H   H46       1.0  0.07358  0.51883  0.91232  1.0000
  H   H47       1.0  0.88561  0.33584  0.26368  1.0000
  H   H48       1.0  0.14896  0.51630  0.10390  1.0000
  H   H49       1.0  0.19953  0.53799  0.17555  1.0000
  H   H50       1.0  0.24645  0.53356  0.21581  1.0000
  H   H51       1.0  0.20649  0.43662  0.06686  1.0000
  H   H52       1.0  0.15842  0.44078  0.03356  1.0000
  C   C79       1.0  0.47381  0.47424  0.67391  1.0000
  C   C80       1.0  0.46752  0.43999  0.67158  1.0000
  C   C81       1.0  0.44158  0.41619  0.80406  1.0000
  C   C82       1.0  0.43601  0.38441  0.81114  1.0000
  C   C83       1.0  0.45680  0.37539  0.68474  1.0000
  C   C84       1.0  0.48161  0.39847  0.54900  1.0000
  C   C85       1.0  0.48652  0.43001  0.54214  1.0000
  N   N13       1.0  0.35681  0.48736  0.71552  1.0000
  C   C86       1.0  0.32535  0.46310  0.73658  1.0000
  N   N14       1.0  0.45147  0.34347  0.69458  1.0000
  C   C87       1.0  0.47833  0.34058  0.67702  1.0000
  C   C88       1.0  0.47645  0.30874  0.67844  1.0000
  C   C89       1.0  0.50227  0.30666  0.71229  1.0000
  C   C90       1.0  0.50078  0.27665  0.72151  1.0000
  C   C91       1.0  0.47401  0.24769  0.69205  1.0000
  C   C92       1.0  0.44884  0.25025  0.65305  1.0000
  C   C93       1.0  0.44970  0.28000  0.64812  1.0000
  H   H53       1.0  0.42582  0.42298  0.90438  1.0000
  H   H54       1.0  0.41652  0.36664  0.91607  1.0000
  H   H55       1.0  0.49648  0.39113  0.44766  1.0000
  H   H56       1.0  0.50558  0.44694  0.43430  1.0000
  H   H57       1.0  0.31717  0.43776  0.77449  1.0000
  H   H58       1.0  0.50411  0.36235  0.66502  1.0000
  H   H59       1.0  0.52301  0.32874  0.73645  1.0000
  H   H60       1.0  0.52003  0.27551  0.75617  1.0000
  H   H61       1.0  0.42894  0.22869  0.62188  1.0000
  H   H62       1.0  0.43033  0.28175  0.61694  1.0000
  C   C94       1.0  0.51422  0.99151  0.64666  1.0000
  N   N15       1.0  0.50527  0.86591  0.64332  1.0000
  C   C95       1.0  0.53079  0.86152  0.63323  1.0000
  C   C96       1.0  0.52730  0.82898  0.62184  1.0000
  C   C97       1.0  0.55246  0.82371  0.64332  1.0000
  C   C98       1.0  0.54913  0.79270  0.63619  1.0000
  C   C99       1.0  0.52105  0.76589  0.60313  1.0000
  C   C100      1.0  0.49622  0.77165  0.57922  1.0000
  C   C101      1.0  0.49897  0.80233  0.59018  1.0000
  N   N16       1.0  0.64803  0.10452  0.58780  1.0000
  C   C102      1.0  0.65129  0.13344  0.59519  1.0000
  C   C103      1.0  0.68200  0.16229  0.61235  1.0000
  C   C104      1.0  0.68277  0.19255  0.62759  1.0000
  C   C105      1.0  0.71069  0.22016  0.65291  1.0000
  C   C106      1.0  0.73922  0.21893  0.66328  1.0000
  C   C107      1.0  0.73831  0.18849  0.64716  1.0000
  C   C108      1.0  0.71040  0.16080  0.62275  1.0000
  H   H63       1.0  0.55593  0.88188  0.63743  1.0000
  H   H64       1.0  0.57418  0.84396  0.67053  1.0000
  H   H65       1.0  0.56814  0.78912  0.66077  1.0000
  H   H66       1.0  0.47494  0.75193  0.54771  1.0000
  H   H67       1.0  0.47976  0.80660  0.57174  1.0000
  H   H68       1.0  0.63002  0.13747  0.59760  1.0000
  H   H69       1.0  0.66096  0.19417  0.62110  1.0000
  H   H70       1.0  0.71017  0.24297  0.66760  1.0000
  H   H71       1.0  0.76007  0.18670  0.65279  1.0000
  H   H72       1.0  0.70975  0.13740  0.61240  1.0000
  C   C109      1.0  0.99539  0.51101  0.66643  1.0000
  C   C110      1.0  0.02817  0.54161  0.66109  1.0000
  C   C111      1.0  0.04040  0.57081  0.56857  1.0000
  C   C112      1.0  0.07127  0.59962  0.56124  1.0000
  C   C113      1.0  0.09153  0.60011  0.64444  1.0000
  C   C114      1.0  0.07981  0.57084  0.73468  1.0000
  C   C115      1.0  0.04817  0.54263  0.74695  1.0000
  H   H73       1.0  0.03853  0.52069  0.82299  1.0000
  C   C116      1.0  0.96641  0.51580  0.67002  1.0000
  C   C117      1.0  0.96249  0.54196  0.74215  1.0000
  C   C118      1.0  0.93527  0.54666  0.74744  1.0000
  C   C119      1.0  0.91018  0.52476  0.68332  1.0000
  C   C120      1.0  0.91432  0.49903  0.60756  1.0000
  C   C121      1.0  0.94217  0.49520  0.59911  1.0000
  N   N17       1.0  0.12286  0.62792  0.64350  1.0000
  C   C122      1.0  0.12660  0.65681  0.63266  1.0000
  N   N18       1.0  0.88398  0.53079  0.68476  1.0000
  C   C123      1.0  0.85287  0.50618  0.70333  1.0000
  C   C124      1.0  0.82596  0.51056  0.68354  1.0000
  C   C125      1.0  0.79212  0.48306  0.71048  1.0000
  C   C126      1.0  0.76629  0.48663  0.68840  1.0000
  C   C127      1.0  0.77346  0.51780  0.63932  1.0000
  C   C128      1.0  0.80751  0.54524  0.61207  1.0000
  C   C129      1.0  0.83335  0.54173  0.63318  1.0000
  H   H74       1.0  0.02584  0.57043  0.49839  1.0000
  H   H75       1.0  0.08074  0.62151  0.48494  1.0000
  H   H76       1.0  0.09547  0.57155  0.79959  1.0000
  H   H77       1.0  0.98071  0.55838  0.79800  1.0000
  H   H78       1.0  0.93225  0.56656  0.80580  1.0000
  H   H79       1.0  0.89674  0.48349  0.54686  1.0000
  H   H80       1.0  0.94577  0.47611  0.53499  1.0000
  H   H81       1.0  0.10530  0.66017  0.62938  1.0000
  H   H82       1.0  0.84536  0.48065  0.73378  1.0000
  H   H83       1.0  0.78631  0.45897  0.75020  1.0000
  H   H84       1.0  0.73996  0.46539  0.71230  1.0000
  H   H85       1.0  0.81362  0.56926  0.56971  1.0000
  H   H86       1.0  0.85988  0.56262  0.60971  1.0000
  C   C130      1.0  0.50691  0.50157  0.65041  1.0000
  C   C131      1.0  0.53860  0.50041  0.63759  1.0000
  C   C132      1.0  0.57269  0.52739  0.55260  1.0000
  C   C133      1.0  0.60344  0.52840  0.54049  1.0000
  C   C134      1.0  0.60160  0.50165  0.60927  1.0000
  C   C135      1.0  0.56796  0.47404  0.68796  1.0000
  C   C136      1.0  0.53730  0.47379  0.70527  1.0000
  H   H87       1.0  0.51198  0.45273  0.77434  1.0000
  C   C137      1.0  0.51360  0.53559  0.63238  1.0000
  C   C138      1.0  0.53384  0.56068  0.70716  1.0000
  C   C139      1.0  0.54028  0.59253  0.68896  1.0000
  C   C140      1.0  0.52503  0.60005  0.60212  1.0000
  C   C141      1.0  0.50583  0.57539  0.52197  1.0000
  C   C142      1.0  0.50130  0.54420  0.53439  1.0000
  N   N19       1.0  0.63107  0.50050  0.60158  1.0000
  C   C143      1.0  0.65843  0.52690  0.61063  1.0000
  C   C144      1.0  0.68926  0.52604  0.60509  1.0000
  C   C145      1.0  0.71580  0.55238  0.64788  1.0000
  C   C146      1.0  0.74348  0.55001  0.65686  1.0000
  C   C147      1.0  0.74564  0.52142  0.62096  1.0000
  C   C148      1.0  0.71967  0.49569  0.57170  1.0000
  C   C149      1.0  0.69192  0.49782  0.56454  1.0000
  N   N20       1.0  0.53106  0.63215  0.59664  1.0000
  C   C150      1.0  0.50629  0.63691  0.59675  1.0000
  H   H88       1.0  0.57493  0.54765  0.49179  1.0000
  H   H89       1.0  0.62914  0.54924  0.47119  1.0000
  H   H90       1.0  0.56651  0.45338  0.74151  1.0000
  H   H91       1.0  0.54469  0.55512  0.78014  1.0000
  H   H92       1.0  0.55610  0.61187  0.74612  1.0000
  H   H93       1.0  0.49641  0.58148  0.44331  1.0000
  H   H94       1.0  0.48802  0.52552  0.46757  1.0000
  H   H95       1.0  0.65879  0.55036  0.63073  1.0000
  H   H96       1.0  0.71406  0.57438  0.67864  1.0000
  H   H97       1.0  0.76298  0.56985  0.69741  1.0000
  H   H98       1.0  0.72198  0.47413  0.53664  1.0000
  H   H99       1.0  0.67153  0.47800  0.52856  1.0000
  H   H100      1.0  0.48005  0.61620  0.60648  1.0000
  C   C151      1.0  0.48410  0.99338  0.67600  1.0000
  N   N21       1.0  0.49073  0.11811  0.73611  1.0000
  C   C152      1.0  0.46497  0.12187  0.74141  1.0000
  C   C153      1.0  0.46818  0.15407  0.72937  1.0000
  C   C154      1.0  0.43780  0.15568  0.75241  1.0000
  C   C155      1.0  0.43970  0.18581  0.74044  1.0000
  C   C156      1.0  0.47216  0.21574  0.70343  1.0000
  C   C157      1.0  0.50258  0.21391  0.68007  1.0000
  C   C158      1.0  0.50072  0.18389  0.69305  1.0000
  N   N22       1.0  0.34942  0.88731  0.69348  1.0000
  C   C159      1.0  0.33919  0.85697  0.73002  1.0000
  H   H101      1.0  0.43876  0.10050  0.75581  1.0000
  H   H102      1.0  0.41235  0.13291  0.78215  1.0000
  H   H103      1.0  0.41561  0.18626  0.76278  1.0000
  H   H104      1.0  0.52820  0.23650  0.64825  1.0000
  H   H105      1.0  0.52435  0.18278  0.67379  1.0000
  H   H106      1.0  0.35407  0.85064  0.77707  1.0000
  C   C160      1.0  0.99212  0.48014  0.66845  1.0000
  C   C161      1.0  0.95741  0.44919  0.70290  1.0000
  C   C162      1.0  0.95530  0.42444  0.60301  1.0000
  C   C163      1.0  0.92329  0.39608  0.62036  1.0000
  C   C164      1.0  0.89173  0.39121  0.74174  1.0000
  C   C165      1.0  0.89354  0.41516  0.84674  1.0000
  C   C166      1.0  0.92588  0.44326  0.82885  1.0000
  H   H107      1.0  0.92661  0.46118  0.91239  1.0000
  C   C167      1.0  0.02250  0.47510  0.63350  1.0000
  C   C168      1.0  0.01728  0.44671  0.70571  1.0000
  C   C169      1.0  0.04524  0.44174  0.68290  1.0000
  C   C170      1.0  0.08009  0.46553  0.58818  1.0000
  C   C171      1.0  0.08538  0.49279  0.50565  1.0000
  C   C172      1.0  0.05713  0.49718  0.52781  1.0000
  N   N23       1.0  0.85919  0.36381  0.75220  1.0000
  C   C173      1.0  0.85646  0.33517  0.74849  1.0000
  N   N24       1.0  0.10743  0.46083  0.58342  1.0000
  C   C174      1.0  0.13599  0.48614  0.58955  1.0000
  C   C175      1.0  0.16521  0.48360  0.59513  1.0000
  C   C176      1.0  0.19190  0.51026  0.63614  1.0000
  C   C177      1.0  0.21840  0.50748  0.65641  1.0000
  C   C178      1.0  0.21933  0.47807  0.63421  1.0000
  C   C179      1.0  0.19300  0.45176  0.58885  1.0000
  C   C180      1.0  0.16639  0.45433  0.56985  1.0000
  H   H108      1.0  0.97942  0.42804  0.50838  1.0000
  H   H109      1.0  0.92206  0.37808  0.53654  1.0000
  H   H110      1.0  0.86946  0.41096  0.94436  1.0000
  H   H111      1.0  0.99067  0.42860  0.78266  1.0000
  H   H112      1.0  0.04102  0.42026  0.74320  1.0000
  H   H113      1.0  0.11175  0.51015  0.42253  1.0000
  H   H114      1.0  0.06199  0.51851  0.46422  1.0000
  H   H115      1.0  0.87722  0.33190  0.75901  1.0000
  H   H116      1.0  0.13844  0.51056  0.60127  1.0000
  H   H117      1.0  0.19115  0.53300  0.65602  1.0000
  H   H118      1.0  0.23793  0.52773  0.69517  1.0000
  H   H119      1.0  0.19418  0.42934  0.56596  1.0000
  H   H120      1.0  0.14602  0.43400  0.53547  1.0000
  C  Sn1       1.0  0.40818  0.95577  0.81744  1.0000
  C   C181      1.0  0.44156  0.95920  0.73775  1.0000
  C  Sn2       1.0  0.44664  0.94005  0.61651  1.0000
  C  Sn3       1.0  0.41776  0.91701  0.57394  1.0000
  C   C182      1.0  0.38440  0.91360  0.65358  1.0000
  C  Sn4       1.0  0.37930  0.93273  0.77487  1.0000
  O  Te1       1.0  0.40372  0.97518  0.93827  1.0000
  O  Te2       1.0  0.48025  0.94391  0.53860  1.0000
  O  Te3       1.0  0.42225  0.89761  0.45301  1.0000
  O  Te4       1.0  0.34572  0.92889  0.85273  1.0000
  Mg  Mg1       1.0  0.47306  0.91186  0.38189  1.0000
  Mg  Mg2       1.0  0.43618  0.98648  0.00940  1.0000
  C  Sn5       1.0  0.45626  0.06776  0.24188  1.0000
  C   C183      1.0  0.47977  0.09655  0.28548  1.0000
  C  Sn6       1.0  0.51108  0.10039  0.28708  1.0000
  C  Sn7       1.0  0.51908  0.07491  0.24411  1.0000
  C   C184      1.0  0.49559  0.04614  0.20052  1.0000
  C  Sn8       1.0  0.46426  0.04228  0.19891  1.0000
  O  Te5       1.0  0.42510  0.06446  0.24111  1.0000
  O  Te6       1.0  0.53417  0.12940  0.33115  1.0000
  O  Te7       1.0  0.55027  0.07824  0.24492  1.0000
  O  Te8       1.0  0.44118  0.01330  0.15485  1.0000
  Mg  Mg3       1.0  0.57330  0.12232  0.31363  1.0000
  Mg  Mg4       1.0  0.40206  0.02035  0.17224  1.0000
  C  Sn9       1.0  0.55120  0.72424  0.52743  1.0000
  C   C185      1.0  0.52529  0.73219  0.54608  1.0000
  C  Sn10      1.0  0.48946  0.70788  0.60474  1.0000
  C  Sn11      1.0  0.47931  0.67493  0.64571  1.0000
  C   C186      1.0  0.50521  0.66700  0.62708  1.0000
  C  Sn12      1.0  0.54105  0.69130  0.56840  1.0000
  O  Te9       1.0  0.58686  0.74894  0.46858  1.0000
  O  Te10      1.0  0.46405  0.71642  0.62229  1.0000
  O  Te11      1.0  0.44362  0.65023  0.70459  1.0000
  O  Te12      1.0  0.56646  0.68277  0.55087  1.0000
  Mg  Mg5       1.0  0.41884  0.67406  0.70729  1.0000
  Mg  Mg6       1.0  0.61167  0.72511  0.46597  1.0000
  C  Sn13      1.0  0.82725  0.27169  0.22855  1.0000
  C   C187      1.0  0.83999  0.30492  0.18798  1.0000
  C  Sn14      1.0  0.81864  0.31453  0.15926  1.0000
  C  Sn15      1.0  0.78382  0.29042  0.17144  1.0000
  C   C188      1.0  0.77109  0.25721  0.21202  1.0000
  C  Sn16      1.0  0.79243  0.24758  0.24073  1.0000
  O  Te13      1.0  0.84906  0.26264  0.25674  1.0000
  O  Te14      1.0  0.83197  0.34791  0.11883  1.0000
  O  Te15      1.0  0.76201  0.29950  0.14320  1.0000
  O  Te16      1.0  0.77911  0.21423  0.28117  1.0000
  Mg  Mg7       1.0  0.79212  0.34800  0.09177  1.0000
  Mg  Mg8       1.0  0.81893  0.21412  0.30833  1.0000
  C  Sn17      1.0  0.48382  0.93820  0.26032  1.0000
  C   C189      1.0  0.51152  0.96879  0.17478  1.0000
  C  Sn18      1.0  0.53856  0.97070  0.03629  1.0000
  C  Sn19      1.0  0.45460  0.91588  0.98209  1.0000
  C   C190      1.0  0.51021  0.91086  0.06759  1.0000
  C  Sn20      1.0  0.48316  0.90893  0.20612  1.0000
  O  Te17      1.0  0.45706  0.93688  0.39845  1.0000
  O  Te18      1.0  0.97928  0.97602  0.95282  1.0000
  O  Te19      1.0  0.48140  0.91723  0.84384  1.0000
  O  Te20      1.0  0.45575  0.87809  0.28955  1.0000
  Mg  Mg9       1.0  0.51307  0.96505  0.77133  1.0000
  Mg  Mg10      1.0  0.42534  0.88902  0.47100  1.0000
  C  Sn21      1.0  0.54563  0.93421  0.54164  1.0000
  C   C191      1.0  0.52097  0.90575  0.65028  1.0000
  C  Sn22      1.0  0.48925  0.90255  0.75899  1.0000
  C  Sn23      1.0  0.48203  0.92832  0.75907  1.0000
  C   C192      1.0  0.50668  0.95674  0.65046  1.0000
  C  Sn24      1.0  0.53841  0.95997  0.54172  1.0000
  O  Te21      1.0  0.57717  0.93688  0.43402  1.0000
  O  Te22      1.0  0.46500  0.87388  0.86650  1.0000
  O  Te23      1.0  0.45046  0.92562  0.86681  1.0000
  O  Te24      1.0  0.56265  0.98862  0.43425  1.0000
  Mg  Mg11      1.0  0.42577  0.88180  0.98984  1.0000
  Mg  Mg12      1.0  0.60188  0.98072  0.31080  1.0000
  C  Sn25      1.0  0.51072  0.22479  0.16457  1.0000
  C   C193      1.0  0.48392  0.23152  0.18373  1.0000
  C  Sn26      1.0  0.44840  0.20760  0.26225  1.0000
  C  Sn27      1.0  0.43948  0.17632  0.32298  1.0000
  C   C194      1.0  0.46627  0.16961  0.30384  1.0000
  C  Sn28      1.0  0.50180  0.19351  0.22530  1.0000
  O  Te25      1.0  0.54605  0.24907  0.08568  1.0000
  O  Te26      1.0  0.42208  0.21489  0.27991  1.0000
  O  Te27      1.0  0.40412  0.15203  0.40192  1.0000
  O  Te28      1.0  0.52812  0.18623  0.20766  1.0000
  Mg  Mg13      1.0  0.37778  0.17373  0.39630  1.0000
  Mg  Mg14      1.0  0.57242  0.22738  0.09137  1.0000
  C  Sn29      1.0  0.57275  0.05634  0.48415  1.0000
  C   C195      1.0  0.55738  0.02470  0.55943  1.0000
  C  Sn30      1.0  0.57065  0.01926  0.66201  1.0000
  C  Sn31      1.0  0.59986  0.04602  0.69003  1.0000
  C   C196      1.0  0.61521  0.07763  0.61480  1.0000
  C  Sn32      1.0  0.60196  0.08309  0.51217  1.0000
  O  Te29      1.0  0.55905  0.06120  0.38208  1.0000
  O  Te30      1.0  0.55485  0.98741  0.73585  1.0000
  O  Te31      1.0  0.61355  0.04113  0.79220  1.0000
  O  Te32      1.0  0.61774  0.11492  0.43838  1.0000
  Mg  Mg15      1.0  0.58300  0.99325  0.86486  1.0000
  Mg  Mg16      1.0  0.58960  0.10912  0.30942  1.0000
  C  Sn33      1.0  0.42418  0.49730  0.82957  1.0000
  C   C197      1.0  0.43400  0.47465  0.75683  1.0000
  C  Sn34      1.0  0.41968  0.45600  0.64827  1.0000
  C  Sn35      1.0  0.39503  0.46010  0.61154  1.0000
  C   C198      1.0  0.38522  0.48275  0.68423  1.0000
  C  Sn36      1.0  0.39953  0.50140  0.79285  1.0000
  O  Te33      1.0  0.43883  0.51568  0.93774  1.0000
  O  Te34      1.0  0.42990  0.43350  0.57711  1.0000
  O  Te35      1.0  0.38037  0.44169  0.50328  1.0000
  O  Te36      1.0  0.38932  0.52390  0.86396  1.0000
  Mg  Mg17      1.0  0.40260  0.41419  0.43740  1.0000
  Mg  Mg18      1.0  0.49992  0.56878  0.00361  1.0000
  C  Sn37      1.0  0.29473  0.78875  0.74832  1.0000
  C   C199      1.0  0.31133  0.82162  0.68582  1.0000
  C  Sn38      1.0  0.29414  0.83213  0.62682  1.0000
  C  Sn39      1.0  0.25963  0.80931  0.63045  1.0000
  C   C200      1.0  0.24304  0.77646  0.69295  1.0000
  C  Sn40      1.0  0.26021  0.76593  0.75195  1.0000
  O  Te37      1.0  0.31240  0.77879  0.80666  1.0000
  O  Te38      1.0  0.31128  0.86512  0.56488  1.0000
  O  Te39      1.0  0.24196  0.81930  0.57204  1.0000
  O  Te40      1.0  0.24309  0.73297  0.81389  1.0000
  Mg  Mg19      1.0  0.27629  0.86680  0.49962  1.0000
  Mg  Mg20      1.0  0.27804  0.73126  0.87925  1.0000
  C  Sn41      1.0  0.91062  0.43502  0.25484  1.0000
  C   C201      1.0  0.90555  0.40585  0.18897  1.0000
  C  Sn42      1.0  0.93366  0.39994  0.12347  1.0000
  C  Sn43      1.0  0.96756  0.42367  0.12391  1.0000
  C   C202      1.0  0.97262  0.45282  0.18977  1.0000
  C  Sn44      1.0  0.94452  0.45876  0.25527  1.0000
  O  Te41      1.0  0.88213  0.44041  0.31967  1.0000
  O  Te42      1.0  0.92794  0.37059  0.05826  1.0000
  O  Te43      1.0  0.99606  0.41826  0.05900  1.0000
  O  Te44      1.0  0.95022  0.48808  0.32048  1.0000
  Mg  Mg21      1.0  0.89176  0.34899  0.98419  1.0000
  Mg  Mg22      1.0  0.90313  0.48416  0.39465  1.0000
  C  Sn45      1.0  0.56423  0.74885  0.10493  1.0000
  C   C203      1.0  0.53747  0.75452  0.11004  1.0000
  C  Sn46      1.0  0.50226  0.72880  0.16181  1.0000
  C  Sn47      1.0  0.49362  0.69675  0.20957  1.0000
  C   C204      1.0  0.52038  0.69109  0.20447  1.0000
  C  Sn48      1.0  0.55559  0.71680  0.15268  1.0000
  O  Te45      1.0  0.59925  0.77493  0.05276  1.0000
  O  Te46      1.0  0.47596  0.73507  0.16584  1.0000
  O  Te47      1.0  0.45857  0.67066  0.26175  1.0000
  O  Te48      1.0  0.58188  0.71054  0.14867  1.0000
  Mg  Mg23      1.0  0.43213  0.69151  0.24607  1.0000
  Mg  Mg24      1.0  0.62571  0.75409  0.06855  1.0000
  C  Sn49      1.0  0.07198  0.60468  0.12894  1.0000
  C   C205      1.0  0.09745  0.60707  0.18167  1.0000
  C  Sn50      1.0  0.09772  0.57884  0.21406  1.0000
  C  Sn51      1.0  0.07201  0.54756  0.19320  1.0000
  C   C206      1.0  0.04656  0.54518  0.14047  1.0000
  C  Sn52      1.0  0.04627  0.57340  0.10808  1.0000
  O  Te49      1.0  0.07222  0.63323  0.09728  1.0000
  O  Te50      1.0  0.12344  0.58185  0.26671  1.0000
  O  Te51      1.0  0.07179  0.51900  0.22492  1.0000
  O  Te52      1.0  0.02057  0.57040  0.05544  1.0000
  Mg  Mg25      1.0  0.11222  0.53578  0.29404  1.0000
  Mg  Mg26      1.0  0.03178  0.61645  0.02800  1.0000
  C  Sn53      1.0  0.55562  0.59054  0.22270  1.0000
  C   C207      1.0  0.53182  0.56350  0.17127  1.0000
  C  Sn54      1.0  0.51614  0.56800  0.07807  1.0000
  C  Sn55      1.0  0.52444  0.60020  0.03529  1.0000
  C   C208      1.0  0.54823  0.62723  0.08668  1.0000
  C  Sn56      1.0  0.56392  0.62275  0.17991  1.0000
  O  Te53      1.0  0.57098  0.58546  0.31577  1.0000
  O  Te54      1.0  0.49242  0.54058  0.02813  1.0000
  O  Te55      1.0  0.42576  0.57972  0.94215  1.0000
  O  Te56      1.0  0.58763  0.65014  0.22982  1.0000
  Mg  Mg27      1.0  0.39507  0.53460  0.90314  1.0000
  Mg  Mg28      1.0  0.60172  0.63062  0.35474  1.0000
  C  Sn57      1.0  0.45754  0.05227  0.67001  1.0000
  C   C209      1.0  0.47357  0.07743  0.75500  1.0000
  C  Sn58      1.0  0.49819  0.07798  0.80808  1.0000
  C  Sn59      1.0  0.50699  0.05286  0.77545  1.0000
  C   C210      1.0  0.49097  0.02773  0.69048  1.0000
  C  Sn60      1.0  0.46634  0.02716  0.63738  1.0000
  O  Te57      1.0  0.43299  0.05222  0.61809  1.0000
  O  Te58      1.0  0.51386  0.10338  0.89287  1.0000
  O  Te59      1.0  0.53155  0.05293  0.82745  1.0000
  O  Te60      1.0  0.45067  0.00179  0.55261  1.0000
  Mg  Mg29      1.0  0.54576  0.09273  0.93841  1.0000
  Mg  Mg30      1.0  0.41879  0.01241  0.50695  1.0000
  C  Sn61      1.0  0.93174  0.50364  0.11037  1.0000
  C   C211      1.0  0.92013  0.52309  0.20862  1.0000
  C  Sn62      1.0  0.94174  0.54732  0.27968  1.0000
  C  Sn63      1.0  0.97568  0.55223  0.25187  1.0000
  C   C212      1.0  0.98729  0.53279  0.15366  1.0000
  C  Sn64      1.0  0.96568  0.50855  0.08257  1.0000
  O  Te61      1.0  0.90969  0.47956  0.04057  1.0000
  O  Te62      1.0  0.92955  0.56645  0.37749  1.0000
  O  Te63      1.0  0.99773  0.57633  0.32178  1.0000
  O  Te64      1.0  0.89457  0.46389  0.98479  1.0000
  Mg  Mg31      1.0  0.96931  0.59615  0.44559  1.0000
  Mg  Mg32      1.0  0.85484  0.43419  0.91657  1.0000
  C  Sn65      1.0  0.21564  0.70788  0.60318  1.0000
  C   C213      1.0  0.22146  0.73994  0.60771  1.0000
  C  Sn66      1.0  0.19341  0.74552  0.63985  1.0000
  C  Sn67      1.0  0.15882  0.71850  0.66815  1.0000
  C   C214      1.0  0.15301  0.68646  0.66364  1.0000
  C  Sn68      1.0  0.18105  0.68086  0.63148  1.0000
  O  Te65      1.0  0.24407  0.70288  0.57083  1.0000
  O  Te66      1.0  0.19989  0.77779  0.64370  1.0000
  O  Te67      1.0  0.13038  0.72353  0.70051  1.0000
  O  Te68      1.0  0.17459  0.64861  0.62765  1.0000
  Mg  Mg33      1.0  0.15254  0.77200  0.69292  1.0000
  Mg  Mg34      1.0  0.22191  0.65437  0.57853  1.0000
  C  Sn69      1.0  0.30832  0.51125  0.22030  1.0000
  C   C215      1.0  0.30709  0.48265  0.26057  1.0000
  C  Sn70      1.0  0.28153  0.45180  0.24172  1.0000
  C  Sn71      1.0  0.25668  0.44950  0.18125  1.0000
  C   C216      1.0  0.25792  0.47809  0.14099  1.0000
  C  Sn72      1.0  0.28347  0.50895  0.15984  1.0000
  O  Te69      1.0  0.33411  0.54183  0.24013  1.0000
  O  Te70      1.0  0.28082  0.42355  0.28285  1.0000
  O  Te71      1.0  0.23089  0.41889  0.16145  1.0000
  O  Te72      1.0  0.28419  0.53718  0.11872  1.0000
  Mg  Mg35      1.0  0.24068  0.38752  0.23427  1.0000
  Mg  Mg36      1.0  0.32433  0.57323  0.16717  1.0000
  C  Sn73      1.0  0.17714  0.72995  0.17131  1.0000
  C   C217      1.0  0.17449  0.69953  0.13668  1.0000
  C  Sn74      1.0  0.20035  0.69316  0.13818  1.0000
  C  Sn75      1.0  0.22946  0.71768  0.17517  1.0000
  C   C218      1.0  0.23210  0.74807  0.20980  1.0000
  C  Sn76      1.0  0.20626  0.75447  0.20830  1.0000
  O  Te73      1.0  0.15098  0.73578  0.16912  1.0000
  O  Te74      1.0  0.19713  0.66257  0.10311  1.0000
  O  Te75      1.0  0.25563  0.71182  0.17733  1.0000
  O  Te76      1.0  0.20947  0.78503  0.24337  1.0000
  Mg  Mg37      1.0  0.23952  0.66633  0.12146  1.0000
  Mg  Mg38      1.0  0.16708  0.78129  0.22513  1.0000
  C  Sn77      1.0  0.82079  0.26697  0.72136  1.0000
  C   C219      1.0  0.83162  0.29993  0.68696  1.0000
  C  Sn78      1.0  0.80867  0.30822  0.66514  1.0000
  C  Sn79      1.0  0.77417  0.28304  0.67807  1.0000
  C   C220      1.0  0.76336  0.25010  0.71247  1.0000
  C  Sn80      1.0  0.78630  0.24179  0.73429  1.0000
  O  Te77      1.0  0.84417  0.25925  0.74272  1.0000
  O  Te78      1.0  0.82009  0.34135  0.63080  1.0000
  O  Te79      1.0  0.75079  0.29079  0.65667  1.0000
  O  Te80      1.0  0.77489  0.20868  0.76864  1.0000
  Mg  Mg39      1.0  0.77857  0.33946  0.61190  1.0000
  Mg  Mg40      1.0  0.81638  0.21055  0.78764  1.0000
  C  Sn81      1.0  0.42673  0.93741  0.08970  1.0000
  C   C221      1.0  0.39465  0.92397  0.22042  1.0000
  C  Sn82      1.0  0.38933  0.94262  0.34382  1.0000
  C  Sn83      1.0  0.41664  0.97538  0.33640  1.0000
  C   C222      1.0  0.44869  0.98880  0.20574  1.0000
  C  Sn84      1.0  0.45403  0.97017  0.08228  1.0000
  O  Te81      1.0  0.34817  0.89278  0.96768  1.0000
  O  Te82      1.0  0.35704  0.92865  0.47331  1.0000
  O  Te83      1.0  0.90847  0.99447  0.45857  1.0000
  O  Te84      1.0  0.40300  0.95858  0.95285  1.0000
  Mg  Mg41      1.0  0.36326  0.96451  0.60997  1.0000
  Mg  Mg42      1.0  0.39681  0.92276  0.81608  1.0000
  C  Sn85      1.0  0.29137  0.49993  0.57678  1.0000
  C   C223      1.0  0.25556  0.47651  0.61474  1.0000
  C  Sn86      1.0  0.23940  0.44806  0.71926  1.0000
  C  Sn87      1.0  0.25943  0.44292  0.78736  1.0000
  C   C224      1.0  0.29522  0.46633  0.74942  1.0000
  C  Sn88      1.0  0.31141  0.49479  0.64488  1.0000
  O  Te85      1.0  0.30699  0.52820  0.47201  1.0000
  O  Te86      1.0  0.20356  0.42499  0.75535  1.0000
  O  Te87      1.0  0.24379  0.41462  0.89219  1.0000
  O  Te88      1.0  0.34722  0.51785  0.60880  1.0000
  Mg  Mg43      1.0  0.19420  0.39040  0.90455  1.0000
  Mg  Mg44      1.0  0.35660  0.55245  0.45970  1.0000
  C  Sn89      1.0  0.42963  0.52567  0.29304  1.0000
  C   C225      1.0  0.40534  0.50718  0.22074  1.0000
  C  Sn90      1.0  0.40617  0.48076  0.14207  1.0000
  C  Sn91      1.0  0.43179  0.47265  0.13562  1.0000
  C   C226      1.0  0.45606  0.49113  0.20791  1.0000
  C  Sn92      1.0  0.45526  0.51756  0.28658  1.0000
  O  Te89      1.0  0.42832  0.55198  0.37104  1.0000
  O  Te90      1.0  0.38162  0.46264  0.07064  1.0000
  O  Te91      1.0  0.43309  0.44632  0.05753  1.0000
  O  Te92      1.0  0.47978  0.53567  0.35801  1.0000
  Mg  Mg45      1.0  0.31075  0.40348  0.97854  1.0000
  Mg  Mg46      1.0  0.46737  0.56928  0.45020  1.0000
  C  Sn93      1.0  0.51043  0.44860  0.02715  1.0000
  C   C227      1.0  0.48782  0.46012  0.11468  1.0000
  C  Sn94      1.0  0.45718  0.44018  0.24500  1.0000
  C  Sn95      1.0  0.44898  0.40807  0.28882  1.0000
  C   C228      1.0  0.47159  0.39657  0.20134  1.0000
  C  Sn96      1.0  0.50223  0.41649  0.07098  1.0000
  O  Te93      1.0  0.45763  0.44342  0.89732  1.0000
  O  Te94      1.0  0.43497  0.45223  0.33065  1.0000
  O  Te95      1.0  0.41846  0.38771  0.41878  1.0000
  O  Te96      1.0  0.44114  0.37892  0.98538  1.0000
  Mg  Mg47      1.0  0.39653  0.41520  0.49821  1.0000
  Mg  Mg48      1.0  0.47959  0.41593  0.81785  1.0000
