data_image0
_chemical_formula_structural       C10N6H2C8H4N2C8H4C7H2C2H2CH2OHCOHOHC13H4C6H5C4OH10C10N6H2C8H4N2C8H4C13H6C6H6C3H2OHCOHOHC13H5C7H5C9OH13SnCSn2CSnTe4Mg2SnCSn2CSnTe4Mg2SnCSn2CSnTe4Mg2SnCSn2CSnTe4Mg2SnCSn2CSnTe4Mg2SnCSn2CSnTe4Mg2SnCSn2CSnTe4Mg2
_chemical_formula_sum              "C152 N16 H88 O8 Sn28 Te28 Mg14"
_cell_length_a       25.3335
_cell_length_b       25.3343
_cell_length_c       11.3462
_cell_angle_alpha    50.5566
_cell_angle_beta     93.0313
_cell_angle_gamma    109.111

_symmetry_space_group_name_H-M    'P1'
_space_group_IT_number       1

loop_
  _space_group_symop_operation_xyz
  'x, y, z'

loop_
  _atom_site_type_symbol
  _atom_site_label
  _atom_site_symmetry_multiplicity
  _atom_site_fract_x
  _atom_site_fract_y
  _atom_site_fract_z
  _atom_site_occupancy
  C   C1        1.0  0.08536  0.09560  0.24472  1.0000
  C   C2        1.0  0.99329  0.02164  0.19803  1.0000
  C   C3        1.0  0.04305  0.00878  0.20719  1.0000
  C   C4        1.0  0.03516  0.10747  0.23789  1.0000
  C   C5        1.0  0.54818  0.46301  0.20369  1.0000
  C   C6        1.0  0.93355  0.08186  0.18883  1.0000
  C   C7        1.0  0.54011  0.66383  0.27773  1.0000
  C   C8        1.0  0.14890  0.04624  0.22898  1.0000
  C   C9        1.0  0.09202  0.04786  0.22627  1.0000
  C   C10       1.0  0.98771  0.07221  0.20823  1.0000
  N   N1        1.0  0.49934  0.68818  0.24806  1.0000
  N   N2        1.0  0.16564  0.00485  0.22245  1.0000
  N   N3        1.0  0.58674  0.43448  0.24818  1.0000
  N   N4        1.0  0.92433  0.13574  0.16057  1.0000
  N   N5        1.0  0.49004  0.10847  0.25144  1.0000
  N   N6        1.0  0.59710  0.01669  0.23505  1.0000
  H   H1        1.0  0.51382  0.08035  0.26290  1.0000
  H   H2        1.0  0.57183  0.03558  0.25488  1.0000
  C   C11       1.0  0.43310  0.09089  0.24176  1.0000
  C   C12       1.0  0.57853  0.96399  0.21998  1.0000
  C   C13       1.0  0.65591  0.04433  0.21038  1.0000
  C   C14       1.0  0.51026  0.17003  0.23839  1.0000
  C   C15       1.0  0.41777  0.14763  0.21118  1.0000
  C   C16       1.0  0.62866  0.95994  0.17858  1.0000
  C   C17       1.0  0.67560  0.00815  0.17443  1.0000
  C   C18       1.0  0.46350  0.19333  0.21620  1.0000
  H   H3        1.0  0.37713  0.15312  0.18816  1.0000
  H   H4        1.0  0.62827  0.92528  0.15311  1.0000
  H   H5        1.0  0.72001  0.01882  0.14684  1.0000
  H   H6        1.0  0.46483  0.23935  0.20508  1.0000
  N   N7        1.0  0.47312  0.98905  0.25444  1.0000
  N   N8        1.0  0.61298  0.13260  0.24375  1.0000
  C   C19       1.0  0.41676  0.97488  0.29209  1.0000
  C   C20       1.0  0.47279  0.92925  0.27528  1.0000
  C   C21       1.0  0.66900  0.13911  0.23377  1.0000
  C   C22       1.0  0.61299  0.18486  0.25054  1.0000
  C   C23       1.0  0.38011  0.90170  0.34930  1.0000
  C   C24       1.0  0.41500  0.87397  0.33551  1.0000
  C   C25       1.0  0.70521  0.19559  0.23820  1.0000
  C   C26       1.0  0.67047  0.22474  0.24686  1.0000
  H   H7        1.0  0.33456  0.87464  0.39726  1.0000
  H   H8        1.0  0.40324  0.82076  0.36674  1.0000
  H   H9        1.0  0.75081  0.21126  0.23286  1.0000
  H   H10       1.0  0.68245  0.26907  0.24922  1.0000
  C   C27       1.0  0.39667  0.02597  0.27118  1.0000
  C   C28       1.0  0.52136  0.91994  0.24764  1.0000
  C   C29       1.0  0.68985  0.09871  0.21653  1.0000
  C   C30       1.0  0.56562  0.20361  0.24602  1.0000
  C   C31       1.0  0.51316  0.85754  0.25388  1.0000
  C   C32       1.0  0.53993  0.80769  0.35183  1.0000
  C   C33       1.0  0.47973  0.84667  0.16253  1.0000
  H   H11       1.0  0.56342  0.81345  0.42853  1.0000
  H   H12       1.0  0.45919  0.88504  0.08502  1.0000
  C   C34       1.0  0.53587  0.75127  0.35336  1.0000
  C   C35       1.0  0.47457  0.78915  0.16631  1.0000
  H   H13       1.0  0.55633  0.71311  0.43138  1.0000
  H   H14       1.0  0.44976  0.78159  0.09342  1.0000
  C   C36       1.0  0.50383  0.74183  0.25815  1.0000
  H   H15       1.0  0.12133  0.12514  0.26441  1.0000
  H   H16       1.0  0.51254  0.44595  0.16045  1.0000
  O   O1        1.0  0.04088  0.95986  0.18585  1.0000
  H   H17       1.0  0.89900  0.03792  0.20033  1.0000
  C   C37       1.0  0.04979  0.89564  0.30599  1.0000
  O   O2        1.0  0.06639  0.88439  0.41950  1.0000
  H   H18       1.0  0.57844  0.68438  0.30913  1.0000
  O   O3        1.0  0.03954  0.16241  0.24128  1.0000
  H   H19       1.0  0.17857  0.08548  0.23900  1.0000
  C   C38       1.0  0.22164  0.62506  0.36788  1.0000
  C   C39       1.0  0.21219  0.58171  0.32619  1.0000
  C   C40       1.0  0.16308  0.56889  0.27118  1.0000
  C   C41       1.0  0.12366  0.59906  0.25866  1.0000
  C   C42       1.0  0.13225  0.64227  0.30164  1.0000
  C   C43       1.0  0.18233  0.65504  0.35571  1.0000
  C   C44       1.0  0.08991  0.67269  0.28640  1.0000
  C   C45       1.0  0.09072  0.71211  0.32932  1.0000
  C   C46       1.0  0.99920  0.73369  0.25695  1.0000
  C   C47       1.0  0.05099  0.74735  0.30420  1.0000
  C   C48       1.0  0.98434  0.83221  0.22204  1.0000
  C   C49       1.0  0.03375  0.84326  0.27843  1.0000
  C   C50       1.0  0.06611  0.80033  0.32172  1.0000
  H   H20       1.0  0.25995  0.63590  0.40960  1.0000
  H   H21       1.0  0.24309  0.55847  0.33605  1.0000
  H   H22       1.0  0.15553  0.53583  0.23721  1.0000
  H   H23       1.0  0.10444  0.81000  0.36486  1.0000
  C   C51       1.0  0.96187  0.40230  0.27663  1.0000
  C   C52       1.0  0.05410  0.36913  0.20954  1.0000
  C   C53       1.0  0.99516  0.32570  0.25515  1.0000
  C   C54       1.0  0.09468  0.34413  0.20479  1.0000
  C   C55       1.0  0.07765  0.27596  0.24228  1.0000
  C   C56       1.0  0.01920  0.23230  0.28546  1.0000
  H   H24       1.0  0.13991  0.37816  0.17138  1.0000
  H   H25       1.0  0.10910  0.25593  0.23981  1.0000
  H   H26       1.0  0.00553  0.42945  0.27569  1.0000
  H   H27       1.0  0.05577  0.66291  0.23200  1.0000
  H   H28       1.0  0.12549  0.72263  0.38154  1.0000
  C   C57       1.0  0.99988  0.15898  0.32844  1.0000
  C   C58       1.0  0.97852  0.25739  0.29108  1.0000
  C   C59       1.0  0.95168  0.34854  0.26949  1.0000
  C   C60       1.0  0.96642  0.77539  0.21715  1.0000
  O   O4        1.0  0.95808  0.10440  0.42474  1.0000
  H   H29       1.0  0.96002  0.86673  0.18581  1.0000
  H   H30       1.0  0.92700  0.76445  0.17944  1.0000
  H   H31       1.0  0.98467  0.69051  0.24983  1.0000
  H   H32       1.0  0.81616  0.50884  0.30619  1.0000
  H   H33       1.0  0.90807  0.31745  0.27926  1.0000
  H   H34       1.0  0.93345  0.22288  0.32449  1.0000
  H   H35       1.0  0.06833  0.42300  0.17738  1.0000
  H   H36       1.0  0.08562  0.58921  0.21481  1.0000
  H   H37       1.0  0.19062  0.68863  0.38852  1.0000
  H   H38       1.0  0.95754  0.99229  0.17766  1.0000
  C   C61       1.0  0.08489  0.09331  0.77786  1.0000
  C   C62       1.0  0.99198  0.01699  0.73745  1.0000
  C   C63       1.0  0.04303  0.00824  0.73494  1.0000
  C   C64       1.0  0.03375  0.10136  0.78219  1.0000
  C   C65       1.0  0.55449  0.46875  0.70500  1.0000
  C   C66       1.0  0.92984  0.06974  0.74891  1.0000
  C   C67       1.0  0.54321  0.66942  0.77678  1.0000
  C   C68       1.0  0.14953  0.04907  0.74542  1.0000
  C   C69       1.0  0.09213  0.04820  0.75162  1.0000
  C   C70       1.0  0.98534  0.06380  0.75869  1.0000
  N   N9        1.0  0.50129  0.69170  0.74957  1.0000
  N   N10       1.0  0.16682  0.01295  0.72211  1.0000
  N   N11       1.0  0.59537  0.44429  0.73729  1.0000
  N   N12       1.0  0.91572  0.10971  0.76543  1.0000
  N   N13       1.0  0.49019  0.11001  0.76460  1.0000
  N   N14       1.0  0.59788  0.02559  0.71563  1.0000
  H   H39       1.0  0.51455  0.08622  0.75917  1.0000
  H   H40       1.0  0.57302  0.04609  0.73160  1.0000
  C   C71       1.0  0.43231  0.09058  0.76547  1.0000
  C   C72       1.0  0.57771  0.96749  0.71697  1.0000
  C   C73       1.0  0.65665  0.04995  0.69838  1.0000
  C   C74       1.0  0.51030  0.16717  0.76628  1.0000
  C   C75       1.0  0.41539  0.13945  0.76502  1.0000
  C   C76       1.0  0.62680  0.95659  0.69307  1.0000
  C   C77       1.0  0.67432  0.00486  0.68681  1.0000
  C   C78       1.0  0.46187  0.18322  0.77286  1.0000
  H   H41       1.0  0.37327  0.14127  0.75939  1.0000
  H   H42       1.0  0.62550  0.91658  0.68282  1.0000
  H   H43       1.0  0.71773  0.00879  0.67493  1.0000
  H   H44       1.0  0.46278  0.22362  0.78123  1.0000
  N   N15       1.0  0.47342  0.99535  0.74926  1.0000
  N   N16       1.0  0.61454  0.13785  0.73833  1.0000
  C   C79       1.0  0.41716  0.98342  0.78100  1.0000
  C   C80       1.0  0.47209  0.93589  0.76674  1.0000
  C   C81       1.0  0.67092  0.15152  0.70142  1.0000
  C   C82       1.0  0.61564  0.19444  0.73150  1.0000
  C   C83       1.0  0.37931  0.91302  0.82673  1.0000
  C   C84       1.0  0.41357  0.88358  0.81723  1.0000
  C   C85       1.0  0.70857  0.21977  0.66487  1.0000
  C   C86       1.0  0.67413  0.24639  0.68414  1.0000
  H   H45       1.0  0.33327  0.88862  0.86570  1.0000
  H   H46       1.0  0.40066  0.83103  0.84489  1.0000
  H   H47       1.0  0.75452  0.24513  0.62356  1.0000
  H   H48       1.0  0.68668  0.29748  0.66247  1.0000
  C   C87       1.0  0.39706  0.03133  0.77422  1.0000
  C   C88       1.0  0.52016  0.92410  0.74500  1.0000
  C   C89       1.0  0.69149  0.10803  0.69329  1.0000
  C   C90       1.0  0.56747  0.20648  0.75219  1.0000
  C   C91       1.0  0.33589  0.01985  0.77379  1.0000
  C   C92       1.0  0.75276  0.11970  0.69159  1.0000
  C   C93       1.0  0.57714  0.26988  0.74420  1.0000
  C   C94       1.0  0.30728  0.00419  0.68304  1.0000
  C   C95       1.0  0.78688  0.12324  0.59072  1.0000
  C   C96       1.0  0.60852  0.27884  0.84064  1.0000
  C   C97       1.0  0.30353  0.02525  0.86050  1.0000
  C   C98       1.0  0.77773  0.12213  0.80314  1.0000
  C   C99       1.0  0.55513  0.32402  0.63625  1.0000
  H   H49       1.0  0.33024  0.99632  0.62051  1.0000
  H   H50       1.0  0.77039  0.12734  0.49579  1.0000
  H   H51       1.0  0.62568  0.23760  0.92558  1.0000
  H   H52       1.0  0.32209  0.03095  0.94194  1.0000
  H   H53       1.0  0.75258  0.12158  0.87884  1.0000
  H   H54       1.0  0.53402  0.32092  0.55386  1.0000
  C   C100      1.0  0.25119  0.99937  0.67127  1.0000
  C   C101      1.0  0.84084  0.12073  0.61193  1.0000
  C   C102      1.0  0.61616  0.33836  0.83195  1.0000
  C   C103      1.0  0.24827  0.02262  0.84596  1.0000
  C   C104      1.0  0.83240  0.12233  0.82158  1.0000
  C   C105      1.0  0.56079  0.38179  0.63119  1.0000
  H   H55       1.0  0.22956  0.98601  0.60304  1.0000
  H   H56       1.0  0.86622  0.12206  0.53496  1.0000
  H   H57       1.0  0.63970  0.34435  0.90833  1.0000
  H   H58       1.0  0.22462  0.02600  0.91662  1.0000
  H   H59       1.0  0.85082  0.12326  0.90937  1.0000
  H   H60       1.0  0.54348  0.42271  0.54650  1.0000
  C   C106      1.0  0.22165  0.01307  0.74490  1.0000
  C   C107      1.0  0.86340  0.11688  0.73274  1.0000
  C   C108      1.0  0.59051  0.38924  0.73136  1.0000
  H   H61       1.0  0.12117  0.12353  0.79529  1.0000
  H   H62       1.0  0.51623  0.44683  0.67551  1.0000
  O   O5        1.0  0.04200  0.96305  0.70328  1.0000
  H   H63       1.0  0.89961  0.03750  0.72293  1.0000
  C   C109      1.0  0.05253  0.89879  0.81401  1.0000
  O   O6        1.0  0.07091  0.88425  0.92799  1.0000
  H   H64       1.0  0.58119  0.69085  0.80784  1.0000
  O   O7        1.0  0.03233  0.14379  0.81983  1.0000
  H   H65       1.0  0.17936  0.08447  0.76479  1.0000
  C   C110      1.0  0.20893  0.61585  0.87133  1.0000
  C   C111      1.0  0.20010  0.57761  0.81721  1.0000
  C   C112      1.0  0.15424  0.57403  0.74497  1.0000
  C   C113      1.0  0.11776  0.60879  0.72656  1.0000
  C   C114      1.0  0.12604  0.64760  0.78031  1.0000
  C   C115      1.0  0.17247  0.65025  0.85346  1.0000
  C   C116      1.0  0.08690  0.68317  0.75855  1.0000
  C   C117      1.0  0.08885  0.72066  0.80708  1.0000
  C   C118      1.0  0.99937  0.74773  0.73379  1.0000
  C   C119      1.0  0.05101  0.75780  0.78423  1.0000
  C   C120      1.0  0.98630  0.84278  0.71677  1.0000
  C   C121      1.0  0.03575  0.85050  0.77537  1.0000
  C   C122      1.0  0.06729  0.80766  0.81055  1.0000
  H   H66       1.0  0.24452  0.61934  0.92735  1.0000
  H   H67       1.0  0.22892  0.55122  0.83063  1.0000
  H   H68       1.0  0.14718  0.54501  0.70132  1.0000
  H   H69       1.0  0.98254  0.54782  0.64471  1.0000
  H   H70       1.0  0.10574  0.81464  0.85534  1.0000
  C   C123      1.0  0.93742  0.52476  0.64801  1.0000
  C   C124      1.0  0.95290  0.41616  0.72635  1.0000
  C   C125      1.0  0.02669  0.32755  0.85520  1.0000
  C   C126      1.0  0.98707  0.32550  0.76433  1.0000
  C   C127      1.0  0.06445  0.29183  0.89660  1.0000
  C   C128      1.0  0.06257  0.25052  0.85369  1.0000
  C   C129      1.0  0.02376  0.24790  0.76315  1.0000
  H   H71       1.0  0.09439  0.29379  0.96717  1.0000
  H   H72       1.0  0.09074  0.22064  0.88923  1.0000
  H   H73       1.0  0.99143  0.43527  0.75774  1.0000
  H   H74       1.0  0.05425  0.67854  0.69562  1.0000
  H   H75       1.0  0.12287  0.72671  0.86563  1.0000
  C   C130      1.0  0.02536  0.21034  0.70410  1.0000
  C   C131      1.0  0.98667  0.28552  0.71771  1.0000
  C   C132      1.0  0.94686  0.36282  0.72041  1.0000
  C   C133      1.0  0.91469  0.45482  0.68954  1.0000
  C   C134      1.0  0.85614  0.42581  0.69419  1.0000
  C   C135      1.0  0.82190  0.46573  0.65668  1.0000
  C   C136      1.0  0.84542  0.53562  0.61292  1.0000
  C   C137      1.0  0.90336  0.56509  0.60864  1.0000
  C   C138      1.0  0.96763  0.78962  0.70096  1.0000
  O   O8        1.0  0.02373  0.23417  0.57236  1.0000
  H   H76       1.0  0.96241  0.87686  0.68779  1.0000
  H   H77       1.0  0.92830  0.78177  0.66052  1.0000
  H   H78       1.0  0.98457  0.70760  0.71782  1.0000
  H   H79       1.0  0.92211  0.61944  0.57432  1.0000
  H   H80       1.0  0.81851  0.56648  0.58382  1.0000
  H   H81       1.0  0.77664  0.44224  0.66237  1.0000
  H   H82       1.0  0.83735  0.37137  0.72892  1.0000
  H   H83       1.0  0.91072  0.34718  0.67747  1.0000
  H   H84       1.0  0.95711  0.28350  0.64622  1.0000
  H   H85       1.0  0.02665  0.35602  0.89708  1.0000
  H   H86       1.0  0.08241  0.60605  0.66904  1.0000
  H   H87       1.0  0.18023  0.67939  0.89692  1.0000
  H   H88       1.0  0.95601  0.98736  0.71808  1.0000
  C  Sn1       1.0  0.50917  0.56998  0.64524  1.0000
  C   C139      1.0  0.55246  0.54316  0.67068  1.0000
  C  Sn2       1.0  0.59186  0.54856  0.75698  1.0000
  C  Sn3       1.0  0.58790  0.58142  0.81923  1.0000
  C   C140      1.0  0.54463  0.60821  0.79381  1.0000
  C  Sn4       1.0  0.50521  0.60284  0.70750  1.0000
  O  Te1       1.0  0.47025  0.56399  0.55863  1.0000
  O  Te2       1.0  0.63478  0.52137  0.78081  1.0000
  O  Te3       1.0  0.62688  0.58740  0.90589  1.0000
  O  Te4       1.0  0.46231  0.63000  0.68368  1.0000
  Mg  Mg1       1.0  0.67770  0.54222  0.90670  1.0000
  Mg  Mg2       1.0  0.41935  0.60914  0.55788  1.0000
  C  Sn5       1.0  0.13404  0.82523  0.69050  1.0000
  C   C141      1.0  0.16436  0.84439  0.77278  1.0000
  C  Sn6       1.0  0.20538  0.81538  0.84716  1.0000
  C  Sn7       1.0  0.21635  0.76622  0.83906  1.0000
  C   C142      1.0  0.51346  0.74709  0.75680  1.0000
  C  Sn8       1.0  0.47243  0.77607  0.68240  1.0000
  O  Te5       1.0  0.09323  0.85490  0.61702  1.0000
  O  Te6       1.0  0.23513  0.83534  0.92876  1.0000
  O  Te7       1.0  0.25720  0.73656  0.91263  1.0000
  O  Te8       1.0  0.44270  0.75615  0.60082  1.0000
  Mg  Mg3       1.0  0.36442  0.09040  0.00947  1.0000
  Mg  Mg4       1.0  0.39123  0.81109  0.52000  1.0000
  C  Sn9       1.0  0.80949  0.04695  0.28930  1.0000
  C   C143      1.0  0.85680  0.11066  0.17613  1.0000
  C  Sn10      1.0  0.85267  0.17984  0.07939  1.0000
  C  Sn11      1.0  0.80016  0.18548  0.09616  1.0000
  C   C144      1.0  0.75289  0.12180  0.20928  1.0000
  C  Sn12      1.0  0.75699  0.05258  0.30607  1.0000
  O  Te9       1.0  0.81460  0.97836  0.38474  1.0000
  O  Te10      1.0  0.82273  0.93273  0.96706  1.0000
  O  Te11      1.0  0.79509  0.25414  0.00059  1.0000
  O  Te12      1.0  0.70915  0.98971  0.41835  1.0000
  Mg  Mg5       1.0  0.79450  0.01377  0.86485  1.0000
  Mg  Mg6       1.0  0.73734  0.90866  0.52067  1.0000
  C  Sn13      1.0  0.57483  0.35176  0.08498  1.0000
  C   C145      1.0  0.58876  0.29006  0.19345  1.0000
  C  Sn14      1.0  0.59604  0.26897  0.33877  1.0000
  C  Sn15      1.0  0.58923  0.31039  0.37653  1.0000
  C   C146      1.0  0.57531  0.37204  0.26811  1.0000
  C  Sn16      1.0  0.56803  0.39317  0.12274  1.0000
  O  Te13      1.0  0.48994  0.06182  0.94041  1.0000
  O  Te14      1.0  0.60997  0.20710  0.44527  1.0000
  O  Te15      1.0  0.59632  0.29026  0.52124  1.0000
  O  Te16      1.0  0.55409  0.45500  0.01629  1.0000
  Mg  Mg7       1.0  0.61515  0.20173  0.62712  1.0000
  Mg  Mg8       1.0  0.47106  0.15038  0.83445  1.0000
  C  Sn17      1.0  0.92865  0.47210  0.35939  1.0000
  C   C147      1.0  0.91806  0.42300  0.33309  1.0000
  C  Sn18      1.0  0.87030  0.40936  0.27488  1.0000
  C  Sn19      1.0  0.83234  0.44558  0.24218  1.0000
  C   C148      1.0  0.84295  0.49465  0.26845  1.0000
  C  Sn20      1.0  0.89069  0.50832  0.32669  1.0000
  O  Te17      1.0  0.97666  0.48491  0.41763  1.0000
  O  Te18      1.0  0.86060  0.36002  0.24959  1.0000
  O  Te19      1.0  0.78431  0.43273  0.18390  1.0000
  O  Te20      1.0  0.90041  0.55763  0.35196  1.0000
  Mg  Mg9       1.0  0.78939  0.36081  0.16881  1.0000
  Mg  Mg10      1.0  0.97161  0.55691  0.43265  1.0000
  C  Sn21      1.0  0.96823  0.00058  0.16269  1.0000
  C   C149      1.0  0.00514  0.02565  0.22761  1.0000
  C  Sn22      1.0  0.98373  0.03223  0.32681  1.0000
  C  Sn23      1.0  0.92419  0.01332  0.36194  1.0000
  C   C150      1.0  0.88732  0.98826  0.29706  1.0000
  C  Sn24      1.0  0.90869  0.98166  0.19782  1.0000
  O  Te21      1.0  0.99058  0.99442  0.06383  1.0000
  O  Te22      1.0  0.02147  0.05745  0.39027  1.0000
  O  Te23      1.0  0.90186  0.01950  0.46089  1.0000
  O  Te24      1.0  0.19840  0.95645  0.13441  1.0000
  Mg  Mg11      1.0  0.97046  0.05641  0.51864  1.0000
  Mg  Mg12      1.0  0.24935  0.95743  0.00610  1.0000
  C  Sn25      1.0  0.48500  0.55724  0.24499  1.0000
  C   C151      1.0  0.52448  0.58881  0.29492  1.0000
  C  Sn26      1.0  0.57970  0.58914  0.29404  1.0000
  C  Sn27      1.0  0.59582  0.55728  0.24207  1.0000
  C   C152      1.0  0.55636  0.52574  0.19216  1.0000
  C  Sn28      1.0  0.50112  0.52538  0.19302  1.0000
  O  Te25      1.0  0.43003  0.55753  0.24686  1.0000
  O  Te26      1.0  0.61842  0.62100  0.34455  1.0000
  O  Te27      1.0  0.65085  0.55700  0.24025  1.0000
  O  Te28      1.0  0.46243  0.49355  0.14252  1.0000
  Mg  Mg13      1.0  0.68832  0.60711  0.32018  1.0000
  Mg  Mg14      1.0  0.39253  0.50745  0.16677  1.0000
