data_image0
_chemical_formula_structural       C10N6C8H4N2C8H4C4H2OHCOHOHCON2C6H4N2C6H9C10N6C8H4N2C8H4C4H2OHCOHOHCON2C6H4N2C6H9SnCSn2CSnTe4Mg2SnCSn2CSnTe4Mg2SnCSn2CSnTe4Mg2SnCSn2CSnTe4Mg2SnCSn2CSnTe4Mg2SnCSn2CSnTe4Mg2SnCSn2CSnTe4Mg2SnCSn2CSnTe4Mg2SnCSn2CSnTe4Mg2SnCSn2CSnTe4Mg2SnCSn2CSnTe4Mg2SnCSn2CSnTe4Mg2SnCSn2CSnTe4Mg2SnCSn2CSnTe4Mg2
_chemical_formula_sum              "C116 N24 H52 O8 Sn56 Te56 Mg28"
_cell_length_a       25.6921
_cell_length_b       25.4865
_cell_length_c       8.31905
_cell_angle_alpha    84.8383
_cell_angle_beta     68.0266
_cell_angle_gamma    95.2678

_symmetry_space_group_name_H-M    'P1'
_space_group_IT_number       1

loop_
  _space_group_symop_operation_xyz
  'x, y, z'

loop_
  _atom_site_type_symbol
  _atom_site_label
  _atom_site_symmetry_multiplicity
  _atom_site_fract_x
  _atom_site_fract_y
  _atom_site_fract_z
  _atom_site_occupancy
  C   C1        1.0  0.07722  0.09508  0.22935  1.0000
  C   C2        1.0  0.98910  0.01504  0.28774  1.0000
  C   C3        1.0  0.03615  0.00375  0.31973  1.0000
  C   C4        1.0  0.03045  0.10634  0.19557  1.0000
  C   C5        1.0  0.52900  0.44180  0.31296  1.0000
  C   C6        1.0  0.93340  0.07740  0.19734  1.0000
  C   C7        1.0  0.53624  0.66800  0.21602  1.0000
  C   C8        1.0  0.13277  0.03326  0.32185  1.0000
  C   C9        1.0  0.08166  0.04338  0.29361  1.0000
  C   C10       1.0  0.98458  0.06687  0.22423  1.0000
  N   N1        1.0  0.49400  0.69221  0.29985  1.0000
  N   N2        1.0  0.17338  0.07221  0.28204  1.0000
  N   N3        1.0  0.57121  0.41757  0.22896  1.0000
  N   N4        1.0  0.89245  0.03867  0.23888  1.0000
  N   N5        1.0  0.48147  0.11511  0.25904  1.0000
  N   N6        1.0  0.58404  0.99496  0.26488  1.0000
  C   C11       1.0  0.42673  0.10727  0.26538  1.0000
  C   C12       1.0  0.56811  0.94225  0.25734  1.0000
  C   C13       1.0  0.63899  0.00288  0.25666  1.0000
  C   C14       1.0  0.49741  0.16784  0.26651  1.0000
  C   C15       1.0  0.40707  0.15817  0.27882  1.0000
  C   C16       1.0  0.61580  0.91540  0.24405  1.0000
  C   C17       1.0  0.65886  0.95208  0.24128  1.0000
  C   C18       1.0  0.44997  0.19480  0.27728  1.0000
  H   H1        1.0  0.36492  0.16537  0.29266  1.0000
  H   H2        1.0  0.61701  0.87350  0.23446  1.0000
  H   H3        1.0  0.70117  0.94496  0.22593  1.0000
  H   H4        1.0  0.44857  0.23669  0.28664  1.0000
  N   N7        1.0  0.46801  0.00017  0.27101  1.0000
  N   N8        1.0  0.59745  0.10992  0.25318  1.0000
  C   C19       1.0  0.41745  0.00895  0.25956  1.0000
  C   C20       1.0  0.47046  0.94682  0.26140  1.0000
  C   C21       1.0  0.64791  0.10107  0.26519  1.0000
  C   C22       1.0  0.59472  0.16312  0.26523  1.0000
  C   C23       1.0  0.38808  0.96028  0.23612  1.0000
  C   C24       1.0  0.42072  0.92149  0.23994  1.0000
  C   C25       1.0  0.67692  0.14951  0.29162  1.0000
  C   C26       1.0  0.64408  0.18823  0.28935  1.0000
  H   H5        1.0  0.34920  0.95699  0.21329  1.0000
  H   H6        1.0  0.41297  0.88011  0.22536  1.0000
  H   H7        1.0  0.71562  0.15272  0.31551  1.0000
  H   H8        1.0  0.65135  0.22940  0.30701  1.0000
  C   C27       1.0  0.39587  0.05828  0.26558  1.0000
  C   C28       1.0  0.51561  0.91906  0.26083  1.0000
  C   C29       1.0  0.66968  0.05184  0.25753  1.0000
  C   C30       1.0  0.54963  0.19092  0.26530  1.0000
  H   H9        1.0  0.11247  0.12597  0.20382  1.0000
  H   H10       1.0  0.48773  0.42024  0.40260  1.0000
  O   O1        1.0  0.03448  0.95073  0.38898  1.0000
  H   H11       1.0  0.93110  0.11815  0.14873  1.0000
  C   C31       1.0  0.07046  0.91955  0.28444  1.0000
  O   O2        1.0  0.10879  0.93657  0.14415  1.0000
  H   H12       1.0  0.95414  0.98397  0.31165  1.0000
  O   O3        1.0  0.03377  0.15841  0.11639  1.0000
  H   H13       1.0  0.13545  0.99269  0.37070  1.0000
  C   C32       1.0  0.00306  0.19429  0.21329  1.0000
  O   O4        1.0  0.96518  0.18221  0.35763  1.0000
  N   N9        1.0  0.09721  0.69010  0.27221  1.0000
  N   N10       1.0  0.11368  0.73994  0.22882  1.0000
  C   C33       1.0  0.02873  0.75370  0.48748  1.0000
  C   C34       1.0  0.07648  0.77235  0.33318  1.0000
  C   C35       1.0  0.99533  0.78976  0.57868  1.0000
  C   C36       1.0  0.00834  0.84425  0.51686  1.0000
  C   C37       1.0  0.05573  0.86286  0.36269  1.0000
  C   C38       1.0  0.09001  0.82683  0.27237  1.0000
  H   H14       1.0  0.22796  0.56137  0.89102  1.0000
  H   H15       1.0  0.95898  0.77567  0.69966  1.0000
  H   H16       1.0  0.98210  0.87233  0.58763  1.0000
  H   H17       1.0  0.12665  0.84107  0.15245  1.0000
  N   N11       1.0  0.01287  0.42926  0.16168  1.0000
  N   N12       1.0  0.98485  0.38270  0.20741  1.0000
  C   C39       1.0  0.06389  0.35467  0.96317  1.0000
  C   C40       1.0  0.01564  0.34330  0.12024  1.0000
  C   C41       1.0  0.09136  0.31345  0.88543  1.0000
  C   C42       1.0  0.07174  0.26072  0.96367  1.0000
  C   C43       1.0  0.02353  0.24920  0.11997  1.0000
  C   C44       1.0  0.99506  0.29050  0.19699  1.0000
  H   H18       1.0  0.90903  0.59051  0.42200  1.0000
  H   H19       1.0  0.12787  0.32205  0.76198  1.0000
  H   H20       1.0  0.09329  0.22843  0.90420  1.0000
  H   H21       1.0  0.95798  0.28171  0.31890  1.0000
  H   H22       1.0  0.01945  0.71128  0.53376  1.0000
  H   H23       1.0  0.07808  0.39590  0.90411  1.0000
  H   H24       1.0  0.50628  0.08551  0.25130  1.0000
  H   H25       1.0  0.55911  0.02450  0.27389  1.0000
  H   H26       1.0  0.57758  0.68962  0.12705  1.0000
  C   C45       1.0  0.08017  0.09605  0.72341  1.0000
  C   C46       1.0  0.99219  0.01561  0.78305  1.0000
  C   C47       1.0  0.03915  0.00475  0.81626  1.0000
  C   C48       1.0  0.03347  0.10682  0.68858  1.0000
  C   C49       1.0  0.54352  0.44689  0.82823  1.0000
  C   C50       1.0  0.93675  0.07742  0.68909  1.0000
  C   C51       1.0  0.52391  0.66716  0.69455  1.0000
  C   C52       1.0  0.13575  0.03460  0.81763  1.0000
  C   C53       1.0  0.08465  0.04454  0.78922  1.0000
  C   C54       1.0  0.98771  0.06717  0.71760  1.0000
  N   N13       1.0  0.49823  0.69422  0.81845  1.0000
  N   N14       1.0  0.17601  0.07377  0.78005  1.0000
  N   N15       1.0  0.56910  0.41980  0.70424  1.0000
  N   N16       1.0  0.89491  0.03924  0.73731  1.0000
  N   N17       1.0  0.48359  0.11717  0.76277  1.0000
  N   N18       1.0  0.58655  0.99695  0.76161  1.0000
  C   C55       1.0  0.42886  0.10914  0.76903  1.0000
  C   C56       1.0  0.57066  0.94412  0.75467  1.0000
  C   C57       1.0  0.64115  0.00486  0.75659  1.0000
  C   C58       1.0  0.49923  0.16987  0.77173  1.0000
  C   C59       1.0  0.40879  0.15980  0.78450  1.0000
  C   C60       1.0  0.61806  0.91729  0.74566  1.0000
  C   C61       1.0  0.66081  0.95399  0.74446  1.0000
  C   C62       1.0  0.45146  0.19652  0.78388  1.0000
  H   H27       1.0  0.36665  0.16694  0.79807  1.0000
  H   H28       1.0  0.61962  0.87538  0.73765  1.0000
  H   H29       1.0  0.70281  0.94674  0.73216  1.0000
  H   H30       1.0  0.44969  0.23832  0.79398  1.0000
  N   N19       1.0  0.47067  0.00217  0.76881  1.0000
  N   N20       1.0  0.59971  0.11205  0.75372  1.0000
  C   C63       1.0  0.42008  0.01112  0.75768  1.0000
  C   C64       1.0  0.47333  0.94899  0.75626  1.0000
  C   C65       1.0  0.65045  0.10312  0.76370  1.0000
  C   C66       1.0  0.59712  0.16527  0.76585  1.0000
  C   C67       1.0  0.39097  0.96281  0.73125  1.0000
  C   C68       1.0  0.42380  0.92405  0.73277  1.0000
  C   C69       1.0  0.67991  0.15157  0.78801  1.0000
  C   C70       1.0  0.64705  0.19036  0.78688  1.0000
  H   H31       1.0  0.35217  0.95970  0.70799  1.0000
  H   H32       1.0  0.41616  0.88290  0.71567  1.0000
  H   H33       1.0  0.71897  0.15479  0.80977  1.0000
  H   H34       1.0  0.65481  0.23158  0.80312  1.0000
  C   C71       1.0  0.39831  0.06032  0.76626  1.0000
  C   C72       1.0  0.51839  0.92100  0.75566  1.0000
  C   C73       1.0  0.67201  0.05379  0.75682  1.0000
  C   C74       1.0  0.55171  0.19311  0.76894  1.0000
  H   H35       1.0  0.11521  0.12722  0.69754  1.0000
  H   H36       1.0  0.52300  0.42900  0.96615  1.0000
  O   O5        1.0  0.03696  0.95211  0.88964  1.0000
  H   H37       1.0  0.93556  0.11763  0.63312  1.0000
  C   C75       1.0  0.07053  0.91890  0.78730  1.0000
  O   O6        1.0  0.10872  0.93395  0.64500  1.0000
  H   H38       1.0  0.95733  0.98435  0.80776  1.0000
  O   O7        1.0  0.03631  0.15887  0.61045  1.0000
  H   H39       1.0  0.13871  0.99387  0.86427  1.0000
  C   C76       1.0  0.00385  0.19348  0.70934  1.0000
  O   O8        1.0  0.96574  0.17982  0.85244  1.0000
  N   N21       1.0  0.08194  0.68707  0.79101  1.0000
  N   N22       1.0  0.10492  0.73550  0.75351  1.0000
  C   C77       1.0  0.02171  0.75465  0.00609  1.0000
  C   C78       1.0  0.06992  0.77076  0.85099  1.0000
  C   C79       1.0  0.99006  0.79249  0.09247  1.0000
  C   C80       1.0  0.00534  0.84649  0.02505  1.0000
  C   C81       1.0  0.05348  0.86271  0.87078  1.0000
  C   C82       1.0  0.08610  0.82483  0.78538  1.0000
  H   H40       1.0  0.20416  0.54250  0.47619  1.0000
  H   H41       1.0  0.95335  0.78022  0.21388  1.0000
  H   H42       1.0  0.98030  0.87599  0.09135  1.0000
  H   H43       1.0  0.12324  0.83733  0.66534  1.0000
  N   N23       1.0  0.99968  0.42797  0.65706  1.0000
  N   N24       1.0  0.98053  0.37988  0.72683  1.0000
  C   C83       1.0  0.06021  0.35562  0.47341  1.0000
  C   C84       1.0  0.01227  0.34232  0.63083  1.0000
  C   C85       1.0  0.08863  0.31562  0.39035  1.0000
  C   C86       1.0  0.07032  0.26226  0.46301  1.0000
  C   C87       1.0  0.02283  0.24891  0.62040  1.0000
  C   C88       1.0  0.99371  0.28900  0.70370  1.0000
  H   H44       1.0  0.89890  0.58261  0.97844  1.0000
  H   H45       1.0  0.12515  0.32568  0.26741  1.0000
  H   H46       1.0  0.09266  0.23099  0.39879  1.0000
  H   H47       1.0  0.95736  0.27887  0.82700  1.0000
  H   H48       1.0  0.01051  0.71254  0.05654  1.0000
  H   H49       1.0  0.07368  0.39730  0.41892  1.0000
  H   H50       1.0  0.50874  0.08780  0.75355  1.0000
  H   H51       1.0  0.56169  0.02649  0.76902  1.0000
  H   H52       1.0  0.54506  0.68523  0.55698  1.0000
  C  Sn1       1.0  0.59084  0.54572  0.19818  1.0000
  C   C89       1.0  0.54555  0.50755  0.30502  1.0000
  C  Sn2       1.0  0.49049  0.52062  0.37069  1.0000
  C  Sn3       1.0  0.48048  0.57292  0.32862  1.0000
  C   C90       1.0  0.52576  0.61105  0.22182  1.0000
  C  Sn4       1.0  0.58084  0.59802  0.15611  1.0000
  O  Te1       1.0  0.64553  0.53177  0.13398  1.0000
  O  Te2       1.0  0.44589  0.48179  0.47730  1.0000
  O  Te3       1.0  0.42574  0.58684  0.39293  1.0000
  O  Te4       1.0  0.62542  0.63681  0.04954  1.0000
  Mg  Mg1       1.0  0.37893  0.52007  0.53288  1.0000
  Mg  Mg2       1.0  0.56750  0.55764  0.99381  1.0000
  C  Sn5       1.0  0.28117  0.01027  0.36086  1.0000
  C   C91       1.0  0.33036  0.04523  0.26155  1.0000
  C  Sn6       1.0  0.32692  0.09472  0.18190  1.0000
  C  Sn7       1.0  0.27319  0.10958  0.20201  1.0000
  C   C92       1.0  0.22404  0.07464  0.30129  1.0000
  C  Sn8       1.0  0.22744  0.02514  0.38097  1.0000
  O  Te5       1.0  0.37669  0.96101  0.43933  1.0000
  O  Te6       1.0  0.37669  0.12899  0.08320  1.0000
  O  Te7       1.0  0.26879  0.15890  0.12343  1.0000
  O  Te8       1.0  0.17771  0.99089  0.47964  1.0000
  Mg  Mg3       1.0  0.34868  0.19181  0.00189  1.0000
  Mg  Mg4       1.0  0.29674  0.92807  0.56107  1.0000
  C  Sn9       1.0  0.47077  0.81461  0.43744  1.0000
  C   C93       1.0  0.50902  0.85328  0.30633  1.0000
  C  Sn10      1.0  0.54096  0.83975  0.14239  1.0000
  C  Sn11      1.0  0.53450  0.78647  0.10874  1.0000
  C   C94       1.0  0.49627  0.74784  0.23978  1.0000
  C  Sn12      1.0  0.46432  0.76133  0.40379  1.0000
  O  Te9       1.0  0.43929  0.82904  0.60036  1.0000
  O  Te10      1.0  0.57894  0.87909  0.01340  1.0000
  O  Te11      1.0  0.44115  0.73114  0.94565  1.0000
  O  Te12      1.0  0.42635  0.72203  0.53271  1.0000
  Mg  Mg5       1.0  0.48738  0.79892  0.81227  1.0000
  Mg  Mg6       1.0  0.39299  0.76123  0.73385  1.0000
  C  Sn13      1.0  0.74817  0.01667  0.39766  1.0000
  C   C95       1.0  0.72962  0.05295  0.30162  1.0000
  C  Sn14      1.0  0.76830  0.08411  0.14962  1.0000
  C  Sn15      1.0  0.82674  0.07889  0.09233  1.0000
  C   C96       1.0  0.84526  0.04262  0.18832  1.0000
  C  Sn16      1.0  0.80661  0.01145  0.34037  1.0000
  O  Te13      1.0  0.70876  0.98593  0.54922  1.0000
  O  Te14      1.0  0.74875  0.12011  0.05583  1.0000
  O  Te15      1.0  0.74127  0.06875  0.94064  1.0000
  O  Te16      1.0  0.91721  0.97546  0.43411  1.0000
  Mg  Mg7       1.0  0.69396  0.11219  0.85763  1.0000
  Mg  Mg8       1.0  0.84715  0.94242  0.63227  1.0000
  C  Sn17      1.0  0.52779  0.31553  0.43184  1.0000
  C   C97       1.0  0.56775  0.35423  0.30535  1.0000
  C  Sn18      1.0  0.60108  0.34123  0.14203  1.0000
  C  Sn19      1.0  0.59431  0.28846  0.10431  1.0000
  C   C98       1.0  0.55436  0.24980  0.23075  1.0000
  C  Sn20      1.0  0.52102  0.26276  0.39412  1.0000
  O  Te17      1.0  0.49493  0.32942  0.59422  1.0000
  O  Te18      1.0  0.64076  0.38060  0.01770  1.0000
  O  Te19      1.0  0.50233  0.23367  0.94177  1.0000
  O  Te20      1.0  0.48135  0.22343  0.51840  1.0000
  Mg  Mg9       1.0  0.55064  0.30126  0.81545  1.0000
  Mg  Mg10      1.0  0.44654  0.26181  0.72065  1.0000
  C  Sn21      1.0  0.13997  0.59582  0.23974  1.0000
  C   C99       1.0  0.14287  0.65055  0.19590  1.0000
  C  Sn22      1.0  0.17332  0.67470  0.02403  1.0000
  C  Sn23      1.0  0.07655  0.60256  0.89321  1.0000
  C   C100      1.0  0.07363  0.54787  0.93707  1.0000
  C  Sn24      1.0  0.16808  0.56462  0.10892  1.0000
  O  Te21      1.0  0.10928  0.57252  0.41239  1.0000
  O  Te22      1.0  0.05074  0.68855  0.98337  1.0000
  O  Te23      1.0  0.10726  0.62591  0.72046  1.0000
  O  Te24      1.0  0.16576  0.50987  0.14960  1.0000
  Mg  Mg11      1.0  0.09789  0.70195  0.72965  1.0000
  Mg  Mg12      1.0  0.11860  0.49643  0.40324  1.0000
  C  Sn25      1.0  0.91199  0.46889  0.35747  1.0000
  C   C101      1.0  0.96636  0.46930  0.23110  1.0000
  C  Sn26      1.0  0.00620  0.51491  0.18375  1.0000
  C  Sn27      1.0  0.99141  0.56105  0.26447  1.0000
  C   C102      1.0  0.93707  0.56062  0.39078  1.0000
  C  Sn28      1.0  0.89719  0.51503  0.43819  1.0000
  O  Te25      1.0  0.87284  0.42285  0.40278  1.0000
  O  Te26      1.0  0.06029  0.51437  0.05704  1.0000
  O  Te27      1.0  0.03062  0.60710  0.21904  1.0000
  O  Te28      1.0  0.84314  0.51555  0.56484  1.0000
  Mg  Mg13      1.0  0.09887  0.58681  0.03958  1.0000
  Mg  Mg14      1.0  0.80454  0.44313  0.58247  1.0000
  C  Sn29      1.0  0.48483  0.53459  0.91184  1.0000
  C   C103      1.0  0.52146  0.50441  0.79966  1.0000
  C  Sn30      1.0  0.56700  0.52932  0.65017  1.0000
  C  Sn31      1.0  0.57615  0.58557  0.61206  1.0000
  C   C104      1.0  0.53953  0.61572  0.72422  1.0000
  C  Sn32      1.0  0.49397  0.59084  0.87373  1.0000
  O  Te29      1.0  0.56446  0.54976  0.06056  1.0000
  O  Te30      1.0  0.60304  0.49831  0.53996  1.0000
  O  Te31      1.0  0.62144  0.61130  0.46320  1.0000
  O  Te32      1.0  0.45795  0.62182  0.98392  1.0000
  Mg  Mg15      1.0  0.65883  0.55181  0.35327  1.0000
  Mg  Mg16      1.0  0.52706  0.60929  0.17068  1.0000
  C  Sn33      1.0  0.28891  0.09754  0.63065  1.0000
  C   C105      1.0  0.23883  0.06588  0.74287  1.0000
  C  Sn34      1.0  0.23766  0.03344  0.88908  1.0000
  C  Sn35      1.0  0.28759  0.03265  0.92393  1.0000
  C   C106      1.0  0.33763  0.06430  0.81178  1.0000
  C  Sn36      1.0  0.33883  0.09675  0.66550  1.0000
  O  Te33      1.0  0.28910  0.12967  0.48526  1.0000
  O  Te34      1.0  0.18710  0.00212  0.99934  1.0000
  O  Te35      1.0  0.41225  0.04140  0.06947  1.0000
  O  Te36      1.0  0.38936  0.12805  0.55531  1.0000
  Mg  Mg17      1.0  0.33305  0.00590  0.18091  1.0000
  Mg  Mg18      1.0  0.36833  0.16524  0.37376  1.0000
  C  Sn37      1.0  0.46922  0.81802  0.93349  1.0000
  C   C107      1.0  0.51008  0.85564  0.80517  1.0000
  C  Sn38      1.0  0.54616  0.84041  0.64913  1.0000
  C  Sn39      1.0  0.54128  0.78646  0.62068  1.0000
  C   C108      1.0  0.50044  0.74888  0.74893  1.0000
  C  Sn40      1.0  0.46435  0.76407  0.90504  1.0000
  O  Te37      1.0  0.55849  0.87507  0.08850  1.0000
  O  Te38      1.0  0.58668  0.87874  0.52280  1.0000
  O  Te39      1.0  0.57694  0.77036  0.46552  1.0000
  O  Te40      1.0  0.54872  0.76671  0.03130  1.0000
  Mg  Mg19      1.0  0.62541  0.83725  0.33296  1.0000
  Mg  Mg20      1.0  0.50995  0.80815  0.22115  1.0000
  C  Sn41      1.0  0.79271  0.08228  0.58414  1.0000
  C   C109      1.0  0.74291  0.04940  0.69199  1.0000
  C  Sn42      1.0  0.74124  0.01677  0.83851  1.0000
  C  Sn43      1.0  0.79036  0.01702  0.87814  1.0000
  C   C110      1.0  0.84012  0.04989  0.77035  1.0000
  C  Sn44      1.0  0.84183  0.08254  0.62377  1.0000
  O  Te41      1.0  0.79341  0.11458  0.43835  1.0000
  O  Te42      1.0  0.69097  0.98422  0.94434  1.0000
  O  Te43      1.0  0.91451  0.02561  0.02407  1.0000
  O  Te44      1.0  0.89206  0.11507  0.51799  1.0000
  Mg  Mg21      1.0  0.92707  0.98825  0.12841  1.0000
  Mg  Mg22      1.0  0.87196  0.15201  0.33395  1.0000
  C  Sn45      1.0  0.61799  0.29708  0.64786  1.0000
  C   C111      1.0  0.57664  0.25912  0.77325  1.0000
  C  Sn46      1.0  0.52488  0.27341  0.87974  1.0000
  C  Sn47      1.0  0.51421  0.32676  0.86044  1.0000
  C   C112      1.0  0.55553  0.36468  0.73509  1.0000
  C  Sn48      1.0  0.60731  0.35043  0.62855  1.0000
  O  Te45      1.0  0.66942  0.28190  0.54281  1.0000
  O  Te46      1.0  0.60910  0.27569  0.00422  1.0000
  O  Te47      1.0  0.46272  0.34191  0.96562  1.0000
  O  Te48      1.0  0.64796  0.38904  0.50411  1.0000
  Mg  Mg23      1.0  0.54557  0.31583  0.11635  1.0000
  Mg  Mg24      1.0  0.71148  0.34894  0.39186  1.0000
  C  Sn49      1.0  0.10961  0.56344  0.66522  1.0000
  C   C113      1.0  0.16354  0.57040  0.53167  1.0000
  C  Sn50      1.0  0.19766  0.61964  0.48703  1.0000
  C  Sn51      1.0  0.17746  0.66281  0.57783  1.0000
  C   C114      1.0  0.12357  0.65584  0.71131  1.0000
  C  Sn52      1.0  0.08942  0.60662  0.75602  1.0000
  O  Te49      1.0  0.07624  0.51387  0.70766  1.0000
  O  Te50      1.0  0.25142  0.62564  0.35301  1.0000
  O  Te51      1.0  0.21089  0.71241  0.53527  1.0000
  O  Te52      1.0  0.03569  0.60060  0.88997  1.0000
  Mg  Mg25      1.0  0.28107  0.70087  0.34313  1.0000
  Mg  Mg26      1.0  0.00602  0.52539  0.90001  1.0000
  C  Sn53      1.0  0.04068  0.52938  0.01333  1.0000
  C   C115      1.0  0.92611  0.54227  0.94529  1.0000
  C  Sn54      1.0  0.95585  0.55836  0.76625  1.0000
  C  Sn55      1.0  0.97566  0.51986  0.65281  1.0000
  C   C116      1.0  0.96534  0.46608  0.72085  1.0000
  C  Sn56      1.0  0.93562  0.44995  0.89990  1.0000
  O  Te53      1.0  0.01086  0.51420  0.19275  1.0000
  O  Te54      1.0  0.96565  0.61239  0.70129  1.0000
  O  Te55      1.0  0.00550  0.53508  0.47328  1.0000
  O  Te56      1.0  0.92580  0.39596  0.96485  1.0000
  Mg  Mg27      1.0  0.00826  0.61337  0.44724  1.0000
  Mg  Mg28      1.0  0.00805  0.43586  0.21885  1.0000
