data_image0
_chemical_formula_structural       C10N6C8H4N2C8H4C13H6C6H6C3H2OH5OH3C10N6C8H4N2C8H4C10H4C4H4C2H2OH5OH3SnCSn2CSnTe4Mg2SnCSn2CSnTe4Mg2SnCSn2CSnTe4Mg2SnCSn2CSnTe4Mg2SnCSn2CSnTe4Mg2
_chemical_formula_sum              "C100 N16 H56 O4 Sn20 Te20 Mg10"
_cell_length_a       25.5671
_cell_length_b       25.5817
_cell_length_c       9.79671
_cell_angle_alpha    67.059
_cell_angle_beta     110.62
_cell_angle_gamma    100.828

_symmetry_space_group_name_H-M    'P1'
_space_group_IT_number       1

loop_
  _space_group_symop_operation_xyz
  'x, y, z'

loop_
  _atom_site_type_symbol
  _atom_site_label
  _atom_site_symmetry_multiplicity
  _atom_site_fract_x
  _atom_site_fract_y
  _atom_site_fract_z
  _atom_site_occupancy
  C   C1        1.0  0.03753  0.04691  0.29119  1.0000
  C   C2        1.0  0.96076  0.96684  0.18594  1.0000
  C   C3        1.0  0.01612  0.96814  0.19147  1.0000
  C   C4        1.0  0.98239  0.04498  0.28786  1.0000
  C   C5        1.0  0.48415  0.38718  0.25125  1.0000
  C   C6        1.0  0.88585  0.99971  0.23098  1.0000
  C   C7        1.0  0.50172  0.61298  0.25469  1.0000
  C   C8        1.0  0.11314  0.01304  0.25355  1.0000
  C   C9        1.0  0.05534  0.00935  0.24454  1.0000
  C   C10       1.0  0.94309  0.00408  0.23384  1.0000
  N   N1        1.0  0.46233  0.63432  0.26740  1.0000
  N   N2        1.0  0.13349  0.97781  0.22021  1.0000
  N   N3        1.0  0.52441  0.36539  0.24360  1.0000
  N   N4        1.0  0.86822  0.03102  0.28255  1.0000
  N   N5        1.0  0.44822  0.05237  0.25065  1.0000
  N   N6        1.0  0.54938  0.95095  0.23623  1.0000
  C   C11       1.0  0.39124  0.04253  0.22053  1.0000
  C   C12       1.0  0.53334  0.90012  0.21169  1.0000
  C   C13       1.0  0.60327  0.96394  0.22934  1.0000
  C   C14       1.0  0.45791  0.10994  0.21832  1.0000
  C   C15       1.0  0.36378  0.09571  0.15532  1.0000
  C   C16       1.0  0.57642  0.88294  0.17499  1.0000
  C   C17       1.0  0.62109  0.92091  0.19391  1.0000
  C   C18       1.0  0.40537  0.13785  0.15477  1.0000
  H   H1        1.0  0.31910  0.10023  0.11341  1.0000
  H   H2        1.0  0.57306  0.84725  0.13932  1.0000
  H   H3        1.0  0.66134  0.91932  0.18426  1.0000
  H   H4        1.0  0.40076  0.18316  0.11275  1.0000
  N   N7        1.0  0.43343  0.93653  0.24313  1.0000
  N   N8        1.0  0.56523  0.06352  0.26241  1.0000
  C   C19       1.0  0.38752  0.93804  0.28429  1.0000
  C   C20       1.0  0.44235  0.88153  0.26984  1.0000
  C   C21       1.0  0.61915  0.05687  0.27363  1.0000
  C   C22       1.0  0.56141  0.11553  0.27025  1.0000
  C   C23       1.0  0.36829  0.88032  0.34897  1.0000
  C   C24       1.0  0.40124  0.84593  0.33887  1.0000
  C   C25       1.0  0.65129  0.10737  0.29193  1.0000
  C   C26       1.0  0.61685  0.14206  0.29457  1.0000
  H   H5        1.0  0.33488  0.86684  0.40115  1.0000
  H   H6        1.0  0.39942  0.80008  0.38263  1.0000
  H   H7        1.0  0.69500  0.11638  0.29921  1.0000
  H   H8        1.0  0.62872  0.18274  0.31017  1.0000
  C   C27       1.0  0.36298  0.98784  0.25532  1.0000
  C   C28       1.0  0.48531  0.86486  0.23784  1.0000
  C   C29       1.0  0.63787  0.01133  0.25787  1.0000
  C   C30       1.0  0.51157  0.13915  0.24510  1.0000
  C   C31       1.0  0.30475  0.98270  0.25652  1.0000
  C   C32       1.0  0.48076  0.80548  0.24474  1.0000
  C   C33       1.0  0.51485  0.19763  0.24492  1.0000
  C   C34       1.0  0.26343  0.94648  0.19141  1.0000
  C   C35       1.0  0.52749  0.77132  0.31971  1.0000
  C   C36       1.0  0.48381  0.21040  0.32123  1.0000
  C   C37       1.0  0.54802  0.24271  0.17014  1.0000
  C   C38       1.0  0.28770  0.01603  0.31777  1.0000
  C   C39       1.0  0.42842  0.77952  0.18429  1.0000
  H   H9        1.0  0.27493  0.92083  0.14137  1.0000
  H   H10       1.0  0.56762  0.78865  0.37731  1.0000
  H   H11       1.0  0.45956  0.17625  0.38538  1.0000
  H   H12       1.0  0.57047  0.23535  0.10432  1.0000
  H   H13       1.0  0.31919  0.04154  0.37758  1.0000
  H   H14       1.0  0.39196  0.80505  0.12351  1.0000
  C   C40       1.0  0.20772  0.94535  0.18202  1.0000
  C   C41       1.0  0.52270  0.71515  0.32857  1.0000
  C   C42       1.0  0.48488  0.26519  0.31953  1.0000
  C   C43       1.0  0.55085  0.29705  0.17292  1.0000
  C   C44       1.0  0.23206  0.01565  0.30665  1.0000
  C   C45       1.0  0.42290  0.72274  0.19843  1.0000
  H   H15       1.0  0.17605  0.91837  0.12775  1.0000
  H   H16       1.0  0.55912  0.68944  0.38966  1.0000
  H   H17       1.0  0.46185  0.27290  0.38364  1.0000
  H   H18       1.0  0.57675  0.33137  0.11542  1.0000
  H   H19       1.0  0.22142  0.04120  0.35836  1.0000
  H   H20       1.0  0.38239  0.70319  0.15112  1.0000
  C   C46       1.0  0.19062  0.98081  0.23653  1.0000
  C   C47       1.0  0.47025  0.68996  0.26610  1.0000
  C   C48       1.0  0.51861  0.30973  0.24562  1.0000
  H   H21       1.0  0.44333  0.36408  0.25264  1.0000
  H   H22       1.0  0.06742  0.07791  0.33247  1.0000
  O   O1        1.0  0.03185  0.93073  0.14846  1.0000
  H   H23       1.0  0.85766  0.96780  0.18716  1.0000
  H   H24       1.0  0.07352  0.93958  0.16399  1.0000
  H   H25       1.0  0.45948  0.97067  0.20671  1.0000
  H   H26       1.0  0.54019  0.63832  0.23696  1.0000
  H   H27       1.0  0.93093  0.93570  0.14510  1.0000
  O   O2        1.0  0.96731  0.08120  0.33570  1.0000
  H   H28       1.0  0.13928  0.04727  0.29045  1.0000
  H   H29       1.0  0.92643  0.07020  0.33053  1.0000
  H   H30       1.0  0.53317  0.03309  0.25506  1.0000
  C   C49       1.0  0.03444  0.05268  0.77377  1.0000
  C   C50       1.0  0.96762  0.95431  0.75219  1.0000
  C   C51       1.0  0.02246  0.95848  0.75070  1.0000
  C   C52       1.0  0.97945  0.04875  0.77370  1.0000
  C   C53       1.0  0.49338  0.38764  0.73944  1.0000
  C   C54       1.0  0.88872  0.99200  0.76647  1.0000
  C   C55       1.0  0.50876  0.61570  0.72639  1.0000
  C   C56       1.0  0.11387  0.01505  0.76250  1.0000
  C   C57       1.0  0.05682  0.00863  0.76306  1.0000
  C   C58       1.0  0.94545  0.99820  0.76446  1.0000
  N   N9        1.0  0.47631  0.63103  0.77831  1.0000
  N   N10       1.0  0.13565  0.97569  0.74873  1.0000
  N   N11       1.0  0.52979  0.36532  0.71752  1.0000
  N   N12       1.0  0.86608  0.03248  0.77302  1.0000
  N   N13       1.0  0.44716  0.04798  0.75512  1.0000
  N   N14       1.0  0.55059  0.94860  0.74187  1.0000
  C   C59       1.0  0.39012  0.03877  0.71940  1.0000
  C   C60       1.0  0.53777  0.89546  0.73054  1.0000
  C   C61       1.0  0.60349  0.96401  0.72827  1.0000
  C   C62       1.0  0.45729  0.10540  0.72775  1.0000
  C   C63       1.0  0.36315  0.09233  0.65630  1.0000
  C   C64       1.0  0.58330  0.87774  0.70395  1.0000
  C   C65       1.0  0.62297  0.92127  0.69604  1.0000
  C   C66       1.0  0.40517  0.13388  0.66177  1.0000
  H   H31       1.0  0.31855  0.09756  0.61105  1.0000
  H   H32       1.0  0.58468  0.83788  0.69154  1.0000
  H   H33       1.0  0.66144  0.92434  0.66997  1.0000
  H   H34       1.0  0.40133  0.17921  0.62215  1.0000
  N   N15       1.0  0.43535  0.93206  0.75477  1.0000
  N   N16       1.0  0.56418  0.06213  0.75916  1.0000
  C   C67       1.0  0.38311  0.93487  0.76352  1.0000
  C   C68       1.0  0.44224  0.87843  0.76339  1.0000
  C   C69       1.0  0.61898  0.05458  0.78256  1.0000
  C   C70       1.0  0.56084  0.10869  0.79302  1.0000
  C   C71       1.0  0.35646  0.87895  0.78444  1.0000
  C   C72       1.0  0.39148  0.84537  0.77956  1.0000
  C   C73       1.0  0.65234  0.09736  0.84147  1.0000
  C   C74       1.0  0.61706  0.12971  0.85001  1.0000
  H   H35       1.0  0.31561  0.86604  0.80026  1.0000
  H   H36       1.0  0.38293  0.80167  0.78515  1.0000
  H   H37       1.0  0.69751  0.10100  0.87865  1.0000
  H   H38       1.0  0.62865  0.16405  0.89522  1.0000
  C   C75       1.0  0.36020  0.98467  0.74294  1.0000
  C   C76       1.0  0.48887  0.86074  0.75006  1.0000
  C   C77       1.0  0.63744  0.01173  0.75579  1.0000
  C   C78       1.0  0.51107  0.13334  0.76219  1.0000
  C   C79       1.0  0.30219  0.98152  0.74567  1.0000
  C   C80       1.0  0.51611  0.19240  0.75744  1.0000
  C   C81       1.0  0.25771  0.94955  0.67362  1.0000
  C   C82       1.0  0.48432  0.21004  0.82247  1.0000
  C   C83       1.0  0.55217  0.23370  0.68360  1.0000
  C   C84       1.0  0.28926  0.01220  0.82170  1.0000
  H   H39       1.0  0.26519  0.92764  0.60767  1.0000
  H   H40       1.0  0.45838  0.17848  0.88708  1.0000
  H   H41       1.0  0.57594  0.22156  0.62900  1.0000
  H   H42       1.0  0.32301  0.03528  0.88398  1.0000
  C   C85       1.0  0.20378  0.94779  0.67855  1.0000
  C   C86       1.0  0.48734  0.26644  0.80991  1.0000
  C   C87       1.0  0.55593  0.28994  0.67288  1.0000
  C   C88       1.0  0.23495  0.01258  0.82137  1.0000
  H   H43       1.0  0.16990  0.92286  0.62299  1.0000
  H   H44       1.0  0.46373  0.27781  0.86639  1.0000
  H   H45       1.0  0.58310  0.32175  0.61346  1.0000
  H   H46       1.0  0.22718  0.03584  0.88384  1.0000
  C   C89       1.0  0.19111  0.98000  0.75017  1.0000
  C   C90       1.0  0.52291  0.30775  0.73371  1.0000
  H   H47       1.0  0.45560  0.36339  0.76563  1.0000
  H   H48       1.0  0.06018  0.09103  0.78122  1.0000
  O   O3        1.0  0.04222  0.91551  0.73886  1.0000
  H   H49       1.0  0.86438  0.95261  0.75754  1.0000
  H   H50       1.0  0.08239  0.92868  0.73767  1.0000
  H   H51       1.0  0.46583  0.96433  0.74942  1.0000
  H   H52       1.0  0.54099  0.64518  0.68063  1.0000
  H   H53       1.0  0.94170  0.91614  0.74367  1.0000
  O   O4        1.0  0.95954  0.09240  0.78191  1.0000
  H   H54       1.0  0.13768  0.05474  0.77068  1.0000
  H   H55       1.0  0.91903  0.08029  0.77960  1.0000
  H   H56       1.0  0.53137  0.03492  0.72904  1.0000
  C  Sn1       1.0  0.54980  0.48536  0.29583  1.0000
  C   C91       1.0  0.50364  0.44619  0.29645  1.0000
  C  Sn2       1.0  0.45040  0.46399  0.25990  1.0000
  C  Sn3       1.0  0.44313  0.52218  0.22183  1.0000
  C   C92       1.0  0.48926  0.56132  0.22120  1.0000
  C  Sn4       1.0  0.54253  0.54355  0.25777  1.0000
  O  Te1       1.0  0.60264  0.46661  0.33274  1.0000
  O  Te2       1.0  0.40489  0.42403  0.26135  1.0000
  O  Te3       1.0  0.39023  0.54090  0.18491  1.0000
  O  Te4       1.0  0.58801  0.58347  0.25630  1.0000
  Mg  Mg1       1.0  0.34121  0.47034  0.20273  1.0000
  Mg  Mg2       1.0  0.65170  0.53722  0.31482  1.0000
  C  Sn5       1.0  0.47204  0.49996  0.83191  1.0000
  C   C93       1.0  0.50853  0.54530  0.77860  1.0000
  C  Sn6       1.0  0.53787  0.54273  0.68528  1.0000
  C  Sn7       1.0  0.53057  0.49384  0.64430  1.0000
  C   C94       1.0  0.49409  0.44853  0.69757  1.0000
  C  Sn8       1.0  0.46473  0.45106  0.79092  1.0000
  O  Te5       1.0  0.44313  0.50344  0.92506  1.0000
  O  Te6       1.0  0.57413  0.58859  0.63344  1.0000
  O  Te7       1.0  0.55951  0.49038  0.55107  1.0000
  O  Te8       1.0  0.42848  0.40524  0.84273  1.0000
  Mg  Mg3       1.0  0.60413  0.56375  0.50912  1.0000
  Mg  Mg4       1.0  0.39844  0.43005  0.96698  1.0000
  C  Sn9       1.0  0.78837  0.01760  0.42150  1.0000
  C   C95       1.0  0.80927  0.01535  0.31001  1.0000
  C  Sn10      1.0  0.77323  0.01777  0.16268  1.0000
  C  Sn11      1.0  0.71509  0.02258  0.12596  1.0000
  C   C96       1.0  0.69422  0.02483  0.23739  1.0000
  C  Sn12      1.0  0.73024  0.02241  0.38477  1.0000
  O  Te9       1.0  0.82518  0.01511  0.56804  1.0000
  O  Te10      1.0  0.79509  0.01542  0.05317  1.0000
  O  Te11      1.0  0.78908  0.89659  0.97927  1.0000
  O  Te12      1.0  0.70840  0.02476  0.49423  1.0000
  Mg  Mg5       1.0  0.83891  0.89188  0.86951  1.0000
  Mg  Mg6       1.0  0.77533  0.01986  0.67789  1.0000
  C  Sn13      1.0  0.73051  0.07046  0.65104  1.0000
  C   C97       1.0  0.69925  0.02221  0.71719  1.0000
  C  Sn14      1.0  0.72604  0.97434  0.83427  1.0000
  C  Sn15      1.0  0.78533  0.97471  0.88640  1.0000
  C   C98       1.0  0.81656  0.02294  0.82028  1.0000
  C  Sn16      1.0  0.78980  0.07083  0.70317  1.0000
  O  Te13      1.0  0.70284  0.11784  0.53415  1.0000
  O  Te14      1.0  0.69389  0.92660  0.89860  1.0000
  O  Te15      1.0  0.70219  0.05575  0.00338  1.0000
  O  Te16      1.0  0.82192  0.11855  0.63888  1.0000
  Mg  Mg7       1.0  0.64010  0.00092  0.05486  1.0000
  Mg  Mg8       1.0  0.76497  0.17273  0.48267  1.0000
  C  Sn17      1.0  0.48760  0.74003  0.91362  1.0000
  C   C99       1.0  0.49899  0.79039  0.79999  1.0000
  C  Sn18      1.0  0.49415  0.79102  0.65281  1.0000
  C  Sn19      1.0  0.47753  0.74028  0.61844  1.0000
  C   C100      1.0  0.46613  0.68997  0.73203  1.0000
  C  Sn20      1.0  0.47097  0.68929  0.87926  1.0000
  O  Te17      1.0  0.38191  0.86886  0.05997  1.0000
  O  Te18      1.0  0.50579  0.84187  0.54112  1.0000
  O  Te19      1.0  0.47242  0.73996  0.47196  1.0000
  O  Te20      1.0  0.45934  0.63848  0.99089  1.0000
  Mg  Mg9       1.0  0.49281  0.81983  0.35869  1.0000
  Mg  Mg10      1.0  0.36148  0.78894  0.17332  1.0000
