data_image0
_chemical_formula_structural       C10N6C8H4N2C8H4C4H2OHCOHOHCON2C6H4N2C6H9C10N6C8H4N2C8H4C4H2OHCOHOHCON2C6H4N2C6H9C2Sn2C2HTe2HMgC2Sn2C2HTe2HMgC2Sn2C2HTe2HMgC2Sn2C2HTe2HMgC2Sn2C2HTe2HMgC2Sn2C2HTe2HMgC2Sn2C2HTe2HMgC2Sn2C2HTe2HMgC2Sn2C2HTe2HMgC2Sn2C2HTe2HMgC2Sn2C2HTe2HMgC2Sn2C2HTe2HMgC2Sn2C2HTe2HMgC2Sn2C2HTe2HMg
_chemical_formula_sum              "C144 N24 H80 O8 Sn28 Te28 Mg14"
_cell_length_a       25.6921
_cell_length_b       25.4865
_cell_length_c       8.31905
_cell_angle_alpha    84.8383
_cell_angle_beta     68.0266
_cell_angle_gamma    95.2678

_symmetry_space_group_name_H-M    'P1'
_space_group_IT_number       1

loop_
  _space_group_symop_operation_xyz
  'x, y, z'

loop_
  _atom_site_type_symbol
  _atom_site_label
  _atom_site_symmetry_multiplicity
  _atom_site_fract_x
  _atom_site_fract_y
  _atom_site_fract_z
  _atom_site_occupancy
  C   C1        1.0  0.07722  0.09508  0.22935  1.0000
  C   C2        1.0  0.98910  0.01504  0.28774  1.0000
  C   C3        1.0  0.03615  0.00375  0.31973  1.0000
  C   C4        1.0  0.03045  0.10634  0.19557  1.0000
  C   C5        1.0  0.52900  0.44180  0.31296  1.0000
  C   C6        1.0  0.93340  0.07740  0.19734  1.0000
  C   C7        1.0  0.53624  0.66800  0.21602  1.0000
  C   C8        1.0  0.13277  0.03326  0.32185  1.0000
  C   C9        1.0  0.08166  0.04338  0.29361  1.0000
  C   C10       1.0  0.98458  0.06687  0.22423  1.0000
  N   N1        1.0  0.49400  0.69221  0.29985  1.0000
  N   N2        1.0  0.17338  0.07221  0.28204  1.0000
  N   N3        1.0  0.57121  0.41757  0.22896  1.0000
  N   N4        1.0  0.89245  0.03867  0.23888  1.0000
  N   N5        1.0  0.48147  0.11511  0.25904  1.0000
  N   N6        1.0  0.58404  0.99496  0.26488  1.0000
  C   C11       1.0  0.42673  0.10727  0.26538  1.0000
  C   C12       1.0  0.56811  0.94225  0.25734  1.0000
  C   C13       1.0  0.63899  0.00288  0.25666  1.0000
  C   C14       1.0  0.49741  0.16784  0.26651  1.0000
  C   C15       1.0  0.40707  0.15817  0.27882  1.0000
  C   C16       1.0  0.61580  0.91540  0.24405  1.0000
  C   C17       1.0  0.65886  0.95208  0.24128  1.0000
  C   C18       1.0  0.44997  0.19480  0.27728  1.0000
  H   H1        1.0  0.36492  0.16537  0.29266  1.0000
  H   H2        1.0  0.61701  0.87350  0.23446  1.0000
  H   H3        1.0  0.70117  0.94496  0.22593  1.0000
  H   H4        1.0  0.44857  0.23669  0.28664  1.0000
  N   N7        1.0  0.46801  0.00017  0.27101  1.0000
  N   N8        1.0  0.59745  0.10992  0.25318  1.0000
  C   C19       1.0  0.41745  0.00895  0.25956  1.0000
  C   C20       1.0  0.47046  0.94682  0.26140  1.0000
  C   C21       1.0  0.64791  0.10107  0.26519  1.0000
  C   C22       1.0  0.59472  0.16312  0.26523  1.0000
  C   C23       1.0  0.38808  0.96028  0.23612  1.0000
  C   C24       1.0  0.42072  0.92149  0.23994  1.0000
  C   C25       1.0  0.67692  0.14951  0.29162  1.0000
  C   C26       1.0  0.64408  0.18823  0.28935  1.0000
  H   H5        1.0  0.34920  0.95699  0.21329  1.0000
  H   H6        1.0  0.41297  0.88011  0.22536  1.0000
  H   H7        1.0  0.71562  0.15272  0.31551  1.0000
  H   H8        1.0  0.65135  0.22940  0.30701  1.0000
  C   C27       1.0  0.39587  0.05828  0.26558  1.0000
  C   C28       1.0  0.51561  0.91906  0.26083  1.0000
  C   C29       1.0  0.66968  0.05184  0.25753  1.0000
  C   C30       1.0  0.54963  0.19092  0.26530  1.0000
  H   H9        1.0  0.11247  0.12597  0.20382  1.0000
  H   H10       1.0  0.48773  0.42024  0.40260  1.0000
  O   O1        1.0  0.03448  0.95073  0.38898  1.0000
  H   H11       1.0  0.93110  0.11815  0.14873  1.0000
  C   C31       1.0  0.07046  0.91955  0.28444  1.0000
  O   O2        1.0  0.10879  0.93657  0.14415  1.0000
  H   H12       1.0  0.95414  0.98397  0.31165  1.0000
  O   O3        1.0  0.03377  0.15841  0.11639  1.0000
  H   H13       1.0  0.13545  0.99269  0.37070  1.0000
  C   C32       1.0  0.00306  0.19429  0.21329  1.0000
  O   O4        1.0  0.96518  0.18221  0.35763  1.0000
  N   N9        1.0  0.09721  0.69010  0.27221  1.0000
  N   N10       1.0  0.11368  0.73994  0.22882  1.0000
  C   C33       1.0  0.02873  0.75370  0.48748  1.0000
  C   C34       1.0  0.07648  0.77235  0.33318  1.0000
  C   C35       1.0  0.99533  0.78976  0.57868  1.0000
  C   C36       1.0  0.00834  0.84425  0.51686  1.0000
  C   C37       1.0  0.05573  0.86286  0.36269  1.0000
  C   C38       1.0  0.09001  0.82683  0.27237  1.0000
  H   H14       1.0  0.22796  0.56137  0.89102  1.0000
  H   H15       1.0  0.95898  0.77567  0.69966  1.0000
  H   H16       1.0  0.98210  0.87233  0.58763  1.0000
  H   H17       1.0  0.12665  0.84107  0.15245  1.0000
  N   N11       1.0  0.01287  0.42926  0.16168  1.0000
  N   N12       1.0  0.98485  0.38270  0.20741  1.0000
  C   C39       1.0  0.06389  0.35467  0.96317  1.0000
  C   C40       1.0  0.01564  0.34330  0.12024  1.0000
  C   C41       1.0  0.09136  0.31345  0.88543  1.0000
  C   C42       1.0  0.07174  0.26072  0.96367  1.0000
  C   C43       1.0  0.02353  0.24920  0.11997  1.0000
  C   C44       1.0  0.99506  0.29050  0.19699  1.0000
  H   H18       1.0  0.90903  0.59051  0.42200  1.0000
  H   H19       1.0  0.12787  0.32205  0.76198  1.0000
  H   H20       1.0  0.09329  0.22843  0.90420  1.0000
  H   H21       1.0  0.95798  0.28171  0.31890  1.0000
  H   H22       1.0  0.01945  0.71128  0.53376  1.0000
  H   H23       1.0  0.07808  0.39590  0.90411  1.0000
  H   H24       1.0  0.50628  0.08551  0.25130  1.0000
  H   H25       1.0  0.55911  0.02450  0.27389  1.0000
  H   H26       1.0  0.57758  0.68962  0.12705  1.0000
  C   C45       1.0  0.08017  0.09605  0.72341  1.0000
  C   C46       1.0  0.99219  0.01561  0.78305  1.0000
  C   C47       1.0  0.03915  0.00475  0.81626  1.0000
  C   C48       1.0  0.03347  0.10682  0.68858  1.0000
  C   C49       1.0  0.54352  0.44689  0.82823  1.0000
  C   C50       1.0  0.93675  0.07742  0.68909  1.0000
  C   C51       1.0  0.52391  0.66716  0.69455  1.0000
  C   C52       1.0  0.13575  0.03460  0.81763  1.0000
  C   C53       1.0  0.08465  0.04454  0.78922  1.0000
  C   C54       1.0  0.98771  0.06717  0.71760  1.0000
  N   N13       1.0  0.49823  0.69422  0.81845  1.0000
  N   N14       1.0  0.17601  0.07377  0.78005  1.0000
  N   N15       1.0  0.56910  0.41980  0.70424  1.0000
  N   N16       1.0  0.89491  0.03924  0.73731  1.0000
  N   N17       1.0  0.48359  0.11717  0.76277  1.0000
  N   N18       1.0  0.58655  0.99695  0.76161  1.0000
  C   C55       1.0  0.42886  0.10914  0.76903  1.0000
  C   C56       1.0  0.57066  0.94412  0.75467  1.0000
  C   C57       1.0  0.64115  0.00486  0.75659  1.0000
  C   C58       1.0  0.49923  0.16987  0.77173  1.0000
  C   C59       1.0  0.40879  0.15980  0.78450  1.0000
  C   C60       1.0  0.61806  0.91729  0.74566  1.0000
  C   C61       1.0  0.66081  0.95399  0.74446  1.0000
  C   C62       1.0  0.45146  0.19652  0.78388  1.0000
  H   H27       1.0  0.36665  0.16694  0.79807  1.0000
  H   H28       1.0  0.61962  0.87538  0.73765  1.0000
  H   H29       1.0  0.70281  0.94674  0.73216  1.0000
  H   H30       1.0  0.44969  0.23832  0.79398  1.0000
  N   N19       1.0  0.47067  0.00217  0.76881  1.0000
  N   N20       1.0  0.59971  0.11205  0.75372  1.0000
  C   C63       1.0  0.42008  0.01112  0.75768  1.0000
  C   C64       1.0  0.47333  0.94899  0.75626  1.0000
  C   C65       1.0  0.65045  0.10312  0.76370  1.0000
  C   C66       1.0  0.59712  0.16527  0.76585  1.0000
  C   C67       1.0  0.39097  0.96281  0.73125  1.0000
  C   C68       1.0  0.42380  0.92405  0.73277  1.0000
  C   C69       1.0  0.67991  0.15157  0.78801  1.0000
  C   C70       1.0  0.64705  0.19036  0.78688  1.0000
  H   H31       1.0  0.35217  0.95970  0.70799  1.0000
  H   H32       1.0  0.41616  0.88290  0.71567  1.0000
  H   H33       1.0  0.71897  0.15479  0.80977  1.0000
  H   H34       1.0  0.65481  0.23158  0.80312  1.0000
  C   C71       1.0  0.39831  0.06032  0.76626  1.0000
  C   C72       1.0  0.51839  0.92100  0.75566  1.0000
  C   C73       1.0  0.67201  0.05379  0.75682  1.0000
  C   C74       1.0  0.55171  0.19311  0.76894  1.0000
  H   H35       1.0  0.11521  0.12722  0.69754  1.0000
  H   H36       1.0  0.52300  0.42900  0.96615  1.0000
  O   O5        1.0  0.03696  0.95211  0.88964  1.0000
  H   H37       1.0  0.93556  0.11763  0.63312  1.0000
  C   C75       1.0  0.07053  0.91890  0.78730  1.0000
  O   O6        1.0  0.10872  0.93395  0.64500  1.0000
  H   H38       1.0  0.95733  0.98435  0.80776  1.0000
  O   O7        1.0  0.03631  0.15887  0.61045  1.0000
  H   H39       1.0  0.13871  0.99387  0.86427  1.0000
  C   C76       1.0  0.00385  0.19348  0.70934  1.0000
  O   O8        1.0  0.96574  0.17982  0.85244  1.0000
  N   N21       1.0  0.08194  0.68707  0.79101  1.0000
  N   N22       1.0  0.10492  0.73550  0.75351  1.0000
  C   C77       1.0  0.02171  0.75465  0.00609  1.0000
  C   C78       1.0  0.06992  0.77076  0.85099  1.0000
  C   C79       1.0  0.99006  0.79249  0.09247  1.0000
  C   C80       1.0  0.00534  0.84649  0.02505  1.0000
  C   C81       1.0  0.05348  0.86271  0.87078  1.0000
  C   C82       1.0  0.08610  0.82483  0.78538  1.0000
  H   H40       1.0  0.20416  0.54250  0.47619  1.0000
  H   H41       1.0  0.95335  0.78022  0.21388  1.0000
  H   H42       1.0  0.98030  0.87599  0.09135  1.0000
  H   H43       1.0  0.12324  0.83733  0.66534  1.0000
  N   N23       1.0  0.99968  0.42797  0.65706  1.0000
  N   N24       1.0  0.98053  0.37988  0.72683  1.0000
  C   C83       1.0  0.06021  0.35562  0.47341  1.0000
  C   C84       1.0  0.01227  0.34232  0.63083  1.0000
  C   C85       1.0  0.08863  0.31562  0.39035  1.0000
  C   C86       1.0  0.07032  0.26226  0.46301  1.0000
  C   C87       1.0  0.02283  0.24891  0.62040  1.0000
  C   C88       1.0  0.99371  0.28900  0.70370  1.0000
  H   H44       1.0  0.89890  0.58261  0.97844  1.0000
  H   H45       1.0  0.12515  0.32568  0.26741  1.0000
  H   H46       1.0  0.09266  0.23099  0.39879  1.0000
  H   H47       1.0  0.95736  0.27887  0.82700  1.0000
  H   H48       1.0  0.01051  0.71254  0.05654  1.0000
  H   H49       1.0  0.07368  0.39730  0.41892  1.0000
  H   H50       1.0  0.50874  0.08780  0.75355  1.0000
  H   H51       1.0  0.56169  0.02649  0.76902  1.0000
  H   H52       1.0  0.54506  0.68523  0.55698  1.0000
  C   C89       1.0  0.58880  0.54540  0.14657  1.0000
  C   C90       1.0  0.54616  0.50705  0.26557  1.0000
  C  Sn1       1.0  0.49425  0.52155  0.37008  1.0000
  C  Sn2       1.0  0.48496  0.57548  0.35483  1.0000
  C   C91       1.0  0.52787  0.61353  0.23529  1.0000
  C   C92       1.0  0.57967  0.59859  0.13140  1.0000
  H   H53       1.0  0.62886  0.53383  0.06611  1.0000
  O  Te1       1.0  0.45212  0.48274  0.48835  1.0000
  O  Te2       1.0  0.43347  0.59106  0.45763  1.0000
  H   H54       1.0  0.61266  0.62828  0.03919  1.0000
  Mg  Mg1       1.0  0.38911  0.52358  0.59979  1.0000
  C   C93       1.0  0.31598  0.10585  0.15183  1.0000
  C   C94       1.0  0.33505  0.07123  0.25118  1.0000
  C  Sn3       1.0  0.29713  0.03072  0.37531  1.0000
  C  Sn4       1.0  0.23907  0.02485  0.40010  1.0000
  C   C95       1.0  0.22042  0.05966  0.29996  1.0000
  C   C96       1.0  0.25872  0.10007  0.17615  1.0000
  H   H55       1.0  0.34561  0.13709  0.05596  1.0000
  O  Te3       1.0  0.31689  0.99649  0.47351  1.0000
  O  Te4       1.0  0.20027  0.98469  0.52322  1.0000
  H   H56       1.0  0.24395  0.12685  0.09917  1.0000
  Mg  Mg2       1.0  0.33873  0.94794  0.62531  1.0000
  C   C97       1.0  0.54910  0.79471  0.10965  1.0000
  C   C98       1.0  0.51224  0.75527  0.24086  1.0000
  C  Sn5       1.0  0.46992  0.76917  0.38753  1.0000
  C  Sn6       1.0  0.46450  0.82359  0.40273  1.0000
  C   C99       1.0  0.50157  0.86274  0.27069  1.0000
  C   C100      1.0  0.54377  0.84839  0.12451  1.0000
  H   H57       1.0  0.45686  0.74268  0.99650  1.0000
  O  Te5       1.0  0.43346  0.72926  0.51744  1.0000
  O  Te6       1.0  0.42257  0.83859  0.54790  1.0000
  H   H58       1.0  0.57229  0.87894  0.02289  1.0000
  Mg  Mg3       1.0  0.38307  0.76965  0.69043  1.0000
  C   C101      1.0  0.78919  0.09481  0.11857  1.0000
  C   C102      1.0  0.74011  0.05895  0.21099  1.0000
  C  Sn7       1.0  0.74093  0.01614  0.32700  1.0000
  C  Sn8       1.0  0.79189  0.00922  0.35068  1.0000
  C   C103      1.0  0.84075  0.04533  0.25770  1.0000
  C   C104      1.0  0.83946  0.08802  0.14190  1.0000
  H   H59       1.0  0.78819  0.12785  0.02905  1.0000
  O  Te7       1.0  0.78259  0.98067  0.41825  1.0000
  O  Te8       1.0  0.88496  0.96679  0.46585  1.0000
  H   H60       1.0  0.87746  0.11580  0.07045  1.0000
  Mg  Mg4       1.0  0.80659  0.92906  0.56037  1.0000
  C   C105      1.0  0.61255  0.32619  0.10753  1.0000
  C   C106      1.0  0.57526  0.35666  0.21621  1.0000
  C  Sn9       1.0  0.52854  0.33194  0.36277  1.0000
  C  Sn10      1.0  0.51908  0.27567  0.40091  1.0000
  C   C107      1.0  0.55665  0.24554  0.29144  1.0000
  C   C108      1.0  0.60326  0.27068  0.14510  1.0000
  H   H61       1.0  0.52374  0.30471  0.99436  1.0000
  O  Te9       1.0  0.49170  0.36298  0.46993  1.0000
  O  Te10      1.0  0.47273  0.24994  0.54657  1.0000
  H   H62       1.0  0.63214  0.24708  0.06105  1.0000
  Mg  Mg5       1.0  0.43450  0.30950  0.65320  1.0000
  C   C109      1.0  0.12651  0.58971  0.22069  1.0000
  C   C110      1.0  0.13224  0.64514  0.18836  1.0000
  C  Sn11      1.0  0.17358  0.67255  0.03364  1.0000
  C  Sn12      1.0  0.08490  0.60291  0.90919  1.0000
  C   C111      1.0  0.07880  0.54747  0.94270  1.0000
  C   C112      1.0  0.16218  0.56136  0.09798  1.0000
  H   H63       1.0  0.09438  0.56879  0.34078  1.0000
  O  Te11      1.0  0.17875  0.72793  0.00345  1.0000
  O  Te12      1.0  0.12657  0.62931  0.75344  1.0000
  H   H64       1.0  0.15773  0.51845  0.12292  1.0000
  Mg  Mg6       1.0  0.11708  0.70505  0.77184  1.0000
  C   C113      1.0  0.99785  0.56016  0.21443  1.0000
  C   C114      1.0  0.94231  0.56096  0.33140  1.0000
  C  Sn13      1.0  0.90662  0.51337  0.41246  1.0000
  C  Sn14      1.0  0.92704  0.46415  0.37549  1.0000
  C   C115      1.0  0.98268  0.46378  0.25836  1.0000
  C   C116      1.0  0.01802  0.51163  0.17794  1.0000
  H   H65       1.0  0.02521  0.59718  0.15227  1.0000
  O  Te13      1.0  0.85125  0.51488  0.52894  1.0000
  O  Te14      1.0  0.89228  0.41600  0.45471  1.0000
  H   H66       1.0  0.06103  0.51100  0.08747  1.0000
  Mg  Mg7       1.0  0.82008  0.43870  0.60402  1.0000
  C   C117      1.0  0.48958  0.56786  0.92305  1.0000
  C   C118      1.0  0.52061  0.60497  0.77582  1.0000
  C  Sn15      1.0  0.56100  0.58916  0.62871  1.0000
  C  Sn16      1.0  0.57038  0.53516  0.62939  1.0000
  C   C119      1.0  0.53909  0.49832  0.77729  1.0000
  C   C120      1.0  0.49880  0.51458  0.92380  1.0000
  H   H67       1.0  0.58326  0.62135  0.03639  1.0000
  O  Te15      1.0  0.59164  0.62676  0.48274  1.0000
  O  Te16      1.0  0.61047  0.51827  0.48411  1.0000
  H   H68       1.0  0.59964  0.52675  0.03774  1.0000
  Mg  Mg8       1.0  0.64163  0.58439  0.31642  1.0000
  C   C121      1.0  0.31867  0.10777  0.65052  1.0000
  C   C122      1.0  0.33760  0.07349  0.75126  1.0000
  C  Sn17      1.0  0.29969  0.03287  0.87491  1.0000
  C  Sn18      1.0  0.24180  0.02654  0.89780  1.0000
  C   C123      1.0  0.22330  0.06101  0.79629  1.0000
  C   C124      1.0  0.26158  0.10154  0.67297  1.0000
  H   H69       1.0  0.34830  0.13911  0.55504  1.0000
  O  Te17      1.0  0.31930  0.99899  0.97450  1.0000
  O  Te18      1.0  0.32789  0.02718  0.02040  1.0000
  H   H70       1.0  0.24693  0.12805  0.59491  1.0000
  Mg  Mg9       1.0  0.46612  0.99103  0.12490  1.0000
  C   C125      1.0  0.45572  0.81663  0.91091  1.0000
  C   C126      1.0  0.49906  0.85500  0.79497  1.0000
  C  Sn19      1.0  0.54487  0.83975  0.66157  1.0000
  C  Sn20      1.0  0.54722  0.78505  0.64421  1.0000
  C   C127      1.0  0.50363  0.74698  0.76079  1.0000
  C   C128      1.0  0.45799  0.76267  0.89384  1.0000
  H   H71       1.0  0.54528  0.86969  0.01380  1.0000
  O  Te19      1.0  0.58782  0.87860  0.54691  1.0000
  O  Te20      1.0  0.59250  0.76872  0.51202  1.0000
  H   H72       1.0  0.42442  0.73296  0.98352  1.0000
  Mg  Mg10      1.0  0.64077  0.83657  0.38794  1.0000
  C   C129      1.0  0.75233  0.00483  0.86493  1.0000
  C   C130      1.0  0.73220  0.04386  0.78340  1.0000
  C  Sn21      1.0  0.77001  0.08462  0.66010  1.0000
  C  Sn22      1.0  0.82905  0.08621  0.61788  1.0000
  C   C131      1.0  0.84877  0.04696  0.70008  1.0000
  C   C132      1.0  0.81056  0.00636  0.82332  1.0000
  H   H73       1.0  0.72278  0.97341  0.96021  1.0000
  O  Te21      1.0  0.74917  0.12331  0.57992  1.0000
  O  Te22      1.0  0.86777  0.12649  0.49507  1.0000
  H   H74       1.0  0.82616  0.97613  0.88634  1.0000
  Mg  Mg11      1.0  0.81873  0.17018  0.42113  1.0000
  C   C133      1.0  0.51388  0.31864  0.89922  1.0000
  C   C134      1.0  0.55616  0.35736  0.78068  1.0000
  C  Sn23      1.0  0.60156  0.34252  0.64484  1.0000
  C  Sn24      1.0  0.60456  0.28788  0.62768  1.0000
  C   C135      1.0  0.56203  0.24945  0.74689  1.0000
  C   C136      1.0  0.51679  0.26474  0.88235  1.0000
  H   H75       1.0  0.60374  0.37139  0.00399  1.0000
  O  Te23      1.0  0.64346  0.38172  0.52758  1.0000
  O  Te24      1.0  0.64946  0.27195  0.49310  1.0000
  H   H76       1.0  0.48404  0.23475  0.97405  1.0000
  Mg  Mg12      1.0  0.69623  0.34017  0.36596  1.0000
  C   C137      1.0  0.18321  0.66267  0.52603  1.0000
  C   C138      1.0  0.12882  0.65681  0.65676  1.0000
  C  Sn25      1.0  0.09987  0.60615  0.73451  1.0000
  C  Sn26      1.0  0.12597  0.56059  0.68013  1.0000
  C   C139      1.0  0.18042  0.56688  0.54932  1.0000
  C   C140      1.0  0.20900  0.61776  0.47236  1.0000
  H   H77       1.0  0.20534  0.70204  0.46654  1.0000
  O  Te25      1.0  0.04555  0.60100  0.86490  1.0000
  O  Te26      1.0  0.09801  0.50949  0.75568  1.0000
  H   H78       1.0  0.25112  0.62228  0.37122  1.0000
  Mg  Mg13      1.0  0.02458  0.52300  0.92834  1.0000
  C   C141      1.0  0.91659  0.46046  0.96002  1.0000
  C   C142      1.0  0.95649  0.46149  0.79015  1.0000
  C  Sn27      1.0  0.97942  0.50978  0.68098  1.0000
  C  Sn28      1.0  0.96201  0.55787  0.74342  1.0000
  C   C143      1.0  0.92210  0.55642  0.91362  1.0000
  C   C144      1.0  0.02430  0.54880  0.02174  1.0000
  H   H79       1.0  0.02394  0.46383  0.04372  1.0000
  O  Te27      1.0  0.01923  0.51010  0.51160  1.0000
  O  Te28      1.0  0.98427  0.60669  0.63709  1.0000
  H   H80       1.0  0.99343  0.54802  0.15329  1.0000
  Mg  Mg14      1.0  0.03732  0.58657  0.41624  1.0000
