data_image0
_chemical_formula_structural       C10N6C8H4N2C8H4C4H2OH5OH3C10N6C8H4N2C8H4C4H2OH5OH3SnCSn2CSnTe4Mg2SnCSn2CSnTe4Mg2SnCSn2CSnTe4Mg2SnCSn2CSnTe4Mg2SnCSn2CSnTe4Mg2SnCSn2CSnTe4Mg2SnCSn2CSnTe4Mg2SnCSn2CSnTe4Mg2SnCSn2CSnTe4Mg2SnCSn2CSnTe4Mg2
_chemical_formula_sum              "C80 N16 H36 O4 Sn40 Te40 Mg20"
_cell_length_a       25.5671
_cell_length_b       25.5817
_cell_length_c       9.79671
_cell_angle_alpha    67.059
_cell_angle_beta     110.62
_cell_angle_gamma    100.828

_symmetry_space_group_name_H-M    'P1'
_space_group_IT_number       1

loop_
  _space_group_symop_operation_xyz
  'x, y, z'

loop_
  _atom_site_type_symbol
  _atom_site_label
  _atom_site_symmetry_multiplicity
  _atom_site_fract_x
  _atom_site_fract_y
  _atom_site_fract_z
  _atom_site_occupancy
  C   C1        1.0  0.03753  0.04691  0.29119  1.0000
  C   C2        1.0  0.96076  0.96684  0.18594  1.0000
  C   C3        1.0  0.01612  0.96814  0.19147  1.0000
  C   C4        1.0  0.98239  0.04498  0.28786  1.0000
  C   C5        1.0  0.48415  0.38718  0.25125  1.0000
  C   C6        1.0  0.88585  0.99971  0.23098  1.0000
  C   C7        1.0  0.50172  0.61298  0.25469  1.0000
  C   C8        1.0  0.11314  0.01304  0.25355  1.0000
  C   C9        1.0  0.05534  0.00935  0.24454  1.0000
  C   C10       1.0  0.94309  0.00408  0.23384  1.0000
  N   N1        1.0  0.46233  0.63432  0.26740  1.0000
  N   N2        1.0  0.13349  0.97781  0.22021  1.0000
  N   N3        1.0  0.52441  0.36539  0.24360  1.0000
  N   N4        1.0  0.86822  0.03102  0.28255  1.0000
  N   N5        1.0  0.44822  0.05237  0.25065  1.0000
  N   N6        1.0  0.54938  0.95095  0.23623  1.0000
  C   C11       1.0  0.39124  0.04253  0.22053  1.0000
  C   C12       1.0  0.53334  0.90012  0.21169  1.0000
  C   C13       1.0  0.60327  0.96394  0.22934  1.0000
  C   C14       1.0  0.45791  0.10994  0.21832  1.0000
  C   C15       1.0  0.36378  0.09571  0.15532  1.0000
  C   C16       1.0  0.57642  0.88294  0.17499  1.0000
  C   C17       1.0  0.62109  0.92091  0.19391  1.0000
  C   C18       1.0  0.40537  0.13785  0.15477  1.0000
  H   H1        1.0  0.31910  0.10023  0.11341  1.0000
  H   H2        1.0  0.57306  0.84725  0.13932  1.0000
  H   H3        1.0  0.66134  0.91932  0.18426  1.0000
  H   H4        1.0  0.40076  0.18316  0.11275  1.0000
  N   N7        1.0  0.43343  0.93653  0.24313  1.0000
  N   N8        1.0  0.56523  0.06352  0.26241  1.0000
  C   C19       1.0  0.38752  0.93804  0.28429  1.0000
  C   C20       1.0  0.44235  0.88153  0.26984  1.0000
  C   C21       1.0  0.61915  0.05687  0.27363  1.0000
  C   C22       1.0  0.56141  0.11553  0.27025  1.0000
  C   C23       1.0  0.36829  0.88032  0.34897  1.0000
  C   C24       1.0  0.40124  0.84593  0.33887  1.0000
  C   C25       1.0  0.65129  0.10737  0.29193  1.0000
  C   C26       1.0  0.61685  0.14206  0.29457  1.0000
  H   H5        1.0  0.33488  0.86684  0.40115  1.0000
  H   H6        1.0  0.39942  0.80008  0.38263  1.0000
  H   H7        1.0  0.69500  0.11638  0.29921  1.0000
  H   H8        1.0  0.62872  0.18274  0.31017  1.0000
  C   C27       1.0  0.36298  0.98784  0.25532  1.0000
  C   C28       1.0  0.48531  0.86486  0.23784  1.0000
  C   C29       1.0  0.63787  0.01133  0.25787  1.0000
  C   C30       1.0  0.51157  0.13915  0.24510  1.0000
  H   H9        1.0  0.44333  0.36408  0.25264  1.0000
  H   H10       1.0  0.06742  0.07791  0.33247  1.0000
  O   O1        1.0  0.03185  0.93073  0.14846  1.0000
  H   H11       1.0  0.85766  0.96780  0.18716  1.0000
  H   H12       1.0  0.07352  0.93958  0.16399  1.0000
  H   H13       1.0  0.45948  0.97067  0.20671  1.0000
  H   H14       1.0  0.54019  0.63832  0.23696  1.0000
  H   H15       1.0  0.93093  0.93570  0.14510  1.0000
  O   O2        1.0  0.96731  0.08120  0.33570  1.0000
  H   H16       1.0  0.13928  0.04727  0.29045  1.0000
  H   H17       1.0  0.92643  0.07020  0.33053  1.0000
  H   H18       1.0  0.53317  0.03309  0.25506  1.0000
  C   C31       1.0  0.03444  0.05268  0.77377  1.0000
  C   C32       1.0  0.96762  0.95431  0.75219  1.0000
  C   C33       1.0  0.02246  0.95848  0.75070  1.0000
  C   C34       1.0  0.97945  0.04875  0.77370  1.0000
  C   C35       1.0  0.49338  0.38764  0.73944  1.0000
  C   C36       1.0  0.88872  0.99200  0.76647  1.0000
  C   C37       1.0  0.50876  0.61570  0.72639  1.0000
  C   C38       1.0  0.11387  0.01505  0.76250  1.0000
  C   C39       1.0  0.05682  0.00863  0.76306  1.0000
  C   C40       1.0  0.94545  0.99820  0.76446  1.0000
  N   N9        1.0  0.47631  0.63103  0.77831  1.0000
  N   N10       1.0  0.13565  0.97569  0.74873  1.0000
  N   N11       1.0  0.52979  0.36532  0.71752  1.0000
  N   N12       1.0  0.86608  0.03248  0.77302  1.0000
  N   N13       1.0  0.44716  0.04798  0.75512  1.0000
  N   N14       1.0  0.55059  0.94860  0.74187  1.0000
  C   C41       1.0  0.39012  0.03877  0.71940  1.0000
  C   C42       1.0  0.53777  0.89546  0.73054  1.0000
  C   C43       1.0  0.60349  0.96401  0.72827  1.0000
  C   C44       1.0  0.45729  0.10540  0.72775  1.0000
  C   C45       1.0  0.36315  0.09233  0.65630  1.0000
  C   C46       1.0  0.58330  0.87774  0.70395  1.0000
  C   C47       1.0  0.62297  0.92127  0.69604  1.0000
  C   C48       1.0  0.40517  0.13388  0.66177  1.0000
  H   H19       1.0  0.31855  0.09756  0.61105  1.0000
  H   H20       1.0  0.58468  0.83788  0.69154  1.0000
  H   H21       1.0  0.66144  0.92434  0.66997  1.0000
  H   H22       1.0  0.40133  0.17921  0.62215  1.0000
  N   N15       1.0  0.43535  0.93206  0.75477  1.0000
  N   N16       1.0  0.56418  0.06213  0.75916  1.0000
  C   C49       1.0  0.38311  0.93487  0.76352  1.0000
  C   C50       1.0  0.44224  0.87843  0.76339  1.0000
  C   C51       1.0  0.61898  0.05458  0.78256  1.0000
  C   C52       1.0  0.56084  0.10869  0.79302  1.0000
  C   C53       1.0  0.35646  0.87895  0.78444  1.0000
  C   C54       1.0  0.39148  0.84537  0.77956  1.0000
  C   C55       1.0  0.65234  0.09736  0.84147  1.0000
  C   C56       1.0  0.61706  0.12971  0.85001  1.0000
  H   H23       1.0  0.31561  0.86604  0.80026  1.0000
  H   H24       1.0  0.38293  0.80167  0.78515  1.0000
  H   H25       1.0  0.69751  0.10100  0.87865  1.0000
  H   H26       1.0  0.62865  0.16405  0.89522  1.0000
  C   C57       1.0  0.36020  0.98467  0.74294  1.0000
  C   C58       1.0  0.48887  0.86074  0.75006  1.0000
  C   C59       1.0  0.63744  0.01173  0.75579  1.0000
  C   C60       1.0  0.51107  0.13334  0.76219  1.0000
  H   H27       1.0  0.45560  0.36339  0.76563  1.0000
  H   H28       1.0  0.06018  0.09103  0.78122  1.0000
  O   O3        1.0  0.04222  0.91551  0.73886  1.0000
  H   H29       1.0  0.86438  0.95261  0.75754  1.0000
  H   H30       1.0  0.08239  0.92868  0.73767  1.0000
  H   H31       1.0  0.46583  0.96433  0.74942  1.0000
  H   H32       1.0  0.54099  0.64518  0.68063  1.0000
  H   H33       1.0  0.94170  0.91614  0.74367  1.0000
  O   O4        1.0  0.95954  0.09240  0.78191  1.0000
  H   H34       1.0  0.13768  0.05474  0.77068  1.0000
  H   H35       1.0  0.91903  0.08029  0.77960  1.0000
  H   H36       1.0  0.53137  0.03492  0.72904  1.0000
  C  Sn1       1.0  0.54980  0.48536  0.29583  1.0000
  C   C61       1.0  0.50364  0.44619  0.29645  1.0000
  C  Sn2       1.0  0.45040  0.46399  0.25990  1.0000
  C  Sn3       1.0  0.44313  0.52218  0.22183  1.0000
  C   C62       1.0  0.48926  0.56132  0.22120  1.0000
  C  Sn4       1.0  0.54253  0.54355  0.25777  1.0000
  O  Te1       1.0  0.60264  0.46661  0.33274  1.0000
  O  Te2       1.0  0.40489  0.42403  0.26135  1.0000
  O  Te3       1.0  0.39023  0.54090  0.18491  1.0000
  O  Te4       1.0  0.58801  0.58347  0.25630  1.0000
  Mg  Mg1       1.0  0.34121  0.47034  0.20273  1.0000
  Mg  Mg2       1.0  0.65170  0.53722  0.31482  1.0000
  C  Sn5       1.0  0.27933  0.00589  0.36237  1.0000
  C   C63       1.0  0.30267  0.97603  0.30712  1.0000
  C  Sn6       1.0  0.45644  0.95099  0.19959  1.0000
  C  Sn7       1.0  0.39769  0.95593  0.14609  1.0000
  C   C64       1.0  0.18642  0.98577  0.20130  1.0000
  C  Sn8       1.0  0.22059  0.01082  0.30886  1.0000
  O  Te5       1.0  0.31432  0.03058  0.46984  1.0000
  O  Te6       1.0  0.48073  0.92134  0.14608  1.0000
  O  Te7       1.0  0.36271  0.93120  0.03854  1.0000
  O  Te8       1.0  0.19633  0.04046  0.36234  1.0000
  Mg  Mg3       1.0  0.41557  0.89516  0.00002  1.0000
  Mg  Mg4       1.0  0.26144  0.06668  0.50834  1.0000
  C  Sn9       1.0  0.53340  0.76453  0.28502  1.0000
  C   C65       1.0  0.49110  0.80243  0.22359  1.0000
  C  Sn10      1.0  0.43491  0.78266  0.19169  1.0000
  C  Sn11      1.0  0.42070  0.72377  0.22192  1.0000
  C   C66       1.0  0.46300  0.68590  0.28334  1.0000
  C  Sn12      1.0  0.51920  0.70564  0.31525  1.0000
  O  Te9       1.0  0.58930  0.78524  0.31602  1.0000
  O  Te10      1.0  0.39335  0.82137  0.13025  1.0000
  O  Te11      1.0  0.36476  0.70308  0.19086  1.0000
  O  Te12      1.0  0.56074  0.66696  0.37668  1.0000
  Mg  Mg5       1.0  0.32322  0.77251  0.10767  1.0000
  Mg  Mg6       1.0  0.63088  0.71576  0.39937  1.0000
  C  Sn13      1.0  0.75417  0.02858  0.11833  1.0000
  C   C67       1.0  0.80221  0.03838  0.23219  1.0000
  C  Sn14      1.0  0.79965  0.03172  0.37820  1.0000
  C  Sn15      1.0  0.74800  0.01487  0.41115  1.0000
  C   C68       1.0  0.70000  0.00507  0.29735  1.0000
  C  Sn16      1.0  0.70252  0.01174  0.15128  1.0000
  O  Te13      1.0  0.86850  0.90703  0.97316  1.0000
  O  Te14      1.0  0.84824  0.04178  0.49014  1.0000
  O  Te15      1.0  0.74450  0.00796  0.55646  1.0000
  O  Te16      1.0  0.65397  0.00168  0.03940  1.0000
  Mg  Mg7       1.0  0.82216  0.02664  0.67062  1.0000
  Mg  Mg8       1.0  0.97876  0.88831  0.85892  1.0000
  C  Sn17      1.0  0.53924  0.29120  0.12625  1.0000
  C   C69       1.0  0.51438  0.30934  0.20515  1.0000
  C  Sn18      1.0  0.49211  0.26972  0.31936  1.0000
  C  Sn19      1.0  0.49477  0.21074  0.35555  1.0000
  C   C70       1.0  0.51961  0.19263  0.27669  1.0000
  C  Sn20      1.0  0.54189  0.23222  0.16243  1.0000
  O  Te17      1.0  0.56123  0.33156  0.01250  1.0000
  O  Te18      1.0  0.46745  0.28889  0.39663  1.0000
  O  Te19      1.0  0.47274  0.17038  0.46940  1.0000
  O  Te20      1.0  0.56654  0.21308  0.08521  1.0000
  Mg  Mg9       1.0  0.44339  0.21747  0.54250  1.0000
  Mg  Mg10      1.0  0.70144  0.15599  0.93938  1.0000
  C  Sn21      1.0  0.53336  0.53554  0.62738  1.0000
  C   C71       1.0  0.50133  0.55837  0.67819  1.0000
  C  Sn22      1.0  0.46948  0.52263  0.77291  1.0000
  C  Sn23      1.0  0.46967  0.46281  0.81788  1.0000
  C   C72       1.0  0.50169  0.44000  0.76711  1.0000
  C  Sn24      1.0  0.53355  0.47572  0.67235  1.0000
  O  Te21      1.0  0.56488  0.57207  0.53275  1.0000
  O  Te22      1.0  0.43778  0.54646  0.82220  1.0000
  O  Te23      1.0  0.43811  0.42628  0.91258  1.0000
  O  Te24      1.0  0.56524  0.45192  0.62309  1.0000
  Mg  Mg11      1.0  0.40174  0.47907  0.94990  1.0000
  Mg  Mg12      1.0  0.60131  0.51926  0.49546  1.0000
  C  Sn25      1.0  0.02956  0.93206  0.70997  1.0000
  C   C73       1.0  0.01058  0.95897  0.78201  1.0000
  C  Sn26      1.0  0.04286  0.00357  0.82628  1.0000
  C  Sn27      1.0  0.09519  0.02170  0.79787  1.0000
  C   C74       1.0  0.11415  0.99481  0.72584  1.0000
  C  Sn28      1.0  0.08190  0.95018  0.68155  1.0000
  O  Te25      1.0  0.18456  0.88756  0.66668  1.0000
  O  Te26      1.0  0.02300  0.02980  0.89818  1.0000
  O  Te27      1.0  0.12816  0.06624  0.84122  1.0000
  O  Te28      1.0  0.10172  0.92397  0.60967  1.0000
  Mg  Mg13      1.0  0.08310  0.08856  0.93561  1.0000
  Mg  Mg14      1.0  0.22962  0.86523  0.57212  1.0000
  C  Sn29      1.0  0.47771  0.77988  0.60513  1.0000
  C   C75       1.0  0.47159  0.79837  0.71511  1.0000
  C  Sn30      1.0  0.47353  0.75998  0.86429  1.0000
  C  Sn31      1.0  0.48180  0.70189  0.90444  1.0000
  C   C76       1.0  0.48793  0.68342  0.79451  1.0000
  C  Sn32      1.0  0.48598  0.72179  0.64528  1.0000
  O  Te29      1.0  0.47562  0.81901  0.45669  1.0000
  O  Te30      1.0  0.46729  0.77947  0.97223  1.0000
  O  Te31      1.0  0.37309  0.79122  0.05302  1.0000
  O  Te32      1.0  0.49223  0.70232  0.53739  1.0000
  Mg  Mg15      1.0  0.36244  0.83832  0.15954  1.0000
  Mg  Mg16      1.0  0.48632  0.77191  0.35009  1.0000
  C  Sn33      1.0  0.55969  0.96927  0.89325  1.0000
  C   C77       1.0  0.52160  0.01199  0.81915  1.0000
  C  Sn34      1.0  0.53249  0.06286  0.70641  1.0000
  C  Sn35      1.0  0.58248  0.07121  0.66682  1.0000
  C   C78       1.0  0.62053  0.02850  0.74088  1.0000
  C  Sn36      1.0  0.60968  0.97761  0.85367  1.0000
  O  Te33      1.0  0.43714  0.04721  0.00561  1.0000
  O  Te34      1.0  0.49379  0.10496  0.63396  1.0000
  O  Te35      1.0  0.59421  0.12178  0.55436  1.0000
  O  Te36      1.0  0.64834  0.93553  0.92607  1.0000
  Mg  Mg17      1.0  0.52857  0.16642  0.48823  1.0000
  Mg  Mg18      1.0  0.50280  0.00251  0.07175  1.0000
  C  Sn37      1.0  0.46959  0.22437  0.78497  1.0000
  C   C79       1.0  0.49923  0.19992  0.73150  1.0000
  C  Sn38      1.0  0.54624  0.22896  0.68851  1.0000
  C  Sn39      1.0  0.56403  0.28357  0.69927  1.0000
  C   C80       1.0  0.53440  0.30798  0.75273  1.0000
  C  Sn40      1.0  0.48737  0.27898  0.79573  1.0000
  O  Te37      1.0  0.42271  0.19457  0.82733  1.0000
  O  Te38      1.0  0.57519  0.20365  0.63534  1.0000
  O  Te39      1.0  0.61095  0.31336  0.65685  1.0000
  O  Te40      1.0  0.45844  0.30425  0.84889  1.0000
  Mg  Mg19      1.0  0.63652  0.26109  0.59144  1.0000
  Mg  Mg20      1.0  0.39712  0.24684  0.89290  1.0000
