data_image0
_chemical_formula_structural       C10N6C8H4N2C8H4C4H2OH5OH3C10N6C8H4N2C8H4C4H2OH5OH3C2Sn2C2HTe2HMgC2Sn2C2HTe2HMgC2Sn2C2HTe2HMgC2Sn2C2HTe2HMgC2Sn2C2HTe2HMgC2Sn2C2HTe2HMgC2Sn2C2HTe2HMgC2Sn2C2HTe2HMgC2Sn2C2HTe2HMgC2Sn2C2HTe2HMg
_chemical_formula_sum              "C100 N16 H56 O4 Sn20 Te20 Mg10"
_cell_length_a       25.5671
_cell_length_b       25.5817
_cell_length_c       9.79671
_cell_angle_alpha    67.059
_cell_angle_beta     110.62
_cell_angle_gamma    100.828

_symmetry_space_group_name_H-M    'P1'
_space_group_IT_number       1

loop_
  _space_group_symop_operation_xyz
  'x, y, z'

loop_
  _atom_site_type_symbol
  _atom_site_label
  _atom_site_symmetry_multiplicity
  _atom_site_fract_x
  _atom_site_fract_y
  _atom_site_fract_z
  _atom_site_occupancy
  C   C1        1.0  0.03753  0.04691  0.29119  1.0000
  C   C2        1.0  0.96076  0.96684  0.18594  1.0000
  C   C3        1.0  0.01612  0.96814  0.19147  1.0000
  C   C4        1.0  0.98239  0.04498  0.28786  1.0000
  C   C5        1.0  0.48415  0.38718  0.25125  1.0000
  C   C6        1.0  0.88585  0.99971  0.23098  1.0000
  C   C7        1.0  0.50172  0.61298  0.25469  1.0000
  C   C8        1.0  0.11314  0.01304  0.25355  1.0000
  C   C9        1.0  0.05534  0.00935  0.24454  1.0000
  C   C10       1.0  0.94309  0.00408  0.23384  1.0000
  N   N1        1.0  0.46233  0.63432  0.26740  1.0000
  N   N2        1.0  0.13349  0.97781  0.22021  1.0000
  N   N3        1.0  0.52441  0.36539  0.24360  1.0000
  N   N4        1.0  0.86822  0.03102  0.28255  1.0000
  N   N5        1.0  0.44822  0.05237  0.25065  1.0000
  N   N6        1.0  0.54938  0.95095  0.23623  1.0000
  C   C11       1.0  0.39124  0.04253  0.22053  1.0000
  C   C12       1.0  0.53334  0.90012  0.21169  1.0000
  C   C13       1.0  0.60327  0.96394  0.22934  1.0000
  C   C14       1.0  0.45791  0.10994  0.21832  1.0000
  C   C15       1.0  0.36378  0.09571  0.15532  1.0000
  C   C16       1.0  0.57642  0.88294  0.17499  1.0000
  C   C17       1.0  0.62109  0.92091  0.19391  1.0000
  C   C18       1.0  0.40537  0.13785  0.15477  1.0000
  H   H1        1.0  0.31910  0.10023  0.11341  1.0000
  H   H2        1.0  0.57306  0.84725  0.13932  1.0000
  H   H3        1.0  0.66134  0.91932  0.18426  1.0000
  H   H4        1.0  0.40076  0.18316  0.11275  1.0000
  N   N7        1.0  0.43343  0.93653  0.24313  1.0000
  N   N8        1.0  0.56523  0.06352  0.26241  1.0000
  C   C19       1.0  0.38752  0.93804  0.28429  1.0000
  C   C20       1.0  0.44235  0.88153  0.26984  1.0000
  C   C21       1.0  0.61915  0.05687  0.27363  1.0000
  C   C22       1.0  0.56141  0.11553  0.27025  1.0000
  C   C23       1.0  0.36829  0.88032  0.34897  1.0000
  C   C24       1.0  0.40124  0.84593  0.33887  1.0000
  C   C25       1.0  0.65129  0.10737  0.29193  1.0000
  C   C26       1.0  0.61685  0.14206  0.29457  1.0000
  H   H5        1.0  0.33488  0.86684  0.40115  1.0000
  H   H6        1.0  0.39942  0.80008  0.38263  1.0000
  H   H7        1.0  0.69500  0.11638  0.29921  1.0000
  H   H8        1.0  0.62872  0.18274  0.31017  1.0000
  C   C27       1.0  0.36298  0.98784  0.25532  1.0000
  C   C28       1.0  0.48531  0.86486  0.23784  1.0000
  C   C29       1.0  0.63787  0.01133  0.25787  1.0000
  C   C30       1.0  0.51157  0.13915  0.24510  1.0000
  H   H9        1.0  0.44333  0.36408  0.25264  1.0000
  H   H10       1.0  0.06742  0.07791  0.33247  1.0000
  O   O1        1.0  0.03185  0.93073  0.14846  1.0000
  H   H11       1.0  0.85766  0.96780  0.18716  1.0000
  H   H12       1.0  0.07352  0.93958  0.16399  1.0000
  H   H13       1.0  0.45948  0.97067  0.20671  1.0000
  H   H14       1.0  0.54019  0.63832  0.23696  1.0000
  H   H15       1.0  0.93093  0.93570  0.14510  1.0000
  O   O2        1.0  0.96731  0.08120  0.33570  1.0000
  H   H16       1.0  0.13928  0.04727  0.29045  1.0000
  H   H17       1.0  0.92643  0.07020  0.33053  1.0000
  H   H18       1.0  0.53317  0.03309  0.25506  1.0000
  C   C31       1.0  0.03444  0.05268  0.77377  1.0000
  C   C32       1.0  0.96762  0.95431  0.75219  1.0000
  C   C33       1.0  0.02246  0.95848  0.75070  1.0000
  C   C34       1.0  0.97945  0.04875  0.77370  1.0000
  C   C35       1.0  0.49338  0.38764  0.73944  1.0000
  C   C36       1.0  0.88872  0.99200  0.76647  1.0000
  C   C37       1.0  0.50876  0.61570  0.72639  1.0000
  C   C38       1.0  0.11387  0.01505  0.76250  1.0000
  C   C39       1.0  0.05682  0.00863  0.76306  1.0000
  C   C40       1.0  0.94545  0.99820  0.76446  1.0000
  N   N9        1.0  0.47631  0.63103  0.77831  1.0000
  N   N10       1.0  0.13565  0.97569  0.74873  1.0000
  N   N11       1.0  0.52979  0.36532  0.71752  1.0000
  N   N12       1.0  0.86608  0.03248  0.77302  1.0000
  N   N13       1.0  0.44716  0.04798  0.75512  1.0000
  N   N14       1.0  0.55059  0.94860  0.74187  1.0000
  C   C41       1.0  0.39012  0.03877  0.71940  1.0000
  C   C42       1.0  0.53777  0.89546  0.73054  1.0000
  C   C43       1.0  0.60349  0.96401  0.72827  1.0000
  C   C44       1.0  0.45729  0.10540  0.72775  1.0000
  C   C45       1.0  0.36315  0.09233  0.65630  1.0000
  C   C46       1.0  0.58330  0.87774  0.70395  1.0000
  C   C47       1.0  0.62297  0.92127  0.69604  1.0000
  C   C48       1.0  0.40517  0.13388  0.66177  1.0000
  H   H19       1.0  0.31855  0.09756  0.61105  1.0000
  H   H20       1.0  0.58468  0.83788  0.69154  1.0000
  H   H21       1.0  0.66144  0.92434  0.66997  1.0000
  H   H22       1.0  0.40133  0.17921  0.62215  1.0000
  N   N15       1.0  0.43535  0.93206  0.75477  1.0000
  N   N16       1.0  0.56418  0.06213  0.75916  1.0000
  C   C49       1.0  0.38311  0.93487  0.76352  1.0000
  C   C50       1.0  0.44224  0.87843  0.76339  1.0000
  C   C51       1.0  0.61898  0.05458  0.78256  1.0000
  C   C52       1.0  0.56084  0.10869  0.79302  1.0000
  C   C53       1.0  0.35646  0.87895  0.78444  1.0000
  C   C54       1.0  0.39148  0.84537  0.77956  1.0000
  C   C55       1.0  0.65234  0.09736  0.84147  1.0000
  C   C56       1.0  0.61706  0.12971  0.85001  1.0000
  H   H23       1.0  0.31561  0.86604  0.80026  1.0000
  H   H24       1.0  0.38293  0.80167  0.78515  1.0000
  H   H25       1.0  0.69751  0.10100  0.87865  1.0000
  H   H26       1.0  0.62865  0.16405  0.89522  1.0000
  C   C57       1.0  0.36020  0.98467  0.74294  1.0000
  C   C58       1.0  0.48887  0.86074  0.75006  1.0000
  C   C59       1.0  0.63744  0.01173  0.75579  1.0000
  C   C60       1.0  0.51107  0.13334  0.76219  1.0000
  H   H27       1.0  0.45560  0.36339  0.76563  1.0000
  H   H28       1.0  0.06018  0.09103  0.78122  1.0000
  O   O3        1.0  0.04222  0.91551  0.73886  1.0000
  H   H29       1.0  0.86438  0.95261  0.75754  1.0000
  H   H30       1.0  0.08239  0.92868  0.73767  1.0000
  H   H31       1.0  0.46583  0.96433  0.74942  1.0000
  H   H32       1.0  0.54099  0.64518  0.68063  1.0000
  H   H33       1.0  0.94170  0.91614  0.74367  1.0000
  O   O4        1.0  0.95954  0.09240  0.78191  1.0000
  H   H34       1.0  0.13768  0.05474  0.77068  1.0000
  H   H35       1.0  0.91903  0.08029  0.77960  1.0000
  H   H36       1.0  0.53137  0.03492  0.72904  1.0000
  C   C61       1.0  0.55000  0.52183  0.25228  1.0000
  C   C62       1.0  0.50834  0.55271  0.24251  1.0000
  C  Sn1       1.0  0.45530  0.52681  0.24516  1.0000
  C  Sn2       1.0  0.44389  0.46892  0.25789  1.0000
  C   C63       1.0  0.48587  0.43839  0.26771  1.0000
  C   C64       1.0  0.53878  0.46472  0.26489  1.0000
  H   H37       1.0  0.59095  0.54219  0.25019  1.0000
  O  Te1       1.0  0.41416  0.55829  0.23523  1.0000
  O  Te2       1.0  0.39126  0.44199  0.26087  1.0000
  H   H38       1.0  0.57104  0.44079  0.27256  1.0000
  Mg  Mg1       1.0  0.34893  0.50274  0.24402  1.0000
  C   C65       1.0  0.27670  0.02261  0.32190  1.0000
  C   C66       1.0  0.30185  0.98892  0.28222  1.0000
  C  Sn3       1.0  0.45708  0.95115  0.20964  1.0000
  C  Sn4       1.0  0.39809  0.94715  0.17629  1.0000
  C   C67       1.0  0.18536  0.98107  0.21636  1.0000
  C   C68       1.0  0.21852  0.01870  0.28900  1.0000
  H   H39       1.0  0.30235  0.05176  0.37803  1.0000
  O  Te3       1.0  0.48289  0.91779  0.17083  1.0000
  O  Te4       1.0  0.36438  0.90977  0.10378  1.0000
  H   H40       1.0  0.19903  0.04481  0.31962  1.0000
  Mg  Mg2       1.0  0.41910  0.87321  0.07350  1.0000
  C   C69       1.0  0.41591  0.73609  0.18704  1.0000
  C   C70       1.0  0.45726  0.69705  0.24988  1.0000
  C  Sn5       1.0  0.51272  0.71226  0.32049  1.0000
  C  Sn6       1.0  0.52691  0.76761  0.32821  1.0000
  C   C71       1.0  0.48523  0.80634  0.26510  1.0000
  C   C72       1.0  0.42987  0.79068  0.19466  1.0000
  H   H41       1.0  0.37307  0.72397  0.13261  1.0000
  O  Te5       1.0  0.55351  0.67274  0.38263  1.0000
  O  Te6       1.0  0.58200  0.78392  0.39818  1.0000
  H   H42       1.0  0.39786  0.82090  0.14611  1.0000
  Mg  Mg3       1.0  0.62274  0.71504  0.46612  1.0000
  C   C73       1.0  0.75667  0.03042  0.40724  1.0000
  C   C74       1.0  0.70797  0.02071  0.29503  1.0000
  C  Sn7       1.0  0.71134  0.01246  0.16561  1.0000
  C  Sn8       1.0  0.76451  0.01396  0.14853  1.0000
  C   C75       1.0  0.81299  0.02366  0.26149  1.0000
  C   C76       1.0  0.80914  0.03188  0.39052  1.0000
  H   H43       1.0  0.75370  0.03675  0.50712  1.0000
  O  Te7       1.0  0.66226  0.00284  0.05458  1.0000
  O  Te8       1.0  0.76908  0.00583  0.02035  1.0000
  H   H44       1.0  0.84685  0.03935  0.47742  1.0000
  Mg  Mg4       1.0  0.98891  0.86570  0.90027  1.0000
  C   C77       1.0  0.55286  0.25806  0.15598  1.0000
  C   C78       1.0  0.52520  0.20807  0.22923  1.0000
  C  Sn9       1.0  0.49179  0.20903  0.31437  1.0000
  C  Sn10      1.0  0.48603  0.26108  0.32616  1.0000
  C   C79       1.0  0.51384  0.31087  0.25235  1.0000
  C   C80       1.0  0.54719  0.30942  0.16749  1.0000
  H   H45       1.0  0.57864  0.25695  0.09024  1.0000
  O  Te9       1.0  0.46446  0.15869  0.38688  1.0000
  O  Te10      1.0  0.45288  0.26326  0.41047  1.0000
  H   H46       1.0  0.56857  0.34814  0.11070  1.0000
  Mg  Mg5       1.0  0.42401  0.18335  0.48863  1.0000
  C   C81       1.0  0.45738  0.47291  0.79658  1.0000
  C   C82       1.0  0.48633  0.45017  0.73724  1.0000
  C  Sn11      1.0  0.52869  0.48290  0.67658  1.0000
  C  Sn12      1.0  0.54223  0.53942  0.67549  1.0000
  C   C83       1.0  0.51304  0.56176  0.73522  1.0000
  C   C84       1.0  0.47072  0.52864  0.79561  1.0000
  H   H47       1.0  0.42465  0.44728  0.84338  1.0000
  O  Te11      1.0  0.55719  0.45952  0.61771  1.0000
  O  Te12      1.0  0.58440  0.57306  0.61560  1.0000
  H   H48       1.0  0.44833  0.54625  0.84163  1.0000
  Mg  Mg6       1.0  0.61131  0.52219  0.54852  1.0000
  C   C85       1.0  0.27913  0.01854  0.82985  1.0000
  C   C86       1.0  0.30027  0.98671  0.77511  1.0000
  C  Sn13      1.0  0.26416  0.95202  0.69685  1.0000
  C  Sn14      1.0  0.20581  0.94924  0.67309  1.0000
  C   C87       1.0  0.18507  0.98128  0.72821  1.0000
  C   C88       1.0  0.22158  0.01584  0.80642  1.0000
  H   H49       1.0  0.30738  0.04530  0.89029  1.0000
  O  Te13      1.0  0.28598  0.92048  0.64296  1.0000
  O  Te14      1.0  0.35674  0.91493  0.59519  1.0000
  H   H50       1.0  0.20520  0.04051  0.84870  1.0000
  Mg  Mg7       1.0  0.40662  0.87994  0.54355  1.0000
  C   C89       1.0  0.46967  0.70906  0.90416  1.0000
  C   C90       1.0  0.47102  0.68998  0.78987  1.0000
  C  Sn15      1.0  0.48299  0.72837  0.65560  1.0000
  C  Sn16      1.0  0.49380  0.78693  0.63572  1.0000
  C   C91       1.0  0.49238  0.80559  0.75079  1.0000
  C   C92       1.0  0.48034  0.76681  0.88467  1.0000
  H   H51       1.0  0.34959  0.80753  0.00779  1.0000
  O  Te15      1.0  0.48415  0.70859  0.54255  1.0000
  O  Te16      1.0  0.50589  0.82621  0.50268  1.0000
  H   H52       1.0  0.47933  0.78159  0.97318  1.0000
  Mg  Mg8       1.0  0.50261  0.77859  0.38148  1.0000
  C   C93       1.0  0.55531  0.96142  0.85618  1.0000
  C   C94       1.0  0.51829  0.00448  0.79692  1.0000
  C  Sn17      1.0  0.53393  0.06039  0.71695  1.0000
  C  Sn18      1.0  0.58766  0.07330  0.69605  1.0000
  C   C95       1.0  0.62439  0.02991  0.75568  1.0000
  C   C96       1.0  0.60831  0.97411  0.83557  1.0000
  H   H53       1.0  0.54287  0.91823  0.91792  1.0000
  O  Te17      1.0  0.49643  0.10291  0.65855  1.0000
  O  Te18      1.0  0.60437  0.12882  0.61653  1.0000
  H   H54       1.0  0.63697  0.94077  0.88135  1.0000
  Mg  Mg9       1.0  0.53848  0.17208  0.55849  1.0000
  C   C97       1.0  0.55732  0.24879  0.66671  1.0000
  C   C98       1.0  0.52829  0.20140  0.74554  1.0000
  C  Sn19      1.0  0.49373  0.20767  0.82069  1.0000
  C  Sn20      1.0  0.48820  0.26246  0.81661  1.0000
  C   C99       1.0  0.51738  0.30962  0.73734  1.0000
  C   C100      1.0  0.55187  0.30285  0.66258  1.0000
  H   H55       1.0  0.58397  0.24357  0.60879  1.0000
  O  Te19      1.0  0.46504  0.15986  0.89896  1.0000
  O  Te20      1.0  0.45392  0.26994  0.89068  1.0000
  H   H56       1.0  0.57431  0.33956  0.60147  1.0000
  Mg  Mg10      1.0  0.42339  0.19178  0.98221  1.0000
