data_image0
_chemical_formula_structural       C10N6H2C8H4N2C8H4C4H2OHCOHOHC7H2C6H5C4OH8C10N6H2C8H4N2C8H4C4H2OHCOHOHC7H2C6H5C4OH8SnCSn2CSnTe4Mg2SnCSn2CSnTe4Mg2SnCSn2CSnTe4Mg2SnCSn2CSnTe4Mg2SnCSn2CSnTe4Mg2SnCSn2CSnTe4Mg2SnCSn2CSnTe4Mg2SnCSn2CSnTe4Mg2SnCSn2CSnTe4Mg2SnCSn2CSnTe4Mg2SnCSn2CSnTe4Mg2SnCSn2CSnTe4Mg2SnCSn2CSnTe4Mg2SnCSn2CSnTe4Mg2
_chemical_formula_sum              "C124 N16 H60 O8 Sn56 Te56 Mg28"
_cell_length_a       25.3335
_cell_length_b       25.3343
_cell_length_c       11.3462
_cell_angle_alpha    50.5566
_cell_angle_beta     93.0313
_cell_angle_gamma    109.111

_symmetry_space_group_name_H-M    'P1'
_space_group_IT_number       1

loop_
  _space_group_symop_operation_xyz
  'x, y, z'

loop_
  _atom_site_type_symbol
  _atom_site_label
  _atom_site_symmetry_multiplicity
  _atom_site_fract_x
  _atom_site_fract_y
  _atom_site_fract_z
  _atom_site_occupancy
  C   C1        1.0  0.08536  0.09560  0.24472  1.0000
  C   C2        1.0  0.99329  0.02164  0.19803  1.0000
  C   C3        1.0  0.04305  0.00878  0.20719  1.0000
  C   C4        1.0  0.03516  0.10747  0.23789  1.0000
  C   C5        1.0  0.54818  0.46301  0.20369  1.0000
  C   C6        1.0  0.93355  0.08186  0.18883  1.0000
  C   C7        1.0  0.54011  0.66383  0.27773  1.0000
  C   C8        1.0  0.14890  0.04624  0.22898  1.0000
  C   C9        1.0  0.09202  0.04786  0.22627  1.0000
  C   C10       1.0  0.98771  0.07221  0.20823  1.0000
  N   N1        1.0  0.49934  0.68818  0.24806  1.0000
  N   N2        1.0  0.16564  0.00485  0.22245  1.0000
  N   N3        1.0  0.58674  0.43448  0.24818  1.0000
  N   N4        1.0  0.92433  0.13574  0.16057  1.0000
  N   N5        1.0  0.49004  0.10847  0.25144  1.0000
  N   N6        1.0  0.59710  0.01669  0.23505  1.0000
  H   H1        1.0  0.51382  0.08035  0.26290  1.0000
  H   H2        1.0  0.57183  0.03558  0.25488  1.0000
  C   C11       1.0  0.43310  0.09089  0.24176  1.0000
  C   C12       1.0  0.57853  0.96399  0.21998  1.0000
  C   C13       1.0  0.65591  0.04433  0.21038  1.0000
  C   C14       1.0  0.51026  0.17003  0.23839  1.0000
  C   C15       1.0  0.41777  0.14763  0.21118  1.0000
  C   C16       1.0  0.62866  0.95994  0.17858  1.0000
  C   C17       1.0  0.67560  0.00815  0.17443  1.0000
  C   C18       1.0  0.46350  0.19333  0.21620  1.0000
  H   H3        1.0  0.37713  0.15312  0.18816  1.0000
  H   H4        1.0  0.62827  0.92528  0.15311  1.0000
  H   H5        1.0  0.72001  0.01882  0.14684  1.0000
  H   H6        1.0  0.46483  0.23935  0.20508  1.0000
  N   N7        1.0  0.47312  0.98905  0.25444  1.0000
  N   N8        1.0  0.61298  0.13260  0.24375  1.0000
  C   C19       1.0  0.41676  0.97488  0.29209  1.0000
  C   C20       1.0  0.47279  0.92925  0.27528  1.0000
  C   C21       1.0  0.66900  0.13911  0.23377  1.0000
  C   C22       1.0  0.61299  0.18486  0.25054  1.0000
  C   C23       1.0  0.38011  0.90170  0.34930  1.0000
  C   C24       1.0  0.41500  0.87397  0.33551  1.0000
  C   C25       1.0  0.70521  0.19559  0.23820  1.0000
  C   C26       1.0  0.67047  0.22474  0.24686  1.0000
  H   H7        1.0  0.33456  0.87464  0.39726  1.0000
  H   H8        1.0  0.40324  0.82076  0.36674  1.0000
  H   H9        1.0  0.75081  0.21126  0.23286  1.0000
  H   H10       1.0  0.68245  0.26907  0.24922  1.0000
  C   C27       1.0  0.39667  0.02597  0.27118  1.0000
  C   C28       1.0  0.52136  0.91994  0.24764  1.0000
  C   C29       1.0  0.68985  0.09871  0.21653  1.0000
  C   C30       1.0  0.56562  0.20361  0.24602  1.0000
  H   H11       1.0  0.12133  0.12514  0.26441  1.0000
  H   H12       1.0  0.51254  0.44595  0.16045  1.0000
  O   O1        1.0  0.04088  0.95986  0.18585  1.0000
  H   H13       1.0  0.89900  0.03792  0.20033  1.0000
  C   C31       1.0  0.04979  0.89564  0.30599  1.0000
  O   O2        1.0  0.06639  0.88439  0.41950  1.0000
  H   H14       1.0  0.57844  0.68438  0.30913  1.0000
  O   O3        1.0  0.03954  0.16241  0.24128  1.0000
  H   H15       1.0  0.17857  0.08548  0.23900  1.0000
  C   C32       1.0  0.08991  0.67269  0.28640  1.0000
  C   C33       1.0  0.09072  0.71211  0.32932  1.0000
  C   C34       1.0  0.99920  0.73369  0.25695  1.0000
  C   C35       1.0  0.05099  0.74735  0.30420  1.0000
  C   C36       1.0  0.98434  0.83221  0.22204  1.0000
  C   C37       1.0  0.03375  0.84326  0.27843  1.0000
  C   C38       1.0  0.06611  0.80033  0.32172  1.0000
  H   H16       1.0  0.24309  0.55847  0.33605  1.0000
  H   H17       1.0  0.10444  0.81000  0.36486  1.0000
  C   C39       1.0  0.96187  0.40230  0.27663  1.0000
  C   C40       1.0  0.05410  0.36913  0.20954  1.0000
  C   C41       1.0  0.99516  0.32570  0.25515  1.0000
  C   C42       1.0  0.09468  0.34413  0.20479  1.0000
  C   C43       1.0  0.07765  0.27596  0.24228  1.0000
  C   C44       1.0  0.01920  0.23230  0.28546  1.0000
  H   H18       1.0  0.13991  0.37816  0.17138  1.0000
  H   H19       1.0  0.10910  0.25593  0.23981  1.0000
  H   H20       1.0  0.00553  0.42945  0.27569  1.0000
  H   H21       1.0  0.05577  0.66291  0.23200  1.0000
  H   H22       1.0  0.12549  0.72263  0.38154  1.0000
  C   C45       1.0  0.99988  0.15898  0.32844  1.0000
  C   C46       1.0  0.97852  0.25739  0.29108  1.0000
  C   C47       1.0  0.95168  0.34854  0.26949  1.0000
  C   C48       1.0  0.96642  0.77539  0.21715  1.0000
  O   O4        1.0  0.95808  0.10440  0.42474  1.0000
  H   H23       1.0  0.96002  0.86673  0.18581  1.0000
  H   H24       1.0  0.92700  0.76445  0.17944  1.0000
  H   H25       1.0  0.98467  0.69051  0.24983  1.0000
  H   H26       1.0  0.81616  0.50884  0.30619  1.0000
  H   H27       1.0  0.90807  0.31745  0.27926  1.0000
  H   H28       1.0  0.93345  0.22288  0.32449  1.0000
  H   H29       1.0  0.06833  0.42300  0.17738  1.0000
  H   H30       1.0  0.95754  0.99229  0.17766  1.0000
  C   C49       1.0  0.08489  0.09331  0.77786  1.0000
  C   C50       1.0  0.99198  0.01699  0.73745  1.0000
  C   C51       1.0  0.04303  0.00824  0.73494  1.0000
  C   C52       1.0  0.03375  0.10136  0.78219  1.0000
  C   C53       1.0  0.55449  0.46875  0.70500  1.0000
  C   C54       1.0  0.92984  0.06974  0.74891  1.0000
  C   C55       1.0  0.54321  0.66942  0.77678  1.0000
  C   C56       1.0  0.14953  0.04907  0.74542  1.0000
  C   C57       1.0  0.09213  0.04820  0.75162  1.0000
  C   C58       1.0  0.98534  0.06380  0.75869  1.0000
  N   N9        1.0  0.50129  0.69170  0.74957  1.0000
  N   N10       1.0  0.16682  0.01295  0.72211  1.0000
  N   N11       1.0  0.59537  0.44429  0.73729  1.0000
  N   N12       1.0  0.91572  0.10971  0.76543  1.0000
  N   N13       1.0  0.49019  0.11001  0.76460  1.0000
  N   N14       1.0  0.59788  0.02559  0.71563  1.0000
  H   H31       1.0  0.51455  0.08622  0.75917  1.0000
  H   H32       1.0  0.57302  0.04609  0.73160  1.0000
  C   C59       1.0  0.43231  0.09058  0.76547  1.0000
  C   C60       1.0  0.57771  0.96749  0.71697  1.0000
  C   C61       1.0  0.65665  0.04995  0.69838  1.0000
  C   C62       1.0  0.51030  0.16717  0.76628  1.0000
  C   C63       1.0  0.41539  0.13945  0.76502  1.0000
  C   C64       1.0  0.62680  0.95659  0.69307  1.0000
  C   C65       1.0  0.67432  0.00486  0.68681  1.0000
  C   C66       1.0  0.46187  0.18322  0.77286  1.0000
  H   H33       1.0  0.37327  0.14127  0.75939  1.0000
  H   H34       1.0  0.62550  0.91658  0.68282  1.0000
  H   H35       1.0  0.71773  0.00879  0.67493  1.0000
  H   H36       1.0  0.46278  0.22362  0.78123  1.0000
  N   N15       1.0  0.47342  0.99535  0.74926  1.0000
  N   N16       1.0  0.61454  0.13785  0.73833  1.0000
  C   C67       1.0  0.41716  0.98342  0.78100  1.0000
  C   C68       1.0  0.47209  0.93589  0.76674  1.0000
  C   C69       1.0  0.67092  0.15152  0.70142  1.0000
  C   C70       1.0  0.61564  0.19444  0.73150  1.0000
  C   C71       1.0  0.37931  0.91302  0.82673  1.0000
  C   C72       1.0  0.41357  0.88358  0.81723  1.0000
  C   C73       1.0  0.70857  0.21977  0.66487  1.0000
  C   C74       1.0  0.67413  0.24639  0.68414  1.0000
  H   H37       1.0  0.33327  0.88862  0.86570  1.0000
  H   H38       1.0  0.40066  0.83103  0.84489  1.0000
  H   H39       1.0  0.75452  0.24513  0.62356  1.0000
  H   H40       1.0  0.68668  0.29748  0.66247  1.0000
  C   C75       1.0  0.39706  0.03133  0.77422  1.0000
  C   C76       1.0  0.52016  0.92410  0.74500  1.0000
  C   C77       1.0  0.69149  0.10803  0.69329  1.0000
  C   C78       1.0  0.56747  0.20648  0.75219  1.0000
  H   H41       1.0  0.12117  0.12353  0.79529  1.0000
  H   H42       1.0  0.51623  0.44683  0.67551  1.0000
  O   O5        1.0  0.04200  0.96305  0.70328  1.0000
  H   H43       1.0  0.89961  0.03750  0.72293  1.0000
  C   C79       1.0  0.05253  0.89879  0.81401  1.0000
  O   O6        1.0  0.07091  0.88425  0.92799  1.0000
  H   H44       1.0  0.58119  0.69085  0.80784  1.0000
  O   O7        1.0  0.03233  0.14379  0.81983  1.0000
  H   H45       1.0  0.17936  0.08447  0.76479  1.0000
  C   C80       1.0  0.08690  0.68317  0.75855  1.0000
  C   C81       1.0  0.08885  0.72066  0.80708  1.0000
  C   C82       1.0  0.99937  0.74773  0.73379  1.0000
  C   C83       1.0  0.05101  0.75780  0.78423  1.0000
  C   C84       1.0  0.98630  0.84278  0.71677  1.0000
  C   C85       1.0  0.03575  0.85050  0.77537  1.0000
  C   C86       1.0  0.06729  0.80766  0.81055  1.0000
  H   H46       1.0  0.22892  0.55122  0.83063  1.0000
  H   H47       1.0  0.10574  0.81464  0.85534  1.0000
  C   C87       1.0  0.95290  0.41616  0.72635  1.0000
  C   C88       1.0  0.02669  0.32755  0.85520  1.0000
  C   C89       1.0  0.98707  0.32550  0.76433  1.0000
  C   C90       1.0  0.06445  0.29183  0.89660  1.0000
  C   C91       1.0  0.06257  0.25052  0.85369  1.0000
  C   C92       1.0  0.02376  0.24790  0.76315  1.0000
  H   H48       1.0  0.09439  0.29379  0.96717  1.0000
  H   H49       1.0  0.09074  0.22064  0.88923  1.0000
  H   H50       1.0  0.99143  0.43527  0.75774  1.0000
  H   H51       1.0  0.05425  0.67854  0.69562  1.0000
  H   H52       1.0  0.12287  0.72671  0.86563  1.0000
  C   C93       1.0  0.02536  0.21034  0.70410  1.0000
  C   C94       1.0  0.98667  0.28552  0.71771  1.0000
  C   C95       1.0  0.94686  0.36282  0.72041  1.0000
  C   C96       1.0  0.96763  0.78962  0.70096  1.0000
  O   O8        1.0  0.02373  0.23417  0.57236  1.0000
  H   H53       1.0  0.96241  0.87686  0.68779  1.0000
  H   H54       1.0  0.92830  0.78177  0.66052  1.0000
  H   H55       1.0  0.98457  0.70760  0.71782  1.0000
  H   H56       1.0  0.81851  0.56648  0.58382  1.0000
  H   H57       1.0  0.91072  0.34718  0.67747  1.0000
  H   H58       1.0  0.95711  0.28350  0.64622  1.0000
  H   H59       1.0  0.02665  0.35602  0.89708  1.0000
  H   H60       1.0  0.95601  0.98736  0.71808  1.0000
  C  Sn1       1.0  0.48500  0.55724  0.24499  1.0000
  C   C97       1.0  0.52448  0.58881  0.29492  1.0000
  C  Sn2       1.0  0.57970  0.58914  0.29404  1.0000
  C  Sn3       1.0  0.59582  0.55728  0.24207  1.0000
  C   C98       1.0  0.55636  0.52574  0.19216  1.0000
  C  Sn4       1.0  0.50112  0.52538  0.19302  1.0000
  O  Te1       1.0  0.43003  0.55753  0.24686  1.0000
  O  Te2       1.0  0.61842  0.62100  0.34455  1.0000
  O  Te3       1.0  0.65085  0.55700  0.24025  1.0000
  O  Te4       1.0  0.46243  0.49355  0.14252  1.0000
  Mg  Mg1       1.0  0.68832  0.60711  0.32018  1.0000
  Mg  Mg2       1.0  0.39253  0.50745  0.16677  1.0000
  C  Sn5       1.0  0.92523  0.95660  0.23964  1.0000
  C   C99       1.0  0.89225  0.97582  0.29100  1.0000
  C  Sn6       1.0  0.91822  0.02061  0.32669  1.0000
  C  Sn7       1.0  0.97841  0.04678  0.31062  1.0000
  C   C100      1.0  0.01135  0.02757  0.25926  1.0000
  C  Sn8       1.0  0.98542  0.98276  0.22357  1.0000
  O  Te5       1.0  0.22577  0.91176  0.20461  1.0000
  O  Te6       1.0  0.88436  0.03906  0.37788  1.0000
  O  Te7       1.0  0.00526  0.09165  0.34570  1.0000
  O  Te8       1.0  0.01925  0.96432  0.17239  1.0000
  Mg  Mg3       1.0  0.94082  0.10165  0.41110  1.0000
  Mg  Mg4       1.0  0.29024  0.90177  0.13905  1.0000
  C  Sn9       1.0  0.46217  0.82267  0.19091  1.0000
  C   C101      1.0  0.49391  0.84209  0.27125  1.0000
  C  Sn10      1.0  0.53551  0.81347  0.34185  1.0000
  C  Sn11      1.0  0.54563  0.76445  0.33186  1.0000
  C   C102      1.0  0.51391  0.74506  0.25153  1.0000
  C  Sn12      1.0  0.47229  0.77364  0.18092  1.0000
  O  Te9       1.0  0.42079  0.85195  0.12122  1.0000
  O  Te10      1.0  0.56668  0.83368  0.42158  1.0000
  O  Te11      1.0  0.58705  0.73517  0.40164  1.0000
  O  Te12      1.0  0.44114  0.75347  0.10121  1.0000
  Mg  Mg5       1.0  0.61845  0.77924  0.49714  1.0000
  Mg  Mg6       1.0  0.38939  0.80791  0.02553  1.0000
  C  Sn13      1.0  0.80526  0.18089  0.04420  1.0000
  C   C103      1.0  0.75830  0.11812  0.16128  1.0000
  C  Sn14      1.0  0.76638  0.05964  0.30246  1.0000
  C  Sn15      1.0  0.82257  0.06400  0.32719  1.0000
  C   C104      1.0  0.86950  0.12674  0.21017  1.0000
  C  Sn16      1.0  0.86146  0.18524  0.06893  1.0000
  O  Te13      1.0  0.71836  0.92868  0.90397  1.0000
  O  Te14      1.0  0.71876  0.99745  0.41775  1.0000
  O  Te15      1.0  0.83163  0.00612  0.46756  1.0000
  O  Te16      1.0  0.83122  0.93740  0.95370  1.0000
  Mg  Mg7       1.0  0.75314  0.93307  0.58906  1.0000
  Mg  Mg8       1.0  0.79689  0.00183  0.78238  1.0000
  C  Sn17      1.0  0.54480  0.36057  0.13511  1.0000
  C   C105      1.0  0.56395  0.36908  0.24197  1.0000
  C  Sn18      1.0  0.59495  0.32861  0.34585  1.0000
  C  Sn19      1.0  0.60710  0.27862  0.34281  1.0000
  C   C106      1.0  0.58797  0.27014  0.23600  1.0000
  C  Sn20      1.0  0.55695  0.31058  0.13208  1.0000
  O  Te17      1.0  0.51388  0.40160  0.03234  1.0000
  O  Te18      1.0  0.61363  0.33804  0.45165  1.0000
  O  Te19      1.0  0.63805  0.23757  0.44572  1.0000
  O  Te20      1.0  0.53829  0.30118  0.02631  1.0000
  Mg  Mg9       1.0  0.65428  0.26971  0.56812  1.0000
  Mg  Mg10      1.0  0.41985  0.05949  0.90974  1.0000
  C  Sn21      1.0  0.12122  0.57211  0.30185  1.0000
  C   C107      1.0  0.12399  0.61779  0.33380  1.0000
  C  Sn22      1.0  0.17548  0.65275  0.35043  1.0000
  C  Sn23      1.0  0.22525  0.64186  0.33471  1.0000
  C   C108      1.0  0.22246  0.59620  0.30276  1.0000
  C  Sn24      1.0  0.17098  0.56121  0.28613  1.0000
  O  Te21      1.0  0.06929  0.53772  0.28569  1.0000
  O  Te22      1.0  0.17720  0.69815  0.38240  1.0000
  O  Te23      1.0  0.27720  0.67629  0.35091  1.0000
  O  Te24      1.0  0.16925  0.51585  0.25415  1.0000
  Mg  Mg11      1.0  0.25795  0.73295  0.39416  1.0000
  Mg  Mg12      1.0  0.08854  0.48105  0.24229  1.0000
  C  Sn25      1.0  0.85752  0.42688  0.22543  1.0000
  C   C109      1.0  0.91428  0.44081  0.24227  1.0000
  C  Sn26      1.0  0.93655  0.47387  0.30570  1.0000
  C  Sn27      1.0  0.90135  0.49337  0.35340  1.0000
  C   C110      1.0  0.84462  0.47943  0.33657  1.0000
  C  Sn28      1.0  0.82232  0.44638  0.27312  1.0000
  O  Te25      1.0  0.83616  0.39378  0.16173  1.0000
  O  Te26      1.0  0.99343  0.48727  0.32133  1.0000
  O  Te27      1.0  0.92277  0.52650  0.41713  1.0000
  O  Te28      1.0  0.76547  0.43297  0.25752  1.0000
  Mg  Mg13      1.0  0.00290  0.53350  0.41475  1.0000
  Mg  Mg14      1.0  0.75595  0.38671  0.16419  1.0000
  C  Sn29      1.0  0.59291  0.54462  0.81576  1.0000
  C   C111      1.0  0.55444  0.51353  0.76343  1.0000
  C  Sn30      1.0  0.51232  0.54082  0.69232  1.0000
  C  Sn31      1.0  0.50857  0.60047  0.67301  1.0000
  C   C112      1.0  0.54703  0.63154  0.72530  1.0000
  C  Sn32      1.0  0.58916  0.60427  0.79645  1.0000
  O  Te29      1.0  0.63468  0.51645  0.88651  1.0000
  O  Te30      1.0  0.47433  0.50881  0.64100  1.0000
  O  Te31      1.0  0.46675  0.62862  0.60220  1.0000
  O  Te32      1.0  0.62714  0.63625  0.84773  1.0000
  Mg  Mg15      1.0  0.42487  0.56656  0.55160  1.0000
  Mg  Mg16      1.0  0.67663  0.57858  0.93707  1.0000
  C  Sn33      1.0  0.28543  0.00347  0.90113  1.0000
  C   C113      1.0  0.32197  0.99699  0.82681  1.0000
  C  Sn34      1.0  0.30996  0.00331  0.69769  1.0000
  C  Sn35      1.0  0.26040  0.01643  0.64160  1.0000
  C   C114      1.0  0.22390  0.02293  0.71588  1.0000
  C  Sn36      1.0  0.23588  0.01660  0.84504  1.0000
  O  Te33      1.0  0.37611  0.30697  0.03002  1.0000
  O  Te34      1.0  0.34712  0.99660  0.62537  1.0000
  O  Te35      1.0  0.24757  0.02294  0.51261  1.0000
  O  Te36      1.0  0.19876  0.02331  0.91733  1.0000
  Mg  Mg17      1.0  0.31126  0.00969  0.45366  1.0000
  Mg  Mg18      1.0  0.31240  0.32028  0.08898  1.0000
  C  Sn37      1.0  0.22523  0.80934  0.83237  1.0000
  C   C115      1.0  0.19947  0.86083  0.74596  1.0000
  C  Sn38      1.0  0.15589  0.85011  0.67391  1.0000
  C  Sn39      1.0  0.13764  0.78658  0.68861  1.0000
  C   C116      1.0  0.49079  0.73513  0.77500  1.0000
  C  Sn40      1.0  0.20698  0.74582  0.84708  1.0000
  O  Te37      1.0  0.26871  0.82118  0.90341  1.0000
  O  Te38      1.0  0.13080  0.90236  0.58808  1.0000
  O  Te39      1.0  0.42153  0.77478  0.61747  1.0000
  O  Te40      1.0  0.55947  0.69360  0.93288  1.0000
  Mg  Mg19      1.0  0.07315  0.86168  0.51297  1.0000
  Mg  Mg20      1.0  0.36750  0.04421  0.00810  1.0000
  C  Sn41      1.0  0.79546  0.14476  0.78384  1.0000
  C   C117      1.0  0.76474  0.14188  0.68078  1.0000
  C  Sn42      1.0  0.78277  0.12249  0.60364  1.0000
  C  Sn43      1.0  0.83251  0.10558  0.63013  1.0000
  C   C118      1.0  0.86319  0.10845  0.73315  1.0000
  C  Sn44      1.0  0.84520  0.12785  0.81033  1.0000
  O  Te41      1.0  0.77665  0.16428  0.85969  1.0000
  O  Te42      1.0  0.75137  0.12001  0.50111  1.0000
  O  Te43      1.0  0.85130  0.08605  0.55417  1.0000
  O  Te44      1.0  0.87656  0.13031  0.91283  1.0000
  Mg  Mg21      1.0  0.79412  0.09040  0.42551  1.0000
  Mg  Mg22      1.0  0.83383  0.15989  0.98854  1.0000
  C  Sn45      1.0  0.63138  0.33566  0.81053  1.0000
  C   C119      1.0  0.61156  0.39276  0.71270  1.0000
  C  Sn46      1.0  0.56903  0.38634  0.63406  1.0000
  C  Sn47      1.0  0.54579  0.32148  0.65369  1.0000
  C   C120      1.0  0.56560  0.26442  0.75149  1.0000
  C  Sn48      1.0  0.60814  0.27080  0.83016  1.0000
  O  Te45      1.0  0.67392  0.34327  0.88800  1.0000
  O  Te46      1.0  0.54992  0.44417  0.53683  1.0000
  O  Te47      1.0  0.50322  0.31391  0.57611  1.0000
  O  Te48      1.0  0.62724  0.21301  0.92735  1.0000
  Mg  Mg23      1.0  0.49122  0.40778  0.45646  1.0000
  Mg  Mg24      1.0  0.76373  0.55933  0.00784  1.0000
  C  Sn49      1.0  0.11322  0.58106  0.76742  1.0000
  C   C121      1.0  0.11606  0.62296  0.80961  1.0000
  C  Sn50      1.0  0.16591  0.64925  0.84593  1.0000
  C  Sn51      1.0  0.21394  0.63338  0.83987  1.0000
  C   C122      1.0  0.21109  0.59151  0.79768  1.0000
  C  Sn52      1.0  0.16125  0.56518  0.76136  1.0000
  O  Te49      1.0  0.06295  0.55534  0.73158  1.0000
  O  Te50      1.0  0.16772  0.69101  0.88784  1.0000
  O  Te51      1.0  0.26423  0.65913  0.87576  1.0000
  O  Te52      1.0  0.15943  0.52347  0.71945  1.0000
  Mg  Mg25      1.0  0.91842  0.71374  0.92627  1.0000
  Mg  Mg26      1.0  0.08135  0.50073  0.68092  1.0000
  C  Sn53      1.0  0.84939  0.43981  0.64290  1.0000
  C   C123      1.0  0.90733  0.45927  0.64780  1.0000
  C  Sn54      1.0  0.93507  0.51670  0.64832  1.0000
  C  Sn55      1.0  0.90425  0.55545  0.64395  1.0000
  C   C124      1.0  0.84635  0.53597  0.63908  1.0000
  C  Sn56      1.0  0.81857  0.47856  0.63853  1.0000
  O  Te53      1.0  0.82252  0.38221  0.64248  1.0000
  O  Te54      1.0  0.99303  0.53517  0.65320  1.0000
  O  Te55      1.0  0.93117  0.61308  0.64437  1.0000
  O  Te56      1.0  0.76065  0.46007  0.63368  1.0000
  Mg  Mg27      1.0  0.01068  0.61769  0.65189  1.0000
  Mg  Mg28      1.0  0.74295  0.37754  0.63506  1.0000
