data_image0
_chemical_formula_structural       C10N6H2C8H4N2C8H4C4H2OHCOHOHC7H2C6H5C4OH8C10N6H2C8H4N2C8H4C4H2OHCOHOHC7H2C6H5C4OH8C2Sn2C2HTe2HMgC2Sn2C2HTe2HMgC2Sn2C2HTe2HMgC2Sn2C2HTe2HMgC2Sn2C2HTe2HMgC2Sn2C2HTe2HMgC2Sn2C2HTe2HMgC2Sn2C2HTe2HMgC2Sn2C2HTe2HMgC2Sn2C2HTe2HMgC2Sn2C2HTe2HMgC2Sn2C2HTe2HMgC2Sn2C2HTe2HMgC2Sn2C2HTe2HMg
_chemical_formula_sum              "C152 N16 H88 O8 Sn28 Te28 Mg14"
_cell_length_a       25.3335
_cell_length_b       25.3343
_cell_length_c       11.3462
_cell_angle_alpha    50.5566
_cell_angle_beta     93.0313
_cell_angle_gamma    109.111

_symmetry_space_group_name_H-M    'P1'
_space_group_IT_number       1

loop_
  _space_group_symop_operation_xyz
  'x, y, z'

loop_
  _atom_site_type_symbol
  _atom_site_label
  _atom_site_symmetry_multiplicity
  _atom_site_fract_x
  _atom_site_fract_y
  _atom_site_fract_z
  _atom_site_occupancy
  C   C1        1.0  0.08536  0.09560  0.24472  1.0000
  C   C2        1.0  0.99329  0.02164  0.19803  1.0000
  C   C3        1.0  0.04305  0.00878  0.20719  1.0000
  C   C4        1.0  0.03516  0.10747  0.23789  1.0000
  C   C5        1.0  0.54818  0.46301  0.20369  1.0000
  C   C6        1.0  0.93355  0.08186  0.18883  1.0000
  C   C7        1.0  0.54011  0.66383  0.27773  1.0000
  C   C8        1.0  0.14890  0.04624  0.22898  1.0000
  C   C9        1.0  0.09202  0.04786  0.22627  1.0000
  C   C10       1.0  0.98771  0.07221  0.20823  1.0000
  N   N1        1.0  0.49934  0.68818  0.24806  1.0000
  N   N2        1.0  0.16564  0.00485  0.22245  1.0000
  N   N3        1.0  0.58674  0.43448  0.24818  1.0000
  N   N4        1.0  0.92433  0.13574  0.16057  1.0000
  N   N5        1.0  0.49004  0.10847  0.25144  1.0000
  N   N6        1.0  0.59710  0.01669  0.23505  1.0000
  H   H1        1.0  0.51382  0.08035  0.26290  1.0000
  H   H2        1.0  0.57183  0.03558  0.25488  1.0000
  C   C11       1.0  0.43310  0.09089  0.24176  1.0000
  C   C12       1.0  0.57853  0.96399  0.21998  1.0000
  C   C13       1.0  0.65591  0.04433  0.21038  1.0000
  C   C14       1.0  0.51026  0.17003  0.23839  1.0000
  C   C15       1.0  0.41777  0.14763  0.21118  1.0000
  C   C16       1.0  0.62866  0.95994  0.17858  1.0000
  C   C17       1.0  0.67560  0.00815  0.17443  1.0000
  C   C18       1.0  0.46350  0.19333  0.21620  1.0000
  H   H3        1.0  0.37713  0.15312  0.18816  1.0000
  H   H4        1.0  0.62827  0.92528  0.15311  1.0000
  H   H5        1.0  0.72001  0.01882  0.14684  1.0000
  H   H6        1.0  0.46483  0.23935  0.20508  1.0000
  N   N7        1.0  0.47312  0.98905  0.25444  1.0000
  N   N8        1.0  0.61298  0.13260  0.24375  1.0000
  C   C19       1.0  0.41676  0.97488  0.29209  1.0000
  C   C20       1.0  0.47279  0.92925  0.27528  1.0000
  C   C21       1.0  0.66900  0.13911  0.23377  1.0000
  C   C22       1.0  0.61299  0.18486  0.25054  1.0000
  C   C23       1.0  0.38011  0.90170  0.34930  1.0000
  C   C24       1.0  0.41500  0.87397  0.33551  1.0000
  C   C25       1.0  0.70521  0.19559  0.23820  1.0000
  C   C26       1.0  0.67047  0.22474  0.24686  1.0000
  H   H7        1.0  0.33456  0.87464  0.39726  1.0000
  H   H8        1.0  0.40324  0.82076  0.36674  1.0000
  H   H9        1.0  0.75081  0.21126  0.23286  1.0000
  H   H10       1.0  0.68245  0.26907  0.24922  1.0000
  C   C27       1.0  0.39667  0.02597  0.27118  1.0000
  C   C28       1.0  0.52136  0.91994  0.24764  1.0000
  C   C29       1.0  0.68985  0.09871  0.21653  1.0000
  C   C30       1.0  0.56562  0.20361  0.24602  1.0000
  H   H11       1.0  0.12133  0.12514  0.26441  1.0000
  H   H12       1.0  0.51254  0.44595  0.16045  1.0000
  O   O1        1.0  0.04088  0.95986  0.18585  1.0000
  H   H13       1.0  0.89900  0.03792  0.20033  1.0000
  C   C31       1.0  0.04979  0.89564  0.30599  1.0000
  O   O2        1.0  0.06639  0.88439  0.41950  1.0000
  H   H14       1.0  0.57844  0.68438  0.30913  1.0000
  O   O3        1.0  0.03954  0.16241  0.24128  1.0000
  H   H15       1.0  0.17857  0.08548  0.23900  1.0000
  C   C32       1.0  0.08991  0.67269  0.28640  1.0000
  C   C33       1.0  0.09072  0.71211  0.32932  1.0000
  C   C34       1.0  0.99920  0.73369  0.25695  1.0000
  C   C35       1.0  0.05099  0.74735  0.30420  1.0000
  C   C36       1.0  0.98434  0.83221  0.22204  1.0000
  C   C37       1.0  0.03375  0.84326  0.27843  1.0000
  C   C38       1.0  0.06611  0.80033  0.32172  1.0000
  H   H16       1.0  0.24309  0.55847  0.33605  1.0000
  H   H17       1.0  0.10444  0.81000  0.36486  1.0000
  C   C39       1.0  0.96187  0.40230  0.27663  1.0000
  C   C40       1.0  0.05410  0.36913  0.20954  1.0000
  C   C41       1.0  0.99516  0.32570  0.25515  1.0000
  C   C42       1.0  0.09468  0.34413  0.20479  1.0000
  C   C43       1.0  0.07765  0.27596  0.24228  1.0000
  C   C44       1.0  0.01920  0.23230  0.28546  1.0000
  H   H18       1.0  0.13991  0.37816  0.17138  1.0000
  H   H19       1.0  0.10910  0.25593  0.23981  1.0000
  H   H20       1.0  0.00553  0.42945  0.27569  1.0000
  H   H21       1.0  0.05577  0.66291  0.23200  1.0000
  H   H22       1.0  0.12549  0.72263  0.38154  1.0000
  C   C45       1.0  0.99988  0.15898  0.32844  1.0000
  C   C46       1.0  0.97852  0.25739  0.29108  1.0000
  C   C47       1.0  0.95168  0.34854  0.26949  1.0000
  C   C48       1.0  0.96642  0.77539  0.21715  1.0000
  O   O4        1.0  0.95808  0.10440  0.42474  1.0000
  H   H23       1.0  0.96002  0.86673  0.18581  1.0000
  H   H24       1.0  0.92700  0.76445  0.17944  1.0000
  H   H25       1.0  0.98467  0.69051  0.24983  1.0000
  H   H26       1.0  0.81616  0.50884  0.30619  1.0000
  H   H27       1.0  0.90807  0.31745  0.27926  1.0000
  H   H28       1.0  0.93345  0.22288  0.32449  1.0000
  H   H29       1.0  0.06833  0.42300  0.17738  1.0000
  H   H30       1.0  0.95754  0.99229  0.17766  1.0000
  C   C49       1.0  0.08489  0.09331  0.77786  1.0000
  C   C50       1.0  0.99198  0.01699  0.73745  1.0000
  C   C51       1.0  0.04303  0.00824  0.73494  1.0000
  C   C52       1.0  0.03375  0.10136  0.78219  1.0000
  C   C53       1.0  0.55449  0.46875  0.70500  1.0000
  C   C54       1.0  0.92984  0.06974  0.74891  1.0000
  C   C55       1.0  0.54321  0.66942  0.77678  1.0000
  C   C56       1.0  0.14953  0.04907  0.74542  1.0000
  C   C57       1.0  0.09213  0.04820  0.75162  1.0000
  C   C58       1.0  0.98534  0.06380  0.75869  1.0000
  N   N9        1.0  0.50129  0.69170  0.74957  1.0000
  N   N10       1.0  0.16682  0.01295  0.72211  1.0000
  N   N11       1.0  0.59537  0.44429  0.73729  1.0000
  N   N12       1.0  0.91572  0.10971  0.76543  1.0000
  N   N13       1.0  0.49019  0.11001  0.76460  1.0000
  N   N14       1.0  0.59788  0.02559  0.71563  1.0000
  H   H31       1.0  0.51455  0.08622  0.75917  1.0000
  H   H32       1.0  0.57302  0.04609  0.73160  1.0000
  C   C59       1.0  0.43231  0.09058  0.76547  1.0000
  C   C60       1.0  0.57771  0.96749  0.71697  1.0000
  C   C61       1.0  0.65665  0.04995  0.69838  1.0000
  C   C62       1.0  0.51030  0.16717  0.76628  1.0000
  C   C63       1.0  0.41539  0.13945  0.76502  1.0000
  C   C64       1.0  0.62680  0.95659  0.69307  1.0000
  C   C65       1.0  0.67432  0.00486  0.68681  1.0000
  C   C66       1.0  0.46187  0.18322  0.77286  1.0000
  H   H33       1.0  0.37327  0.14127  0.75939  1.0000
  H   H34       1.0  0.62550  0.91658  0.68282  1.0000
  H   H35       1.0  0.71773  0.00879  0.67493  1.0000
  H   H36       1.0  0.46278  0.22362  0.78123  1.0000
  N   N15       1.0  0.47342  0.99535  0.74926  1.0000
  N   N16       1.0  0.61454  0.13785  0.73833  1.0000
  C   C67       1.0  0.41716  0.98342  0.78100  1.0000
  C   C68       1.0  0.47209  0.93589  0.76674  1.0000
  C   C69       1.0  0.67092  0.15152  0.70142  1.0000
  C   C70       1.0  0.61564  0.19444  0.73150  1.0000
  C   C71       1.0  0.37931  0.91302  0.82673  1.0000
  C   C72       1.0  0.41357  0.88358  0.81723  1.0000
  C   C73       1.0  0.70857  0.21977  0.66487  1.0000
  C   C74       1.0  0.67413  0.24639  0.68414  1.0000
  H   H37       1.0  0.33327  0.88862  0.86570  1.0000
  H   H38       1.0  0.40066  0.83103  0.84489  1.0000
  H   H39       1.0  0.75452  0.24513  0.62356  1.0000
  H   H40       1.0  0.68668  0.29748  0.66247  1.0000
  C   C75       1.0  0.39706  0.03133  0.77422  1.0000
  C   C76       1.0  0.52016  0.92410  0.74500  1.0000
  C   C77       1.0  0.69149  0.10803  0.69329  1.0000
  C   C78       1.0  0.56747  0.20648  0.75219  1.0000
  H   H41       1.0  0.12117  0.12353  0.79529  1.0000
  H   H42       1.0  0.51623  0.44683  0.67551  1.0000
  O   O5        1.0  0.04200  0.96305  0.70328  1.0000
  H   H43       1.0  0.89961  0.03750  0.72293  1.0000
  C   C79       1.0  0.05253  0.89879  0.81401  1.0000
  O   O6        1.0  0.07091  0.88425  0.92799  1.0000
  H   H44       1.0  0.58119  0.69085  0.80784  1.0000
  O   O7        1.0  0.03233  0.14379  0.81983  1.0000
  H   H45       1.0  0.17936  0.08447  0.76479  1.0000
  C   C80       1.0  0.08690  0.68317  0.75855  1.0000
  C   C81       1.0  0.08885  0.72066  0.80708  1.0000
  C   C82       1.0  0.99937  0.74773  0.73379  1.0000
  C   C83       1.0  0.05101  0.75780  0.78423  1.0000
  C   C84       1.0  0.98630  0.84278  0.71677  1.0000
  C   C85       1.0  0.03575  0.85050  0.77537  1.0000
  C   C86       1.0  0.06729  0.80766  0.81055  1.0000
  H   H46       1.0  0.22892  0.55122  0.83063  1.0000
  H   H47       1.0  0.10574  0.81464  0.85534  1.0000
  C   C87       1.0  0.95290  0.41616  0.72635  1.0000
  C   C88       1.0  0.02669  0.32755  0.85520  1.0000
  C   C89       1.0  0.98707  0.32550  0.76433  1.0000
  C   C90       1.0  0.06445  0.29183  0.89660  1.0000
  C   C91       1.0  0.06257  0.25052  0.85369  1.0000
  C   C92       1.0  0.02376  0.24790  0.76315  1.0000
  H   H48       1.0  0.09439  0.29379  0.96717  1.0000
  H   H49       1.0  0.09074  0.22064  0.88923  1.0000
  H   H50       1.0  0.99143  0.43527  0.75774  1.0000
  H   H51       1.0  0.05425  0.67854  0.69562  1.0000
  H   H52       1.0  0.12287  0.72671  0.86563  1.0000
  C   C93       1.0  0.02536  0.21034  0.70410  1.0000
  C   C94       1.0  0.98667  0.28552  0.71771  1.0000
  C   C95       1.0  0.94686  0.36282  0.72041  1.0000
  C   C96       1.0  0.96763  0.78962  0.70096  1.0000
  O   O8        1.0  0.02373  0.23417  0.57236  1.0000
  H   H53       1.0  0.96241  0.87686  0.68779  1.0000
  H   H54       1.0  0.92830  0.78177  0.66052  1.0000
  H   H55       1.0  0.98457  0.70760  0.71782  1.0000
  H   H56       1.0  0.81851  0.56648  0.58382  1.0000
  H   H57       1.0  0.91072  0.34718  0.67747  1.0000
  H   H58       1.0  0.95711  0.28350  0.64622  1.0000
  H   H59       1.0  0.02665  0.35602  0.89708  1.0000
  H   H60       1.0  0.95601  0.98736  0.71808  1.0000
  C   C97       1.0  0.59431  0.57662  0.29982  1.0000
  C   C98       1.0  0.55469  0.60982  0.26328  1.0000
  C  Sn1       1.0  0.50774  0.59236  0.20702  1.0000
  C  Sn2       1.0  0.50042  0.54065  0.18714  1.0000
  C   C99       1.0  0.54028  0.50769  0.22414  1.0000
  C   C100      1.0  0.58712  0.52559  0.28031  1.0000
  H   H61       1.0  0.63054  0.59043  0.34336  1.0000
  O  Te1       1.0  0.46857  0.62607  0.17101  1.0000
  O  Te2       1.0  0.45388  0.52217  0.13117  1.0000
  H   H62       1.0  0.61777  0.49983  0.30870  1.0000
  Mg  Mg1       1.0  0.41208  0.58286  0.09831  1.0000
  C   C101      1.0  0.29463  0.03701  0.34182  1.0000
  C   C102      1.0  0.32613  0.01068  0.30708  1.0000
  C  Sn3       1.0  0.30405  0.98169  0.23553  1.0000
  C  Sn4       1.0  0.24942  0.97911  0.19815  1.0000
  C   C103      1.0  0.21827  0.00565  0.23328  1.0000
  C   C104      1.0  0.24076  0.03452  0.30494  1.0000
  H   H63       1.0  0.31204  0.05939  0.39718  1.0000
  O  Te3       1.0  0.33607  0.95559  0.20169  1.0000
  O  Te4       1.0  0.55375  0.95045  0.12656  1.0000
  H   H64       1.0  0.21638  0.05495  0.33172  1.0000
  Mg  Mg2       1.0  0.61374  0.92160  0.10370  1.0000
  C   C105      1.0  0.54260  0.79046  0.37055  1.0000
  C   C106      1.0  0.52204  0.84706  0.27603  1.0000
  C  Sn5       1.0  0.48862  0.84862  0.17266  1.0000
  C  Sn6       1.0  0.47559  0.79239  0.16405  1.0000
  C   C107      1.0  0.49632  0.73598  0.25918  1.0000
  C   C108      1.0  0.52974  0.73496  0.36217  1.0000
  H   H65       1.0  0.56843  0.78965  0.45030  1.0000
  O  Te5       1.0  0.46845  0.90558  0.07902  1.0000
  O  Te6       1.0  0.44226  0.79260  0.06180  1.0000
  H   H66       1.0  0.54562  0.69111  0.43541  1.0000
  Mg  Mg3       1.0  0.34688  0.57187  0.95806  1.0000
  C   C109      1.0  0.84045  0.19670  0.04984  1.0000
  C   C110      1.0  0.86539  0.14651  0.15435  1.0000
  C  Sn7       1.0  0.83121  0.07475  0.28717  1.0000
  C  Sn8       1.0  0.77095  0.05299  0.31554  1.0000
  C   C111      1.0  0.74641  0.10359  0.21021  1.0000
  C   C112      1.0  0.78102  0.17527  0.07770  1.0000
  H   H67       1.0  0.78941  0.94214  0.94727  1.0000
  O  Te7       1.0  0.85682  0.02532  0.39041  1.0000
  O  Te8       1.0  0.73578  0.98160  0.44734  1.0000
  H   H68       1.0  0.68388  0.90409  0.99675  1.0000
  Mg  Mg4       1.0  0.79082  0.93418  0.55367  1.0000
  C   C113      1.0  0.60218  0.27651  0.37210  1.0000
  C   C114      1.0  0.57655  0.26215  0.27823  1.0000
  C  Sn9       1.0  0.55782  0.31331  0.15026  1.0000
  C  Sn10      1.0  0.56495  0.38005  0.11589  1.0000
  C   C115      1.0  0.59067  0.39393  0.21045  1.0000
  C   C116      1.0  0.60925  0.34234  0.33825  1.0000
  H   H69       1.0  0.61657  0.23662  0.47093  1.0000
  O  Te9       1.0  0.53228  0.29807  0.05772  1.0000
  O  Te10      1.0  0.46882  0.12214  0.98867  1.0000
  H   H70       1.0  0.62912  0.35350  0.41085  1.0000
  Mg  Mg5       1.0  0.43648  0.07624  0.89721  1.0000
  C   C117      1.0  0.19532  0.65108  0.37012  1.0000
  C   C118      1.0  0.14621  0.64991  0.30813  1.0000
  C  Sn11      1.0  0.12825  0.60980  0.25858  1.0000
  C  Sn12      1.0  0.16013  0.57016  0.27152  1.0000
  C   C119      1.0  0.20917  0.57163  0.33380  1.0000
  C   C120      1.0  0.22677  0.61197  0.38298  1.0000
  H   H71       1.0  0.20892  0.68225  0.40826  1.0000
  O  Te11      1.0  0.07911  0.60924  0.19687  1.0000
  O  Te12      1.0  0.14313  0.52959  0.22294  1.0000
  H   H72       1.0  0.26477  0.61283  0.43106  1.0000
  Mg  Mg6       1.0  0.07319  0.54585  0.14663  1.0000
  C   C121      1.0  0.84848  0.40598  0.27493  1.0000
  C   C122      1.0  0.90684  0.42475  0.27528  1.0000
  C  Sn13      1.0  0.93471  0.47444  0.29761  1.0000
  C  Sn14      1.0  0.90347  0.50582  0.32003  1.0000
  C   C123      1.0  0.84510  0.48664  0.31960  1.0000
  C   C124      1.0  0.81763  0.43688  0.29710  1.0000
  H   H73       1.0  0.82722  0.36744  0.25761  1.0000
  O  Te13      1.0  0.99304  0.49261  0.29757  1.0000
  O  Te14      1.0  0.93026  0.55560  0.34267  1.0000
  H   H74       1.0  0.77244  0.42232  0.29694  1.0000
  Mg  Mg7       1.0  0.01046  0.56309  0.33303  1.0000
  C   C125      1.0  0.49513  0.57937  0.69560  1.0000
  C   C126      1.0  0.53158  0.60834  0.75453  1.0000
  C  Sn15      1.0  0.58215  0.59576  0.78916  1.0000
  C  Sn16      1.0  0.59638  0.55340  0.76415  1.0000
  C   C127      1.0  0.55965  0.52471  0.70505  1.0000
  C   C128      1.0  0.50914  0.53761  0.67085  1.0000
  H   H75       1.0  0.45607  0.58938  0.66905  1.0000
  O  Te15      1.0  0.61808  0.62509  0.84801  1.0000
  O  Te16      1.0  0.64667  0.54002  0.79771  1.0000
  H   H76       1.0  0.48095  0.51521  0.62513  1.0000
  Mg  Mg8       1.0  0.68180  0.59167  0.87589  1.0000
  C   C129      1.0  0.93746  0.00105  0.65572  1.0000
  C   C130      1.0  0.89849  0.00050  0.73956  1.0000
  C  Sn17      1.0  0.91579  0.01247  0.84232  1.0000
  C  Sn18      1.0  0.97320  0.02524  0.86123  1.0000
  C   C131      1.0  0.01187  0.02574  0.77673  1.0000
  C   C132      1.0  0.99410  0.01367  0.67425  1.0000
  H   H77       1.0  0.92372  0.99175  0.57637  1.0000
  O  Te17      1.0  0.87630  0.01171  0.92522  1.0000
  O  Te18      1.0  0.99164  0.03740  0.96311  1.0000
  H   H78       1.0  0.02429  0.01415  0.60928  1.0000
  Mg  Mg9       1.0  0.99972  0.34108  0.05015  1.0000
  C   C133      1.0  0.21283  0.76350  0.87322  1.0000
  C   C134      1.0  0.50976  0.74266  0.79373  1.0000
  C  Sn19      1.0  0.47996  0.78408  0.68636  1.0000
  C  Sn20      1.0  0.15338  0.84753  0.65827  1.0000
  C   C135      1.0  0.18404  0.86794  0.73831  1.0000
  C   C136      1.0  0.21369  0.82609  0.84553  1.0000
  H   H79       1.0  0.23580  0.73114  0.95612  1.0000
  O  Te19      1.0  0.44971  0.76247  0.60800  1.0000
  O  Te20      1.0  0.12399  0.88993  0.55154  1.0000
  H   H80       1.0  0.23731  0.84226  0.90699  1.0000
  Mg  Mg10      1.0  0.41634  0.83812  0.47366  1.0000
  C   C137      1.0  0.81960  0.12382  0.83250  1.0000
  C   C138      1.0  0.85731  0.12017  0.75462  1.0000
  C  Sn21      1.0  0.84323  0.12093  0.63295  1.0000
  C  Sn22      1.0  0.79040  0.12546  0.58865  1.0000
  C   C139      1.0  0.75299  0.12914  0.66722  1.0000
  C   C140      1.0  0.76749  0.12831  0.78884  1.0000
  H   H81       1.0  0.83083  0.12322  0.92655  1.0000
  O  Te21      1.0  0.88139  0.11722  0.55642  1.0000
  O  Te22      1.0  0.77527  0.12634  0.46741  1.0000
  H   H82       1.0  0.73830  0.13119  0.84905  1.0000
  Mg  Mg11      1.0  0.84153  0.12014  0.39854  1.0000
  C   C141      1.0  0.61721  0.31996  0.85371  1.0000
  C   C142      1.0  0.60300  0.38154  0.74654  1.0000
  C  Sn23      1.0  0.57273  0.38620  0.63571  1.0000
  C  Sn24      1.0  0.55642  0.32803  0.63242  1.0000
  C   C143      1.0  0.57080  0.26663  0.74021  1.0000
  C   C144      1.0  0.60112  0.26255  0.85059  1.0000
  H   H83       1.0  0.64063  0.31677  0.93917  1.0000
  O  Te23      1.0  0.55891  0.44813  0.52945  1.0000
  O  Te24      1.0  0.52613  0.33126  0.52293  1.0000
  H   H84       1.0  0.61207  0.21484  0.93361  1.0000
  Mg  Mg12      1.0  0.51723  0.42707  0.40245  1.0000
  C   C145      1.0  0.18436  0.64410  0.87130  1.0000
  C   C146      1.0  0.13920  0.65225  0.79313  1.0000
  C  Sn25      1.0  0.12244  0.61856  0.72918  1.0000
  C  Sn26      1.0  0.15151  0.57594  0.74399  1.0000
  C   C147      1.0  0.19661  0.56809  0.82251  1.0000
  C   C148      1.0  0.21304  0.60205  0.88601  1.0000
  H   H85       1.0  0.19705  0.67035  0.92051  1.0000
  O  Te25      1.0  0.07725  0.62729  0.65140  1.0000
  O  Te26      1.0  0.13563  0.54165  0.68124  1.0000
  H   H86       1.0  0.24798  0.59570  0.94662  1.0000
  Mg  Mg13      1.0  0.07143  0.56983  0.58571  1.0000
  C   C149      1.0  0.82350  0.44953  0.66504  1.0000
  C   C150      1.0  0.83706  0.51643  0.63179  1.0000
  C  Sn27      1.0  0.89297  0.55587  0.62058  1.0000
  C  Sn28      1.0  0.93603  0.52769  0.64309  1.0000
  C   C151      1.0  0.92204  0.46074  0.67620  1.0000
  C   C152      1.0  0.86595  0.42171  0.68720  1.0000
  H   H87       1.0  0.78011  0.41934  0.67347  1.0000
  O  Te27      1.0  0.90578  0.62261  0.58734  1.0000
  O  Te28      1.0  0.99226  0.56600  0.63250  1.0000
  H   H88       1.0  0.85547  0.36994  0.71284  1.0000
  Mg  Mg14      1.0  0.98860  0.65453  0.58482  1.0000
