data_image0
_chemical_formula_structural       C16N6C8H4N2C8H4C7H2C2H2CH4OH7OH3C16N6C8H4N2C8H4C10H4C4H4C2H4OH7OH3C2Sn2C2HTe2HMgC2Sn2C2HTe2HMgC2Sn2C2HTe2HMgC2Sn2C2HTe2HMgC2Sn2C2HTe2HMg
_chemical_formula_sum              "C110 N16 H66 O4 Sn10 Te10 Mg5"
_cell_length_a       25.5671
_cell_length_b       25.5817
_cell_length_c       9.79671
_cell_angle_alpha    67.059
_cell_angle_beta     110.62
_cell_angle_gamma    100.828

_symmetry_space_group_name_H-M    'P1'
_space_group_IT_number       1

loop_
  _space_group_symop_operation_xyz
  'x, y, z'

loop_
  _atom_site_type_symbol
  _atom_site_label
  _atom_site_symmetry_multiplicity
  _atom_site_fract_x
  _atom_site_fract_y
  _atom_site_fract_z
  _atom_site_occupancy
  C   C1        1.0  0.54264  0.53392  0.24840  1.0000
  C   C2        1.0  0.03753  0.04691  0.29119  1.0000
  C   C3        1.0  0.44355  0.46663  0.25630  1.0000
  C   C4        1.0  0.96076  0.96684  0.18594  1.0000
  C   C5        1.0  0.44701  0.52122  0.25724  1.0000
  C   C6        1.0  0.01612  0.96814  0.19147  1.0000
  C   C7        1.0  0.53940  0.47907  0.24925  1.0000
  C   C8        1.0  0.98239  0.04498  0.28786  1.0000
  C   C9        1.0  0.48415  0.38718  0.25125  1.0000
  C   C10       1.0  0.88585  0.99971  0.23098  1.0000
  C   C11       1.0  0.50172  0.61298  0.25469  1.0000
  C   C12       1.0  0.11314  0.01304  0.25355  1.0000
  C   C13       1.0  0.49685  0.55558  0.25416  1.0000
  C   C14       1.0  0.05534  0.00935  0.24454  1.0000
  C   C15       1.0  0.48962  0.44451  0.25339  1.0000
  C   C16       1.0  0.94309  0.00408  0.23384  1.0000
  N   N1        1.0  0.46233  0.63432  0.26740  1.0000
  N   N2        1.0  0.13349  0.97781  0.22021  1.0000
  N   N3        1.0  0.52441  0.36539  0.24360  1.0000
  N   N4        1.0  0.86822  0.03102  0.28255  1.0000
  N   N5        1.0  0.44822  0.05237  0.25065  1.0000
  N   N6        1.0  0.54938  0.95095  0.23623  1.0000
  C   C17       1.0  0.39124  0.04253  0.22053  1.0000
  C   C18       1.0  0.53334  0.90012  0.21169  1.0000
  C   C19       1.0  0.60327  0.96394  0.22934  1.0000
  C   C20       1.0  0.45791  0.10994  0.21832  1.0000
  C   C21       1.0  0.36378  0.09571  0.15532  1.0000
  C   C22       1.0  0.57642  0.88294  0.17499  1.0000
  C   C23       1.0  0.62109  0.92091  0.19391  1.0000
  C   C24       1.0  0.40537  0.13785  0.15477  1.0000
  H   H1        1.0  0.31910  0.10023  0.11341  1.0000
  H   H2        1.0  0.57306  0.84725  0.13932  1.0000
  H   H3        1.0  0.66134  0.91932  0.18426  1.0000
  H   H4        1.0  0.40076  0.18316  0.11275  1.0000
  N   N7        1.0  0.43343  0.93653  0.24313  1.0000
  N   N8        1.0  0.56523  0.06352  0.26241  1.0000
  C   C25       1.0  0.38752  0.93804  0.28429  1.0000
  C   C26       1.0  0.44235  0.88153  0.26984  1.0000
  C   C27       1.0  0.61915  0.05687  0.27363  1.0000
  C   C28       1.0  0.56141  0.11553  0.27025  1.0000
  C   C29       1.0  0.36829  0.88032  0.34897  1.0000
  C   C30       1.0  0.40124  0.84593  0.33887  1.0000
  C   C31       1.0  0.65129  0.10737  0.29193  1.0000
  C   C32       1.0  0.61685  0.14206  0.29457  1.0000
  H   H5        1.0  0.33488  0.86684  0.40115  1.0000
  H   H6        1.0  0.39942  0.80008  0.38263  1.0000
  H   H7        1.0  0.69500  0.11638  0.29921  1.0000
  H   H8        1.0  0.62872  0.18274  0.31017  1.0000
  C   C33       1.0  0.36298  0.98784  0.25532  1.0000
  C   C34       1.0  0.48531  0.86486  0.23784  1.0000
  C   C35       1.0  0.63787  0.01133  0.25787  1.0000
  C   C36       1.0  0.51157  0.13915  0.24510  1.0000
  C   C37       1.0  0.51485  0.19763  0.24492  1.0000
  C   C38       1.0  0.48381  0.21040  0.32123  1.0000
  C   C39       1.0  0.54802  0.24271  0.17014  1.0000
  H   H9        1.0  0.45956  0.17625  0.38538  1.0000
  H   H10       1.0  0.57047  0.23535  0.10432  1.0000
  C   C40       1.0  0.48488  0.26519  0.31953  1.0000
  C   C41       1.0  0.55085  0.29705  0.17292  1.0000
  H   H11       1.0  0.46185  0.27290  0.38364  1.0000
  H   H12       1.0  0.57675  0.33137  0.11542  1.0000
  C   C42       1.0  0.51861  0.30973  0.24562  1.0000
  H   H13       1.0  0.58090  0.56079  0.24345  1.0000
  H   H14       1.0  0.41191  0.53890  0.25933  1.0000
  H   H15       1.0  0.44333  0.36408  0.25264  1.0000
  H   H16       1.0  0.06742  0.07791  0.33247  1.0000
  O   O1        1.0  0.03185  0.93073  0.14846  1.0000
  H   H17       1.0  0.85766  0.96780  0.18716  1.0000
  H   H18       1.0  0.07352  0.93958  0.16399  1.0000
  H   H19       1.0  0.45948  0.97067  0.20671  1.0000
  H   H20       1.0  0.40483  0.44029  0.25751  1.0000
  H   H21       1.0  0.57439  0.46166  0.24559  1.0000
  H   H22       1.0  0.54019  0.63832  0.23696  1.0000
  H   H23       1.0  0.93093  0.93570  0.14510  1.0000
  O   O2        1.0  0.96731  0.08120  0.33570  1.0000
  H   H24       1.0  0.13928  0.04727  0.29045  1.0000
  H   H25       1.0  0.92643  0.07020  0.33053  1.0000
  H   H26       1.0  0.53317  0.03309  0.25506  1.0000
  C   C43       1.0  0.54193  0.54170  0.67474  1.0000
  C   C44       1.0  0.03444  0.05268  0.77377  1.0000
  C   C45       1.0  0.46173  0.46274  0.78411  1.0000
  C   C46       1.0  0.96762  0.95431  0.75219  1.0000
  C   C47       1.0  0.46501  0.51740  0.78368  1.0000
  C   C48       1.0  0.02246  0.95848  0.75070  1.0000
  C   C49       1.0  0.53919  0.48661  0.67717  1.0000
  C   C50       1.0  0.97945  0.04875  0.77370  1.0000
  C   C51       1.0  0.49338  0.38764  0.73944  1.0000
  C   C52       1.0  0.88872  0.99200  0.76647  1.0000
  C   C53       1.0  0.50876  0.61570  0.72639  1.0000
  C   C54       1.0  0.11387  0.01505  0.76250  1.0000
  C   C55       1.0  0.50525  0.55795  0.72839  1.0000
  C   C56       1.0  0.05682  0.00863  0.76306  1.0000
  C   C57       1.0  0.49881  0.44613  0.73239  1.0000
  C   C58       1.0  0.94545  0.99820  0.76446  1.0000
  N   N9        1.0  0.47631  0.63103  0.77831  1.0000
  N   N10       1.0  0.13565  0.97569  0.74873  1.0000
  N   N11       1.0  0.52979  0.36532  0.71752  1.0000
  N   N12       1.0  0.86608  0.03248  0.77302  1.0000
  N   N13       1.0  0.44716  0.04798  0.75512  1.0000
  N   N14       1.0  0.55059  0.94860  0.74187  1.0000
  C   C59       1.0  0.39012  0.03877  0.71940  1.0000
  C   C60       1.0  0.53777  0.89546  0.73054  1.0000
  C   C61       1.0  0.60349  0.96401  0.72827  1.0000
  C   C62       1.0  0.45729  0.10540  0.72775  1.0000
  C   C63       1.0  0.36315  0.09233  0.65630  1.0000
  C   C64       1.0  0.58330  0.87774  0.70395  1.0000
  C   C65       1.0  0.62297  0.92127  0.69604  1.0000
  C   C66       1.0  0.40517  0.13388  0.66177  1.0000
  H   H27       1.0  0.31855  0.09756  0.61105  1.0000
  H   H28       1.0  0.58468  0.83788  0.69154  1.0000
  H   H29       1.0  0.66144  0.92434  0.66997  1.0000
  H   H30       1.0  0.40133  0.17921  0.62215  1.0000
  N   N15       1.0  0.43535  0.93206  0.75477  1.0000
  N   N16       1.0  0.56418  0.06213  0.75916  1.0000
  C   C67       1.0  0.38311  0.93487  0.76352  1.0000
  C   C68       1.0  0.44224  0.87843  0.76339  1.0000
  C   C69       1.0  0.61898  0.05458  0.78256  1.0000
  C   C70       1.0  0.56084  0.10869  0.79302  1.0000
  C   C71       1.0  0.35646  0.87895  0.78444  1.0000
  C   C72       1.0  0.39148  0.84537  0.77956  1.0000
  C   C73       1.0  0.65234  0.09736  0.84147  1.0000
  C   C74       1.0  0.61706  0.12971  0.85001  1.0000
  H   H31       1.0  0.31561  0.86604  0.80026  1.0000
  H   H32       1.0  0.38293  0.80167  0.78515  1.0000
  H   H33       1.0  0.69751  0.10100  0.87865  1.0000
  H   H34       1.0  0.62865  0.16405  0.89522  1.0000
  C   C75       1.0  0.36020  0.98467  0.74294  1.0000
  C   C76       1.0  0.48887  0.86074  0.75006  1.0000
  C   C77       1.0  0.63744  0.01173  0.75579  1.0000
  C   C78       1.0  0.51107  0.13334  0.76219  1.0000
  C   C79       1.0  0.30219  0.98152  0.74567  1.0000
  C   C80       1.0  0.51611  0.19240  0.75744  1.0000
  C   C81       1.0  0.25771  0.94955  0.67362  1.0000
  C   C82       1.0  0.48432  0.21004  0.82247  1.0000
  C   C83       1.0  0.55217  0.23370  0.68360  1.0000
  C   C84       1.0  0.28926  0.01220  0.82170  1.0000
  H   H35       1.0  0.26519  0.92764  0.60767  1.0000
  H   H36       1.0  0.45838  0.17848  0.88708  1.0000
  H   H37       1.0  0.57594  0.22156  0.62900  1.0000
  H   H38       1.0  0.32301  0.03528  0.88398  1.0000
  C   C85       1.0  0.20378  0.94779  0.67855  1.0000
  C   C86       1.0  0.48734  0.26644  0.80991  1.0000
  C   C87       1.0  0.55593  0.28994  0.67288  1.0000
  C   C88       1.0  0.23495  0.01258  0.82137  1.0000
  H   H39       1.0  0.16990  0.92286  0.62299  1.0000
  H   H40       1.0  0.46373  0.27781  0.86639  1.0000
  H   H41       1.0  0.58310  0.32175  0.61346  1.0000
  H   H42       1.0  0.22718  0.03584  0.88384  1.0000
  C   C89       1.0  0.19111  0.98000  0.75017  1.0000
  C   C90       1.0  0.52291  0.30775  0.73371  1.0000
  H   H43       1.0  0.57287  0.57307  0.63108  1.0000
  H   H44       1.0  0.43716  0.53050  0.82501  1.0000
  H   H45       1.0  0.45560  0.36339  0.76563  1.0000
  H   H46       1.0  0.06018  0.09103  0.78122  1.0000
  O   O3        1.0  0.04222  0.91551  0.73886  1.0000
  H   H47       1.0  0.86438  0.95261  0.75754  1.0000
  H   H48       1.0  0.08239  0.92868  0.73767  1.0000
  H   H49       1.0  0.46583  0.96433  0.74942  1.0000
  H   H50       1.0  0.43051  0.43146  0.82634  1.0000
  H   H51       1.0  0.56729  0.47376  0.63596  1.0000
  H   H52       1.0  0.54099  0.64518  0.68063  1.0000
  H   H53       1.0  0.94170  0.91614  0.74367  1.0000
  O   O4        1.0  0.95954  0.09240  0.78191  1.0000
  H   H54       1.0  0.13768  0.05474  0.77068  1.0000
  H   H55       1.0  0.91903  0.08029  0.77960  1.0000
  H   H56       1.0  0.53137  0.03492  0.72904  1.0000
  C   C91       1.0  0.55531  0.96142  0.85618  1.0000
  C   C92       1.0  0.51829  0.00448  0.79692  1.0000
  C  Sn1       1.0  0.53393  0.06039  0.71695  1.0000
  C  Sn2       1.0  0.58766  0.07330  0.69605  1.0000
  C   C93       1.0  0.62439  0.02991  0.75568  1.0000
  C   C94       1.0  0.60831  0.97411  0.83557  1.0000
  H   H57       1.0  0.54287  0.91823  0.91792  1.0000
  O  Te1       1.0  0.49643  0.10291  0.65855  1.0000
  O  Te2       1.0  0.60437  0.12882  0.61653  1.0000
  H   H58       1.0  0.63697  0.94077  0.88135  1.0000
  Mg  Mg1       1.0  0.53848  0.17208  0.55849  1.0000
  C   C95       1.0  0.72329  0.00942  0.12963  1.0000
  C   C96       1.0  0.70131  0.01137  0.23941  1.0000
  C  Sn3       1.0  0.73653  0.02386  0.37015  1.0000
  C  Sn4       1.0  0.79481  0.03459  0.39103  1.0000
  C   C97       1.0  0.81638  0.03258  0.28048  1.0000
  C   C98       1.0  0.78076  0.02002  0.15011  1.0000
  H   H59       1.0  0.69573  0.99974  0.02871  1.0000
  O  Te3       1.0  0.71388  0.02562  0.47872  1.0000
  O  Te4       1.0  0.83096  0.04720  0.52060  1.0000
  H   H60       1.0  0.79779  0.01855  0.06508  1.0000
  Mg  Mg2       1.0  0.78016  0.04463  0.63624  1.0000
  C   C99       1.0  0.27670  0.02261  0.32190  1.0000
  C   C100      1.0  0.30185  0.98892  0.28222  1.0000
  C  Sn5       1.0  0.45708  0.95115  0.20964  1.0000
  C  Sn6       1.0  0.39809  0.94715  0.17629  1.0000
  C   C101      1.0  0.18536  0.98107  0.21636  1.0000
  C   C102      1.0  0.21852  0.01870  0.28900  1.0000
  H   H61       1.0  0.30235  0.05176  0.37803  1.0000
  O  Te5       1.0  0.48289  0.91779  0.17083  1.0000
  O  Te6       1.0  0.36438  0.90977  0.10378  1.0000
  H   H62       1.0  0.19903  0.04481  0.31962  1.0000
  Mg  Mg3       1.0  0.41910  0.87321  0.07350  1.0000
  C   C103      1.0  0.49653  0.77909  0.62122  1.0000
  C   C104      1.0  0.48494  0.79903  0.72100  1.0000
  C  Sn7       1.0  0.47168  0.76075  0.85343  1.0000
  C  Sn8       1.0  0.47003  0.70142  0.88629  1.0000
  C   C105      1.0  0.48172  0.68190  0.78580  1.0000
  C   C106      1.0  0.49493  0.72058  0.65358  1.0000
  H   H63       1.0  0.50678  0.80901  0.51896  1.0000
  O  Te7       1.0  0.46020  0.78140  0.95185  1.0000
  O  Te8       1.0  0.34611  0.79069  0.01788  1.0000
  H   H64       1.0  0.50393  0.70513  0.57640  1.0000
  Mg  Mg4       1.0  0.33364  0.83964  0.11674  1.0000
  C   C107      1.0  0.53205  0.72769  0.33488  1.0000
  C   C108      1.0  0.48413  0.69475  0.28615  1.0000
  C  Sn9       1.0  0.43228  0.71899  0.20777  1.0000
  C  Sn10      1.0  0.42848  0.77730  0.17775  1.0000
  C   C109      1.0  0.47667  0.80990  0.22688  1.0000
  C   C110      1.0  0.52834  0.78521  0.30526  1.0000
  H   H65       1.0  0.57204  0.70861  0.39545  1.0000
  O  Te9       1.0  0.38481  0.68547  0.15995  1.0000
  O  Te10      1.0  0.37719  0.80260  0.09959  1.0000
  H   H66       1.0  0.56545  0.81073  0.34289  1.0000
  Mg  Mg5       1.0  0.32437  0.73932  0.05756  1.0000
