data_image0
_chemical_formula_structural       C16N6C8H4N2C8H4C10H4C4H4C2H4OHCOH3OHCOC6N2C6H6C6N2C6H15C10N6C8H4N2C8H4C7H2C2H2CH2OHCOHOHCOC6N2C6H6N2C6H11C2Sn2C2HTe2HMgC2Sn2C2HTe2HMgC2Sn2C2HTe2HMgC2Sn2C2HTe2HMgC2Sn2C2HTe2HMgC2Sn2C2HTe2HMgC2Sn2C2HTe2HMg
_chemical_formula_sum              "C158 N24 H94 O8 Sn14 Te14 Mg7"
_cell_length_a       25.6921
_cell_length_b       25.4865
_cell_length_c       8.31905
_cell_angle_alpha    84.8383
_cell_angle_beta     68.0266
_cell_angle_gamma    95.2678

_symmetry_space_group_name_H-M    'P1'
_space_group_IT_number       1

loop_
  _space_group_symop_operation_xyz
  'x, y, z'

loop_
  _atom_site_type_symbol
  _atom_site_label
  _atom_site_symmetry_multiplicity
  _atom_site_fract_x
  _atom_site_fract_y
  _atom_site_fract_z
  _atom_site_occupancy
  C   C1        1.0  0.07722  0.09508  0.22935  1.0000
  C   C2        1.0  0.58155  0.58687  0.14824  1.0000
  C   C3        1.0  0.98910  0.01504  0.28774  1.0000
  C   C4        1.0  0.48359  0.52288  0.37989  1.0000
  C   C5        1.0  0.48397  0.57746  0.35550  1.0000
  C   C6        1.0  0.03615  0.00375  0.31973  1.0000
  C   C7        1.0  0.58118  0.53229  0.17267  1.0000
  C   C8        1.0  0.03045  0.10634  0.19557  1.0000
  C   C9        1.0  0.52900  0.44180  0.31296  1.0000
  C   C10       1.0  0.93340  0.07740  0.19734  1.0000
  C   C11       1.0  0.53624  0.66800  0.21602  1.0000
  C   C12       1.0  0.13277  0.03326  0.32185  1.0000
  C   C13       1.0  0.53319  0.61046  0.23926  1.0000
  C   C14       1.0  0.08166  0.04338  0.29361  1.0000
  C   C15       1.0  0.53200  0.49931  0.28911  1.0000
  C   C16       1.0  0.98458  0.06687  0.22423  1.0000
  N   N1        1.0  0.49400  0.69221  0.29985  1.0000
  N   N2        1.0  0.17338  0.07221  0.28204  1.0000
  N   N3        1.0  0.57121  0.41757  0.22896  1.0000
  N   N4        1.0  0.89245  0.03867  0.23888  1.0000
  N   N5        1.0  0.48147  0.11511  0.25904  1.0000
  N   N6        1.0  0.58404  0.99496  0.26488  1.0000
  C   C17       1.0  0.42673  0.10727  0.26538  1.0000
  C   C18       1.0  0.56811  0.94225  0.25734  1.0000
  C   C19       1.0  0.63899  0.00288  0.25666  1.0000
  C   C20       1.0  0.49741  0.16784  0.26651  1.0000
  C   C21       1.0  0.40707  0.15817  0.27882  1.0000
  C   C22       1.0  0.61580  0.91540  0.24405  1.0000
  C   C23       1.0  0.65886  0.95208  0.24128  1.0000
  C   C24       1.0  0.44997  0.19480  0.27728  1.0000
  H   H1        1.0  0.36492  0.16537  0.29266  1.0000
  H   H2        1.0  0.61701  0.87350  0.23446  1.0000
  H   H3        1.0  0.70117  0.94496  0.22593  1.0000
  H   H4        1.0  0.44857  0.23669  0.28664  1.0000
  N   N7        1.0  0.46801  0.00017  0.27101  1.0000
  N   N8        1.0  0.59745  0.10992  0.25318  1.0000
  C   C25       1.0  0.41745  0.00895  0.25956  1.0000
  C   C26       1.0  0.47046  0.94682  0.26140  1.0000
  C   C27       1.0  0.64791  0.10107  0.26519  1.0000
  C   C28       1.0  0.59472  0.16312  0.26523  1.0000
  C   C29       1.0  0.38808  0.96028  0.23612  1.0000
  C   C30       1.0  0.42072  0.92149  0.23994  1.0000
  C   C31       1.0  0.67692  0.14951  0.29162  1.0000
  C   C32       1.0  0.64408  0.18823  0.28935  1.0000
  H   H5        1.0  0.34920  0.95699  0.21329  1.0000
  H   H6        1.0  0.41297  0.88011  0.22536  1.0000
  H   H7        1.0  0.71562  0.15272  0.31551  1.0000
  H   H8        1.0  0.65135  0.22940  0.30701  1.0000
  C   C33       1.0  0.39587  0.05828  0.26558  1.0000
  C   C34       1.0  0.51561  0.91906  0.26083  1.0000
  C   C35       1.0  0.66968  0.05184  0.25753  1.0000
  C   C36       1.0  0.54963  0.19092  0.26530  1.0000
  C   C37       1.0  0.50852  0.86034  0.26298  1.0000
  C   C38       1.0  0.55667  0.24952  0.26490  1.0000
  C   C39       1.0  0.46437  0.82697  0.39877  1.0000
  C   C40       1.0  0.54651  0.83614  0.13005  1.0000
  C   C41       1.0  0.51796  0.27362  0.39643  1.0000
  C   C42       1.0  0.60160  0.28290  0.13173  1.0000
  H   H9        1.0  0.43409  0.84478  0.50158  1.0000
  H   H10       1.0  0.57881  0.86162  0.01946  1.0000
  H   H11       1.0  0.48494  0.24810  0.50517  1.0000
  H   H12       1.0  0.63240  0.26511  0.03020  1.0000
  C   C43       1.0  0.46008  0.77188  0.40561  1.0000
  C   C44       1.0  0.54233  0.78130  0.13502  1.0000
  C   C45       1.0  0.52225  0.32842  0.39229  1.0000
  C   C46       1.0  0.60582  0.33796  0.12532  1.0000
  H   H13       1.0  0.42697  0.74617  0.51396  1.0000
  H   H14       1.0  0.57100  0.76442  0.02565  1.0000
  H   H15       1.0  0.49299  0.34523  0.50064  1.0000
  H   H16       1.0  0.63943  0.36373  0.01854  1.0000
  C   C47       1.0  0.49987  0.74788  0.27667  1.0000
  C   C48       1.0  0.56534  0.36191  0.25242  1.0000
  H   H17       1.0  0.11247  0.12597  0.20382  1.0000
  H   H18       1.0  0.61946  0.61231  0.05712  1.0000
  H   H19       1.0  0.44715  0.59608  0.42625  1.0000
  H   H20       1.0  0.48773  0.42024  0.40260  1.0000
  O   O1        1.0  0.03448  0.95073  0.38898  1.0000
  H   H21       1.0  0.93110  0.11815  0.14873  1.0000
  C   C49       1.0  0.07046  0.91955  0.28444  1.0000
  O   O2        1.0  0.10879  0.93657  0.14415  1.0000
  H   H22       1.0  0.95414  0.98397  0.31165  1.0000
  H   H23       1.0  0.44569  0.49742  0.47088  1.0000
  H   H24       1.0  0.61801  0.51367  0.10202  1.0000
  O   O3        1.0  0.03377  0.15841  0.11639  1.0000
  H   H25       1.0  0.13545  0.99269  0.37070  1.0000
  C   C50       1.0  0.00306  0.19429  0.21329  1.0000
  O   O4        1.0  0.96518  0.18221  0.35763  1.0000
  C   C51       1.0  0.21219  0.64297  0.90599  1.0000
  C   C52       1.0  0.20192  0.58846  0.96869  1.0000
  C   C53       1.0  0.15807  0.56900  0.12929  1.0000
  C   C54       1.0  0.12420  0.60381  0.22689  1.0000
  C   C55       1.0  0.13447  0.65834  0.16450  1.0000
  C   C56       1.0  0.17884  0.67799  0.00311  1.0000
  N   N9        1.0  0.09721  0.69010  0.27221  1.0000
  N   N10       1.0  0.11368  0.73994  0.22882  1.0000
  C   C57       1.0  0.02873  0.75370  0.48748  1.0000
  C   C58       1.0  0.07648  0.77235  0.33318  1.0000
  C   C59       1.0  0.99533  0.78976  0.57868  1.0000
  C   C60       1.0  0.00834  0.84425  0.51686  1.0000
  C   C61       1.0  0.05573  0.86286  0.36269  1.0000
  C   C62       1.0  0.09001  0.82683  0.27237  1.0000
  H   H26       1.0  0.24605  0.65776  0.78010  1.0000
  H   H27       1.0  0.22796  0.56137  0.89102  1.0000
  H   H28       1.0  0.15003  0.52679  0.17849  1.0000
  H   H29       1.0  0.95898  0.77567  0.69966  1.0000
  H   H30       1.0  0.98210  0.87233  0.58763  1.0000
  H   H31       1.0  0.12665  0.84107  0.15245  1.0000
  C   C63       1.0  0.90166  0.50491  0.43682  1.0000
  C   C64       1.0  0.92973  0.55684  0.37018  1.0000
  C   C65       1.0  0.98450  0.56524  0.24125  1.0000
  C   C66       1.0  0.01100  0.52170  0.17803  1.0000
  C   C67       1.0  0.98251  0.46982  0.24130  1.0000
  C   C68       1.0  0.92758  0.46139  0.37268  1.0000
  N   N11       1.0  0.01287  0.42926  0.16168  1.0000
  N   N12       1.0  0.98485  0.38270  0.20741  1.0000
  C   C69       1.0  0.06389  0.35467  0.96317  1.0000
  C   C70       1.0  0.01564  0.34330  0.12024  1.0000
  C   C71       1.0  0.09136  0.31345  0.88543  1.0000
  C   C72       1.0  0.07174  0.26072  0.96367  1.0000
  C   C73       1.0  0.02353  0.24920  0.11997  1.0000
  C   C74       1.0  0.99506  0.29050  0.19699  1.0000
  H   H32       1.0  0.85950  0.49866  0.54007  1.0000
  H   H33       1.0  0.90903  0.59051  0.42200  1.0000
  H   H34       1.0  0.00689  0.60535  0.19096  1.0000
  H   H35       1.0  0.12787  0.32205  0.76198  1.0000
  H   H36       1.0  0.09329  0.22843  0.90420  1.0000
  H   H37       1.0  0.95798  0.28171  0.31890  1.0000
  H   H38       1.0  0.90666  0.42083  0.42171  1.0000
  H   H39       1.0  0.01945  0.71128  0.53376  1.0000
  H   H40       1.0  0.18552  0.72025  0.95622  1.0000
  H   H41       1.0  0.07808  0.39590  0.90411  1.0000
  H   H42       1.0  0.50628  0.08551  0.25130  1.0000
  H   H43       1.0  0.55911  0.02450  0.27389  1.0000
  H   H44       1.0  0.08997  0.58993  0.35281  1.0000
  H   H45       1.0  0.05381  0.52686  0.07885  1.0000
  H   H46       1.0  0.57758  0.68962  0.12705  1.0000
  C   C75       1.0  0.08017  0.09605  0.72341  1.0000
  C   C76       1.0  0.99219  0.01561  0.78305  1.0000
  C   C77       1.0  0.03915  0.00475  0.81626  1.0000
  C   C78       1.0  0.03347  0.10682  0.68858  1.0000
  C   C79       1.0  0.54352  0.44689  0.82823  1.0000
  C   C80       1.0  0.93675  0.07742  0.68909  1.0000
  C   C81       1.0  0.52391  0.66716  0.69455  1.0000
  C   C82       1.0  0.13575  0.03460  0.81763  1.0000
  C   C83       1.0  0.08465  0.04454  0.78922  1.0000
  C   C84       1.0  0.98771  0.06717  0.71760  1.0000
  N   N13       1.0  0.49823  0.69422  0.81845  1.0000
  N   N14       1.0  0.17601  0.07377  0.78005  1.0000
  N   N15       1.0  0.56910  0.41980  0.70424  1.0000
  N   N16       1.0  0.89491  0.03924  0.73731  1.0000
  N   N17       1.0  0.48359  0.11717  0.76277  1.0000
  N   N18       1.0  0.58655  0.99695  0.76161  1.0000
  C   C85       1.0  0.42886  0.10914  0.76903  1.0000
  C   C86       1.0  0.57066  0.94412  0.75467  1.0000
  C   C87       1.0  0.64115  0.00486  0.75659  1.0000
  C   C88       1.0  0.49923  0.16987  0.77173  1.0000
  C   C89       1.0  0.40879  0.15980  0.78450  1.0000
  C   C90       1.0  0.61806  0.91729  0.74566  1.0000
  C   C91       1.0  0.66081  0.95399  0.74446  1.0000
  C   C92       1.0  0.45146  0.19652  0.78388  1.0000
  H   H47       1.0  0.36665  0.16694  0.79807  1.0000
  H   H48       1.0  0.61962  0.87538  0.73765  1.0000
  H   H49       1.0  0.70281  0.94674  0.73216  1.0000
  H   H50       1.0  0.44969  0.23832  0.79398  1.0000
  N   N19       1.0  0.47067  0.00217  0.76881  1.0000
  N   N20       1.0  0.59971  0.11205  0.75372  1.0000
  C   C93       1.0  0.42008  0.01112  0.75768  1.0000
  C   C94       1.0  0.47333  0.94899  0.75626  1.0000
  C   C95       1.0  0.65045  0.10312  0.76370  1.0000
  C   C96       1.0  0.59712  0.16527  0.76585  1.0000
  C   C97       1.0  0.39097  0.96281  0.73125  1.0000
  C   C98       1.0  0.42380  0.92405  0.73277  1.0000
  C   C99       1.0  0.67991  0.15157  0.78801  1.0000
  C   C100      1.0  0.64705  0.19036  0.78688  1.0000
  H   H51       1.0  0.35217  0.95970  0.70799  1.0000
  H   H52       1.0  0.41616  0.88290  0.71567  1.0000
  H   H53       1.0  0.71897  0.15479  0.80977  1.0000
  H   H54       1.0  0.65481  0.23158  0.80312  1.0000
  C   C101      1.0  0.39831  0.06032  0.76626  1.0000
  C   C102      1.0  0.51839  0.92100  0.75566  1.0000
  C   C103      1.0  0.67201  0.05379  0.75682  1.0000
  C   C104      1.0  0.55171  0.19311  0.76894  1.0000
  C   C105      1.0  0.55904  0.25180  0.76605  1.0000
  C   C106      1.0  0.51904  0.27692  0.89043  1.0000
  C   C107      1.0  0.60447  0.28461  0.63199  1.0000
  H   H55       1.0  0.48496  0.25220  0.99852  1.0000
  H   H56       1.0  0.63601  0.26620  0.53444  1.0000
  C   C108      1.0  0.52225  0.33192  0.87737  1.0000
  C   C109      1.0  0.60777  0.33976  0.61714  1.0000
  H   H57       1.0  0.48972  0.34971  0.97405  1.0000
  H   H58       1.0  0.64131  0.36479  0.50801  1.0000
  C   C110      1.0  0.56631  0.36459  0.73805  1.0000
  H   H59       1.0  0.11521  0.12722  0.69754  1.0000
  H   H60       1.0  0.52300  0.42900  0.96615  1.0000
  O   O5        1.0  0.03696  0.95211  0.88964  1.0000
  H   H61       1.0  0.93556  0.11763  0.63312  1.0000
  C   C111      1.0  0.07053  0.91890  0.78730  1.0000
  O   O6        1.0  0.10872  0.93395  0.64500  1.0000
  H   H62       1.0  0.95733  0.98435  0.80776  1.0000
  O   O7        1.0  0.03631  0.15887  0.61045  1.0000
  H   H63       1.0  0.13871  0.99387  0.86427  1.0000
  C   C112      1.0  0.00385  0.19348  0.70934  1.0000
  O   O8        1.0  0.96574  0.17982  0.85244  1.0000
  C   C113      1.0  0.20033  0.62679  0.47832  1.0000
  C   C114      1.0  0.17950  0.57278  0.53894  1.0000
  C   C115      1.0  0.12678  0.55801  0.67607  1.0000
  C   C116      1.0  0.09521  0.59719  0.75400  1.0000
  C   C117      1.0  0.11677  0.65117  0.69754  1.0000
  C   C118      1.0  0.16951  0.66603  0.55742  1.0000
  N   N21       1.0  0.08194  0.68707  0.79101  1.0000
  N   N22       1.0  0.10492  0.73550  0.75351  1.0000
  C   C119      1.0  0.02171  0.75465  0.00609  1.0000
  C   C120      1.0  0.06992  0.77076  0.85099  1.0000
  C   C121      1.0  0.99006  0.79249  0.09247  1.0000
  C   C122      1.0  0.00534  0.84649  0.02505  1.0000
  C   C123      1.0  0.05348  0.86271  0.87078  1.0000
  C   C124      1.0  0.08610  0.82483  0.78538  1.0000
  H   H64       1.0  0.24069  0.63797  0.36812  1.0000
  H   H65       1.0  0.20416  0.54250  0.47619  1.0000
  H   H66       1.0  0.10985  0.51624  0.72156  1.0000
  H   H67       1.0  0.95335  0.78022  0.21388  1.0000
  H   H68       1.0  0.98030  0.87599  0.09135  1.0000
  H   H69       1.0  0.12324  0.83733  0.66534  1.0000
  N   N23       1.0  0.99968  0.42797  0.65706  1.0000
  N   N24       1.0  0.98053  0.37988  0.72683  1.0000
  C   C125      1.0  0.06021  0.35562  0.47341  1.0000
  C   C126      1.0  0.01227  0.34232  0.63083  1.0000
  C   C127      1.0  0.08863  0.31562  0.39035  1.0000
  C   C128      1.0  0.07032  0.26226  0.46301  1.0000
  C   C129      1.0  0.02283  0.24891  0.62040  1.0000
  C   C130      1.0  0.99371  0.28900  0.70370  1.0000
  H   H70       1.0  0.89890  0.58261  0.97844  1.0000
  H   H71       1.0  0.12515  0.32568  0.26741  1.0000
  H   H72       1.0  0.09266  0.23099  0.39879  1.0000
  H   H73       1.0  0.95736  0.27887  0.82700  1.0000
  H   H74       1.0  0.01051  0.71254  0.05654  1.0000
  H   H75       1.0  0.18487  0.70806  0.51290  1.0000
  H   H76       1.0  0.07368  0.39730  0.41892  1.0000
  H   H77       1.0  0.50874  0.08780  0.75355  1.0000
  H   H78       1.0  0.56169  0.02649  0.76902  1.0000
  H   H79       1.0  0.05363  0.58698  0.85887  1.0000
  H   H80       1.0  0.54506  0.68523  0.55698  1.0000
  C   C131      1.0  0.24620  0.01711  0.41007  1.0000
  C   C132      1.0  0.22639  0.05463  0.32199  1.0000
  C  Sn1       1.0  0.26425  0.09536  0.19869  1.0000
  C  Sn2       1.0  0.32302  0.09846  0.16315  1.0000
  C   C133      1.0  0.34242  0.06071  0.25187  1.0000
  C   C134      1.0  0.30416  0.02014  0.37505  1.0000
  H   H81       1.0  0.21661  0.98570  0.50530  1.0000
  O  Te1       1.0  0.24374  0.13252  0.11192  1.0000
  O  Te2       1.0  0.36179  0.13874  0.04050  1.0000
  H   H82       1.0  0.31952  0.99107  0.44314  1.0000
  Mg  Mg1       1.0  0.18835  0.13912  0.95616  1.0000
  C   C135      1.0  0.31867  0.10777  0.65052  1.0000
  C   C136      1.0  0.33760  0.07349  0.75126  1.0000
  C  Sn3       1.0  0.29969  0.03287  0.87491  1.0000
  C  Sn4       1.0  0.24180  0.02654  0.89780  1.0000
  C   C137      1.0  0.22330  0.06101  0.79629  1.0000
  C   C138      1.0  0.26158  0.10154  0.67297  1.0000
  H   H83       1.0  0.34830  0.13911  0.55504  1.0000
  O  Te3       1.0  0.31930  0.99899  0.97450  1.0000
  O  Te4       1.0  0.32789  0.02718  0.02040  1.0000
  H   H84       1.0  0.24693  0.12805  0.59491  1.0000
  Mg  Mg2       1.0  0.46612  0.99103  0.12490  1.0000
  C   C139      1.0  0.91659  0.46046  0.96002  1.0000
  C   C140      1.0  0.95649  0.46149  0.79015  1.0000
  C  Sn5       1.0  0.97942  0.50978  0.68098  1.0000
  C  Sn6       1.0  0.96201  0.55787  0.74342  1.0000
  C   C141      1.0  0.92210  0.55642  0.91362  1.0000
  C   C142      1.0  0.02430  0.54880  0.02174  1.0000
  H   H85       1.0  0.02394  0.46383  0.04372  1.0000
  O  Te5       1.0  0.01923  0.51010  0.51160  1.0000
  O  Te6       1.0  0.98427  0.60669  0.63709  1.0000
  H   H86       1.0  0.99343  0.54802  0.15329  1.0000
  Mg  Mg3       1.0  0.03732  0.58657  0.41624  1.0000
  C   C143      1.0  0.57539  0.54541  0.59642  1.0000
  C   C144      1.0  0.55050  0.51039  0.75227  1.0000
  C  Sn7       1.0  0.51082  0.52644  0.90036  1.0000
  C  Sn8       1.0  0.49585  0.57854  0.89186  1.0000
  C   C145      1.0  0.52096  0.61326  0.73529  1.0000
  C   C146      1.0  0.56063  0.59679  0.58790  1.0000
  H   H87       1.0  0.60607  0.53266  0.48235  1.0000
  O  Te7       1.0  0.61126  0.53188  0.05504  1.0000
  O  Te8       1.0  0.58118  0.63653  0.03789  1.0000
  H   H88       1.0  0.57987  0.62390  0.46722  1.0000
  Mg  Mg4       1.0  0.55953  0.57366  0.21891  1.0000
  C   C147      1.0  0.55807  0.82498  0.62095  1.0000
  C   C148      1.0  0.51948  0.85651  0.71895  1.0000
  C  Sn9       1.0  0.47104  0.83308  0.86228  1.0000
  C  Sn10      1.0  0.46118  0.77703  0.90804  1.0000
  C   C149      1.0  0.50007  0.74584  0.80924  1.0000
  C   C150      1.0  0.54839  0.76970  0.66604  1.0000
  H   H89       1.0  0.59547  0.84344  0.51020  1.0000
  O  Te9       1.0  0.43290  0.86517  0.95874  1.0000
  O  Te10      1.0  0.53801  0.79350  0.05070  1.0000
  H   H90       1.0  0.57828  0.74528  0.59026  1.0000
  Mg  Mg5       1.0  0.49847  0.85417  0.14181  1.0000
  C   C151      1.0  0.78147  0.00459  0.86606  1.0000
  C   C152      1.0  0.83240  0.03343  0.74741  1.0000
  C  Sn11      1.0  0.83205  0.07523  0.62720  1.0000
  C  Sn12      1.0  0.77968  0.08832  0.62610  1.0000
  C   C153      1.0  0.72896  0.05926  0.74542  1.0000
  C   C154      1.0  0.72979  0.01749  0.86511  1.0000
  H   H91       1.0  0.78211  0.97229  0.95874  1.0000
  O  Te11      1.0  0.88333  0.10362  0.50952  1.0000
  O  Te12      1.0  0.77811  0.12993  0.50739  1.0000
  H   H92       1.0  0.69035  0.99520  0.95703  1.0000
  Mg  Mg6       1.0  0.85921  0.15690  0.37289  1.0000
  C   C155      1.0  0.75014  0.00312  0.36520  1.0000
  C   C156      1.0  0.72979  0.04208  0.28411  1.0000
  C  Sn13      1.0  0.76740  0.08317  0.16182  1.0000
  C  Sn14      1.0  0.82644  0.08518  0.12018  1.0000
  C   C157      1.0  0.84638  0.04599  0.20193  1.0000
  C   C158      1.0  0.80837  0.00506  0.32415  1.0000
  H   H93       1.0  0.81182  0.97143  0.45969  1.0000
  O  Te13      1.0  0.74635  0.12178  0.08208  1.0000
  O  Te14      1.0  0.74008  0.08487  0.99839  1.0000
  H   H94       1.0  0.91522  0.97488  0.38683  1.0000
  Mg  Mg7       1.0  0.69080  0.12830  0.92470  1.0000
