data_image0
_chemical_formula_structural       C10N6C8H4N2C8H4C10H4C4H4C2H2OHCOHOHCOC6N2C6H6C6N2C6H15C10N6C8H4N2C8H4C10H4C4H4C2H2OHCOHOHCON2C6H4C6N2C6H13SnCSn2CSnTe4Mg2SnCSn2CSnTe4Mg2SnCSn2CSnTe4Mg2SnCSn2CSnTe4Mg2SnCSn2CSnTe4Mg2SnCSn2CSnTe4Mg2SnCSn2CSnTe4Mg2
_chemical_formula_sum              "C144 N24 H80 O8 Sn28 Te28 Mg14"
_cell_length_a       25.6921
_cell_length_b       25.4865
_cell_length_c       8.31905
_cell_angle_alpha    84.8383
_cell_angle_beta     68.0266
_cell_angle_gamma    95.2678

_symmetry_space_group_name_H-M    'P1'
_space_group_IT_number       1

loop_
  _space_group_symop_operation_xyz
  'x, y, z'

loop_
  _atom_site_type_symbol
  _atom_site_label
  _atom_site_symmetry_multiplicity
  _atom_site_fract_x
  _atom_site_fract_y
  _atom_site_fract_z
  _atom_site_occupancy
  C   C1        1.0  0.07722  0.09508  0.22935  1.0000
  C   C2        1.0  0.98910  0.01504  0.28774  1.0000
  C   C3        1.0  0.03615  0.00375  0.31973  1.0000
  C   C4        1.0  0.03045  0.10634  0.19557  1.0000
  C   C5        1.0  0.52900  0.44180  0.31296  1.0000
  C   C6        1.0  0.93340  0.07740  0.19734  1.0000
  C   C7        1.0  0.53624  0.66800  0.21602  1.0000
  C   C8        1.0  0.13277  0.03326  0.32185  1.0000
  C   C9        1.0  0.08166  0.04338  0.29361  1.0000
  C   C10       1.0  0.98458  0.06687  0.22423  1.0000
  N   N1        1.0  0.49400  0.69221  0.29985  1.0000
  N   N2        1.0  0.17338  0.07221  0.28204  1.0000
  N   N3        1.0  0.57121  0.41757  0.22896  1.0000
  N   N4        1.0  0.89245  0.03867  0.23888  1.0000
  N   N5        1.0  0.48147  0.11511  0.25904  1.0000
  N   N6        1.0  0.58404  0.99496  0.26488  1.0000
  C   C11       1.0  0.42673  0.10727  0.26538  1.0000
  C   C12       1.0  0.56811  0.94225  0.25734  1.0000
  C   C13       1.0  0.63899  0.00288  0.25666  1.0000
  C   C14       1.0  0.49741  0.16784  0.26651  1.0000
  C   C15       1.0  0.40707  0.15817  0.27882  1.0000
  C   C16       1.0  0.61580  0.91540  0.24405  1.0000
  C   C17       1.0  0.65886  0.95208  0.24128  1.0000
  C   C18       1.0  0.44997  0.19480  0.27728  1.0000
  H   H1        1.0  0.36492  0.16537  0.29266  1.0000
  H   H2        1.0  0.61701  0.87350  0.23446  1.0000
  H   H3        1.0  0.70117  0.94496  0.22593  1.0000
  H   H4        1.0  0.44857  0.23669  0.28664  1.0000
  N   N7        1.0  0.46801  0.00017  0.27101  1.0000
  N   N8        1.0  0.59745  0.10992  0.25318  1.0000
  C   C19       1.0  0.41745  0.00895  0.25956  1.0000
  C   C20       1.0  0.47046  0.94682  0.26140  1.0000
  C   C21       1.0  0.64791  0.10107  0.26519  1.0000
  C   C22       1.0  0.59472  0.16312  0.26523  1.0000
  C   C23       1.0  0.38808  0.96028  0.23612  1.0000
  C   C24       1.0  0.42072  0.92149  0.23994  1.0000
  C   C25       1.0  0.67692  0.14951  0.29162  1.0000
  C   C26       1.0  0.64408  0.18823  0.28935  1.0000
  H   H5        1.0  0.34920  0.95699  0.21329  1.0000
  H   H6        1.0  0.41297  0.88011  0.22536  1.0000
  H   H7        1.0  0.71562  0.15272  0.31551  1.0000
  H   H8        1.0  0.65135  0.22940  0.30701  1.0000
  C   C27       1.0  0.39587  0.05828  0.26558  1.0000
  C   C28       1.0  0.51561  0.91906  0.26083  1.0000
  C   C29       1.0  0.66968  0.05184  0.25753  1.0000
  C   C30       1.0  0.54963  0.19092  0.26530  1.0000
  C   C31       1.0  0.33739  0.05953  0.27411  1.0000
  C   C32       1.0  0.55667  0.24952  0.26490  1.0000
  C   C33       1.0  0.32559  0.09956  0.16995  1.0000
  C   C34       1.0  0.29109  0.02245  0.38923  1.0000
  C   C35       1.0  0.51796  0.27362  0.39643  1.0000
  C   C36       1.0  0.60160  0.28290  0.13173  1.0000
  H   H9        1.0  0.36051  0.12716  0.07542  1.0000
  H   H10       1.0  0.29840  0.99247  0.47720  1.0000
  H   H11       1.0  0.48494  0.24810  0.50517  1.0000
  H   H12       1.0  0.63240  0.26511  0.03020  1.0000
  C   C37       1.0  0.27097  0.10329  0.18116  1.0000
  C   C38       1.0  0.23630  0.02452  0.39631  1.0000
  C   C39       1.0  0.52225  0.32842  0.39229  1.0000
  C   C40       1.0  0.60582  0.33796  0.12532  1.0000
  H   H13       1.0  0.26240  0.13382  0.09778  1.0000
  H   H14       1.0  0.20153  0.99561  0.48715  1.0000
  H   H15       1.0  0.49299  0.34523  0.50064  1.0000
  H   H16       1.0  0.63943  0.36373  0.01854  1.0000
  C   C41       1.0  0.22532  0.06535  0.29179  1.0000
  C   C42       1.0  0.56534  0.36191  0.25242  1.0000
  H   H17       1.0  0.11247  0.12597  0.20382  1.0000
  H   H18       1.0  0.48773  0.42024  0.40260  1.0000
  O   O1        1.0  0.03448  0.95073  0.38898  1.0000
  H   H19       1.0  0.93110  0.11815  0.14873  1.0000
  C   C43       1.0  0.07046  0.91955  0.28444  1.0000
  O   O2        1.0  0.10879  0.93657  0.14415  1.0000
  H   H20       1.0  0.95414  0.98397  0.31165  1.0000
  O   O3        1.0  0.03377  0.15841  0.11639  1.0000
  H   H21       1.0  0.13545  0.99269  0.37070  1.0000
  C   C44       1.0  0.00306  0.19429  0.21329  1.0000
  O   O4        1.0  0.96518  0.18221  0.35763  1.0000
  C   C45       1.0  0.21219  0.64297  0.90599  1.0000
  C   C46       1.0  0.20192  0.58846  0.96869  1.0000
  C   C47       1.0  0.15807  0.56900  0.12929  1.0000
  C   C48       1.0  0.12420  0.60381  0.22689  1.0000
  C   C49       1.0  0.13447  0.65834  0.16450  1.0000
  C   C50       1.0  0.17884  0.67799  0.00311  1.0000
  N   N9        1.0  0.09721  0.69010  0.27221  1.0000
  N   N10       1.0  0.11368  0.73994  0.22882  1.0000
  C   C51       1.0  0.02873  0.75370  0.48748  1.0000
  C   C52       1.0  0.07648  0.77235  0.33318  1.0000
  C   C53       1.0  0.99533  0.78976  0.57868  1.0000
  C   C54       1.0  0.00834  0.84425  0.51686  1.0000
  C   C55       1.0  0.05573  0.86286  0.36269  1.0000
  C   C56       1.0  0.09001  0.82683  0.27237  1.0000
  H   H22       1.0  0.24605  0.65776  0.78010  1.0000
  H   H23       1.0  0.22796  0.56137  0.89102  1.0000
  H   H24       1.0  0.15003  0.52679  0.17849  1.0000
  H   H25       1.0  0.95898  0.77567  0.69966  1.0000
  H   H26       1.0  0.98210  0.87233  0.58763  1.0000
  H   H27       1.0  0.12665  0.84107  0.15245  1.0000
  C   C57       1.0  0.90166  0.50491  0.43682  1.0000
  C   C58       1.0  0.92973  0.55684  0.37018  1.0000
  C   C59       1.0  0.98450  0.56524  0.24125  1.0000
  C   C60       1.0  0.01100  0.52170  0.17803  1.0000
  C   C61       1.0  0.98251  0.46982  0.24130  1.0000
  C   C62       1.0  0.92758  0.46139  0.37268  1.0000
  N   N11       1.0  0.01287  0.42926  0.16168  1.0000
  N   N12       1.0  0.98485  0.38270  0.20741  1.0000
  C   C63       1.0  0.06389  0.35467  0.96317  1.0000
  C   C64       1.0  0.01564  0.34330  0.12024  1.0000
  C   C65       1.0  0.09136  0.31345  0.88543  1.0000
  C   C66       1.0  0.07174  0.26072  0.96367  1.0000
  C   C67       1.0  0.02353  0.24920  0.11997  1.0000
  C   C68       1.0  0.99506  0.29050  0.19699  1.0000
  H   H28       1.0  0.85950  0.49866  0.54007  1.0000
  H   H29       1.0  0.90903  0.59051  0.42200  1.0000
  H   H30       1.0  0.00689  0.60535  0.19096  1.0000
  H   H31       1.0  0.12787  0.32205  0.76198  1.0000
  H   H32       1.0  0.09329  0.22843  0.90420  1.0000
  H   H33       1.0  0.95798  0.28171  0.31890  1.0000
  H   H34       1.0  0.90666  0.42083  0.42171  1.0000
  H   H35       1.0  0.01945  0.71128  0.53376  1.0000
  H   H36       1.0  0.18552  0.72025  0.95622  1.0000
  H   H37       1.0  0.07808  0.39590  0.90411  1.0000
  H   H38       1.0  0.50628  0.08551  0.25130  1.0000
  H   H39       1.0  0.55911  0.02450  0.27389  1.0000
  H   H40       1.0  0.08997  0.58993  0.35281  1.0000
  H   H41       1.0  0.05381  0.52686  0.07885  1.0000
  H   H42       1.0  0.57758  0.68962  0.12705  1.0000
  C   C69       1.0  0.08017  0.09605  0.72341  1.0000
  C   C70       1.0  0.99219  0.01561  0.78305  1.0000
  C   C71       1.0  0.03915  0.00475  0.81626  1.0000
  C   C72       1.0  0.03347  0.10682  0.68858  1.0000
  C   C73       1.0  0.54352  0.44689  0.82823  1.0000
  C   C74       1.0  0.93675  0.07742  0.68909  1.0000
  C   C75       1.0  0.52391  0.66716  0.69455  1.0000
  C   C76       1.0  0.13575  0.03460  0.81763  1.0000
  C   C77       1.0  0.08465  0.04454  0.78922  1.0000
  C   C78       1.0  0.98771  0.06717  0.71760  1.0000
  N   N13       1.0  0.49823  0.69422  0.81845  1.0000
  N   N14       1.0  0.17601  0.07377  0.78005  1.0000
  N   N15       1.0  0.56910  0.41980  0.70424  1.0000
  N   N16       1.0  0.89491  0.03924  0.73731  1.0000
  N   N17       1.0  0.48359  0.11717  0.76277  1.0000
  N   N18       1.0  0.58655  0.99695  0.76161  1.0000
  C   C79       1.0  0.42886  0.10914  0.76903  1.0000
  C   C80       1.0  0.57066  0.94412  0.75467  1.0000
  C   C81       1.0  0.64115  0.00486  0.75659  1.0000
  C   C82       1.0  0.49923  0.16987  0.77173  1.0000
  C   C83       1.0  0.40879  0.15980  0.78450  1.0000
  C   C84       1.0  0.61806  0.91729  0.74566  1.0000
  C   C85       1.0  0.66081  0.95399  0.74446  1.0000
  C   C86       1.0  0.45146  0.19652  0.78388  1.0000
  H   H43       1.0  0.36665  0.16694  0.79807  1.0000
  H   H44       1.0  0.61962  0.87538  0.73765  1.0000
  H   H45       1.0  0.70281  0.94674  0.73216  1.0000
  H   H46       1.0  0.44969  0.23832  0.79398  1.0000
  N   N19       1.0  0.47067  0.00217  0.76881  1.0000
  N   N20       1.0  0.59971  0.11205  0.75372  1.0000
  C   C87       1.0  0.42008  0.01112  0.75768  1.0000
  C   C88       1.0  0.47333  0.94899  0.75626  1.0000
  C   C89       1.0  0.65045  0.10312  0.76370  1.0000
  C   C90       1.0  0.59712  0.16527  0.76585  1.0000
  C   C91       1.0  0.39097  0.96281  0.73125  1.0000
  C   C92       1.0  0.42380  0.92405  0.73277  1.0000
  C   C93       1.0  0.67991  0.15157  0.78801  1.0000
  C   C94       1.0  0.64705  0.19036  0.78688  1.0000
  H   H47       1.0  0.35217  0.95970  0.70799  1.0000
  H   H48       1.0  0.41616  0.88290  0.71567  1.0000
  H   H49       1.0  0.71897  0.15479  0.80977  1.0000
  H   H50       1.0  0.65481  0.23158  0.80312  1.0000
  C   C95       1.0  0.39831  0.06032  0.76626  1.0000
  C   C96       1.0  0.51839  0.92100  0.75566  1.0000
  C   C97       1.0  0.67201  0.05379  0.75682  1.0000
  C   C98       1.0  0.55171  0.19311  0.76894  1.0000
  C   C99       1.0  0.51080  0.86235  0.75814  1.0000
  C   C100      1.0  0.55904  0.25180  0.76605  1.0000
  C   C101      1.0  0.46437  0.82984  0.88962  1.0000
  C   C102      1.0  0.55113  0.83694  0.63578  1.0000
  C   C103      1.0  0.51904  0.27692  0.89043  1.0000
  C   C104      1.0  0.60447  0.28461  0.63199  1.0000
  H   H51       1.0  0.43274  0.84858  0.98573  1.0000
  H   H52       1.0  0.58611  0.86138  0.52961  1.0000
  H   H53       1.0  0.48496  0.25220  0.99852  1.0000
  H   H54       1.0  0.63601  0.26620  0.53444  1.0000
  C   C105      1.0  0.46023  0.77467  0.90398  1.0000
  C   C106      1.0  0.54709  0.78189  0.64836  1.0000
  C   C107      1.0  0.52225  0.33192  0.87737  1.0000
  C   C108      1.0  0.60777  0.33976  0.61714  1.0000
  H   H55       1.0  0.42587  0.74984  0.01134  1.0000
  H   H56       1.0  0.57986  0.76373  0.55377  1.0000
  H   H57       1.0  0.48972  0.34971  0.97405  1.0000
  H   H58       1.0  0.64131  0.36479  0.50801  1.0000
  C   C109      1.0  0.50189  0.74952  0.78509  1.0000
  C   C110      1.0  0.56631  0.36459  0.73805  1.0000
  H   H59       1.0  0.11521  0.12722  0.69754  1.0000
  H   H60       1.0  0.52300  0.42900  0.96615  1.0000
  O   O5        1.0  0.03696  0.95211  0.88964  1.0000
  H   H61       1.0  0.93556  0.11763  0.63312  1.0000
  C   C111      1.0  0.07053  0.91890  0.78730  1.0000
  O   O6        1.0  0.10872  0.93395  0.64500  1.0000
  H   H62       1.0  0.95733  0.98435  0.80776  1.0000
  O   O7        1.0  0.03631  0.15887  0.61045  1.0000
  H   H63       1.0  0.13871  0.99387  0.86427  1.0000
  C   C112      1.0  0.00385  0.19348  0.70934  1.0000
  O   O8        1.0  0.96574  0.17982  0.85244  1.0000
  N   N21       1.0  0.08194  0.68707  0.79101  1.0000
  N   N22       1.0  0.10492  0.73550  0.75351  1.0000
  C   C113      1.0  0.02171  0.75465  0.00609  1.0000
  C   C114      1.0  0.06992  0.77076  0.85099  1.0000
  C   C115      1.0  0.99006  0.79249  0.09247  1.0000
  C   C116      1.0  0.00534  0.84649  0.02505  1.0000
  C   C117      1.0  0.05348  0.86271  0.87078  1.0000
  C   C118      1.0  0.08610  0.82483  0.78538  1.0000
  H   H64       1.0  0.20416  0.54250  0.47619  1.0000
  H   H65       1.0  0.95335  0.78022  0.21388  1.0000
  H   H66       1.0  0.98030  0.87599  0.09135  1.0000
  H   H67       1.0  0.12324  0.83733  0.66534  1.0000
  C   C119      1.0  0.90097  0.49775  0.99907  1.0000
  C   C120      1.0  0.91840  0.55014  0.91318  1.0000
  C   C121      1.0  0.96098  0.56054  0.74559  1.0000
  C   C122      1.0  0.98657  0.51877  0.66475  1.0000
  C   C123      1.0  0.96959  0.46644  0.75104  1.0000
  C   C124      1.0  0.92623  0.45585  0.91918  1.0000
  N   N23       1.0  0.99968  0.42797  0.65706  1.0000
  N   N24       1.0  0.98053  0.37988  0.72683  1.0000
  C   C125      1.0  0.06021  0.35562  0.47341  1.0000
  C   C126      1.0  0.01227  0.34232  0.63083  1.0000
  C   C127      1.0  0.08863  0.31562  0.39035  1.0000
  C   C128      1.0  0.07032  0.26226  0.46301  1.0000
  C   C129      1.0  0.02283  0.24891  0.62040  1.0000
  C   C130      1.0  0.99371  0.28900  0.70370  1.0000
  H   H68       1.0  0.86802  0.49003  0.12990  1.0000
  H   H69       1.0  0.89890  0.58261  0.97844  1.0000
  H   H70       1.0  0.97455  0.60099  0.67797  1.0000
  H   H71       1.0  0.12515  0.32568  0.26741  1.0000
  H   H72       1.0  0.09266  0.23099  0.39879  1.0000
  H   H73       1.0  0.95736  0.27887  0.82700  1.0000
  H   H74       1.0  0.91403  0.41513  0.98457  1.0000
  H   H75       1.0  0.01051  0.71254  0.05654  1.0000
  H   H76       1.0  0.07368  0.39730  0.41892  1.0000
  H   H77       1.0  0.50874  0.08780  0.75355  1.0000
  H   H78       1.0  0.56169  0.02649  0.76902  1.0000
  H   H79       1.0  0.01948  0.52528  0.53377  1.0000
  H   H80       1.0  0.54506  0.68523  0.55698  1.0000
  C  Sn1       1.0  0.48535  0.56690  0.40856  1.0000
  C   C131      1.0  0.52968  0.60482  0.29487  1.0000
  C  Sn2       1.0  0.57520  0.58927  0.16128  1.0000
  C  Sn3       1.0  0.57641  0.53469  0.14081  1.0000
  C   C132      1.0  0.53210  0.49681  0.25444  1.0000
  C  Sn4       1.0  0.48656  0.51232  0.38810  1.0000
  O  Te1       1.0  0.44027  0.58334  0.54119  1.0000
  O  Te2       1.0  0.61904  0.62791  0.04928  1.0000
  O  Te3       1.0  0.62155  0.51827  0.00805  1.0000
  O  Te4       1.0  0.44274  0.47372  0.50003  1.0000
  Mg  Mg1       1.0  0.54633  0.54486  0.88847  1.0000
  Mg  Mg2       1.0  0.39053  0.51580  0.66082  1.0000
  C  Sn5       1.0  0.75054  0.01846  0.89705  1.0000
  C   C133      1.0  0.73216  0.05477  0.80064  1.0000
  C  Sn6       1.0  0.77090  0.08554  0.64789  1.0000
  C  Sn7       1.0  0.82924  0.07987  0.59023  1.0000
  C   C134      1.0  0.84760  0.04357  0.68659  1.0000
  C  Sn8       1.0  0.80888  0.01280  0.83938  1.0000
  O  Te5       1.0  0.83594  0.02904  0.04935  1.0000
  O  Te6       1.0  0.75151  0.12159  0.55375  1.0000
  O  Te7       1.0  0.86872  0.11026  0.43779  1.0000
  O  Te8       1.0  0.82824  0.97676  0.93348  1.0000
  Mg  Mg3       1.0  0.82165  0.15394  0.35452  1.0000
  Mg  Mg4       1.0  0.97411  0.98529  0.13266  1.0000
  C  Sn9       1.0  0.31562  0.11485  0.70069  1.0000
  C   C135      1.0  0.33432  0.07675  0.79028  1.0000
  C  Sn10      1.0  0.29946  0.02909  0.87575  1.0000
  C  Sn11      1.0  0.24478  0.01930  0.87152  1.0000
  C   C136      1.0  0.22610  0.05738  0.78196  1.0000
  C  Sn12      1.0  0.26093  0.10506  0.69646  1.0000
  O  Te9       1.0  0.35118  0.16221  0.61615  1.0000
  O  Te10      1.0  0.31909  0.99160  0.96451  1.0000
  O  Te11      1.0  0.20921  0.97189  0.95617  1.0000
  O  Te12      1.0  0.24134  0.14253  0.60773  1.0000
  Mg  Mg5       1.0  0.47097  0.97405  0.05954  1.0000
  Mg  Mg6       1.0  0.30538  0.20100  0.51258  1.0000
  C  Sn13      1.0  0.81606  0.09948  0.15597  1.0000
  C   C137      1.0  0.83465  0.06306  0.25145  1.0000
  C  Sn14      1.0  0.80029  0.01540  0.33967  1.0000
  C  Sn15      1.0  0.74623  0.00388  0.33223  1.0000
  C   C138      1.0  0.72767  0.04028  0.23677  1.0000
  C  Sn16      1.0  0.76201  0.08796  0.14852  1.0000
  O  Te13      1.0  0.85112  0.14687  0.06877  1.0000
  O  Te14      1.0  0.91086  0.97962  0.43433  1.0000
  O  Te15      1.0  0.80224  0.95644  0.41953  1.0000
  O  Te16      1.0  0.74254  0.12372  0.05389  1.0000
  Mg  Mg7       1.0  0.84762  0.92037  0.53104  1.0000
  Mg  Mg8       1.0  0.68086  0.14205  0.95706  1.0000
  C  Sn17      1.0  0.17115  0.66057  0.49834  1.0000
  C   C139      1.0  0.11930  0.65361  0.64126  1.0000
  C  Sn18      1.0  0.09858  0.60440  0.74623  1.0000
  C  Sn19      1.0  0.13037  0.56125  0.70762  1.0000
  C   C140      1.0  0.18219  0.56822  0.56480  1.0000
  C  Sn20      1.0  0.20293  0.61742  0.45973  1.0000
  O  Te17      1.0  0.19104  0.71011  0.39519  1.0000
  O  Te18      1.0  0.04663  0.59840  0.88837  1.0000
  O  Te19      1.0  0.11043  0.51168  0.81092  1.0000
  O  Te20      1.0  0.25486  0.62343  0.31769  1.0000
  Mg  Mg9       1.0  0.03739  0.52322  0.99020  1.0000
  Mg  Mg10      1.0  0.26415  0.69860  0.21584  1.0000
  C  Sn21      1.0  0.48483  0.53459  0.91184  1.0000
  C   C141      1.0  0.52146  0.50441  0.79966  1.0000
  C  Sn22      1.0  0.56700  0.52932  0.65017  1.0000
  C  Sn23      1.0  0.57615  0.58557  0.61206  1.0000
  C   C142      1.0  0.53953  0.61572  0.72422  1.0000
  C  Sn24      1.0  0.49397  0.59084  0.87373  1.0000
  O  Te21      1.0  0.56446  0.54976  0.06056  1.0000
  O  Te22      1.0  0.60304  0.49831  0.53996  1.0000
  O  Te23      1.0  0.62144  0.61130  0.46320  1.0000
  O  Te24      1.0  0.45795  0.62182  0.98392  1.0000
  Mg  Mg11      1.0  0.65883  0.55181  0.35327  1.0000
  Mg  Mg12      1.0  0.52706  0.60929  0.17068  1.0000
  C  Sn25      1.0  0.44734  0.78346  0.38822  1.0000
  C   C143      1.0  0.48302  0.75383  0.27092  1.0000
  C  Sn26      1.0  0.53598  0.77774  0.14954  1.0000
  C  Sn27      1.0  0.55368  0.83239  0.14539  1.0000
  C   C144      1.0  0.51802  0.86199  0.26266  1.0000
  C  Sn28      1.0  0.46504  0.83812  0.38407  1.0000
  O  Te25      1.0  0.39457  0.75874  0.50846  1.0000
  O  Te26      1.0  0.57090  0.74730  0.03354  1.0000
  O  Te27      1.0  0.60649  0.85710  0.02502  1.0000
  O  Te28      1.0  0.43014  0.86852  0.50003  1.0000
  Mg  Mg13      1.0  0.51406  0.75801  0.89401  1.0000
  Mg  Mg14      1.0  0.36210  0.81692  0.63968  1.0000
