data_image0
_chemical_formula_structural       C6N6C3N3C3N3C6N6C3N3C3N3H12C2Sn2C2HTe2HMgC2Sn2C2HTe2HMgC2Sn2C2HTe2HMgC2Sn2C2HTe2HMgC2Sn2C2HTe2HMgC2Sn2C2HTe2HMgC2Sn2C2HTe2HMgC2Sn2C2HTe2HMgC2Sn2C2HTe2HMgC2Sn2C2HTe2HMgC2Sn2C2HTe2HMgC2Sn2C2HTe2HMgC2Sn2C2HTe2HMgC2Sn2C2HTe2HMgC2Sn2C2HTe2HMgC2Sn2C2HTe2HMgC2Sn2C2HTe2HMgC2Sn2C2HTe2HMg
_chemical_formula_sum              "C96 N24 H48 Sn36 Te36 Mg18"
_cell_length_a       36.9072
_cell_length_b       36.8672
_cell_length_c       8.12868
_cell_angle_alpha    116.105
_cell_angle_beta     60.3364
_cell_angle_gamma    120.186

_symmetry_space_group_name_H-M    'P1'
_space_group_IT_number       1

loop_
  _space_group_symop_operation_xyz
  'x, y, z'

loop_
  _atom_site_type_symbol
  _atom_site_label
  _atom_site_symmetry_multiplicity
  _atom_site_fract_x
  _atom_site_fract_y
  _atom_site_fract_z
  _atom_site_occupancy
  C   C1        1.0  0.88729  0.45990  0.22911  1.0000
  C   C2        1.0  0.53941  0.42448  0.23670  1.0000
  C   C3        1.0  0.57367  0.11153  0.24079  1.0000
  C   C4        1.0  0.11008  0.53565  0.28014  1.0000
  C   C5        1.0  0.46400  0.57942  0.26383  1.0000
  C   C6        1.0  0.41998  0.88438  0.23985  1.0000
  N   N1        1.0  0.90999  0.44755  0.26094  1.0000
  N   N2        1.0  0.55354  0.46509  0.24513  1.0000
  N   N3        1.0  0.53213  0.08737  0.26137  1.0000
  N   N4        1.0  0.08716  0.54747  0.24694  1.0000
  N   N5        1.0  0.45115  0.53881  0.25093  1.0000
  N   N6        1.0  0.45730  0.91185  0.26772  1.0000
  C   C7        1.0  0.34927  0.70589  0.24600  1.0000
  C   C8        1.0  0.29178  0.64016  0.24558  1.0000
  C   C9        1.0  0.35672  0.64887  0.25260  1.0000
  N   N7        1.0  0.37511  0.69110  0.25274  1.0000
  N   N8        1.0  0.30739  0.68178  0.24265  1.0000
  N   N9        1.0  0.31518  0.62211  0.24973  1.0000
  C   C10       1.0  0.64756  0.29171  0.25394  1.0000
  C   C11       1.0  0.70644  0.35643  0.25070  1.0000
  C   C12       1.0  0.64191  0.34986  0.24803  1.0000
  N   N10       1.0  0.62224  0.30776  0.25130  1.0000
  N   N11       1.0  0.68991  0.31459  0.25261  1.0000
  N   N12       1.0  0.68387  0.37549  0.24748  1.0000
  C   C13       1.0  0.88984  0.46077  0.73018  1.0000
  C   C14       1.0  0.53879  0.42670  0.75542  1.0000
  C   C15       1.0  0.57486  0.11675  0.77855  1.0000
  C   C16       1.0  0.11220  0.53702  0.78162  1.0000
  C   C17       1.0  0.46509  0.57813  0.74606  1.0000
  C   C18       1.0  0.42652  0.88669  0.72381  1.0000
  N   N13       1.0  0.91162  0.44844  0.76773  1.0000
  N   N14       1.0  0.55471  0.46541  0.73536  1.0000
  N   N15       1.0  0.53775  0.08924  0.74911  1.0000
  N   N16       1.0  0.08944  0.54807  0.74385  1.0000
  N   N17       1.0  0.44967  0.53910  0.76134  1.0000
  N   N18       1.0  0.46195  0.91450  0.76734  1.0000
  C   C19       1.0  0.35150  0.70871  0.74815  1.0000
  C   C20       1.0  0.29397  0.64301  0.74433  1.0000
  C   C21       1.0  0.35844  0.65129  0.75419  1.0000
  N   N19       1.0  0.37699  0.69363  0.75589  1.0000
  N   N20       1.0  0.30971  0.68480  0.74306  1.0000
  N   N21       1.0  0.31711  0.62473  0.74863  1.0000
  C   C22       1.0  0.65070  0.29411  0.74792  1.0000
  C   C23       1.0  0.70893  0.35930  0.74970  1.0000
  C   C24       1.0  0.64451  0.35215  0.74397  1.0000
  N   N22       1.0  0.62534  0.30986  0.74362  1.0000
  N   N23       1.0  0.69261  0.31748  0.75120  1.0000
  N   N24       1.0  0.68627  0.37817  0.74578  1.0000
  H   H1        1.0  0.90084  0.49117  0.19638  1.0000
  H   H2        1.0  0.59792  0.09903  0.21638  1.0000
  H   H3        1.0  0.50660  0.40100  0.22566  1.0000
  H   H4        1.0  0.49611  0.60378  0.28035  1.0000
  H   H5        1.0  0.09649  0.50492  0.31761  1.0000
  H   H6        1.0  0.39933  0.89303  0.21226  1.0000
  H   H7        1.0  0.50334  0.40558  0.78119  1.0000
  H   H8        1.0  0.90474  0.49126  0.68862  1.0000
  H   H9        1.0  0.59346  0.10871  0.82123  1.0000
  H   H10       1.0  0.40966  0.89490  0.67245  1.0000
  H   H11       1.0  0.09832  0.50699  0.82538  1.0000
  H   H12       1.0  0.50021  0.59989  0.72571  1.0000
  C   C25       1.0  0.98681  0.45511  0.27278  1.0000
  C   C26       1.0  0.95835  0.46964  0.27306  1.0000
  C  Sn1       1.0  0.97422  0.51132  0.25298  1.0000
  C  Sn2       1.0  0.01944  0.53889  0.23221  1.0000
  C   C27       1.0  0.04765  0.52403  0.23197  1.0000
  C   C28       1.0  0.03142  0.48227  0.25222  1.0000
  H   H13       1.0  0.97427  0.42279  0.28834  1.0000
  O  Te1       1.0  0.94533  0.52533  0.25364  1.0000
  O  Te2       1.0  0.03618  0.58069  0.21182  1.0000
  H   H14       1.0  0.05348  0.47102  0.25187  1.0000
  Mg  Mg1       1.0  0.98378  0.58502  0.22147  1.0000
  C   C29       1.0  0.53300  0.54700  0.25126  1.0000
  C   C30       1.0  0.49051  0.52924  0.24008  1.0000
  C  Sn3       1.0  0.46367  0.48588  0.24224  1.0000
  C  Sn4       1.0  0.47976  0.45990  0.25591  1.0000
  C   C31       1.0  0.52231  0.47798  0.26716  1.0000
  C   C32       1.0  0.54889  0.52140  0.26481  1.0000
  H   H15       1.0  0.55356  0.58060  0.24955  1.0000
  O  Te3       1.0  0.42130  0.46865  0.23089  1.0000
  O  Te4       1.0  0.45362  0.41648  0.25844  1.0000
  H   H16       1.0  0.58178  0.53515  0.27359  1.0000
  Mg  Mg2       1.0  0.39819  0.40778  0.23955  1.0000
  C   C33       1.0  0.96670  0.00709  0.22717  1.0000
  C   C34       1.0  0.50295  0.03850  0.26888  1.0000
  C  Sn5       1.0  0.52892  0.02685  0.30241  1.0000
  C  Sn6       1.0  0.01826  0.98291  0.29386  1.0000
  C   C35       1.0  0.97969  0.95173  0.25188  1.0000
  C   C36       1.0  0.95395  0.96374  0.21864  1.0000
  H   H17       1.0  0.44453  0.01638  0.20134  1.0000
  O  Te5       1.0  0.56729  0.05865  0.34396  1.0000
  O  Te6       1.0  0.04361  0.97038  0.32670  1.0000
  H   H18       1.0  0.92414  0.93941  0.18622  1.0000
  Mg  Mg3       1.0  0.59085  0.02556  0.37804  1.0000
  C   C37       1.0  0.18556  0.61600  0.24686  1.0000
  C   C38       1.0  0.16134  0.57244  0.25092  1.0000
  C  Sn7       1.0  0.18004  0.54917  0.26252  1.0000
  C  Sn8       1.0  0.22380  0.56999  0.27025  1.0000
  C   C39       1.0  0.24775  0.61359  0.26625  1.0000
  C   C40       1.0  0.22872  0.63657  0.25456  1.0000
  H   H19       1.0  0.17083  0.63379  0.23792  1.0000
  O  Te7       1.0  0.15538  0.50567  0.26635  1.0000
  O  Te8       1.0  0.24329  0.54751  0.28197  1.0000
  H   H20       1.0  0.24747  0.67030  0.25155  1.0000
  Mg  Mg4       1.0  0.19638  0.48875  0.28303  1.0000
  C   C41       1.0  0.45157  0.65009  0.26914  1.0000
  C   C42       1.0  0.44037  0.60804  0.27206  1.0000
  C  Sn9       1.0  0.39967  0.57564  0.25622  1.0000
  C  Sn10      1.0  0.36969  0.58561  0.23706  1.0000
  C   C43       1.0  0.38122  0.62777  0.23415  1.0000
  C   C44       1.0  0.42203  0.65995  0.25017  1.0000
  H   H21       1.0  0.48316  0.67499  0.28142  1.0000
  O  Te9       1.0  0.38900  0.53380  0.25946  1.0000
  O  Te10      1.0  0.32880  0.55383  0.22090  1.0000
  H   H22       1.0  0.43071  0.69250  0.24778  1.0000
  Mg  Mg5       1.0  0.32933  0.50161  0.23282  1.0000
  C   C45       1.0  0.42975  0.81314  0.25246  1.0000
  C   C46       1.0  0.41084  0.83515  0.23363  1.0000
  C  Sn11      1.0  0.36766  0.81427  0.22684  1.0000
  C  Sn12      1.0  0.34301  0.77055  0.23921  1.0000
  C   C47       1.0  0.36221  0.74883  0.25817  1.0000
  C   C48       1.0  0.40546  0.77002  0.26475  1.0000
  H   H23       1.0  0.46320  0.82954  0.25766  1.0000
  O  Te11      1.0  0.34928  0.83674  0.20791  1.0000
  O  Te12      1.0  0.29978  0.74892  0.23287  1.0000
  H   H24       1.0  0.42007  0.75298  0.27946  1.0000
  Mg  Mg6       1.0  0.28921  0.79330  0.20585  1.0000
  C   C49       1.0  0.81149  0.37963  0.25849  1.0000
  C   C50       1.0  0.83779  0.42158  0.23262  1.0000
  C  Sn13      1.0  0.81941  0.44542  0.22290  1.0000
  C  Sn14      1.0  0.77385  0.42683  0.23949  1.0000
  C   C51       1.0  0.74782  0.38485  0.26548  1.0000
  C   C52       1.0  0.76655  0.36128  0.27494  1.0000
  H   H25       1.0  0.82597  0.36140  0.26592  1.0000
  O  Te13      1.0  0.84616  0.48729  0.19693  1.0000
  O  Te14      1.0  0.75463  0.44994  0.23035  1.0000
  H   H26       1.0  0.74617  0.32881  0.29510  1.0000
  Mg  Mg7       1.0  0.80471  0.50587  0.19346  1.0000
  C   C53       1.0  0.54894  0.35221  0.23188  1.0000
  C   C54       1.0  0.55952  0.39560  0.25026  1.0000
  C  Sn15      1.0  0.60121  0.42670  0.25932  1.0000
  C  Sn16      1.0  0.63284  0.41402  0.24973  1.0000
  C   C55       1.0  0.62195  0.37053  0.23120  1.0000
  C   C56       1.0  0.58012  0.33968  0.22233  1.0000
  H   H27       1.0  0.51658  0.32833  0.22491  1.0000
  O  Te15      1.0  0.61123  0.46991  0.27776  1.0000
  O  Te16      1.0  0.67477  0.44444  0.25838  1.0000
  H   H28       1.0  0.57195  0.30608  0.20797  1.0000
  Mg  Mg8       1.0  0.67279  0.49939  0.28365  1.0000
  C   C57       1.0  0.65501  0.21749  0.24998  1.0000
  C   C58       1.0  0.63586  0.24143  0.24616  1.0000
  C  Sn17      1.0  0.59174  0.22236  0.25169  1.0000
  C  Sn18      1.0  0.56640  0.17850  0.26127  1.0000
  C   C59       1.0  0.58585  0.15484  0.26517  1.0000
  C   C60       1.0  0.63003  0.17423  0.25951  1.0000
  H   H29       1.0  0.68918  0.23250  0.24572  1.0000
  O  Te17      1.0  0.57313  0.24674  0.24768  1.0000
  O  Te18      1.0  0.52222  0.15865  0.26702  1.0000
  H   H30       1.0  0.64484  0.15570  0.26260  1.0000
  Mg  Mg9       1.0  0.51168  0.20529  0.25831  1.0000
  C   C61       1.0  0.98619  0.52964  0.76792  1.0000
  C   C62       1.0  0.96041  0.48556  0.75575  1.0000
  C  Sn19      1.0  0.97752  0.45828  0.74744  1.0000
  C  Sn20      1.0  0.02127  0.47555  0.75148  1.0000
  C   C63       1.0  0.04678  0.51970  0.76381  1.0000
  C   C64       1.0  0.02933  0.54670  0.77198  1.0000
  H   H31       1.0  0.97268  0.55054  0.77435  1.0000
  O  Te19      1.0  0.95132  0.41431  0.73525  1.0000
  O  Te20      1.0  0.03919  0.44902  0.74345  1.0000
  H   H32       1.0  0.04928  0.58084  0.78153  1.0000
  Mg  Mg10      1.0  0.99052  0.39124  0.72770  1.0000
  C   C65       1.0  0.46135  0.46714  0.72189  1.0000
  C   C66       1.0  0.47111  0.51142  0.76357  1.0000
  C  Sn21      1.0  0.51193  0.54186  0.78568  1.0000
  C  Sn22      1.0  0.54351  0.52760  0.76554  1.0000
  C   C67       1.0  0.53345  0.48322  0.72369  1.0000
  C   C68       1.0  0.49249  0.45304  0.70192  1.0000
  H   H33       1.0  0.42967  0.44378  0.70494  1.0000
  O  Te21      1.0  0.52114  0.58599  0.82738  1.0000
  O  Te22      1.0  0.58458  0.55733  0.78682  1.0000
  H   H34       1.0  0.48496  0.41875  0.66952  1.0000
  Mg  Mg11      1.0  0.58168  0.61401  0.84326  1.0000
  C   C69       1.0  0.45320  0.98976  0.79111  1.0000
  C   C70       1.0  0.47220  0.96179  0.76135  1.0000
  C  Sn23      1.0  0.51744  0.97731  0.73457  1.0000
  C  Sn24      1.0  0.54407  0.02168  0.73777  1.0000
  C   C71       1.0  0.02248  0.04940  0.76779  1.0000
  C   C72       1.0  0.47944  0.03352  0.79437  1.0000
  H   H35       1.0  0.41814  0.97748  0.81179  1.0000
  O  Te23      1.0  0.53589  0.94892  0.70495  1.0000
  O  Te24      1.0  0.58937  0.03805  0.71147  1.0000
  H   H36       1.0  0.96247  0.05519  0.81753  1.0000
  Mg  Mg12      1.0  0.59919  0.98660  0.67609  1.0000
  C   C73       1.0  0.21144  0.63104  0.73619  1.0000
  C   C74       1.0  0.24133  0.62170  0.75491  1.0000
  C  Sn25      1.0  0.22948  0.58068  0.77145  1.0000
  C  Sn26      1.0  0.18690  0.54848  0.76912  1.0000
  C   C75       1.0  0.15725  0.55813  0.75020  1.0000
  C   C76       1.0  0.16944  0.59929  0.73380  1.0000
  H   H37       1.0  0.22088  0.66287  0.72340  1.0000
  O  Te25      1.0  0.25974  0.57190  0.79012  1.0000
  O  Te26      1.0  0.17421  0.50721  0.78534  1.0000
  H   H38       1.0  0.14630  0.60650  0.71919  1.0000
  Mg  Mg13      1.0  0.22704  0.51086  0.80778  1.0000
  C   C77       1.0  0.43902  0.66044  0.76825  1.0000
  C   C78       1.0  0.39692  0.63966  0.75014  1.0000
  C  Sn27      1.0  0.37362  0.59538  0.74014  1.0000
  C  Sn28      1.0  0.39291  0.57155  0.74851  1.0000
  C   C79       1.0  0.43504  0.59264  0.76678  1.0000
  C   C80       1.0  0.45806  0.63697  0.77660  1.0000
  H   H39       1.0  0.45682  0.69474  0.77596  1.0000
  O  Te27      1.0  0.33160  0.57512  0.72199  1.0000
  O  Te28      1.0  0.37035  0.52726  0.73891  1.0000
  H   H40       1.0  0.49064  0.65305  0.79075  1.0000
  Mg  Mg14      1.0  0.31395  0.51417  0.71448  1.0000
  C   C81       1.0  0.43237  0.81597  0.76093  1.0000
  C   C82       1.0  0.41510  0.83786  0.73147  1.0000
  C  Sn29      1.0  0.37277  0.81703  0.71578  1.0000
  C  Sn30      1.0  0.34731  0.77347  0.72994  1.0000
  C   C83       1.0  0.36487  0.75186  0.75956  1.0000
  C   C84       1.0  0.40728  0.77301  0.77500  1.0000
  H   H41       1.0  0.46517  0.83234  0.77298  1.0000
  O  Te29      1.0  0.35603  0.83937  0.68629  1.0000
  O  Te30      1.0  0.30490  0.75188  0.71485  1.0000
  H   H42       1.0  0.42062  0.75606  0.79793  1.0000
  Mg  Mg15      1.0  0.29655  0.79605  0.67495  1.0000
  C   C85       1.0  0.78945  0.36831  0.76251  1.0000
  C   C86       1.0  0.75950  0.38089  0.76244  1.0000
  C  Sn31      1.0  0.77345  0.42214  0.74241  1.0000
  C  Sn32      1.0  0.81823  0.45126  0.72205  1.0000
  C   C87       1.0  0.84795  0.43836  0.72216  1.0000
  C   C88       1.0  0.83363  0.39701  0.74236  1.0000
  H   H43       1.0  0.77839  0.33631  0.77803  1.0000
  O  Te31      1.0  0.74309  0.43419  0.74271  1.0000
  O  Te32      1.0  0.83306  0.49268  0.70172  1.0000
  H   H44       1.0  0.85684  0.38727  0.74229  1.0000
  Mg  Mg16      1.0  0.77917  0.49409  0.71078  1.0000
  C   C89       1.0  0.62141  0.43521  0.74803  1.0000
  C   C90       1.0  0.57865  0.41492  0.73693  1.0000
  C  Sn33      1.0  0.55422  0.37120  0.73757  1.0000
  C  Sn34      1.0  0.57304  0.34745  0.74961  1.0000
  C   C91       1.0  0.61583  0.36805  0.76080  1.0000
  C   C92       1.0  0.63999  0.41181  0.75999  1.0000
  H   H45       1.0  0.64009  0.46907  0.74751  1.0000
  O  Te33      1.0  0.51155  0.35142  0.72631  1.0000
  O  Te34      1.0  0.54935  0.30372  0.75060  1.0000
  H   H46       1.0  0.67308  0.42752  0.76871  1.0000
  Mg  Mg17      1.0  0.49240  0.29116  0.73252  1.0000
  C   C93       1.0  0.56875  0.18748  0.74210  1.0000
  C   C94       1.0  0.58843  0.16385  0.74451  1.0000
  C  Sn35      1.0  0.63084  0.18445  0.75933  1.0000
  C  Sn36      1.0  0.65389  0.22955  0.77200  1.0000
  C   C95       1.0  0.63390  0.25292  0.76960  1.0000
  C   C96       1.0  0.59146  0.23198  0.75466  1.0000
  H   H47       1.0  0.53590  0.17129  0.73064  1.0000
  O  Te35      1.0  0.65003  0.16034  0.76147  1.0000
  O  Te36      1.0  0.69631  0.25096  0.78701  1.0000
  H   H48       1.0  0.57621  0.25029  0.75292  1.0000
  Mg  Mg18      1.0  0.70849  0.20411  0.78402  1.0000
