data_image0
_chemical_formula_structural       C6N6C12H8C2H2C2H2C3N3C5N3C6N6C12H8C8H8C8H8C5N3C9N3H12C2Sn2C2HTe2HMgC2Sn2C2HTe2HMgC2Sn2C2HTe2HMgC2Sn2C2HTe2HMgC2Sn2C2HTe2HMgC2Sn2C2HTe2HMgC2Sn2C2HTe2HMgC2Sn2C2HTe2HMgC2Sn2C2HTe2HMg
_chemical_formula_sum              "C114 N24 H66 Sn18 Te18 Mg9"
_cell_length_a       36.9072
_cell_length_b       36.8672
_cell_length_c       8.12868
_cell_angle_alpha    116.105
_cell_angle_beta     60.3364
_cell_angle_gamma    120.186

_symmetry_space_group_name_H-M    'P1'
_space_group_IT_number       1

loop_
  _space_group_symop_operation_xyz
  'x, y, z'

loop_
  _atom_site_type_symbol
  _atom_site_label
  _atom_site_symmetry_multiplicity
  _atom_site_fract_x
  _atom_site_fract_y
  _atom_site_fract_z
  _atom_site_occupancy
  C   C1        1.0  0.88729  0.45990  0.22911  1.0000
  C   C2        1.0  0.53941  0.42448  0.23670  1.0000
  C   C3        1.0  0.57367  0.11153  0.24079  1.0000
  C   C4        1.0  0.11008  0.53565  0.28014  1.0000
  C   C5        1.0  0.46400  0.57942  0.26383  1.0000
  C   C6        1.0  0.41998  0.88438  0.23985  1.0000
  N   N1        1.0  0.90999  0.44755  0.26094  1.0000
  N   N2        1.0  0.55354  0.46509  0.24513  1.0000
  N   N3        1.0  0.53213  0.08737  0.26137  1.0000
  N   N4        1.0  0.08716  0.54747  0.24694  1.0000
  N   N5        1.0  0.45115  0.53881  0.25093  1.0000
  N   N6        1.0  0.45730  0.91185  0.26772  1.0000
  C   C7        1.0  0.52663  0.48161  0.24614  1.0000
  C   C8        1.0  0.51524  0.04393  0.26218  1.0000
  C   C9        1.0  0.47827  0.52274  0.25108  1.0000
  C   C10       1.0  0.47422  0.95512  0.26340  1.0000
  C   C11       1.0  0.54627  0.52572  0.24457  1.0000
  C   C12       1.0  0.47342  0.01786  0.23724  1.0000
  C   C13       1.0  0.45865  0.47866  0.25292  1.0000
  C   C14       1.0  0.51561  0.98142  0.29205  1.0000
  C   C15       1.0  0.52287  0.54595  0.24684  1.0000
  C   C16       1.0  0.45339  0.97437  0.23681  1.0000
  C   C17       1.0  0.48203  0.45847  0.25075  1.0000
  C   C18       1.0  0.53579  0.02489  0.29157  1.0000
  H   H1        1.0  0.58063  0.54323  0.24127  1.0000
  H   H2        1.0  0.45773  0.03277  0.21492  1.0000
  H   H3        1.0  0.42430  0.46117  0.25633  1.0000
  H   H4        1.0  0.53079  0.96674  0.31879  1.0000
  H   H5        1.0  0.53947  0.57982  0.24258  1.0000
  H   H6        1.0  0.42158  0.95518  0.21347  1.0000
  H   H7        1.0  0.46540  0.42462  0.25497  1.0000
  H   H8        1.0  0.56680  0.04458  0.32157  1.0000
  C   C19       1.0  0.60932  0.43200  0.24921  1.0000
  C   C20       1.0  0.63388  0.41353  0.25027  1.0000
  H   H9        1.0  0.62273  0.46613  0.25353  1.0000
  H   H10       1.0  0.66745  0.43267  0.25533  1.0000
  C   C21       1.0  0.54785  0.36228  0.23735  1.0000
  C   C22       1.0  0.57235  0.34378  0.23919  1.0000
  H   H11       1.0  0.51450  0.34246  0.22942  1.0000
  H   H12       1.0  0.55886  0.30965  0.23482  1.0000
  C   C23       1.0  0.34927  0.70589  0.24600  1.0000
  C   C24       1.0  0.29178  0.64016  0.24558  1.0000
  C   C25       1.0  0.35672  0.64887  0.25260  1.0000
  N   N7        1.0  0.37511  0.69110  0.25274  1.0000
  N   N8        1.0  0.30739  0.68178  0.24265  1.0000
  N   N9        1.0  0.31518  0.62211  0.24973  1.0000
  C   C26       1.0  0.64756  0.29171  0.25394  1.0000
  C   C27       1.0  0.70644  0.35643  0.25070  1.0000
  C   C28       1.0  0.64191  0.34986  0.24803  1.0000
  C   C29       1.0  0.56592  0.40652  0.24151  1.0000
  C   C30       1.0  0.61572  0.36924  0.24568  1.0000
  N   N10       1.0  0.62224  0.30776  0.25130  1.0000
  N   N11       1.0  0.68991  0.31459  0.25261  1.0000
  N   N12       1.0  0.68387  0.37549  0.24748  1.0000
  C   C31       1.0  0.88984  0.46077  0.73018  1.0000
  C   C32       1.0  0.53879  0.42670  0.75542  1.0000
  C   C33       1.0  0.57486  0.11675  0.77855  1.0000
  C   C34       1.0  0.11220  0.53702  0.78162  1.0000
  C   C35       1.0  0.46509  0.57813  0.74606  1.0000
  C   C36       1.0  0.42652  0.88669  0.72381  1.0000
  N   N13       1.0  0.91162  0.44844  0.76773  1.0000
  N   N14       1.0  0.55471  0.46541  0.73536  1.0000
  N   N15       1.0  0.53775  0.08924  0.74911  1.0000
  N   N16       1.0  0.08944  0.54807  0.74385  1.0000
  N   N17       1.0  0.44967  0.53910  0.76134  1.0000
  N   N18       1.0  0.46195  0.91450  0.76734  1.0000
  C   C37       1.0  0.95557  0.47462  0.76292  1.0000
  C   C38       1.0  0.52042  0.04634  0.75834  1.0000
  C   C39       1.0  0.04548  0.52150  0.75008  1.0000
  C   C40       1.0  0.47930  0.95771  0.76243  1.0000
  C   C41       1.0  0.98027  0.45446  0.75689  1.0000
  C   C42       1.0  0.47481  0.02293  0.78017  1.0000
  C   C43       1.0  0.02077  0.54159  0.75586  1.0000
  C   C44       1.0  0.52481  0.98122  0.74281  1.0000
  C   C45       1.0  0.02443  0.47714  0.74875  1.0000
  C   C46       1.0  0.45443  0.97963  0.78399  1.0000
  C   C47       1.0  0.97667  0.51896  0.76426  1.0000
  C   C48       1.0  0.54522  0.02449  0.73835  1.0000
  H   H13       1.0  0.96355  0.42039  0.75800  1.0000
  H   H14       1.0  0.45619  0.03995  0.79293  1.0000
  H   H15       1.0  0.03755  0.57560  0.75389  1.0000
  H   H16       1.0  0.54345  0.96427  0.73048  1.0000
  H   H17       1.0  0.04255  0.46045  0.74269  1.0000
  H   H18       1.0  0.41899  0.96262  0.80447  1.0000
  H   H19       1.0  0.95860  0.53565  0.76997  1.0000
  H   H20       1.0  0.58066  0.04144  0.71801  1.0000
  C   C49       1.0  0.39348  0.57030  0.74748  1.0000
  C   C50       1.0  0.36805  0.58830  0.74983  1.0000
  C   C51       1.0  0.82256  0.39216  0.76102  1.0000
  C   C52       1.0  0.77887  0.36801  0.76532  1.0000
  C   C53       1.0  0.61095  0.43343  0.74379  1.0000
  C   C54       1.0  0.63612  0.41515  0.74144  1.0000
  C   C55       1.0  0.57051  0.17816  0.74053  1.0000
  C   C56       1.0  0.58879  0.22121  0.73620  1.0000
  H   H21       1.0  0.38076  0.53609  0.74036  1.0000
  H   H22       1.0  0.33453  0.56867  0.74457  1.0000
  H   H23       1.0  0.84119  0.37898  0.77496  1.0000
  H   H24       1.0  0.76222  0.33498  0.78059  1.0000
  H   H25       1.0  0.62454  0.46724  0.74262  1.0000
  H   H26       1.0  0.67032  0.43410  0.73872  1.0000
  H   H27       1.0  0.53781  0.15685  0.72781  1.0000
  H   H28       1.0  0.57084  0.23484  0.72068  1.0000
  C   C57       1.0  0.45434  0.64040  0.75806  1.0000
  C   C58       1.0  0.42865  0.65858  0.76296  1.0000
  C   C59       1.0  0.63675  0.18821  0.77624  1.0000
  C   C60       1.0  0.65541  0.23114  0.76845  1.0000
  C   C61       1.0  0.81966  0.45259  0.72555  1.0000
  C   C62       1.0  0.77556  0.42866  0.73347  1.0000
  C   C63       1.0  0.54819  0.36463  0.75279  1.0000
  C   C64       1.0  0.57358  0.34613  0.74792  1.0000
  H   H29       1.0  0.48794  0.66055  0.76270  1.0000
  H   H30       1.0  0.44143  0.69279  0.77011  1.0000
  H   H31       1.0  0.65487  0.17538  0.79582  1.0000
  H   H32       1.0  0.68823  0.25230  0.77973  1.0000
  H   H33       1.0  0.83610  0.48540  0.70713  1.0000
  H   H34       1.0  0.75687  0.44201  0.72115  1.0000
  H   H35       1.0  0.51392  0.34511  0.75612  1.0000
  H   H36       1.0  0.55992  0.31233  0.74910  1.0000
  C   C65       1.0  0.35150  0.70871  0.74815  1.0000
  C   C66       1.0  0.29397  0.64301  0.74433  1.0000
  C   C67       1.0  0.35844  0.65129  0.75419  1.0000
  C   C68       1.0  0.43719  0.59608  0.75112  1.0000
  C   C69       1.0  0.38529  0.63264  0.75690  1.0000
  N   N19       1.0  0.37699  0.69363  0.75589  1.0000
  N   N20       1.0  0.30971  0.68480  0.74306  1.0000
  N   N21       1.0  0.31711  0.62473  0.74863  1.0000
  C   C70       1.0  0.65070  0.29411  0.74792  1.0000
  C   C71       1.0  0.70893  0.35930  0.74970  1.0000
  C   C72       1.0  0.64451  0.35215  0.74397  1.0000
  C   C73       1.0  0.59405  0.16114  0.76279  1.0000
  C   C74       1.0  0.84378  0.43476  0.73880  1.0000
  C   C75       1.0  0.56644  0.40842  0.74979  1.0000
  C   C76       1.0  0.63142  0.24826  0.75075  1.0000
  C   C77       1.0  0.75485  0.38586  0.75133  1.0000
  C   C78       1.0  0.61781  0.37128  0.74365  1.0000
  N   N22       1.0  0.62534  0.30986  0.74362  1.0000
  N   N23       1.0  0.69261  0.31748  0.75120  1.0000
  N   N24       1.0  0.68627  0.37817  0.74578  1.0000
  H   H37       1.0  0.90084  0.49117  0.19638  1.0000
  H   H38       1.0  0.59792  0.09903  0.21638  1.0000
  H   H39       1.0  0.50660  0.40100  0.22566  1.0000
  H   H40       1.0  0.49611  0.60378  0.28035  1.0000
  H   H41       1.0  0.09649  0.50492  0.31761  1.0000
  H   H42       1.0  0.39933  0.89303  0.21226  1.0000
  H   H43       1.0  0.50334  0.40558  0.78119  1.0000
  H   H44       1.0  0.90474  0.49126  0.68862  1.0000
  H   H45       1.0  0.59346  0.10871  0.82123  1.0000
  H   H46       1.0  0.40966  0.89490  0.67245  1.0000
  H   H47       1.0  0.09832  0.50699  0.82538  1.0000
  H   H48       1.0  0.50021  0.59989  0.72571  1.0000
  C   C79       1.0  0.42975  0.81314  0.25246  1.0000
  C   C80       1.0  0.41084  0.83515  0.23363  1.0000
  C  Sn1       1.0  0.36766  0.81427  0.22684  1.0000
  C  Sn2       1.0  0.34301  0.77055  0.23921  1.0000
  C   C81       1.0  0.36221  0.74883  0.25817  1.0000
  C   C82       1.0  0.40546  0.77002  0.26475  1.0000
  H   H49       1.0  0.46320  0.82954  0.25766  1.0000
  O  Te1       1.0  0.34928  0.83674  0.20791  1.0000
  O  Te2       1.0  0.29978  0.74892  0.23287  1.0000
  H   H50       1.0  0.42007  0.75298  0.27946  1.0000
  Mg  Mg1       1.0  0.28921  0.79330  0.20585  1.0000
  C   C83       1.0  0.78844  0.36566  0.25203  1.0000
  C   C84       1.0  0.75740  0.37807  0.26002  1.0000
  C  Sn3       1.0  0.77007  0.41975  0.24818  1.0000
  C  Sn4       1.0  0.81466  0.44947  0.22792  1.0000
  C   C85       1.0  0.84546  0.43673  0.21992  1.0000
  C   C86       1.0  0.83243  0.39495  0.23197  1.0000
  H   H51       1.0  0.77837  0.33333  0.26124  1.0000
  O  Te3       1.0  0.73864  0.43163  0.25648  1.0000
  O  Te4       1.0  0.82821  0.49132  0.21568  1.0000
  H   H52       1.0  0.85647  0.38534  0.22565  1.0000
  Mg  Mg2       1.0  0.77317  0.49229  0.23387  1.0000
  C   C87       1.0  0.18556  0.61600  0.24686  1.0000
  C   C88       1.0  0.16134  0.57244  0.25092  1.0000
  C  Sn5       1.0  0.18004  0.54917  0.26252  1.0000
  C  Sn6       1.0  0.22380  0.56999  0.27025  1.0000
  C   C89       1.0  0.24775  0.61359  0.26625  1.0000
  C   C90       1.0  0.22872  0.63657  0.25456  1.0000
  H   H53       1.0  0.17083  0.63379  0.23792  1.0000
  O  Te5       1.0  0.15538  0.50567  0.26635  1.0000
  O  Te6       1.0  0.24329  0.54751  0.28197  1.0000
  H   H54       1.0  0.24747  0.67030  0.25155  1.0000
  Mg  Mg3       1.0  0.19638  0.48875  0.28303  1.0000
  C   C91       1.0  0.43657  0.65999  0.27944  1.0000
  C   C92       1.0  0.39589  0.63808  0.24780  1.0000
  C  Sn7       1.0  0.37406  0.59339  0.22903  1.0000
  C  Sn8       1.0  0.39340  0.57031  0.24230  1.0000
  C   C93       1.0  0.43410  0.59253  0.27411  1.0000
  C   C94       1.0  0.45566  0.63725  0.29262  1.0000
  H   H55       1.0  0.45325  0.69459  0.29387  1.0000
  O  Te7       1.0  0.33344  0.57200  0.19740  1.0000
  O  Te8       1.0  0.37229  0.52564  0.22415  1.0000
  H   H56       1.0  0.48715  0.65421  0.31724  1.0000
  Mg  Mg4       1.0  0.31748  0.51094  0.18217  1.0000
  C   C95       1.0  0.52970  0.54833  0.78124  1.0000
  C   C96       1.0  0.48890  0.52987  0.75339  1.0000
  C  Sn9       1.0  0.46528  0.48511  0.72362  1.0000
  C  Sn10      1.0  0.48291  0.45843  0.72181  1.0000
  C   C97       1.0  0.52374  0.47722  0.74995  1.0000
  C   C98       1.0  0.54710  0.52204  0.77955  1.0000
  H   H57       1.0  0.54776  0.58301  0.80425  1.0000
  O  Te9       1.0  0.42457  0.46720  0.69597  1.0000
  O  Te10      1.0  0.45999  0.41361  0.69244  1.0000
  H   H58       1.0  0.57868  0.53633  0.80123  1.0000
  Mg  Mg5       1.0  0.40581  0.40443  0.66145  1.0000
  C   C99       1.0  0.65501  0.21749  0.24998  1.0000
  C   C100      1.0  0.63586  0.24143  0.24616  1.0000
  C  Sn11      1.0  0.59174  0.22236  0.25169  1.0000
  C  Sn12      1.0  0.56640  0.17850  0.26127  1.0000
  C   C101      1.0  0.58585  0.15484  0.26517  1.0000
  C   C102      1.0  0.63003  0.17423  0.25951  1.0000
  H   H59       1.0  0.68918  0.23250  0.24572  1.0000
  O  Te11      1.0  0.57313  0.24674  0.24768  1.0000
  O  Te12      1.0  0.52222  0.15865  0.26702  1.0000
  H   H60       1.0  0.64484  0.15570  0.26260  1.0000
  Mg  Mg6       1.0  0.51168  0.20529  0.25831  1.0000
  C   C103      1.0  0.98629  0.52777  0.24118  1.0000
  C   C104      1.0  0.95905  0.48456  0.24545  1.0000
  C  Sn13      1.0  0.97387  0.45868  0.26302  1.0000
  C  Sn14      1.0  0.01676  0.47647  0.27659  1.0000
  C   C105      1.0  0.04374  0.51974  0.27232  1.0000
  C   C106      1.0  0.02859  0.54535  0.25464  1.0000
  H   H61       1.0  0.97456  0.54759  0.22760  1.0000
  O  Te13      1.0  0.94623  0.41557  0.26699  1.0000
  O  Te14      1.0  0.03239  0.45133  0.29434  1.0000
  H   H62       1.0  0.04968  0.57881  0.25146  1.0000
  Mg  Mg7       1.0  0.98243  0.39431  0.29306  1.0000
  C   C107      1.0  0.43237  0.81597  0.76093  1.0000
  C   C108      1.0  0.41510  0.83786  0.73147  1.0000
  C  Sn15      1.0  0.37277  0.81703  0.71578  1.0000
  C  Sn16      1.0  0.34731  0.77347  0.72994  1.0000
  C   C109      1.0  0.36487  0.75186  0.75956  1.0000
  C   C110      1.0  0.40728  0.77301  0.77500  1.0000
  H   H63       1.0  0.46517  0.83234  0.77298  1.0000
  O  Te15      1.0  0.35603  0.83937  0.68629  1.0000
  O  Te16      1.0  0.30490  0.75188  0.71485  1.0000
  H   H64       1.0  0.42062  0.75606  0.79793  1.0000
  Mg  Mg8       1.0  0.29655  0.79605  0.67495  1.0000
  C   C111      1.0  0.21144  0.63104  0.73619  1.0000
  C   C112      1.0  0.24133  0.62170  0.75491  1.0000
  C  Sn17      1.0  0.22948  0.58068  0.77145  1.0000
  C  Sn18      1.0  0.18690  0.54848  0.76912  1.0000
  C   C113      1.0  0.15725  0.55813  0.75020  1.0000
  C   C114      1.0  0.16944  0.59929  0.73380  1.0000
  H   H65       1.0  0.22088  0.66287  0.72340  1.0000
  O  Te17      1.0  0.25974  0.57190  0.79012  1.0000
  O  Te18      1.0  0.17421  0.50721  0.78534  1.0000
  H   H66       1.0  0.14630  0.60650  0.71919  1.0000
  Mg  Mg9       1.0  0.22704  0.51086  0.80778  1.0000
