data_image0
_chemical_formula_structural       C6N6C12H8C6H6C6H6C7N3C5N3C6N6C6H4C6H6C6H6C7N3C5N3H12SnCSn2CSnTe4Mg2SnCSn2CSnTe4Mg2SnCSn2CSnTe4Mg2SnCSn2CSnTe4Mg2SnCSn2CSnTe4Mg2SnCSn2CSnTe4Mg2SnCSn2CSnTe4Mg2SnCSn2CSnTe4Mg2SnCSn2CSnTe4Mg2
_chemical_formula_sum              "C96 N24 H48 Sn36 Te36 Mg18"
_cell_length_a       36.9072
_cell_length_b       36.8672
_cell_length_c       8.12868
_cell_angle_alpha    116.105
_cell_angle_beta     60.3364
_cell_angle_gamma    120.186

_symmetry_space_group_name_H-M    'P1'
_space_group_IT_number       1

loop_
  _space_group_symop_operation_xyz
  'x, y, z'

loop_
  _atom_site_type_symbol
  _atom_site_label
  _atom_site_symmetry_multiplicity
  _atom_site_fract_x
  _atom_site_fract_y
  _atom_site_fract_z
  _atom_site_occupancy
  C   C1        1.0  0.88729  0.45990  0.22911  1.0000
  C   C2        1.0  0.53941  0.42448  0.23670  1.0000
  C   C3        1.0  0.57367  0.11153  0.24079  1.0000
  C   C4        1.0  0.11008  0.53565  0.28014  1.0000
  C   C5        1.0  0.46400  0.57942  0.26383  1.0000
  C   C6        1.0  0.41998  0.88438  0.23985  1.0000
  N   N1        1.0  0.90999  0.44755  0.26094  1.0000
  N   N2        1.0  0.55354  0.46509  0.24513  1.0000
  N   N3        1.0  0.53213  0.08737  0.26137  1.0000
  N   N4        1.0  0.08716  0.54747  0.24694  1.0000
  N   N5        1.0  0.45115  0.53881  0.25093  1.0000
  N   N6        1.0  0.45730  0.91185  0.26772  1.0000
  C   C7        1.0  0.95377  0.47411  0.25802  1.0000
  C   C8        1.0  0.52663  0.48161  0.24614  1.0000
  C   C9        1.0  0.04315  0.52105  0.25298  1.0000
  C   C10       1.0  0.47827  0.52274  0.25108  1.0000
  C   C11       1.0  0.97649  0.45536  0.27570  1.0000
  C   C12       1.0  0.54627  0.52572  0.24457  1.0000
  C   C13       1.0  0.02034  0.53986  0.23632  1.0000
  C   C14       1.0  0.45865  0.47866  0.25292  1.0000
  C   C15       1.0  0.02025  0.47805  0.27243  1.0000
  C   C16       1.0  0.52287  0.54595  0.24684  1.0000
  C   C17       1.0  0.97657  0.51720  0.23990  1.0000
  C   C18       1.0  0.48203  0.45847  0.25075  1.0000
  H   H1        1.0  0.95835  0.42242  0.29314  1.0000
  H   H2        1.0  0.58063  0.54323  0.24127  1.0000
  H   H3        1.0  0.03844  0.57284  0.21940  1.0000
  H   H4        1.0  0.42430  0.46117  0.25633  1.0000
  H   H5        1.0  0.03646  0.46240  0.28703  1.0000
  H   H6        1.0  0.53947  0.57982  0.24258  1.0000
  H   H7        1.0  0.96035  0.53291  0.22575  1.0000
  H   H8        1.0  0.46540  0.42462  0.25497  1.0000
  C   C19       1.0  0.17636  0.60506  0.24612  1.0000
  C   C20       1.0  0.22034  0.62986  0.23670  1.0000
  C   C21       1.0  0.39398  0.56906  0.24144  1.0000
  C   C22       1.0  0.36818  0.58624  0.24103  1.0000
  C   C23       1.0  0.82141  0.38991  0.25081  1.0000
  C   C24       1.0  0.77766  0.36526  0.25646  1.0000
  H   H9        1.0  0.15663  0.61769  0.23652  1.0000
  H   H10       1.0  0.23613  0.66278  0.22102  1.0000
  H   H11       1.0  0.38233  0.53471  0.22906  1.0000
  H   H12       1.0  0.33535  0.56584  0.22877  1.0000
  H   H13       1.0  0.84104  0.37674  0.25789  1.0000
  H   H14       1.0  0.76193  0.33184  0.26601  1.0000
  C   C25       1.0  0.18168  0.54561  0.27788  1.0000
  C   C26       1.0  0.22600  0.57021  0.26545  1.0000
  C   C27       1.0  0.45222  0.64063  0.27243  1.0000
  C   C28       1.0  0.42650  0.65783  0.27093  1.0000
  C   C29       1.0  0.81612  0.45082  0.23133  1.0000
  C   C30       1.0  0.77201  0.42639  0.24042  1.0000
  H   H15       1.0  0.16607  0.51297  0.29729  1.0000
  H   H16       1.0  0.24567  0.55751  0.27495  1.0000
  H   H17       1.0  0.48473  0.66167  0.28817  1.0000
  H   H18       1.0  0.43827  0.69218  0.28335  1.0000
  H   H19       1.0  0.83164  0.48403  0.21855  1.0000
  H   H20       1.0  0.75238  0.43970  0.23454  1.0000
  C   C31       1.0  0.34927  0.70589  0.24600  1.0000
  C   C32       1.0  0.29178  0.64016  0.24558  1.0000
  C   C33       1.0  0.35672  0.64887  0.25260  1.0000
  C   C34       1.0  0.15622  0.56256  0.26863  1.0000
  C   C35       1.0  0.43641  0.59611  0.25850  1.0000
  C   C36       1.0  0.24570  0.61285  0.24675  1.0000
  C   C37       1.0  0.38410  0.63080  0.25513  1.0000
  N   N7        1.0  0.37511  0.69110  0.25274  1.0000
  N   N8        1.0  0.30739  0.68178  0.24265  1.0000
  N   N9        1.0  0.31518  0.62211  0.24973  1.0000
  C   C38       1.0  0.64756  0.29171  0.25394  1.0000
  C   C39       1.0  0.70644  0.35643  0.25070  1.0000
  C   C40       1.0  0.64191  0.34986  0.24803  1.0000
  C   C41       1.0  0.84144  0.43305  0.23625  1.0000
  C   C42       1.0  0.75244  0.38312  0.25110  1.0000
  N   N10       1.0  0.62224  0.30776  0.25130  1.0000
  N   N11       1.0  0.68991  0.31459  0.25261  1.0000
  N   N12       1.0  0.68387  0.37549  0.24748  1.0000
  C   C43       1.0  0.88984  0.46077  0.73018  1.0000
  C   C44       1.0  0.53879  0.42670  0.75542  1.0000
  C   C45       1.0  0.57486  0.11675  0.77855  1.0000
  C   C46       1.0  0.11220  0.53702  0.78162  1.0000
  C   C47       1.0  0.46509  0.57813  0.74606  1.0000
  C   C48       1.0  0.42652  0.88669  0.72381  1.0000
  N   N13       1.0  0.91162  0.44844  0.76773  1.0000
  N   N14       1.0  0.55471  0.46541  0.73536  1.0000
  N   N15       1.0  0.53775  0.08924  0.74911  1.0000
  N   N16       1.0  0.08944  0.54807  0.74385  1.0000
  N   N17       1.0  0.44967  0.53910  0.76134  1.0000
  N   N18       1.0  0.46195  0.91450  0.76734  1.0000
  C   C49       1.0  0.52042  0.04634  0.75834  1.0000
  C   C50       1.0  0.47930  0.95771  0.76243  1.0000
  C   C51       1.0  0.47481  0.02293  0.78017  1.0000
  C   C52       1.0  0.52481  0.98122  0.74281  1.0000
  C   C53       1.0  0.45443  0.97963  0.78399  1.0000
  C   C54       1.0  0.54522  0.02449  0.73835  1.0000
  H   H21       1.0  0.45619  0.03995  0.79293  1.0000
  H   H22       1.0  0.54345  0.96427  0.73048  1.0000
  H   H23       1.0  0.41899  0.96262  0.80447  1.0000
  H   H24       1.0  0.58066  0.04144  0.71801  1.0000
  C   C55       1.0  0.17767  0.60711  0.75120  1.0000
  C   C56       1.0  0.22167  0.63242  0.74100  1.0000
  C   C57       1.0  0.43149  0.82469  0.75277  1.0000
  C   C58       1.0  0.41353  0.78158  0.75568  1.0000
  C   C59       1.0  0.61095  0.43343  0.74379  1.0000
  C   C60       1.0  0.63612  0.41515  0.74144  1.0000
  H   H25       1.0  0.15710  0.61962  0.74688  1.0000
  H   H26       1.0  0.23661  0.66567  0.73014  1.0000
  H   H27       1.0  0.46439  0.84603  0.76320  1.0000
  H   H28       1.0  0.43188  0.76797  0.76868  1.0000
  H   H29       1.0  0.62454  0.46724  0.74262  1.0000
  H   H30       1.0  0.67032  0.43410  0.73872  1.0000
  C   C61       1.0  0.36470  0.81474  0.72239  1.0000
  C   C62       1.0  0.34630  0.77172  0.72917  1.0000
  C   C63       1.0  0.18495  0.54736  0.77040  1.0000
  C   C64       1.0  0.22934  0.57240  0.75587  1.0000
  C   C65       1.0  0.54819  0.36463  0.75279  1.0000
  C   C66       1.0  0.57358  0.34613  0.74792  1.0000
  H   H31       1.0  0.34622  0.82748  0.70464  1.0000
  H   H32       1.0  0.31336  0.75051  0.71929  1.0000
  H   H33       1.0  0.17026  0.51436  0.78464  1.0000
  H   H34       1.0  0.24996  0.55968  0.75820  1.0000
  H   H35       1.0  0.51392  0.34511  0.75612  1.0000
  H   H36       1.0  0.55992  0.31233  0.74910  1.0000
  C   C67       1.0  0.35150  0.70871  0.74815  1.0000
  C   C68       1.0  0.29397  0.64301  0.74433  1.0000
  C   C69       1.0  0.35844  0.65129  0.75419  1.0000
  C   C70       1.0  0.40743  0.84191  0.73519  1.0000
  C   C71       1.0  0.15846  0.56426  0.76847  1.0000
  C   C72       1.0  0.37063  0.75453  0.74422  1.0000
  C   C73       1.0  0.24801  0.61549  0.74412  1.0000
  N   N19       1.0  0.37699  0.69363  0.75589  1.0000
  N   N20       1.0  0.30971  0.68480  0.74306  1.0000
  N   N21       1.0  0.31711  0.62473  0.74863  1.0000
  C   C74       1.0  0.65070  0.29411  0.74792  1.0000
  C   C75       1.0  0.70893  0.35930  0.74970  1.0000
  C   C76       1.0  0.64451  0.35215  0.74397  1.0000
  C   C77       1.0  0.56644  0.40842  0.74979  1.0000
  C   C78       1.0  0.61781  0.37128  0.74365  1.0000
  N   N22       1.0  0.62534  0.30986  0.74362  1.0000
  N   N23       1.0  0.69261  0.31748  0.75120  1.0000
  N   N24       1.0  0.68627  0.37817  0.74578  1.0000
  H   H37       1.0  0.90084  0.49117  0.19638  1.0000
  H   H38       1.0  0.59792  0.09903  0.21638  1.0000
  H   H39       1.0  0.50660  0.40100  0.22566  1.0000
  H   H40       1.0  0.49611  0.60378  0.28035  1.0000
  H   H41       1.0  0.09649  0.50492  0.31761  1.0000
  H   H42       1.0  0.39933  0.89303  0.21226  1.0000
  H   H43       1.0  0.50334  0.40558  0.78119  1.0000
  H   H44       1.0  0.90474  0.49126  0.68862  1.0000
  H   H45       1.0  0.59346  0.10871  0.82123  1.0000
  H   H46       1.0  0.40966  0.89490  0.67245  1.0000
  H   H47       1.0  0.09832  0.50699  0.82538  1.0000
  H   H48       1.0  0.50021  0.59989  0.72571  1.0000
  C  Sn1       1.0  0.65991  0.21874  0.71297  1.0000
  C   C79       1.0  0.64092  0.24084  0.69524  1.0000
  C  Sn2       1.0  0.59510  0.22375  0.72933  1.0000
  C  Sn3       1.0  0.56769  0.18374  0.78235  1.0000
  C   C80       1.0  0.58668  0.16167  0.80008  1.0000
  C  Sn4       1.0  0.63250  0.17874  0.76599  1.0000
  O  Te1       1.0  0.70579  0.23644  0.67822  1.0000
  O  Te2       1.0  0.57689  0.24642  0.71064  1.0000
  O  Te3       1.0  0.52178  0.16606  0.81709  1.0000
  O  Te4       1.0  0.65071  0.15609  0.78469  1.0000
  Mg  Mg1       1.0  0.51260  0.20909  0.77317  1.0000
  Mg  Mg2       1.0  0.71498  0.19340  0.72229  1.0000
  C  Sn5       1.0  0.96233  0.01151  0.29323  1.0000
  C   C81       1.0  0.50107  0.04129  0.31533  1.0000
  C  Sn6       1.0  0.53192  0.02694  0.29547  1.0000
  C  Sn7       1.0  0.02385  0.98187  0.25250  1.0000
  C   C82       1.0  0.98287  0.95212  0.23039  1.0000
  C  Sn8       1.0  0.95199  0.96644  0.25026  1.0000
  O  Te5       1.0  0.42973  0.02659  0.31371  1.0000
  O  Te6       1.0  0.57270  0.05733  0.31828  1.0000
  O  Te7       1.0  0.05423  0.96681  0.23204  1.0000
  O  Te8       1.0  0.91124  0.93608  0.22744  1.0000
  Mg  Mg3       1.0  0.60307  0.02083  0.27640  1.0000
  Mg  Mg4       1.0  0.88085  0.97254  0.26919  1.0000
  C  Sn9       1.0  0.78358  0.37534  0.82517  1.0000
  C   C83       1.0  0.75580  0.38716  0.80450  1.0000
  C  Sn10      1.0  0.77371  0.42307  0.73248  1.0000
  C  Sn11      1.0  0.82036  0.44766  0.67990  1.0000
  C   C84       1.0  0.84811  0.43583  0.70054  1.0000
  C  Sn12      1.0  0.83022  0.39993  0.77259  1.0000
  O  Te9       1.0  0.76495  0.33932  0.89746  1.0000
  O  Te10      1.0  0.74528  0.43427  0.71318  1.0000
  O  Te11      1.0  0.83898  0.48371  0.60757  1.0000
  O  Te12      1.0  0.85863  0.38873  0.79186  1.0000
  Mg  Mg5       1.0  0.78653  0.48603  0.60780  1.0000
  Mg  Mg6       1.0  0.81743  0.33695  0.89712  1.0000
  C  Sn13      1.0  0.39071  0.56842  0.68810  1.0000
  C   C85       1.0  0.43358  0.58963  0.69853  1.0000
  C  Sn14      1.0  0.45160  0.63487  0.75809  1.0000
  C  Sn15      1.0  0.42623  0.65943  0.80840  1.0000
  C   C86       1.0  0.38337  0.63822  0.79799  1.0000
  C  Sn16      1.0  0.36533  0.59297  0.73841  1.0000
  O  Te13      1.0  0.37336  0.52316  0.62818  1.0000
  O  Te14      1.0  0.49455  0.65535  0.76731  1.0000
  O  Te15      1.0  0.44361  0.70472  0.86835  1.0000
  O  Te16      1.0  0.32241  0.57250  0.72921  1.0000
  Mg  Mg7       1.0  0.50360  0.71770  0.85754  1.0000
  Mg  Mg8       1.0  0.31331  0.51015  0.63911  1.0000
  C  Sn17      1.0  0.34794  0.77411  0.17821  1.0000
  C   C87       1.0  0.36819  0.75243  0.19055  1.0000
  C  Sn18      1.0  0.40568  0.77578  0.24721  1.0000
  C  Sn19      1.0  0.42328  0.82176  0.29261  1.0000
  C   C88       1.0  0.40303  0.84342  0.28029  1.0000
  C  Sn20      1.0  0.36554  0.82009  0.22361  1.0000
  O  Te17      1.0  0.31050  0.75010  0.12126  1.0000
  O  Te18      1.0  0.42536  0.75338  0.25842  1.0000
  O  Te19      1.0  0.46076  0.84576  0.34959  1.0000
  O  Te20      1.0  0.34587  0.84247  0.21242  1.0000
  Mg  Mg9       1.0  0.47577  0.80051  0.34315  1.0000
  Mg  Mg10      1.0  0.29544  0.79538  0.12781  1.0000
  C  Sn21      1.0  0.99016  0.52288  0.70334  1.0000
  C   C89       1.0  0.96356  0.47977  0.71134  1.0000
  C  Sn22      1.0  0.97661  0.45665  0.75617  1.0000
  C  Sn23      1.0  0.01708  0.47705  0.79393  1.0000
  C   C90       1.0  0.04365  0.52014  0.78595  1.0000
  C  Sn24      1.0  0.03063  0.54329  0.74109  1.0000
  O  Te21      1.0  0.97646  0.54537  0.65824  1.0000
  O  Te22      1.0  0.94947  0.41358  0.76325  1.0000
  O  Te23      1.0  0.03077  0.45452  0.83905  1.0000
  O  Te24      1.0  0.05774  0.58634  0.73404  1.0000
  Mg  Mg11      1.0  0.98242  0.39650  0.83113  1.0000
  Mg  Mg12      1.0  0.02481  0.60345  0.66627  1.0000
  C  Sn25      1.0  0.56993  0.34183  0.17872  1.0000
  C   C91       1.0  0.61251  0.36260  0.19204  1.0000
  C  Sn26      1.0  0.63113  0.40783  0.24931  1.0000
  C  Sn27      1.0  0.60667  0.43284  0.29434  1.0000
  C   C92       1.0  0.56412  0.41207  0.28104  1.0000
  C  Sn28      1.0  0.54547  0.36683  0.22374  1.0000
  O  Te25      1.0  0.55197  0.29657  0.12117  1.0000
  O  Te26      1.0  0.67376  0.42786  0.26150  1.0000
  O  Te27      1.0  0.62467  0.47813  0.35192  1.0000
  O  Te28      1.0  0.50287  0.34681  0.21158  1.0000
  Mg  Mg13      1.0  0.68391  0.49041  0.34675  1.0000
  Mg  Mg14      1.0  0.49268  0.28427  0.12644  1.0000
  C  Sn29      1.0  0.48273  0.45734  0.66456  1.0000
  C   C93       1.0  0.52459  0.47638  0.68354  1.0000
  C  Sn30      1.0  0.54243  0.52105  0.76155  1.0000
  C  Sn31      1.0  0.51793  0.54722  0.82196  1.0000
  C   C94       1.0  0.47609  0.52818  0.80300  1.0000
  C  Sn32      1.0  0.45822  0.48351  0.72497  1.0000
  O  Te29      1.0  0.46553  0.41262  0.58619  1.0000
  O  Te30      1.0  0.58435  0.53935  0.77902  1.0000
  O  Te31      1.0  0.53516  0.59197  0.90037  1.0000
  O  Te32      1.0  0.41633  0.46521  0.70752  1.0000
  Mg  Mg15      1.0  0.59360  0.60177  0.89470  1.0000
  Mg  Mg16      1.0  0.40704  0.40279  0.59196  1.0000
  C  Sn33      1.0  0.57058  0.18256  0.20303  1.0000
  C   C95       1.0  0.59104  0.15892  0.19987  1.0000
  C  Sn34      1.0  0.63005  0.18033  0.24460  1.0000
  C  Sn35      1.0  0.64900  0.22632  0.29363  1.0000
  C   C96       1.0  0.62854  0.24993  0.29680  1.0000
  C  Sn36      1.0  0.58952  0.22855  0.25206  1.0000
  O  Te33      1.0  0.53159  0.16048  0.15782  1.0000
  O  Te34      1.0  0.64991  0.15600  0.24041  1.0000
  O  Te35      1.0  0.68802  0.24839  0.33885  1.0000
  O  Te36      1.0  0.56966  0.25285  0.25627  1.0000
  Mg  Mg17      1.0  0.70267  0.20093  0.31323  1.0000
  Mg  Mg18      1.0  0.51690  0.20797  0.18358  1.0000
