data_image0
_chemical_formula_structural       C6N6C3N3C3N3C6N6C3N3C3N3H12SnCSn2CSnTe4Mg2SnCSn2CSnTe4Mg2SnCSn2CSnTe4Mg2SnCSn2CSnTe4Mg2SnCSn2CSnTe4Mg2SnCSn2CSnTe4Mg2SnCSn2CSnTe4Mg2SnCSn2CSnTe4Mg2SnCSn2CSnTe4Mg2SnCSn2CSnTe4Mg2SnCSn2CSnTe4Mg2SnCSn2CSnTe4Mg2SnCSn2CSnTe4Mg2SnCSn2CSnTe4Mg2SnCSn2CSnTe4Mg2SnCSn2CSnTe4Mg2SnCSn2CSnTe4Mg2SnCSn2CSnTe4Mg2
_chemical_formula_sum              "C60 N24 H12 Sn72 Te72 Mg36"
_cell_length_a       36.9072
_cell_length_b       36.8672
_cell_length_c       8.12868
_cell_angle_alpha    116.105
_cell_angle_beta     60.3364
_cell_angle_gamma    120.186

_symmetry_space_group_name_H-M    'P1'
_space_group_IT_number       1

loop_
  _space_group_symop_operation_xyz
  'x, y, z'

loop_
  _atom_site_type_symbol
  _atom_site_label
  _atom_site_symmetry_multiplicity
  _atom_site_fract_x
  _atom_site_fract_y
  _atom_site_fract_z
  _atom_site_occupancy
  C   C1        1.0  0.88729  0.45990  0.22911  1.0000
  C   C2        1.0  0.53941  0.42448  0.23670  1.0000
  C   C3        1.0  0.57367  0.11153  0.24079  1.0000
  C   C4        1.0  0.11008  0.53565  0.28014  1.0000
  C   C5        1.0  0.46400  0.57942  0.26383  1.0000
  C   C6        1.0  0.41998  0.88438  0.23985  1.0000
  N   N1        1.0  0.90999  0.44755  0.26094  1.0000
  N   N2        1.0  0.55354  0.46509  0.24513  1.0000
  N   N3        1.0  0.53213  0.08737  0.26137  1.0000
  N   N4        1.0  0.08716  0.54747  0.24694  1.0000
  N   N5        1.0  0.45115  0.53881  0.25093  1.0000
  N   N6        1.0  0.45730  0.91185  0.26772  1.0000
  C   C7        1.0  0.34927  0.70589  0.24600  1.0000
  C   C8        1.0  0.29178  0.64016  0.24558  1.0000
  C   C9        1.0  0.35672  0.64887  0.25260  1.0000
  N   N7        1.0  0.37511  0.69110  0.25274  1.0000
  N   N8        1.0  0.30739  0.68178  0.24265  1.0000
  N   N9        1.0  0.31518  0.62211  0.24973  1.0000
  C   C10       1.0  0.64756  0.29171  0.25394  1.0000
  C   C11       1.0  0.70644  0.35643  0.25070  1.0000
  C   C12       1.0  0.64191  0.34986  0.24803  1.0000
  N   N10       1.0  0.62224  0.30776  0.25130  1.0000
  N   N11       1.0  0.68991  0.31459  0.25261  1.0000
  N   N12       1.0  0.68387  0.37549  0.24748  1.0000
  C   C13       1.0  0.88984  0.46077  0.73018  1.0000
  C   C14       1.0  0.53879  0.42670  0.75542  1.0000
  C   C15       1.0  0.57486  0.11675  0.77855  1.0000
  C   C16       1.0  0.11220  0.53702  0.78162  1.0000
  C   C17       1.0  0.46509  0.57813  0.74606  1.0000
  C   C18       1.0  0.42652  0.88669  0.72381  1.0000
  N   N13       1.0  0.91162  0.44844  0.76773  1.0000
  N   N14       1.0  0.55471  0.46541  0.73536  1.0000
  N   N15       1.0  0.53775  0.08924  0.74911  1.0000
  N   N16       1.0  0.08944  0.54807  0.74385  1.0000
  N   N17       1.0  0.44967  0.53910  0.76134  1.0000
  N   N18       1.0  0.46195  0.91450  0.76734  1.0000
  C   C19       1.0  0.35150  0.70871  0.74815  1.0000
  C   C20       1.0  0.29397  0.64301  0.74433  1.0000
  C   C21       1.0  0.35844  0.65129  0.75419  1.0000
  N   N19       1.0  0.37699  0.69363  0.75589  1.0000
  N   N20       1.0  0.30971  0.68480  0.74306  1.0000
  N   N21       1.0  0.31711  0.62473  0.74863  1.0000
  C   C22       1.0  0.65070  0.29411  0.74792  1.0000
  C   C23       1.0  0.70893  0.35930  0.74970  1.0000
  C   C24       1.0  0.64451  0.35215  0.74397  1.0000
  N   N22       1.0  0.62534  0.30986  0.74362  1.0000
  N   N23       1.0  0.69261  0.31748  0.75120  1.0000
  N   N24       1.0  0.68627  0.37817  0.74578  1.0000
  H   H1        1.0  0.90084  0.49117  0.19638  1.0000
  H   H2        1.0  0.59792  0.09903  0.21638  1.0000
  H   H3        1.0  0.50660  0.40100  0.22566  1.0000
  H   H4        1.0  0.49611  0.60378  0.28035  1.0000
  H   H5        1.0  0.09649  0.50492  0.31761  1.0000
  H   H6        1.0  0.39933  0.89303  0.21226  1.0000
  H   H7        1.0  0.50334  0.40558  0.78119  1.0000
  H   H8        1.0  0.90474  0.49126  0.68862  1.0000
  H   H9        1.0  0.59346  0.10871  0.82123  1.0000
  H   H10       1.0  0.40966  0.89490  0.67245  1.0000
  H   H11       1.0  0.09832  0.50699  0.82538  1.0000
  H   H12       1.0  0.50021  0.59989  0.72571  1.0000
  C  Sn1       1.0  0.01547  0.46618  0.21570  1.0000
  C   C25       1.0  0.04286  0.50883  0.20157  1.0000
  C  Sn2       1.0  0.02445  0.53753  0.23395  1.0000
  C  Sn3       1.0  0.97768  0.52331  0.28158  1.0000
  C   C26       1.0  0.95031  0.48069  0.29573  1.0000
  C  Sn4       1.0  0.96870  0.45196  0.26333  1.0000
  O  Te1       1.0  0.03459  0.43804  0.18274  1.0000
  O  Te2       1.0  0.05252  0.58001  0.21892  1.0000
  O  Te3       1.0  0.95857  0.55149  0.31454  1.0000
  O  Te4       1.0  0.94066  0.40951  0.27837  1.0000
  Mg  Mg1       1.0  0.01065  0.60620  0.27711  1.0000
  Mg  Mg2       1.0  0.98249  0.38330  0.22032  1.0000
  C  Sn5       1.0  0.45645  0.47524  0.31238  1.0000
  C   C27       1.0  0.47193  0.51787  0.30409  1.0000
  C  Sn6       1.0  0.51775  0.54262  0.24852  1.0000
  C  Sn7       1.0  0.54875  0.52437  0.20010  1.0000
  C   C28       1.0  0.53327  0.48177  0.20838  1.0000
  C  Sn8       1.0  0.48745  0.45699  0.26397  1.0000
  O  Te5       1.0  0.41049  0.45109  0.36831  1.0000
  O  Te6       1.0  0.53242  0.58517  0.24138  1.0000
  O  Te7       1.0  0.59473  0.54856  0.14415  1.0000
  O  Te8       1.0  0.47278  0.41447  0.27109  1.0000
  Mg  Mg3       1.0  0.59832  0.60506  0.15653  1.0000
  Mg  Mg4       1.0  0.40689  0.39454  0.35581  1.0000
  C  Sn9       1.0  0.04287  0.01276  0.23511  1.0000
  C   C29       1.0  0.52469  0.03725  0.21439  1.0000
  C  Sn10      1.0  0.47993  0.02152  0.23349  1.0000
  C  Sn11      1.0  0.95272  0.98049  0.27427  1.0000
  C   C30       1.0  0.96863  0.95603  0.29501  1.0000
  C  Sn12      1.0  0.01339  0.97173  0.27590  1.0000
  O  Te9       1.0  0.58548  0.02912  0.21543  1.0000
  O  Te10      1.0  0.46480  0.04658  0.21208  1.0000
  O  Te11      1.0  0.90781  0.96414  0.29394  1.0000
  O  Te12      1.0  0.02852  0.94670  0.29732  1.0000
  Mg  Mg5       1.0  0.90305  0.01034  0.25212  1.0000
  Mg  Mg6       1.0  0.09252  0.98291  0.25741  1.0000
  C  Sn13      1.0  0.20646  0.63158  0.29615  1.0000
  C   C31       1.0  0.23635  0.61974  0.30117  1.0000
  C  Sn14      1.0  0.22740  0.57616  0.27106  1.0000
  C  Sn15      1.0  0.18777  0.54372  0.23506  1.0000
  C   C32       1.0  0.15792  0.55556  0.23002  1.0000
  C  Sn16      1.0  0.16683  0.59914  0.26015  1.0000
  O  Te13      1.0  0.21608  0.67535  0.32663  1.0000
  O  Te14      1.0  0.25778  0.56512  0.27683  1.0000
  O  Te15      1.0  0.17817  0.49993  0.20457  1.0000
  O  Te16      1.0  0.13649  0.61019  0.25435  1.0000
  Mg  Mg7       1.0  0.22986  0.50111  0.22644  1.0000
  Mg  Mg8       1.0  0.16438  0.67418  0.30462  1.0000
  C  Sn17      1.0  0.44336  0.64951  0.33222  1.0000
  C   C33       1.0  0.43332  0.60630  0.31457  1.0000
  C  Sn18      1.0  0.39898  0.57299  0.24649  1.0000
  C  Sn19      1.0  0.37418  0.58307  0.19485  1.0000
  C   C34       1.0  0.38423  0.62625  0.21247  1.0000
  C  Sn20      1.0  0.41856  0.65959  0.28058  1.0000
  O  Te17      1.0  0.47783  0.68228  0.40060  1.0000
  O  Te18      1.0  0.38955  0.53004  0.23015  1.0000
  O  Te19      1.0  0.33969  0.55025  0.12643  1.0000
  O  Te20      1.0  0.42800  0.70251  0.29689  1.0000
  Mg  Mg9       1.0  0.33948  0.49677  0.12967  1.0000
  Mg  Mg10      1.0  0.47807  0.73581  0.39726  1.0000
  C  Sn21      1.0  0.43274  0.80985  0.18757  1.0000
  C   C35       1.0  0.41131  0.83232  0.18902  1.0000
  C  Sn22      1.0  0.36495  0.81481  0.23542  1.0000
  C  Sn23      1.0  0.33948  0.77401  0.28145  1.0000
  C   C36       1.0  0.36091  0.75157  0.28002  1.0000
  C  Sn24      1.0  0.40727  0.76905  0.23360  1.0000
  O  Te21      1.0  0.47913  0.82798  0.14077  1.0000
  O  Te22      1.0  0.34427  0.83787  0.23584  1.0000
  O  Te23      1.0  0.29306  0.75590  0.32827  1.0000
  O  Te24      1.0  0.42795  0.74602  0.23320  1.0000
  Mg  Mg11      1.0  0.28024  0.79970  0.30921  1.0000
  Mg  Mg12      1.0  0.49197  0.78416  0.15996  1.0000
  C  Sn25      1.0  0.78543  0.42976  0.17847  1.0000
  C   C37       1.0  0.76020  0.38736  0.19933  1.0000
  C  Sn26      1.0  0.77459  0.36816  0.25892  1.0000
  C  Sn27      1.0  0.81502  0.39186  0.29861  1.0000
  C   C38       1.0  0.84022  0.43424  0.27779  1.0000
  C  Sn28      1.0  0.82586  0.45346  0.21817  1.0000
  O  Te25      1.0  0.77041  0.44830  0.11873  1.0000
  O  Te26      1.0  0.74880  0.32572  0.27867  1.0000
  O  Te27      1.0  0.83003  0.37327  0.35839  1.0000
  O  Te28      1.0  0.85162  0.49587  0.19845  1.0000
  Mg  Mg13      1.0  0.78326  0.31458  0.36416  1.0000
  Mg  Mg14      1.0  0.81718  0.50706  0.11307  1.0000
  C  Sn29      1.0  0.54535  0.35864  0.29681  1.0000
  C   C39       1.0  0.55855  0.40129  0.29497  1.0000
  C  Sn30      1.0  0.60365  0.42848  0.25080  1.0000
  C  Sn31      1.0  0.63623  0.41272  0.20745  1.0000
  C   C40       1.0  0.62302  0.37009  0.20927  1.0000
  C  Sn32      1.0  0.57793  0.34287  0.25346  1.0000
  O  Te29      1.0  0.50008  0.33203  0.34136  1.0000
  O  Te30      1.0  0.61603  0.47100  0.24994  1.0000
  O  Te31      1.0  0.68152  0.43937  0.16289  1.0000
  O  Te32      1.0  0.56554  0.30037  0.25430  1.0000
  Mg  Mg15      1.0  0.68182  0.49478  0.18030  1.0000
  Mg  Mg16      1.0  0.49977  0.27656  0.32382  1.0000
  C  Sn33      1.0  0.65718  0.21461  0.18633  1.0000
  C   C41       1.0  0.63572  0.23895  0.20290  1.0000
  C  Sn34      1.0  0.58911  0.22298  0.26109  1.0000
  C  Sn35      1.0  0.56339  0.18183  0.30373  1.0000
  C   C42       1.0  0.58484  0.15751  0.28719  1.0000
  C  Sn36      1.0  0.63146  0.17346  0.22897  1.0000
  O  Te33      1.0  0.70382  0.23121  0.12791  1.0000
  O  Te34      1.0  0.56842  0.24790  0.27654  1.0000
  O  Te35      1.0  0.51672  0.16523  0.36218  1.0000
  O  Te36      1.0  0.65215  0.14856  0.21355  1.0000
  Mg  Mg17      1.0  0.50399  0.21132  0.36177  1.0000
  Mg  Mg18      1.0  0.71657  0.18511  0.12843  1.0000
  C  Sn37      1.0  0.98552  0.46008  0.81410  1.0000
  C   C43       1.0  0.95723  0.47524  0.81699  1.0000
  C  Sn38      1.0  0.97476  0.51393  0.76608  1.0000
  C  Sn39      1.0  0.02154  0.53797  0.71101  1.0000
  C   C44       1.0  0.04979  0.52281  0.70811  1.0000
  C  Sn40      1.0  0.03229  0.48412  0.75903  1.0000
  O  Te37      1.0  0.96726  0.42131  0.86554  1.0000
  O  Te38      1.0  0.94582  0.52844  0.77014  1.0000
  O  Te39      1.0  0.03977  0.57676  0.65956  1.0000
  O  Te40      1.0  0.06121  0.46961  0.75495  1.0000
  Mg  Mg19      1.0  0.98669  0.58312  0.68760  1.0000
  Mg  Mg20      1.0  0.02038  0.41492  0.83736  1.0000
  C  Sn41      1.0  0.48273  0.45734  0.66456  1.0000
  C   C45       1.0  0.52459  0.47638  0.68354  1.0000
  C  Sn42      1.0  0.54243  0.52105  0.76155  1.0000
  C  Sn43      1.0  0.51793  0.54722  0.82196  1.0000
  C   C46       1.0  0.47609  0.52818  0.80300  1.0000
  C  Sn44      1.0  0.45822  0.48351  0.72497  1.0000
  O  Te41      1.0  0.46553  0.41262  0.58619  1.0000
  O  Te42      1.0  0.58435  0.53935  0.77902  1.0000
  O  Te43      1.0  0.53516  0.59197  0.90037  1.0000
  O  Te44      1.0  0.41633  0.46521  0.70752  1.0000
  Mg  Mg21      1.0  0.59360  0.60177  0.89470  1.0000
  Mg  Mg22      1.0  0.40704  0.40279  0.59196  1.0000
  C  Sn45      1.0  0.04913  0.01155  0.67925  1.0000
  C   C47       1.0  0.02985  0.03826  0.69913  1.0000
  C  Sn46      1.0  0.98334  0.02618  0.77416  1.0000
  C  Sn47      1.0  0.95551  0.98659  0.83062  1.0000
  C   C48       1.0  0.97479  0.95991  0.81077  1.0000
  C  Sn48      1.0  0.02130  0.97196  0.73572  1.0000
  O  Te45      1.0  0.09571  0.02427  0.60391  1.0000
  O  Te46      1.0  0.46258  0.05342  0.79260  1.0000
  O  Te47      1.0  0.90890  0.97388  0.90601  1.0000
  O  Te48      1.0  0.03980  0.94475  0.71731  1.0000
  Mg  Mg23      1.0  0.89958  0.02196  0.90313  1.0000
  Mg  Mg24      1.0  0.10505  0.97619  0.60689  1.0000
  C  Sn49      1.0  0.19073  0.55461  0.82705  1.0000
  C   C49       1.0  0.16024  0.56591  0.82366  1.0000
  C  Sn50      1.0  0.17516  0.60213  0.75918  1.0000
  C  Sn51      1.0  0.22154  0.62757  0.69665  1.0000
  C   C50       1.0  0.25200  0.61626  0.70002  1.0000
  C  Sn52      1.0  0.23711  0.58006  0.76452  1.0000
  O  Te49      1.0  0.17507  0.51827  0.89207  1.0000
  O  Te50      1.0  0.14404  0.61279  0.75719  1.0000
  O  Te51      1.0  0.23719  0.66393  0.63161  1.0000
  O  Te52      1.0  0.26821  0.56939  0.76650  1.0000
  Mg  Mg25      1.0  0.18178  0.66528  0.65590  1.0000
  Mg  Mg26      1.0  0.23051  0.51689  0.86765  1.0000
  C  Sn53      1.0  0.44627  0.64982  0.81879  1.0000
  C   C51       1.0  0.43515  0.60654  0.80440  1.0000
  C  Sn54      1.0  0.39902  0.57388  0.74709  1.0000
  C  Sn55      1.0  0.37349  0.58470  0.70313  1.0000
  C   C52       1.0  0.38462  0.62796  0.71749  1.0000
  C  Sn56      1.0  0.42074  0.66064  0.77483  1.0000
  O  Te53      1.0  0.48252  0.68193  0.87636  1.0000
  O  Te54      1.0  0.38854  0.53084  0.73383  1.0000
  O  Te55      1.0  0.33721  0.55254  0.64553  1.0000
  O  Te56      1.0  0.43123  0.70365  0.78807  1.0000
  Mg  Mg27      1.0  0.33610  0.49864  0.64901  1.0000
  Mg  Mg28      1.0  0.48367  0.73588  0.87277  1.0000
  C  Sn57      1.0  0.35313  0.77668  0.66708  1.0000
  C   C53       1.0  0.37158  0.75525  0.69238  1.0000
  C  Sn58      1.0  0.40778  0.77880  0.75776  1.0000
  C  Sn59      1.0  0.42590  0.82474  0.79884  1.0000
  C   C54       1.0  0.40745  0.84615  0.77358  1.0000
  C  Sn60      1.0  0.37125  0.82262  0.70816  1.0000
  O  Te57      1.0  0.31695  0.75248  0.60158  1.0000
  O  Te58      1.0  0.42567  0.75665  0.78187  1.0000
  O  Te59      1.0  0.46211  0.84894  0.86438  1.0000
  O  Te60      1.0  0.35337  0.84475  0.68408  1.0000
  Mg  Mg29      1.0  0.47486  0.80399  0.87456  1.0000
  Mg  Mg30      1.0  0.30416  0.79745  0.59150  1.0000
  C  Sn61      1.0  0.78915  0.43148  0.67132  1.0000
  C   C55       1.0  0.76282  0.38966  0.69879  1.0000
  C  Sn62      1.0  0.77586  0.37091  0.76694  1.0000
  C  Sn63      1.0  0.81604  0.39446  0.80861  1.0000
  C   C56       1.0  0.84235  0.43626  0.78117  1.0000
  C  Sn64      1.0  0.82934  0.45503  0.71299  1.0000
  O  Te61      1.0  0.77547  0.44958  0.60308  1.0000
  O  Te62      1.0  0.74899  0.32905  0.79319  1.0000
  O  Te63      1.0  0.82971  0.37632  0.87690  1.0000
  O  Te64      1.0  0.85618  0.49687  0.68677  1.0000
  Mg  Mg31      1.0  0.78180  0.31834  0.88928  1.0000
  Mg  Mg32      1.0  0.82339  0.50761  0.59080  1.0000
  C  Sn65      1.0  0.57005  0.34370  0.68975  1.0000
  C   C57       1.0  0.61387  0.36411  0.68914  1.0000
  C  Sn66      1.0  0.63362  0.40934  0.73780  1.0000
  C  Sn67      1.0  0.60907  0.43471  0.78824  1.0000
  C   C58       1.0  0.56528  0.41431  0.78886  1.0000
  C  Sn68      1.0  0.54549  0.36907  0.74019  1.0000
  O  Te65      1.0  0.55097  0.29844  0.64062  1.0000
  O  Te66      1.0  0.67748  0.42901  0.73609  1.0000
  O  Te67      1.0  0.62819  0.48001  0.83738  1.0000
  O  Te68      1.0  0.50166  0.34941  0.74191  1.0000
  Mg  Mg33      1.0  0.68887  0.49171  0.81401  1.0000
  Mg  Mg34      1.0  0.49023  0.28671  0.66412  1.0000
  C  Sn69      1.0  0.65991  0.21874  0.71297  1.0000
  C   C59       1.0  0.64092  0.24084  0.69524  1.0000
  C  Sn70      1.0  0.59510  0.22375  0.72933  1.0000
  C  Sn71      1.0  0.56769  0.18374  0.78235  1.0000
  C   C60       1.0  0.58668  0.16167  0.80008  1.0000
  C  Sn72      1.0  0.63250  0.17874  0.76599  1.0000
  O  Te69      1.0  0.70579  0.23644  0.67822  1.0000
  O  Te70      1.0  0.57689  0.24642  0.71064  1.0000
  O  Te71      1.0  0.52178  0.16606  0.81709  1.0000
  O  Te72      1.0  0.65071  0.15609  0.78469  1.0000
  Mg  Mg35      1.0  0.51260  0.20909  0.77317  1.0000
  Mg  Mg36      1.0  0.71498  0.19340  0.72229  1.0000
