data_image0
_chemical_formula_structural       NONONONON2H2C4H2NC4H2C6H2NC4H2C2NONHC2HC3HCNONC4H2NONONHC2HC3HNC4H2CNONONONON2H2C4H2NC4H2C6H2NC4H2C2NONHC2HC3HCNONC4H2NONONHC2HC3HNC4H2CSnCSn2CSnTe4Mg2SnCSn2CSnTe4Mg2SnCSn2CSnTe4Mg2SnCSn2CSnTe4Mg2SnCSn2CSnTe4Mg2SnCSn2CSnTe4Mg2SnCSn2CSnTe4Mg2SnCSn2CSnTe4Mg2SnCSn2CSnTe4Mg2SnCSn2CSnTe4Mg2SnCSn2CSnTe4Mg2SnCSn2CSnTe4Mg2SnCSn2CSnTe4Mg2SnCSn2CSnTe4Mg2SnCSn2CSnTe4Mg2SnCSn2CSnTe4Mg2
_chemical_formula_sum              "N32 O16 H40 C112 Sn64 Te64 Mg32"
_cell_length_a       25.9951
_cell_length_b       27.9986
_cell_length_c       8.9115
_cell_angle_alpha    96.7584
_cell_angle_beta     100.731
_cell_angle_gamma    89.4224

_symmetry_space_group_name_H-M    'P1'
_space_group_IT_number       1

loop_
  _space_group_symop_operation_xyz
  'x, y, z'

loop_
  _atom_site_type_symbol
  _atom_site_label
  _atom_site_symmetry_multiplicity
  _atom_site_fract_x
  _atom_site_fract_y
  _atom_site_fract_z
  _atom_site_occupancy
  N   N1        1.0  0.74490  0.23475  0.25221  1.0000
  O   O1        1.0  0.79266  0.22309  0.29516  1.0000
  N   N2        1.0  0.24300  0.77489  0.27929  1.0000
  O   O2        1.0  0.20731  0.79299  0.34827  1.0000
  N   N3        1.0  0.24584  0.23184  0.36396  1.0000
  O   O3        1.0  0.20358  0.21924  0.40291  1.0000
  N   N4        1.0  0.74408  0.77200  0.19167  1.0000
  O   O4        1.0  0.79102  0.78818  0.22665  1.0000
  N   N5        1.0  0.49780  0.07890  0.28953  1.0000
  N   N6        1.0  0.49099  0.92697  0.21019  1.0000
  H   H1        1.0  0.49801  0.04212  0.27297  1.0000
  H   H2        1.0  0.49148  0.96322  0.24357  1.0000
  C   C1        1.0  0.45547  0.10683  0.31547  1.0000
  C   C2        1.0  0.44734  0.89804  0.19912  1.0000
  C   C3        1.0  0.47259  0.15595  0.32951  1.0000
  C   C4        1.0  0.46247  0.84999  0.15305  1.0000
  H   H3        1.0  0.44837  0.18678  0.34993  1.0000
  H   H4        1.0  0.43745  0.81848  0.13499  1.0000
  N   N7        1.0  0.91461  0.50002  0.22200  1.0000
  C   C5        1.0  0.88238  0.53727  0.18121  1.0000
  C   C6        1.0  0.88319  0.45963  0.18586  1.0000
  C   C7        1.0  0.83023  0.51965  0.10638  1.0000
  C   C8        1.0  0.83056  0.47125  0.11133  1.0000
  H   H5        1.0  0.79839  0.54115  0.05508  1.0000
  H   H6        1.0  0.79882  0.44576  0.06707  1.0000
  C   C9        1.0  0.40523  0.09025  0.32410  1.0000
  C   C10       1.0  0.39875  0.91385  0.23422  1.0000
  C   C11       1.0  0.53314  0.89972  0.17913  1.0000
  C   C12       1.0  0.54042  0.10755  0.28620  1.0000
  C   C13       1.0  0.51398  0.85124  0.13700  1.0000
  C   C14       1.0  0.52425  0.15639  0.31429  1.0000
  H   H7        1.0  0.53706  0.82123  0.10056  1.0000
  H   H8        1.0  0.54910  0.18768  0.32211  1.0000
  N   N8        1.0  0.07269  0.50194  0.28706  1.0000
  C   C15       1.0  0.10536  0.46295  0.29601  1.0000
  C   C16       1.0  0.10456  0.54071  0.28601  1.0000
  C   C17       1.0  0.15917  0.47732  0.29713  1.0000
  C   C18       1.0  0.15894  0.52575  0.29454  1.0000
  H   H9        1.0  0.19251  0.45380  0.30035  1.0000
  H   H10       1.0  0.19237  0.54880  0.29812  1.0000
  C   C19       1.0  0.58558  0.91537  0.19472  1.0000
  C   C20       1.0  0.59047  0.09140  0.26519  1.0000
  N   N9        1.0  0.24552  0.72680  0.23552  1.0000
  O   O5        1.0  0.28164  0.70971  0.16629  1.0000
  N   N10       1.0  0.99283  0.57673  0.26406  1.0000
  H   H11       1.0  0.99306  0.54001  0.25669  1.0000
  C   C21       1.0  0.94821  0.60437  0.25381  1.0000
  C   C22       1.0  0.96575  0.65353  0.27558  1.0000
  H   H12       1.0  0.94087  0.68461  0.28033  1.0000
  C   C23       1.0  0.89621  0.58672  0.21117  1.0000
  C   C24       1.0  0.03687  0.60539  0.27973  1.0000
  C   C25       1.0  0.01907  0.65405  0.28500  1.0000
  H   H13       1.0  0.04376  0.68544  0.29396  1.0000
  C   C26       1.0  0.08864  0.58924  0.28301  1.0000
  N   N11       1.0  0.73295  0.27931  0.21159  1.0000
  O   O6        1.0  0.68655  0.29532  0.18886  1.0000
  N   N12       1.0  0.57184  0.00364  0.23482  1.0000
  C   C27       1.0  0.60302  0.96388  0.22360  1.0000
  C   C28       1.0  0.60496  0.04249  0.24727  1.0000
  C   C29       1.0  0.65764  0.97819  0.23639  1.0000
  C   C30       1.0  0.65836  0.02686  0.24271  1.0000
  H   H14       1.0  0.69088  0.95463  0.23952  1.0000
  H   H15       1.0  0.69196  0.04950  0.24506  1.0000
  N   N13       1.0  0.73201  0.72477  0.16432  1.0000
  O   O7        1.0  0.68477  0.70949  0.13410  1.0000
  N   N14       1.0  0.25290  0.27542  0.32323  1.0000
  O   O8        1.0  0.29448  0.28791  0.28033  1.0000
  N   N15       1.0  0.99425  0.42558  0.26384  1.0000
  H   H16       1.0  0.99394  0.46096  0.24556  1.0000
  C   C31       1.0  0.03894  0.39920  0.29968  1.0000
  C   C32       1.0  0.02229  0.35292  0.32736  1.0000
  H   H17       1.0  0.04837  0.32393  0.35920  1.0000
  C   C33       1.0  0.09058  0.41510  0.30549  1.0000
  C   C34       1.0  0.95029  0.39820  0.26238  1.0000
  C   C35       1.0  0.96847  0.35247  0.30628  1.0000
  H   H18       1.0  0.94345  0.32323  0.31973  1.0000
  N   N16       1.0  0.41936  0.00171  0.28254  1.0000
  C   C36       1.0  0.38958  0.04146  0.31145  1.0000
  C   C37       1.0  0.38641  0.96280  0.27153  1.0000
  C   C38       1.0  0.33675  0.02722  0.32273  1.0000
  C   C39       1.0  0.33437  0.97847  0.29434  1.0000
  H   H19       1.0  0.30572  0.05119  0.34742  1.0000
  H   H20       1.0  0.30054  0.95559  0.28753  1.0000
  C   C40       1.0  0.89821  0.41271  0.21841  1.0000
  N   N17       1.0  0.75618  0.23607  0.75682  1.0000
  O   O9        1.0  0.80428  0.22629  0.80325  1.0000
  N   N18       1.0  0.25780  0.76675  0.72713  1.0000
  O   O10       1.0  0.21104  0.78101  0.72752  1.0000
  N   N19       1.0  0.25525  0.22810  0.88804  1.0000
  O   O11       1.0  0.22095  0.22133  0.96912  1.0000
  N   N20       1.0  0.73572  0.75823  0.73462  1.0000
  O   O12       1.0  0.74744  0.74726  0.87157  1.0000
  N   N21       1.0  0.51094  0.07932  0.80338  1.0000
  N   N22       1.0  0.50152  0.92975  0.72984  1.0000
  H   H21       1.0  0.51141  0.04254  0.79280  1.0000
  H   H22       1.0  0.50639  0.96258  0.79412  1.0000
  C   C41       1.0  0.46794  0.10761  0.82008  1.0000
  C   C42       1.0  0.45465  0.90466  0.69189  1.0000
  C   C43       1.0  0.48392  0.15628  0.81598  1.0000
  C   C44       1.0  0.46281  0.86338  0.58870  1.0000
  H   H23       1.0  0.45910  0.18734  0.82559  1.0000
  H   H24       1.0  0.43242  0.83819  0.52894  1.0000
  N   N23       1.0  0.92497  0.50225  0.68165  1.0000
  C   C45       1.0  0.89492  0.54171  0.65029  1.0000
  C   C46       1.0  0.89022  0.46413  0.65942  1.0000
  C   C47       1.0  0.83991  0.52788  0.59881  1.0000
  C   C48       1.0  0.83700  0.47967  0.60536  1.0000
  H   H25       1.0  0.80826  0.55162  0.56096  1.0000
  H   H26       1.0  0.80243  0.45678  0.57582  1.0000
  C   C49       1.0  0.41941  0.09182  0.84576  1.0000
  C   C50       1.0  0.40996  0.91719  0.75795  1.0000
  C   C51       1.0  0.53993  0.90447  0.66904  1.0000
  C   C52       1.0  0.55339  0.10731  0.79348  1.0000
  C   C53       1.0  0.51495  0.86301  0.57617  1.0000
  C   C54       1.0  0.53575  0.15619  0.80237  1.0000
  H   H27       1.0  0.53413  0.83702  0.50599  1.0000
  H   H28       1.0  0.56003  0.18721  0.80099  1.0000
  N   N24       1.0  0.08457  0.49571  0.73435  1.0000
  C   C55       1.0  0.11486  0.45578  0.75998  1.0000
  C   C56       1.0  0.11939  0.53267  0.73914  1.0000
  C   C57       1.0  0.17034  0.46780  0.77935  1.0000
  C   C58       1.0  0.17323  0.51580  0.77054  1.0000
  H   H29       1.0  0.20262  0.44329  0.80020  1.0000
  H   H30       1.0  0.20839  0.53756  0.78617  1.0000
  C   C59       1.0  0.59419  0.91591  0.70387  1.0000
  C   C60       1.0  0.60478  0.09088  0.78911  1.0000
  N   N25       1.0  0.26859  0.71865  0.71877  1.0000
  O   O13       1.0  0.31262  0.70212  0.69630  1.0000
  N   N26       1.0  0.00934  0.57372  0.69790  1.0000
  H   H31       1.0  0.00787  0.53737  0.70075  1.0000
  C   C61       1.0  0.96657  0.60382  0.68915  1.0000
  C   C62       1.0  0.98683  0.65164  0.69709  1.0000
  H   H32       1.0  0.96388  0.68402  0.69860  1.0000
  C   C63       1.0  0.91337  0.58997  0.66623  1.0000
  C   C64       1.0  0.05497  0.59972  0.70663  1.0000
  C   C65       1.0  0.03971  0.64895  0.70062  1.0000
  H   H33       1.0  0.06571  0.67870  0.69962  1.0000
  C   C66       1.0  0.10636  0.58142  0.72326  1.0000
  N   N27       1.0  0.74252  0.27935  0.70748  1.0000
  O   O14       1.0  0.69530  0.29291  0.67468  1.0000
  N   N28       1.0  0.58461  0.00377  0.76198  1.0000
  C   C67       1.0  0.61456  0.96294  0.75438  1.0000
  C   C68       1.0  0.61934  0.04172  0.78681  1.0000
  C   C69       1.0  0.67013  0.97564  0.78770  1.0000
  C   C70       1.0  0.67305  0.02454  0.80127  1.0000
  H   H34       1.0  0.70247  0.95090  0.79802  1.0000
  H   H35       1.0  0.70823  0.04635  0.81944  1.0000
  N   N29       1.0  0.75692  0.73656  0.61790  1.0000
  O   O15       1.0  0.74243  0.74787  0.48212  1.0000
  N   N30       1.0  0.25330  0.26510  0.80546  1.0000
  O   O16       1.0  0.28713  0.27180  0.72301  1.0000
  N   N31       1.0  0.00011  0.42408  0.71973  1.0000
  H   H36       1.0  0.00131  0.45857  0.69360  1.0000
  C   C71       1.0  0.04343  0.39645  0.76207  1.0000
  C   C72       1.0  0.02451  0.35237  0.79992  1.0000
  H   H37       1.0  0.04933  0.32353  0.84055  1.0000
  C   C73       1.0  0.09628  0.40938  0.77180  1.0000
  C   C74       1.0  0.95488  0.39966  0.72637  1.0000
  C   C75       1.0  0.97080  0.35446  0.77960  1.0000
  H   H38       1.0  0.94435  0.32774  0.80220  1.0000
  N   N32       1.0  0.43142  0.00360  0.80124  1.0000
  C   C76       1.0  0.40597  0.04335  0.85348  1.0000
  C   C77       1.0  0.40231  0.96487  0.82232  1.0000
  C   C78       1.0  0.36153  0.02967  0.91815  1.0000
  C   C79       1.0  0.36024  0.98074  0.90340  1.0000
  H   H39       1.0  0.33614  0.05411  0.97219  1.0000
  H   H40       1.0  0.33468  0.95820  0.94854  1.0000
  C   C80       1.0  0.90321  0.41639  0.68835  1.0000
  C  Sn1       1.0  0.27852  0.14312  0.24826  1.0000
  C   C81       1.0  0.27899  0.18279  0.35948  1.0000
  C  Sn2       1.0  0.32557  0.19807  0.45849  1.0000
  C  Sn3       1.0  0.37267  0.17319  0.44601  1.0000
  C   C82       1.0  0.37218  0.13355  0.33483  1.0000
  C  Sn4       1.0  0.32561  0.11824  0.23579  1.0000
  O  Te1       1.0  0.23150  0.12848  0.15050  1.0000
  O  Te2       1.0  0.32507  0.23782  0.56880  1.0000
  O  Te3       1.0  0.41971  0.18787  0.54390  1.0000
  O  Te4       1.0  0.32610  0.07852  0.12552  1.0000
  Mg  Mg1       1.0  0.39905  0.24401  0.67550  1.0000
  Mg  Mg2       1.0  0.25215  0.07232  0.01871  1.0000
  C  Sn5       1.0  0.32922  0.80091  0.13924  1.0000
  C   C83       1.0  0.30208  0.79709  0.25882  1.0000
  C  Sn6       1.0  0.29824  0.83677  0.36674  1.0000
  C  Sn7       1.0  0.32200  0.88121  0.35485  1.0000
  C   C84       1.0  0.34911  0.88502  0.23532  1.0000
  C  Sn8       1.0  0.35297  0.84535  0.12735  1.0000
  O  Te5       1.0  0.33256  0.76077  0.03264  1.0000
  O  Te6       1.0  0.27092  0.83207  0.48531  1.0000
  O  Te7       1.0  0.31864  0.92136  0.46159  1.0000
  O  Te8       1.0  0.38027  0.85004  0.00883  1.0000
  Mg  Mg3       1.0  0.27720  0.89703  0.60239  1.0000
  Mg  Mg4       1.0  0.43742  0.82197  0.89164  1.0000
  C  Sn9       1.0  0.64020  0.83518  0.31271  1.0000
  C   C85       1.0  0.63576  0.87641  0.23694  1.0000
  C  Sn10      1.0  0.66203  0.87979  0.11530  1.0000
  C  Sn11      1.0  0.69336  0.84115  0.06834  1.0000
  C   C86       1.0  0.69778  0.79995  0.14407  1.0000
  C  Sn12      1.0  0.67154  0.79654  0.26575  1.0000
  O  Te9       1.0  0.61359  0.83258  0.43402  1.0000
  O  Te10      1.0  0.65700  0.92137  0.04135  1.0000
  O  Te11      1.0  0.78341  0.88064  0.94693  1.0000
  O  Te12      1.0  0.67654  0.75499  0.33966  1.0000
  Mg  Mg5       1.0  0.76428  0.94473  0.88223  1.0000
  Mg  Mg6       1.0  0.63270  0.76845  0.49874  1.0000
  C  Sn13      1.0  0.71685  0.14771  0.32836  1.0000
  C   C87       1.0  0.71147  0.18500  0.23542  1.0000
  C  Sn14      1.0  0.66190  0.19823  0.16294  1.0000
  C  Sn15      1.0  0.61676  0.17369  0.18385  1.0000
  C   C88       1.0  0.62215  0.13643  0.27676  1.0000
  C  Sn16      1.0  0.67170  0.12318  0.34927  1.0000
  O  Te13      1.0  0.76678  0.13510  0.39971  1.0000
  O  Te14      1.0  0.65752  0.23561  0.07053  1.0000
  O  Te15      1.0  0.56680  0.18634  0.11240  1.0000
  O  Te16      1.0  0.67610  0.08582  0.44165  1.0000
  Mg  Mg7       1.0  0.64446  0.27649  0.99772  1.0000
  Mg  Mg8       1.0  0.75257  0.08180  0.51458  1.0000
  C  Sn17      1.0  0.82083  0.68569  0.06775  1.0000
  C   C89       1.0  0.77602  0.68726  0.13376  1.0000
  C  Sn18      1.0  0.77078  0.65680  0.24352  1.0000
  C  Sn19      1.0  0.81119  0.62409  0.28833  1.0000
  C   C90       1.0  0.85597  0.62254  0.22236  1.0000
  C  Sn20      1.0  0.86124  0.65299  0.11256  1.0000
  O  Te17      1.0  0.88867  0.75334  0.95825  1.0000
  O  Te18      1.0  0.72561  0.65902  0.30786  1.0000
  O  Te19      1.0  0.80674  0.59329  0.39793  1.0000
  O  Te20      1.0  0.90638  0.65078  0.04826  1.0000
  Mg  Mg9       1.0  0.73780  0.60979  0.45255  1.0000
  Mg  Mg10      1.0  0.95768  0.73687  0.90363  1.0000
  C  Sn21      1.0  0.18146  0.61620  0.19164  1.0000
  C   C91       1.0  0.14314  0.61991  0.28340  1.0000
  C  Sn22      1.0  0.13316  0.66421  0.36186  1.0000
  C  Sn23      1.0  0.16206  0.70567  0.34825  1.0000
  C   C92       1.0  0.20035  0.70195  0.25652  1.0000
  C  Sn24      1.0  0.21036  0.65767  0.17803  1.0000
  O  Te21      1.0  0.19077  0.57156  0.11423  1.0000
  O  Te22      1.0  0.09467  0.66702  0.45295  1.0000
  O  Te23      1.0  0.15272  0.75034  0.42576  1.0000
  O  Te24      1.0  0.24882  0.65485  0.08697  1.0000
  Mg  Mg11      1.0  0.09630  0.73589  0.53582  1.0000
  Mg  Mg12      1.0  0.24720  0.58601  0.00398  1.0000
  C  Sn25      1.0  0.12511  0.31996  0.22993  1.0000
  C   C93       1.0  0.12514  0.36334  0.32517  1.0000
  C  Sn26      1.0  0.17154  0.38177  0.41856  1.0000
  C  Sn27      1.0  0.21891  0.35632  0.41665  1.0000
  C   C94       1.0  0.21886  0.31296  0.32144  1.0000
  C  Sn28      1.0  0.17248  0.29451  0.22802  1.0000
  O  Te25      1.0  0.07826  0.30221  0.13752  1.0000
  O  Te26      1.0  0.17059  0.42521  0.51285  1.0000
  O  Te27      1.0  0.26577  0.37410  0.50917  1.0000
  O  Te28      1.0  0.17341  0.25110  0.13376  1.0000
  Mg  Mg13      1.0  0.24449  0.43470  0.61791  1.0000
  Mg  Mg14      1.0  0.09954  0.24159  0.02859  1.0000
  C  Sn29      1.0  0.77245  0.37177  0.25264  1.0000
  C   C95       1.0  0.76693  0.32443  0.18136  1.0000
  C  Sn30      1.0  0.80939  0.30075  0.13179  1.0000
  C  Sn31      1.0  0.85842  0.32487  0.15401  1.0000
  C   C96       1.0  0.86393  0.37219  0.22528  1.0000
  C  Sn32      1.0  0.82148  0.39590  0.27487  1.0000
  O  Te29      1.0  0.72947  0.39475  0.30129  1.0000
  O  Te30      1.0  0.80291  0.25342  0.06076  1.0000
  O  Te31      1.0  0.90141  0.30185  0.10529  1.0000
  O  Te32      1.0  0.82795  0.44320  0.34587  1.0000
  Mg  Mg15      1.0  0.87309  0.23736  0.01455  1.0000
  Mg  Mg16      1.0  0.75780  0.45928  0.39221  1.0000
  C  Sn33      1.0  0.32338  0.13307  0.72561  1.0000
  C   C97       1.0  0.37309  0.13395  0.81847  1.0000
  C  Sn34      1.0  0.38385  0.16432  0.95683  1.0000
  C  Sn35      1.0  0.28065  0.15757  0.00341  1.0000
  C   C98       1.0  0.29440  0.19354  0.91059  1.0000
  C  Sn36      1.0  0.28361  0.16318  0.77219  1.0000
  O  Te33      1.0  0.31350  0.10242  0.58776  1.0000
  O  Te34      1.0  0.37042  0.12771  0.04770  1.0000
  O  Te35      1.0  0.29057  0.18823  0.14138  1.0000
  O  Te36      1.0  0.23364  0.16291  0.68136  1.0000
  Mg  Mg17      1.0  0.36478  0.17567  0.22562  1.0000
  Mg  Mg18      1.0  0.23923  0.11495  0.50347  1.0000
  C  Sn37      1.0  0.30893  0.88320  0.78588  1.0000
  C   C99       1.0  0.36298  0.88074  0.79174  1.0000
  C  Sn38      1.0  0.38660  0.83655  0.76075  1.0000
  C  Sn39      1.0  0.35555  0.79394  0.72301  1.0000
  C   C100      1.0  0.30154  0.79642  0.71713  1.0000
  C  Sn40      1.0  0.27788  0.84059  0.74814  1.0000
  O  Te37      1.0  0.28615  0.92776  0.81727  1.0000
  O  Te38      1.0  0.44071  0.83499  0.76738  1.0000
  O  Te39      1.0  0.37839  0.74936  0.69161  1.0000
  O  Te40      1.0  0.22381  0.84217  0.74149  1.0000
  Mg  Mg19      1.0  0.45358  0.76574  0.71523  1.0000
  Mg  Mg20      1.0  0.21089  0.91140  0.79354  1.0000
  C  Sn41      1.0  0.63438  0.79363  0.72305  1.0000
  C   C101      1.0  0.68208  0.78929  0.67202  1.0000
  C  Sn42      1.0  0.70664  0.82971  0.63768  1.0000
  C  Sn43      1.0  0.68306  0.87544  0.65479  1.0000
  C   C102      1.0  0.63539  0.87977  0.70582  1.0000
  C  Sn44      1.0  0.61079  0.83936  0.74016  1.0000
  O  Te41      1.0  0.61053  0.75273  0.75672  1.0000
  O  Te42      1.0  0.75431  0.82447  0.58679  1.0000
  O  Te43      1.0  0.70696  0.91636  0.62106  1.0000
  O  Te44      1.0  0.56317  0.84459  0.79105  1.0000
  Mg  Mg21      1.0  0.77160  0.89086  0.55556  1.0000
  Mg  Mg22      1.0  0.54585  0.77824  0.82238  1.0000
  C  Sn45      1.0  0.72999  0.15126  0.85662  1.0000
  C   C103      1.0  0.72510  0.18488  0.75084  1.0000
  C  Sn46      1.0  0.67610  0.19429  0.66534  1.0000
  C  Sn47      1.0  0.63104  0.16959  0.68607  1.0000
  C   C104      1.0  0.63593  0.13600  0.79182  1.0000
  C  Sn48      1.0  0.68492  0.12656  0.87735  1.0000
  O  Te45      1.0  0.77936  0.14243  0.94086  1.0000
  O  Te46      1.0  0.67220  0.22805  0.56023  1.0000
  O  Te47      1.0  0.58164  0.17845  0.60171  1.0000
  O  Te48      1.0  0.68883  0.09283  0.98243  1.0000
  Mg  Mg23      1.0  0.59639  0.22765  0.47256  1.0000
  Mg  Mg24      1.0  0.70119  0.05636  0.07021  1.0000
  C  Sn49      1.0  0.87769  0.68369  0.59283  1.0000
  C   C105      1.0  0.88201  0.64420  0.67664  1.0000
  C  Sn50      1.0  0.83992  0.63022  0.73943  1.0000
  C  Sn51      1.0  0.79253  0.65622  0.71794  1.0000
  C   C106      1.0  0.78823  0.69567  0.63416  1.0000
  C  Sn52      1.0  0.83029  0.70969  0.57134  1.0000
  O  Te49      1.0  0.92026  0.69703  0.53108  1.0000
  O  Te50      1.0  0.84517  0.59063  0.82282  1.0000
  O  Te51      1.0  0.74994  0.64285  0.77978  1.0000
  O  Te52      1.0  0.82506  0.74924  0.48798  1.0000
  Mg  Mg25      1.0  0.77616  0.58642  0.88437  1.0000
  Mg  Mg26      1.0  0.89404  0.75347  0.42631  1.0000
  C  Sn53      1.0  0.20768  0.60578  0.67008  1.0000
  C   C107      1.0  0.16483  0.61053  0.74473  1.0000
  C  Sn54      1.0  0.15076  0.65576  0.80763  1.0000
  C  Sn55      1.0  0.18012  0.69711  0.79559  1.0000
  C   C108      1.0  0.22293  0.69235  0.72096  1.0000
  C  Sn56      1.0  0.23703  0.64713  0.65804  1.0000
  O  Te53      1.0  0.22103  0.56022  0.60805  1.0000
  O  Te54      1.0  0.10778  0.65960  0.88177  1.0000
  O  Te55      1.0  0.16673  0.74270  0.85771  1.0000
  O  Te56      1.0  0.27998  0.64328  0.58392  1.0000
  Mg  Mg27      1.0  0.10498  0.72947  0.94769  1.0000
  Mg  Mg28      1.0  0.28280  0.57343  0.51790  1.0000
  C  Sn57      1.0  0.19597  0.37447  0.90234  1.0000
  C   C109      1.0  0.15026  0.37614  0.79220  1.0000
  C  Sn58      1.0  0.13147  0.33491  0.69401  1.0000
  C  Sn59      1.0  0.15893  0.29108  0.70621  1.0000
  C   C110      1.0  0.20461  0.28943  0.81630  1.0000
  C  Sn60      1.0  0.22343  0.33065  0.91453  1.0000
  O  Te57      1.0  0.21404  0.41613  0.99930  1.0000
  O  Te58      1.0  0.08569  0.33746  0.58478  1.0000
  O  Te59      1.0  0.14083  0.24941  0.60912  1.0000
  O  Te60      1.0  0.20575  0.29124  0.02373  1.0000
  Mg  Mg29      1.0  0.07668  0.27102  0.47887  1.0000
  Mg  Mg30      1.0  0.21478  0.35765  0.12974  1.0000
  C  Sn61      1.0  0.84213  0.30036  0.64246  1.0000
  C   C111      1.0  0.80033  0.30574  0.72129  1.0000
  C  Sn62      1.0  0.78470  0.35152  0.77451  1.0000
  C  Sn63      1.0  0.81139  0.39280  0.74830  1.0000
  C   C112      1.0  0.85316  0.38742  0.66949  1.0000
  C  Sn64      1.0  0.86882  0.34164  0.61626  1.0000
  O  Te61      1.0  0.85708  0.25425  0.59029  1.0000
  O  Te62      1.0  0.74281  0.35599  0.85308  1.0000
  O  Te63      1.0  0.79641  0.43894  0.80056  1.0000
  O  Te64      1.0  0.91068  0.33717  0.53771  1.0000
  Mg  Mg31      1.0  0.73704  0.42646  0.90165  1.0000
  Mg  Mg32      1.0  0.91646  0.26672  0.48902  1.0000
