data_image0
_chemical_formula_structural       NONONONON2H2C4H2NC4H2C5H2C2H2C5H2NC4H2C5H2C2H2CNONHC2HC3HC4H2C2H2CNONC4H2NONONHC2HC4H2C2H2C3HNC4H2CNONONONON2H2C4H2NC4H2C5H2C2H2C5H2NC4H2C5H2C2H2CNONHC2HC4H2C2H2C3HCNONC4H2NONONHC2HC4H2C2H2C3HNC4H2C3Sn2C2HTe2HMgC2Sn2C2HTe2HMgC2Sn2C2HTe2HMgC2Sn2C2HTe2HMgC2Sn2C2HTe2HMgC2Sn2C2HTe2HMgC2Sn2C2HTe2HMgC2Sn2C2HTe2HMg
_chemical_formula_sum              "N32 O16 H88 C160 Sn16 Te16 Mg8"
_cell_length_a       25.9951
_cell_length_b       27.9986
_cell_length_c       8.9115
_cell_angle_alpha    96.7584
_cell_angle_beta     100.731
_cell_angle_gamma    89.4224

_symmetry_space_group_name_H-M    'P1'
_space_group_IT_number       1

loop_
  _space_group_symop_operation_xyz
  'x, y, z'

loop_
  _atom_site_type_symbol
  _atom_site_label
  _atom_site_symmetry_multiplicity
  _atom_site_fract_x
  _atom_site_fract_y
  _atom_site_fract_z
  _atom_site_occupancy
  N   N1        1.0  0.74490  0.23475  0.25221  1.0000
  O   O1        1.0  0.79266  0.22309  0.29516  1.0000
  N   N2        1.0  0.24300  0.77489  0.27929  1.0000
  O   O2        1.0  0.20731  0.79299  0.34827  1.0000
  N   N3        1.0  0.24584  0.23184  0.36396  1.0000
  O   O3        1.0  0.20358  0.21924  0.40291  1.0000
  N   N4        1.0  0.74408  0.77200  0.19167  1.0000
  O   O4        1.0  0.79102  0.78818  0.22665  1.0000
  N   N5        1.0  0.49780  0.07890  0.28953  1.0000
  N   N6        1.0  0.49099  0.92697  0.21019  1.0000
  H   H1        1.0  0.49801  0.04212  0.27297  1.0000
  H   H2        1.0  0.49148  0.96322  0.24357  1.0000
  C   C1        1.0  0.45547  0.10683  0.31547  1.0000
  C   C2        1.0  0.44734  0.89804  0.19912  1.0000
  C   C3        1.0  0.47259  0.15595  0.32951  1.0000
  C   C4        1.0  0.46247  0.84999  0.15305  1.0000
  H   H3        1.0  0.44837  0.18678  0.34993  1.0000
  H   H4        1.0  0.43745  0.81848  0.13499  1.0000
  N   N7        1.0  0.91461  0.50002  0.22200  1.0000
  C   C5        1.0  0.88238  0.53727  0.18121  1.0000
  C   C6        1.0  0.88319  0.45963  0.18586  1.0000
  C   C7        1.0  0.83023  0.51965  0.10638  1.0000
  C   C8        1.0  0.83056  0.47125  0.11133  1.0000
  H   H5        1.0  0.79839  0.54115  0.05508  1.0000
  H   H6        1.0  0.79882  0.44576  0.06707  1.0000
  C   C9        1.0  0.40523  0.09025  0.32410  1.0000
  C   C10       1.0  0.39875  0.91385  0.23422  1.0000
  C   C11       1.0  0.36453  0.12760  0.33888  1.0000
  C   C12       1.0  0.31835  0.12599  0.22706  1.0000
  C   C13       1.0  0.37077  0.16513  0.46070  1.0000
  H   H7        1.0  0.31312  0.09770  0.13101  1.0000
  H   H8        1.0  0.40542  0.16594  0.55093  1.0000
  C   C14       1.0  0.27964  0.16032  0.23535  1.0000
  C   C15       1.0  0.33286  0.20054  0.46936  1.0000
  H   H9        1.0  0.24442  0.15955  0.14760  1.0000
  H   H10       1.0  0.33703  0.22904  0.56502  1.0000
  C   C16       1.0  0.28780  0.19762  0.35561  1.0000
  C   C17       1.0  0.53314  0.89972  0.17913  1.0000
  C   C18       1.0  0.54042  0.10755  0.28620  1.0000
  C   C19       1.0  0.51398  0.85124  0.13700  1.0000
  C   C20       1.0  0.52425  0.15639  0.31429  1.0000
  H   H11       1.0  0.53706  0.82123  0.10056  1.0000
  H   H12       1.0  0.54910  0.18768  0.32211  1.0000
  N   N8        1.0  0.07269  0.50194  0.28706  1.0000
  C   C21       1.0  0.10536  0.46295  0.29601  1.0000
  C   C22       1.0  0.10456  0.54071  0.28601  1.0000
  C   C23       1.0  0.15917  0.47732  0.29713  1.0000
  C   C24       1.0  0.15894  0.52575  0.29454  1.0000
  H   H13       1.0  0.19251  0.45380  0.30035  1.0000
  H   H14       1.0  0.19237  0.54880  0.29812  1.0000
  C   C25       1.0  0.58558  0.91537  0.19472  1.0000
  C   C26       1.0  0.59047  0.09140  0.26519  1.0000
  C   C27       1.0  0.63009  0.12897  0.26261  1.0000
  C   C28       1.0  0.68007  0.13029  0.35705  1.0000
  C   C29       1.0  0.61825  0.16498  0.16419  1.0000
  H   H15       1.0  0.68954  0.10438  0.43945  1.0000
  H   H16       1.0  0.58060  0.16371  0.08644  1.0000
  C   C30       1.0  0.71685  0.16533  0.35103  1.0000
  C   C31       1.0  0.65378  0.20143  0.16060  1.0000
  H   H17       1.0  0.75561  0.16613  0.42250  1.0000
  H   H18       1.0  0.64365  0.22868  0.08374  1.0000
  C   C32       1.0  0.70354  0.20129  0.25418  1.0000
  N   N9        1.0  0.24552  0.72680  0.23552  1.0000
  O   O5        1.0  0.28164  0.70971  0.16629  1.0000
  N   N10       1.0  0.99283  0.57673  0.26406  1.0000
  H   H19       1.0  0.99306  0.54001  0.25669  1.0000
  C   C33       1.0  0.94821  0.60437  0.25381  1.0000
  C   C34       1.0  0.96575  0.65353  0.27558  1.0000
  H   H20       1.0  0.94087  0.68461  0.28033  1.0000
  C   C35       1.0  0.89621  0.58672  0.21117  1.0000
  C   C36       1.0  0.03687  0.60539  0.27973  1.0000
  C   C37       1.0  0.01907  0.65405  0.28500  1.0000
  H   H21       1.0  0.04376  0.68544  0.29396  1.0000
  C   C38       1.0  0.08864  0.58924  0.28301  1.0000
  C   C39       1.0  0.12878  0.62592  0.27707  1.0000
  C   C40       1.0  0.13554  0.66918  0.37665  1.0000
  C   C41       1.0  0.16210  0.61792  0.16879  1.0000
  H   H22       1.0  0.11294  0.67513  0.46806  1.0000
  H   H23       1.0  0.15692  0.58551  0.08689  1.0000
  C   C42       1.0  0.17211  0.70414  0.36676  1.0000
  C   C43       1.0  0.20073  0.65104  0.16254  1.0000
  H   H24       1.0  0.17600  0.73699  0.44546  1.0000
  H   H25       1.0  0.22715  0.64443  0.08163  1.0000
  C   C44       1.0  0.20484  0.69501  0.25782  1.0000
  N   N11       1.0  0.73295  0.27931  0.21159  1.0000
  O   O6        1.0  0.68655  0.29532  0.18886  1.0000
  N   N12       1.0  0.57184  0.00364  0.23482  1.0000
  C   C45       1.0  0.60302  0.96388  0.22360  1.0000
  C   C46       1.0  0.60496  0.04249  0.24727  1.0000
  C   C47       1.0  0.65764  0.97819  0.23639  1.0000
  C   C48       1.0  0.65836  0.02686  0.24271  1.0000
  H   H26       1.0  0.69088  0.95463  0.23952  1.0000
  H   H27       1.0  0.69196  0.04950  0.24506  1.0000
  N   N13       1.0  0.73201  0.72477  0.16432  1.0000
  O   O7        1.0  0.68477  0.70949  0.13410  1.0000
  N   N14       1.0  0.25290  0.27542  0.32323  1.0000
  O   O8        1.0  0.29448  0.28791  0.28033  1.0000
  N   N15       1.0  0.99425  0.42558  0.26384  1.0000
  H   H28       1.0  0.99394  0.46096  0.24556  1.0000
  C   C49       1.0  0.03894  0.39920  0.29968  1.0000
  C   C50       1.0  0.02229  0.35292  0.32736  1.0000
  H   H29       1.0  0.04837  0.32393  0.35920  1.0000
  C   C51       1.0  0.09058  0.41510  0.30549  1.0000
  C   C52       1.0  0.13178  0.37783  0.31697  1.0000
  C   C53       1.0  0.12606  0.33618  0.20968  1.0000
  C   C54       1.0  0.17750  0.38355  0.43055  1.0000
  H   H30       1.0  0.09147  0.33217  0.11912  1.0000
  H   H31       1.0  0.18148  0.41480  0.51703  1.0000
  C   C55       1.0  0.16476  0.30135  0.21382  1.0000
  C   C56       1.0  0.21695  0.34938  0.43487  1.0000
  H   H32       1.0  0.16127  0.26976  0.12875  1.0000
  H   H33       1.0  0.25224  0.35314  0.52285  1.0000
  C   C57       1.0  0.20999  0.30879  0.32605  1.0000
  C   C58       1.0  0.95029  0.39820  0.26238  1.0000
  C   C59       1.0  0.96847  0.35247  0.30628  1.0000
  H   H34       1.0  0.94345  0.32323  0.31973  1.0000
  N   N16       1.0  0.41936  0.00171  0.28254  1.0000
  C   C60       1.0  0.38958  0.04146  0.31145  1.0000
  C   C61       1.0  0.38641  0.96280  0.27153  1.0000
  C   C62       1.0  0.33675  0.02722  0.32273  1.0000
  C   C63       1.0  0.33437  0.97847  0.29434  1.0000
  H   H35       1.0  0.30572  0.05119  0.34742  1.0000
  H   H36       1.0  0.30054  0.95559  0.28753  1.0000
  C   C64       1.0  0.89821  0.41271  0.21841  1.0000
  N   N17       1.0  0.75618  0.23607  0.75682  1.0000
  O   O9        1.0  0.80428  0.22629  0.80325  1.0000
  N   N18       1.0  0.25780  0.76675  0.72713  1.0000
  O   O10       1.0  0.21104  0.78101  0.72752  1.0000
  N   N19       1.0  0.25525  0.22810  0.88804  1.0000
  O   O11       1.0  0.22095  0.22133  0.96912  1.0000
  N   N20       1.0  0.73572  0.75823  0.73462  1.0000
  O   O12       1.0  0.74744  0.74726  0.87157  1.0000
  N   N21       1.0  0.51094  0.07932  0.80338  1.0000
  N   N22       1.0  0.50152  0.92975  0.72984  1.0000
  H   H37       1.0  0.51141  0.04254  0.79280  1.0000
  H   H38       1.0  0.50639  0.96258  0.79412  1.0000
  C   C65       1.0  0.46794  0.10761  0.82008  1.0000
  C   C66       1.0  0.45465  0.90466  0.69189  1.0000
  C   C67       1.0  0.48392  0.15628  0.81598  1.0000
  C   C68       1.0  0.46281  0.86338  0.58870  1.0000
  H   H39       1.0  0.45910  0.18734  0.82559  1.0000
  H   H40       1.0  0.43242  0.83819  0.52894  1.0000
  N   N23       1.0  0.92497  0.50225  0.68165  1.0000
  C   C69       1.0  0.89492  0.54171  0.65029  1.0000
  C   C70       1.0  0.89022  0.46413  0.65942  1.0000
  C   C71       1.0  0.83991  0.52788  0.59881  1.0000
  C   C72       1.0  0.83700  0.47967  0.60536  1.0000
  H   H41       1.0  0.80826  0.55162  0.56096  1.0000
  H   H42       1.0  0.80243  0.45678  0.57582  1.0000
  C   C73       1.0  0.41941  0.09182  0.84576  1.0000
  C   C74       1.0  0.40996  0.91719  0.75795  1.0000
  C   C75       1.0  0.37791  0.12813  0.86108  1.0000
  C   C76       1.0  0.32878  0.12066  0.76305  1.0000
  C   C77       1.0  0.38559  0.16958  0.96883  1.0000
  H   H43       1.0  0.32286  0.08914  0.67765  1.0000
  H   H44       1.0  0.42273  0.17484  0.04869  1.0000
  C   C78       1.0  0.28866  0.15374  0.77027  1.0000
  C   C79       1.0  0.34575  0.20301  0.97776  1.0000
  H   H45       1.0  0.25114  0.14864  0.69216  1.0000
  H   H46       1.0  0.35074  0.23449  0.06345  1.0000
  C   C80       1.0  0.29793  0.19468  0.87722  1.0000
  C   C81       1.0  0.53993  0.90447  0.66904  1.0000
  C   C82       1.0  0.55339  0.10731  0.79348  1.0000
  C   C83       1.0  0.51495  0.86301  0.57617  1.0000
  C   C84       1.0  0.53575  0.15619  0.80237  1.0000
  H   H47       1.0  0.53413  0.83702  0.50599  1.0000
  H   H48       1.0  0.56003  0.18721  0.80099  1.0000
  N   N24       1.0  0.08457  0.49571  0.73435  1.0000
  C   C85       1.0  0.11486  0.45578  0.75998  1.0000
  C   C86       1.0  0.11939  0.53267  0.73914  1.0000
  C   C87       1.0  0.17034  0.46780  0.77935  1.0000
  C   C88       1.0  0.17323  0.51580  0.77054  1.0000
  H   H49       1.0  0.20262  0.44329  0.80020  1.0000
  H   H50       1.0  0.20839  0.53756  0.78617  1.0000
  C   C89       1.0  0.59419  0.91591  0.70387  1.0000
  C   C90       1.0  0.60478  0.09088  0.78911  1.0000
  C   C91       1.0  0.62947  0.87416  0.69285  1.0000
  C   C92       1.0  0.67553  0.87472  0.63061  1.0000
  C   C93       1.0  0.61790  0.83207  0.75407  1.0000
  H   H51       1.0  0.68391  0.90548  0.57475  1.0000
  H   H52       1.0  0.58314  0.83112  0.80520  1.0000
  C   C94       1.0  0.70977  0.83608  0.63546  1.0000
  C   C95       1.0  0.65179  0.79330  0.76049  1.0000
  H   H53       1.0  0.74472  0.83683  0.58526  1.0000
  H   H54       1.0  0.64436  0.76240  0.81712  1.0000
  C   C96       1.0  0.69788  0.79585  0.70257  1.0000
  N   N25       1.0  0.26859  0.71865  0.71877  1.0000
  O   O13       1.0  0.31262  0.70212  0.69630  1.0000
  N   N26       1.0  0.00934  0.57372  0.69790  1.0000
  H   H55       1.0  0.00787  0.53737  0.70075  1.0000
  C   C97       1.0  0.96657  0.60382  0.68915  1.0000
  C   C98       1.0  0.98683  0.65164  0.69709  1.0000
  H   H56       1.0  0.96388  0.68402  0.69860  1.0000
  C   C99       1.0  0.91337  0.58997  0.66623  1.0000
  C   C100      1.0  0.87387  0.62896  0.65850  1.0000
  C   C101      1.0  0.87488  0.66648  0.56638  1.0000
  C   C102      1.0  0.83351  0.62927  0.74461  1.0000
  H   H57       1.0  0.90429  0.66633  0.49442  1.0000
  H   H58       1.0  0.83248  0.60147  0.81960  1.0000
  C   C103      1.0  0.83737  0.70230  0.55904  1.0000
  C   C104      1.0  0.79544  0.66485  0.73887  1.0000
  H   H59       1.0  0.83698  0.72987  0.48248  1.0000
  H   H60       1.0  0.76512  0.66455  0.80749  1.0000
  C   C105      1.0  0.79762  0.70125  0.64531  1.0000
  C   C106      1.0  0.05497  0.59972  0.70663  1.0000
  C   C107      1.0  0.03971  0.64895  0.70062  1.0000
  H   H61       1.0  0.06571  0.67870  0.69962  1.0000
  C   C108      1.0  0.10636  0.58142  0.72326  1.0000
  N   N27       1.0  0.74252  0.27935  0.70748  1.0000
  O   O14       1.0  0.69530  0.29291  0.67468  1.0000
  N   N28       1.0  0.58461  0.00377  0.76198  1.0000
  C   C109      1.0  0.61456  0.96294  0.75438  1.0000
  C   C110      1.0  0.61934  0.04172  0.78681  1.0000
  C   C111      1.0  0.67013  0.97564  0.78770  1.0000
  C   C112      1.0  0.67305  0.02454  0.80127  1.0000
  H   H62       1.0  0.70247  0.95090  0.79802  1.0000
  H   H63       1.0  0.70823  0.04635  0.81944  1.0000
  N   N29       1.0  0.75692  0.73656  0.61790  1.0000
  O   O15       1.0  0.74243  0.74787  0.48212  1.0000
  N   N30       1.0  0.25330  0.26510  0.80546  1.0000
  O   O16       1.0  0.28713  0.27180  0.72301  1.0000
  N   N31       1.0  0.00011  0.42408  0.71973  1.0000
  H   H64       1.0  0.00131  0.45857  0.69360  1.0000
  C   C113      1.0  0.04343  0.39645  0.76207  1.0000
  C   C114      1.0  0.02451  0.35237  0.79992  1.0000
  H   H65       1.0  0.04933  0.32353  0.84055  1.0000
  C   C115      1.0  0.09628  0.40938  0.77180  1.0000
  C   C116      1.0  0.13484  0.36988  0.79299  1.0000
  C   C117      1.0  0.12933  0.32867  0.68420  1.0000
  C   C118      1.0  0.17785  0.37305  0.91584  1.0000
  H   H66       1.0  0.09612  0.32606  0.58931  1.0000
  H   H67       1.0  0.18127  0.40365  0.00464  1.0000
  C   C119      1.0  0.16692  0.29277  0.69116  1.0000
  C   C120      1.0  0.21584  0.33742  0.92517  1.0000
  H   H68       1.0  0.16450  0.26241  0.60165  1.0000
  H   H69       1.0  0.24917  0.33945  0.01991  1.0000
  C   C121      1.0  0.21025  0.29836  0.81057  1.0000
  C   C122      1.0  0.95488  0.39966  0.72637  1.0000
  C   C123      1.0  0.97080  0.35446  0.77960  1.0000
  H   H70       1.0  0.94435  0.32774  0.80220  1.0000
  N   N32       1.0  0.43142  0.00360  0.80124  1.0000
  C   C124      1.0  0.40597  0.04335  0.85348  1.0000
  C   C125      1.0  0.40231  0.96487  0.82232  1.0000
  C   C126      1.0  0.36153  0.02967  0.91815  1.0000
  C   C127      1.0  0.36024  0.98074  0.90340  1.0000
  H   H71       1.0  0.33614  0.05411  0.97219  1.0000
  H   H72       1.0  0.33468  0.95820  0.94854  1.0000
  C   C128      1.0  0.90321  0.41639  0.68835  1.0000
  C   C129      1.0  0.85599  0.32159  0.59811  1.0000
  C   C130      1.0  0.85940  0.37026  0.65637  1.0000
  C  Sn1       1.0  0.82421  0.38979  0.74716  1.0000
  C  Sn2       1.0  0.78493  0.35996  0.78009  1.0000
  C   C131      1.0  0.78186  0.31130  0.72135  1.0000
  C   C132      1.0  0.81727  0.29213  0.63058  1.0000
  H   H73       1.0  0.88340  0.30675  0.52795  1.0000
  O  Te1       1.0  0.82816  0.43849  0.80439  1.0000
  O  Te2       1.0  0.74927  0.37854  0.87057  1.0000
  H   H74       1.0  0.81464  0.25444  0.58557  1.0000
  Mg  Mg1       1.0  0.77052  0.44710  0.92215  1.0000
  C   C133      1.0  0.67795  0.87527  0.08892  1.0000
  C   C134      1.0  0.63231  0.87605  0.15082  1.0000
  C  Sn3       1.0  0.62328  0.84089  0.24221  1.0000
  C  Sn4       1.0  0.66071  0.80433  0.27202  1.0000
  C   C135      1.0  0.70627  0.80389  0.20965  1.0000
  C   C136      1.0  0.71491  0.83924  0.11832  1.0000
  H   H75       1.0  0.68465  0.90264  0.01832  1.0000
  O  Te3       1.0  0.57746  0.84219  0.30309  1.0000
  O  Te4       1.0  0.65268  0.76876  0.36302  1.0000
  H   H76       1.0  0.75027  0.83864  0.07049  1.0000
  Mg  Mg2       1.0  0.58418  0.78582  0.42012  1.0000
  C   C137      1.0  0.36671  0.79646  0.75482  1.0000
  C   C138      1.0  0.31230  0.79756  0.74148  1.0000
  C  Sn5       1.0  0.28575  0.84102  0.73059  1.0000
  C  Sn6       1.0  0.31432  0.88411  0.73311  1.0000
  C   C139      1.0  0.36874  0.88263  0.74638  1.0000
  C   C140      1.0  0.39491  0.83895  0.75725  1.0000
  H   H77       1.0  0.38696  0.76266  0.76314  1.0000
  O  Te5       1.0  0.23138  0.84148  0.71738  1.0000
  O  Te6       1.0  0.28877  0.92804  0.72236  1.0000
  H   H78       1.0  0.43703  0.83810  0.76748  1.0000
  Mg  Mg3       1.0  0.21425  0.91021  0.70617  1.0000
  C   C141      1.0  0.72475  0.16020  0.89661  1.0000
  C   C142      1.0  0.72306  0.19078  0.78268  1.0000
  C  Sn7       1.0  0.67855  0.19181  0.66785  1.0000
  C  Sn8       1.0  0.63498  0.16163  0.66740  1.0000
  C   C143      1.0  0.63705  0.13120  0.78195  1.0000
  C   C144      1.0  0.68179  0.13044  0.89629  1.0000
  H   H79       1.0  0.75935  0.15963  0.98513  1.0000
  O  Te7       1.0  0.67752  0.22256  0.55485  1.0000
  O  Te8       1.0  0.59000  0.16196  0.55402  1.0000
  H   H80       1.0  0.68307  0.10679  0.98454  1.0000
  Mg  Mg4       1.0  0.60738  0.21006  0.42460  1.0000
  C   C145      1.0  0.15825  0.67312  0.83666  1.0000
  C   C146      1.0  0.14948  0.62759  0.75286  1.0000
  C  Sn9       1.0  0.18291  0.61011  0.65364  1.0000
  C  Sn10      1.0  0.22588  0.63881  0.63831  1.0000
  C   C147      1.0  0.23433  0.68430  0.72273  1.0000
  C   C148      1.0  0.20063  0.70145  0.82165  1.0000
  H   H81       1.0  0.13219  0.68638  0.91326  1.0000
  O  Te9       1.0  0.17357  0.56455  0.57073  1.0000
  O  Te10      1.0  0.25990  0.62221  0.54001  1.0000
  H   H82       1.0  0.20745  0.73669  0.88659  1.0000
  Mg  Mg5       1.0  0.23089  0.55774  0.45143  1.0000
  C   C149      1.0  0.31699  0.80816  0.10669  1.0000
  C   C150      1.0  0.29363  0.80092  0.23144  1.0000
  C  Sn11      1.0  0.30065  0.83474  0.36216  1.0000
  C  Sn12      1.0  0.33164  0.87657  0.36773  1.0000
  C   C151      1.0  0.35481  0.88349  0.24227  1.0000
  C   C152      1.0  0.34754  0.84941  0.11205  1.0000
  H   H83       1.0  0.31135  0.78180  0.00590  1.0000
  O  Te11      1.0  0.27704  0.82694  0.48581  1.0000
  O  Te12      1.0  0.33928  0.91097  0.49692  1.0000
  H   H84       1.0  0.36561  0.85504  0.01544  1.0000
  Mg  Mg6       1.0  0.29902  0.88420  0.63637  1.0000
  C   C153      1.0  0.85114  0.31782  0.12063  1.0000
  C   C154      1.0  0.85491  0.36651  0.17865  1.0000
  C  Sn13      1.0  0.81806  0.38699  0.26200  1.0000
  C  Sn14      1.0  0.77671  0.35811  0.28758  1.0000
  C   C155      1.0  0.77331  0.30943  0.22915  1.0000
  C   C156      1.0  0.81038  0.28930  0.14586  1.0000
  H   H85       1.0  0.87984  0.30224  0.05627  1.0000
  O  Te13      1.0  0.82240  0.43570  0.31910  1.0000
  O  Te14      1.0  0.73936  0.37766  0.37053  1.0000
  H   H86       1.0  0.80747  0.25160  0.10104  1.0000
  Mg  Mg7       1.0  0.76194  0.44582  0.42510  1.0000
  C   C157      1.0  0.79467  0.61983  0.26289  1.0000
  C   C158      1.0  0.84110  0.61852  0.20481  1.0000
  C  Sn15      1.0  0.85416  0.65613  0.12827  1.0000
  C  Sn16      1.0  0.82004  0.69575  0.10976  1.0000
  C   C159      1.0  0.77370  0.69674  0.16838  1.0000
  C   C160      1.0  0.76101  0.65891  0.24474  1.0000
  H   H87       1.0  0.78486  0.59057  0.32205  1.0000
  O  Te15      1.0  0.90068  0.65424  0.07090  1.0000
  O  Te16      1.0  0.83214  0.73384  0.03379  1.0000
  H   H88       1.0  0.72508  0.65995  0.28978  1.0000
  Mg  Mg8       1.0  0.96346  0.75165  0.97585  1.0000
