data_image0
_chemical_formula_structural       NONONONON2H2C4H2NC4H2C6H2NC4H2C2NONHC2HC3HCNONC4H2NONONHC2HC3HNC4H2CNONONONON2H2C4H2NC4H2C6H2NC4H2C2NONHC2HC3HCNONC4H2NONONHC2HC3HNC4H2C3Sn2C2HTe2HMgC2Sn2C2HTe2HMgC2Sn2C2HTe2HMgC2Sn2C2HTe2HMgC2Sn2C2HTe2HMgC2Sn2C2HTe2HMgC2Sn2C2HTe2HMgC2Sn2C2HTe2HMgC2Sn2C2HTe2HMgC2Sn2C2HTe2HMgC2Sn2C2HTe2HMgC2Sn2C2HTe2HMgC2Sn2C2HTe2HMgC2Sn2C2HTe2HMgC2Sn2C2HTe2HMgC2Sn2C2HTe2HMg
_chemical_formula_sum              "N32 O16 H72 C144 Sn32 Te32 Mg16"
_cell_length_a       25.9951
_cell_length_b       27.9986
_cell_length_c       8.9115
_cell_angle_alpha    96.7584
_cell_angle_beta     100.731
_cell_angle_gamma    89.4224

_symmetry_space_group_name_H-M    'P1'
_space_group_IT_number       1

loop_
  _space_group_symop_operation_xyz
  'x, y, z'

loop_
  _atom_site_type_symbol
  _atom_site_label
  _atom_site_symmetry_multiplicity
  _atom_site_fract_x
  _atom_site_fract_y
  _atom_site_fract_z
  _atom_site_occupancy
  N   N1        1.0  0.74490  0.23475  0.25221  1.0000
  O   O1        1.0  0.79266  0.22309  0.29516  1.0000
  N   N2        1.0  0.24300  0.77489  0.27929  1.0000
  O   O2        1.0  0.20731  0.79299  0.34827  1.0000
  N   N3        1.0  0.24584  0.23184  0.36396  1.0000
  O   O3        1.0  0.20358  0.21924  0.40291  1.0000
  N   N4        1.0  0.74408  0.77200  0.19167  1.0000
  O   O4        1.0  0.79102  0.78818  0.22665  1.0000
  N   N5        1.0  0.49780  0.07890  0.28953  1.0000
  N   N6        1.0  0.49099  0.92697  0.21019  1.0000
  H   H1        1.0  0.49801  0.04212  0.27297  1.0000
  H   H2        1.0  0.49148  0.96322  0.24357  1.0000
  C   C1        1.0  0.45547  0.10683  0.31547  1.0000
  C   C2        1.0  0.44734  0.89804  0.19912  1.0000
  C   C3        1.0  0.47259  0.15595  0.32951  1.0000
  C   C4        1.0  0.46247  0.84999  0.15305  1.0000
  H   H3        1.0  0.44837  0.18678  0.34993  1.0000
  H   H4        1.0  0.43745  0.81848  0.13499  1.0000
  N   N7        1.0  0.91461  0.50002  0.22200  1.0000
  C   C5        1.0  0.88238  0.53727  0.18121  1.0000
  C   C6        1.0  0.88319  0.45963  0.18586  1.0000
  C   C7        1.0  0.83023  0.51965  0.10638  1.0000
  C   C8        1.0  0.83056  0.47125  0.11133  1.0000
  H   H5        1.0  0.79839  0.54115  0.05508  1.0000
  H   H6        1.0  0.79882  0.44576  0.06707  1.0000
  C   C9        1.0  0.40523  0.09025  0.32410  1.0000
  C   C10       1.0  0.39875  0.91385  0.23422  1.0000
  C   C11       1.0  0.53314  0.89972  0.17913  1.0000
  C   C12       1.0  0.54042  0.10755  0.28620  1.0000
  C   C13       1.0  0.51398  0.85124  0.13700  1.0000
  C   C14       1.0  0.52425  0.15639  0.31429  1.0000
  H   H7        1.0  0.53706  0.82123  0.10056  1.0000
  H   H8        1.0  0.54910  0.18768  0.32211  1.0000
  N   N8        1.0  0.07269  0.50194  0.28706  1.0000
  C   C15       1.0  0.10536  0.46295  0.29601  1.0000
  C   C16       1.0  0.10456  0.54071  0.28601  1.0000
  C   C17       1.0  0.15917  0.47732  0.29713  1.0000
  C   C18       1.0  0.15894  0.52575  0.29454  1.0000
  H   H9        1.0  0.19251  0.45380  0.30035  1.0000
  H   H10       1.0  0.19237  0.54880  0.29812  1.0000
  C   C19       1.0  0.58558  0.91537  0.19472  1.0000
  C   C20       1.0  0.59047  0.09140  0.26519  1.0000
  N   N9        1.0  0.24552  0.72680  0.23552  1.0000
  O   O5        1.0  0.28164  0.70971  0.16629  1.0000
  N   N10       1.0  0.99283  0.57673  0.26406  1.0000
  H   H11       1.0  0.99306  0.54001  0.25669  1.0000
  C   C21       1.0  0.94821  0.60437  0.25381  1.0000
  C   C22       1.0  0.96575  0.65353  0.27558  1.0000
  H   H12       1.0  0.94087  0.68461  0.28033  1.0000
  C   C23       1.0  0.89621  0.58672  0.21117  1.0000
  C   C24       1.0  0.03687  0.60539  0.27973  1.0000
  C   C25       1.0  0.01907  0.65405  0.28500  1.0000
  H   H13       1.0  0.04376  0.68544  0.29396  1.0000
  C   C26       1.0  0.08864  0.58924  0.28301  1.0000
  N   N11       1.0  0.73295  0.27931  0.21159  1.0000
  O   O6        1.0  0.68655  0.29532  0.18886  1.0000
  N   N12       1.0  0.57184  0.00364  0.23482  1.0000
  C   C27       1.0  0.60302  0.96388  0.22360  1.0000
  C   C28       1.0  0.60496  0.04249  0.24727  1.0000
  C   C29       1.0  0.65764  0.97819  0.23639  1.0000
  C   C30       1.0  0.65836  0.02686  0.24271  1.0000
  H   H14       1.0  0.69088  0.95463  0.23952  1.0000
  H   H15       1.0  0.69196  0.04950  0.24506  1.0000
  N   N13       1.0  0.73201  0.72477  0.16432  1.0000
  O   O7        1.0  0.68477  0.70949  0.13410  1.0000
  N   N14       1.0  0.25290  0.27542  0.32323  1.0000
  O   O8        1.0  0.29448  0.28791  0.28033  1.0000
  N   N15       1.0  0.99425  0.42558  0.26384  1.0000
  H   H16       1.0  0.99394  0.46096  0.24556  1.0000
  C   C31       1.0  0.03894  0.39920  0.29968  1.0000
  C   C32       1.0  0.02229  0.35292  0.32736  1.0000
  H   H17       1.0  0.04837  0.32393  0.35920  1.0000
  C   C33       1.0  0.09058  0.41510  0.30549  1.0000
  C   C34       1.0  0.95029  0.39820  0.26238  1.0000
  C   C35       1.0  0.96847  0.35247  0.30628  1.0000
  H   H18       1.0  0.94345  0.32323  0.31973  1.0000
  N   N16       1.0  0.41936  0.00171  0.28254  1.0000
  C   C36       1.0  0.38958  0.04146  0.31145  1.0000
  C   C37       1.0  0.38641  0.96280  0.27153  1.0000
  C   C38       1.0  0.33675  0.02722  0.32273  1.0000
  C   C39       1.0  0.33437  0.97847  0.29434  1.0000
  H   H19       1.0  0.30572  0.05119  0.34742  1.0000
  H   H20       1.0  0.30054  0.95559  0.28753  1.0000
  C   C40       1.0  0.89821  0.41271  0.21841  1.0000
  N   N17       1.0  0.75618  0.23607  0.75682  1.0000
  O   O9        1.0  0.80428  0.22629  0.80325  1.0000
  N   N18       1.0  0.25780  0.76675  0.72713  1.0000
  O   O10       1.0  0.21104  0.78101  0.72752  1.0000
  N   N19       1.0  0.25525  0.22810  0.88804  1.0000
  O   O11       1.0  0.22095  0.22133  0.96912  1.0000
  N   N20       1.0  0.73572  0.75823  0.73462  1.0000
  O   O12       1.0  0.74744  0.74726  0.87157  1.0000
  N   N21       1.0  0.51094  0.07932  0.80338  1.0000
  N   N22       1.0  0.50152  0.92975  0.72984  1.0000
  H   H21       1.0  0.51141  0.04254  0.79280  1.0000
  H   H22       1.0  0.50639  0.96258  0.79412  1.0000
  C   C41       1.0  0.46794  0.10761  0.82008  1.0000
  C   C42       1.0  0.45465  0.90466  0.69189  1.0000
  C   C43       1.0  0.48392  0.15628  0.81598  1.0000
  C   C44       1.0  0.46281  0.86338  0.58870  1.0000
  H   H23       1.0  0.45910  0.18734  0.82559  1.0000
  H   H24       1.0  0.43242  0.83819  0.52894  1.0000
  N   N23       1.0  0.92497  0.50225  0.68165  1.0000
  C   C45       1.0  0.89492  0.54171  0.65029  1.0000
  C   C46       1.0  0.89022  0.46413  0.65942  1.0000
  C   C47       1.0  0.83991  0.52788  0.59881  1.0000
  C   C48       1.0  0.83700  0.47967  0.60536  1.0000
  H   H25       1.0  0.80826  0.55162  0.56096  1.0000
  H   H26       1.0  0.80243  0.45678  0.57582  1.0000
  C   C49       1.0  0.41941  0.09182  0.84576  1.0000
  C   C50       1.0  0.40996  0.91719  0.75795  1.0000
  C   C51       1.0  0.53993  0.90447  0.66904  1.0000
  C   C52       1.0  0.55339  0.10731  0.79348  1.0000
  C   C53       1.0  0.51495  0.86301  0.57617  1.0000
  C   C54       1.0  0.53575  0.15619  0.80237  1.0000
  H   H27       1.0  0.53413  0.83702  0.50599  1.0000
  H   H28       1.0  0.56003  0.18721  0.80099  1.0000
  N   N24       1.0  0.08457  0.49571  0.73435  1.0000
  C   C55       1.0  0.11486  0.45578  0.75998  1.0000
  C   C56       1.0  0.11939  0.53267  0.73914  1.0000
  C   C57       1.0  0.17034  0.46780  0.77935  1.0000
  C   C58       1.0  0.17323  0.51580  0.77054  1.0000
  H   H29       1.0  0.20262  0.44329  0.80020  1.0000
  H   H30       1.0  0.20839  0.53756  0.78617  1.0000
  C   C59       1.0  0.59419  0.91591  0.70387  1.0000
  C   C60       1.0  0.60478  0.09088  0.78911  1.0000
  N   N25       1.0  0.26859  0.71865  0.71877  1.0000
  O   O13       1.0  0.31262  0.70212  0.69630  1.0000
  N   N26       1.0  0.00934  0.57372  0.69790  1.0000
  H   H31       1.0  0.00787  0.53737  0.70075  1.0000
  C   C61       1.0  0.96657  0.60382  0.68915  1.0000
  C   C62       1.0  0.98683  0.65164  0.69709  1.0000
  H   H32       1.0  0.96388  0.68402  0.69860  1.0000
  C   C63       1.0  0.91337  0.58997  0.66623  1.0000
  C   C64       1.0  0.05497  0.59972  0.70663  1.0000
  C   C65       1.0  0.03971  0.64895  0.70062  1.0000
  H   H33       1.0  0.06571  0.67870  0.69962  1.0000
  C   C66       1.0  0.10636  0.58142  0.72326  1.0000
  N   N27       1.0  0.74252  0.27935  0.70748  1.0000
  O   O14       1.0  0.69530  0.29291  0.67468  1.0000
  N   N28       1.0  0.58461  0.00377  0.76198  1.0000
  C   C67       1.0  0.61456  0.96294  0.75438  1.0000
  C   C68       1.0  0.61934  0.04172  0.78681  1.0000
  C   C69       1.0  0.67013  0.97564  0.78770  1.0000
  C   C70       1.0  0.67305  0.02454  0.80127  1.0000
  H   H34       1.0  0.70247  0.95090  0.79802  1.0000
  H   H35       1.0  0.70823  0.04635  0.81944  1.0000
  N   N29       1.0  0.75692  0.73656  0.61790  1.0000
  O   O15       1.0  0.74243  0.74787  0.48212  1.0000
  N   N30       1.0  0.25330  0.26510  0.80546  1.0000
  O   O16       1.0  0.28713  0.27180  0.72301  1.0000
  N   N31       1.0  0.00011  0.42408  0.71973  1.0000
  H   H36       1.0  0.00131  0.45857  0.69360  1.0000
  C   C71       1.0  0.04343  0.39645  0.76207  1.0000
  C   C72       1.0  0.02451  0.35237  0.79992  1.0000
  H   H37       1.0  0.04933  0.32353  0.84055  1.0000
  C   C73       1.0  0.09628  0.40938  0.77180  1.0000
  C   C74       1.0  0.95488  0.39966  0.72637  1.0000
  C   C75       1.0  0.97080  0.35446  0.77960  1.0000
  H   H38       1.0  0.94435  0.32774  0.80220  1.0000
  N   N32       1.0  0.43142  0.00360  0.80124  1.0000
  C   C76       1.0  0.40597  0.04335  0.85348  1.0000
  C   C77       1.0  0.40231  0.96487  0.82232  1.0000
  C   C78       1.0  0.36153  0.02967  0.91815  1.0000
  C   C79       1.0  0.36024  0.98074  0.90340  1.0000
  H   H39       1.0  0.33614  0.05411  0.97219  1.0000
  H   H40       1.0  0.33468  0.95820  0.94854  1.0000
  C   C80       1.0  0.90321  0.41639  0.68835  1.0000
  C   C81       1.0  0.30475  0.12999  0.21235  1.0000
  C   C82       1.0  0.35416  0.12766  0.30511  1.0000
  C  Sn1       1.0  0.36904  0.16123  0.43470  1.0000
  C  Sn2       1.0  0.33371  0.19775  0.47184  1.0000
  C   C83       1.0  0.28435  0.19975  0.37836  1.0000
  C   C84       1.0  0.26987  0.16599  0.24892  1.0000
  H   H41       1.0  0.29352  0.10386  0.11225  1.0000
  O  Te1       1.0  0.41856  0.15840  0.52611  1.0000
  O  Te2       1.0  0.34757  0.23174  0.60072  1.0000
  H   H42       1.0  0.23160  0.16778  0.17718  1.0000
  Mg  Mg1       1.0  0.41941  0.21295  0.68971  1.0000
  C   C85       1.0  0.33930  0.82597  0.10726  1.0000
  C   C86       1.0  0.35163  0.86974  0.19950  1.0000
  C  Sn3       1.0  0.33114  0.88050  0.33361  1.0000
  C  Sn4       1.0  0.29770  0.84674  0.37587  1.0000
  C   C87       1.0  0.28563  0.80304  0.28287  1.0000
  C   C88       1.0  0.30634  0.79265  0.14890  1.0000
  H   H43       1.0  0.35535  0.81791  0.00365  1.0000
  O  Te3       1.0  0.34384  0.92441  0.42442  1.0000
  O  Te4       1.0  0.27669  0.85657  0.50933  1.0000
  H   H44       1.0  0.29682  0.75874  0.07756  1.0000
  Mg  Mg2       1.0  0.30549  0.92131  0.59545  1.0000
  C   C89       1.0  0.65070  0.80701  0.28561  1.0000
  C   C90       1.0  0.68866  0.79982  0.19314  1.0000
  C  Sn5       1.0  0.69661  0.83408  0.09746  1.0000
  C  Sn6       1.0  0.66595  0.87629  0.09458  1.0000
  C   C91       1.0  0.62810  0.88316  0.18761  1.0000
  C   C92       1.0  0.62045  0.84864  0.28289  1.0000
  H   H45       1.0  0.64480  0.78032  0.35940  1.0000
  O  Te5       1.0  0.73469  0.82633  0.00577  1.0000
  O  Te6       1.0  0.67310  0.91112  0.00007  1.0000
  H   H46       1.0  0.59109  0.85423  0.35455  1.0000
  Mg  Mg3       1.0  0.79324  0.92111  0.89611  1.0000
  C   C93       1.0  0.62084  0.17688  0.15157  1.0000
  C   C94       1.0  0.62765  0.13591  0.22853  1.0000
  C  Sn7       1.0  0.67433  0.12939  0.33023  1.0000
  C  Sn8       1.0  0.71486  0.16459  0.35513  1.0000
  C   C95       1.0  0.70764  0.20547  0.27766  1.0000
  C   C96       1.0  0.66078  0.21163  0.17612  1.0000
  H   H47       1.0  0.58457  0.18166  0.07307  1.0000
  O  Te7       1.0  0.68050  0.08824  0.40613  1.0000
  O  Te8       1.0  0.76190  0.15898  0.45619  1.0000
  H   H48       1.0  0.65550  0.24336  0.11662  1.0000
  Mg  Mg4       1.0  0.75172  0.09680  0.53260  1.0000
  C   C97       1.0  0.79467  0.61983  0.26289  1.0000
  C   C98       1.0  0.84110  0.61852  0.20481  1.0000
  C  Sn9       1.0  0.85416  0.65613  0.12827  1.0000
  C  Sn10      1.0  0.82004  0.69575  0.10976  1.0000
  C   C99       1.0  0.77370  0.69674  0.16838  1.0000
  C   C100      1.0  0.76101  0.65891  0.24474  1.0000
  H   H49       1.0  0.78486  0.59057  0.32205  1.0000
  O  Te9       1.0  0.90068  0.65424  0.07090  1.0000
  O  Te10      1.0  0.83214  0.73384  0.03379  1.0000
  H   H50       1.0  0.72508  0.65995  0.28978  1.0000
  Mg  Mg5       1.0  0.96346  0.75165  0.97585  1.0000
  C   C101      1.0  0.19462  0.63888  0.14875  1.0000
  C   C102      1.0  0.20595  0.68387  0.23431  1.0000
  C  Sn11      1.0  0.17834  0.69977  0.35075  1.0000
  C  Sn12      1.0  0.13869  0.66997  0.38187  1.0000
  C   C103      1.0  0.12768  0.62501  0.29569  1.0000
  C   C104      1.0  0.15554  0.60947  0.17940  1.0000
  H   H51       1.0  0.21619  0.62684  0.05883  1.0000
  O  Te11      1.0  0.19014  0.74483  0.43510  1.0000
  O  Te12      1.0  0.11051  0.68496  0.49763  1.0000
  H   H52       1.0  0.14678  0.57461  0.11324  1.0000
  Mg  Mg6       1.0  0.14092  0.74933  0.58109  1.0000
  C   C105      1.0  0.19001  0.37896  0.45185  1.0000
  C   C106      1.0  0.14404  0.38130  0.34316  1.0000
  C  Sn13      1.0  0.13052  0.34403  0.22370  1.0000
  C  Sn14      1.0  0.16372  0.30372  0.21319  1.0000
  C   C107      1.0  0.20961  0.30170  0.32257  1.0000
  C   C108      1.0  0.22276  0.33920  0.44160  1.0000
  H   H53       1.0  0.20018  0.40796  0.54400  1.0000
  O  Te13      1.0  0.08446  0.34696  0.11605  1.0000
  O  Te14      1.0  0.15114  0.26596  0.09501  1.0000
  H   H54       1.0  0.25834  0.33736  0.52580  1.0000
  Mg  Mg7       1.0  0.14761  0.32335  0.97601  1.0000
  C   C109      1.0  0.78033  0.36921  0.30068  1.0000
  C   C110      1.0  0.77112  0.32362  0.21755  1.0000
  C  Sn15      1.0  0.80726  0.30354  0.13095  1.0000
  C  Sn16      1.0  0.85346  0.32966  0.12777  1.0000
  C   C111      1.0  0.86233  0.37523  0.21142  1.0000
  C   C112      1.0  0.82589  0.39499  0.29765  1.0000
  H   H55       1.0  0.75215  0.38450  0.36747  1.0000
  O  Te15      1.0  0.79744  0.25795  0.04853  1.0000
  O  Te16      1.0  0.89025  0.31043  0.04223  1.0000
  H   H56       1.0  0.83306  0.43028  0.36208  1.0000
  Mg  Mg8       1.0  0.92273  0.28389  0.94903  1.0000
  C   C113      1.0  0.35893  0.19875  0.99553  1.0000
  C   C114      1.0  0.30998  0.19990  0.89949  1.0000
  C  Sn17      1.0  0.29397  0.16230  0.78287  1.0000
  C  Sn18      1.0  0.32766  0.12285  0.76231  1.0000
  C   C115      1.0  0.37655  0.12202  0.85907  1.0000
  C   C116      1.0  0.39219  0.15985  0.97538  1.0000
  H   H57       1.0  0.30760  0.19113  0.08558  1.0000
  O  Te17      1.0  0.24494  0.16403  0.68790  1.0000
  O  Te18      1.0  0.31263  0.08479  0.64669  1.0000
  H   H58       1.0  0.36664  0.12207  0.04978  1.0000
  Mg  Mg9       1.0  0.24206  0.10358  0.54652  1.0000
  C   C117      1.0  0.38561  0.81751  0.76728  1.0000
  C   C118      1.0  0.37620  0.86638  0.75743  1.0000
  C  Sn19      1.0  0.32510  0.88371  0.74011  1.0000
  C  Sn20      1.0  0.28272  0.85143  0.73260  1.0000
  C   C119      1.0  0.29255  0.80262  0.74268  1.0000
  C   C120      1.0  0.34384  0.78566  0.75995  1.0000
  H   H59       1.0  0.42529  0.80439  0.78073  1.0000
  O  Te19      1.0  0.31639  0.93263  0.73040  1.0000
  O  Te20      1.0  0.23126  0.86779  0.71538  1.0000
  H   H60       1.0  0.35111  0.74783  0.76767  1.0000
  Mg  Mg10      1.0  0.23932  0.93764  0.70740  1.0000
  C   C121      1.0  0.68859  0.86981  0.62507  1.0000
  C   C122      1.0  0.63970  0.87412  0.66894  1.0000
  C  Sn21      1.0  0.62088  0.83786  0.74027  1.0000
  C  Sn22      1.0  0.65166  0.79657  0.76808  1.0000
  C   C123      1.0  0.70052  0.79262  0.72385  1.0000
  C   C124      1.0  0.71898  0.82911  0.65251  1.0000
  H   H61       1.0  0.70288  0.89806  0.56994  1.0000
  O  Te21      1.0  0.57195  0.84274  0.78331  1.0000
  O  Te22      1.0  0.63379  0.75980  0.83922  1.0000
  H   H62       1.0  0.75684  0.82577  0.61864  1.0000
  Mg  Mg11      1.0  0.56456  0.78297  0.87671  1.0000
  C   C125      1.0  0.65565  0.19014  0.64337  1.0000
  C   C126      1.0  0.70182  0.20513  0.74498  1.0000
  C  Sn23      1.0  0.72175  0.17894  0.86666  1.0000
  C  Sn24      1.0  0.69486  0.13697  0.88665  1.0000
  C   C127      1.0  0.64871  0.12225  0.78431  1.0000
  C   C128      1.0  0.62911  0.14874  0.66298  1.0000
  H   H63       1.0  0.64049  0.21061  0.54944  1.0000
  O  Te23      1.0  0.76792  0.19443  0.96715  1.0000
  O  Te24      1.0  0.65048  0.07325  0.00725  1.0000
  H   H64       1.0  0.59338  0.13711  0.58427  1.0000
  Mg  Mg12      1.0  0.71488  0.10889  0.11400  1.0000
  C   C129      1.0  0.80004  0.65307  0.75212  1.0000
  C   C130      1.0  0.79630  0.69401  0.67509  1.0000
  C  Sn25      1.0  0.83163  0.70162  0.57954  1.0000
  C  Sn26      1.0  0.87140  0.66754  0.56095  1.0000
  C   C131      1.0  0.87478  0.62668  0.63843  1.0000
  C   C132      1.0  0.83923  0.61942  0.73381  1.0000
  H   H65       1.0  0.77252  0.64744  0.82584  1.0000
  O  Te25      1.0  0.82735  0.74273  0.50347  1.0000
  O  Te26      1.0  0.90721  0.67425  0.46611  1.0000
  H   H66       1.0  0.84212  0.58770  0.79335  1.0000
  Mg  Mg13      1.0  0.88537  0.73591  0.38682  1.0000
  C   C133      1.0  0.20034  0.61030  0.62385  1.0000
  C   C134      1.0  0.16027  0.61219  0.70935  1.0000
  C  Sn27      1.0  0.15356  0.65353  0.80769  1.0000
  C  Sn28      1.0  0.18765  0.69366  0.82039  1.0000
  C   C135      1.0  0.22758  0.69142  0.73428  1.0000
  C   C136      1.0  0.23396  0.64987  0.63626  1.0000
  H   H67       1.0  0.20526  0.57816  0.54795  1.0000
  O  Te27      1.0  0.11335  0.65481  0.89232  1.0000
  O  Te28      1.0  0.18180  0.73543  0.91775  1.0000
  H   H68       1.0  0.26496  0.64843  0.57000  1.0000
  Mg  Mg14      1.0  0.05774  0.68294  0.00943  1.0000
  C   C137      1.0  0.13486  0.31777  0.66462  1.0000
  C   C138      1.0  0.13005  0.35752  0.77144  1.0000
  C  Sn29      1.0  0.16904  0.36818  0.90179  1.0000
  C  Sn30      1.0  0.21364  0.33843  0.92531  1.0000
  C   C139      1.0  0.21810  0.29876  0.81772  1.0000
  C   C140      1.0  0.17884  0.28841  0.68770  1.0000
  H   H69       1.0  0.10450  0.30977  0.56398  1.0000
  O  Te29      1.0  0.10017  0.37117  0.00739  1.0000
  O  Te30      1.0  0.18977  0.31140  0.05457  1.0000
  H   H70       1.0  0.18259  0.25764  0.60497  1.0000
  Mg  Mg15      1.0  0.16454  0.36977  0.16567  1.0000
  C   C141      1.0  0.85599  0.32159  0.59811  1.0000
  C   C142      1.0  0.85940  0.37026  0.65637  1.0000
  C  Sn31      1.0  0.82421  0.38979  0.74716  1.0000
  C  Sn32      1.0  0.78493  0.35996  0.78009  1.0000
  C   C143      1.0  0.78186  0.31130  0.72135  1.0000
  C   C144      1.0  0.81727  0.29213  0.63058  1.0000
  H   H71       1.0  0.88340  0.30675  0.52795  1.0000
  O  Te31      1.0  0.82816  0.43849  0.80439  1.0000
  O  Te32      1.0  0.74927  0.37854  0.87057  1.0000
  H   H72       1.0  0.81464  0.25444  0.58557  1.0000
  Mg  Mg16      1.0  0.77052  0.44710  0.92215  1.0000
