data_image0
_chemical_formula_structural       CNCNCNO3NCHNCHNCHCNCNCNO3NCHNCHNCHCNCNCNO3NCHNCHNCHCNCNCNO3NCHNCHNCHC2Sn2C2HTe2HMgC2Sn2C2HTe2HMgC2Sn2C2HTe2HMgC2Sn2C2HTe2HMgC2Sn2C2HTe2HMgC2Sn2C2HTe2HMgC2Sn2C2HTe2HMgC2Sn2C2HTe2HMgC2Sn2C2HTe2HMgC2Sn2C2HTe2HMgC2Sn2C2HTe2HMgC2Sn2C2HTe2HMgC2Sn2C2HTe2HMgC2Sn2C2HTe2HMgC2Sn2C2HTe2HMgC2Sn2C2HTe2HMgC2Sn2C2HTe2HMgC2Sn2C2HTe2HMg
_chemical_formula_sum              "C96 N24 O12 H48 Sn36 Te36 Mg18"
_cell_length_a       39.3411
_cell_length_b       39.5561
_cell_length_c       8.05387
_cell_angle_alpha    104.064
_cell_angle_beta     61.2205
_cell_angle_gamma    119.907

_symmetry_space_group_name_H-M    'P1'
_space_group_IT_number       1

loop_
  _space_group_symop_operation_xyz
  'x, y, z'

loop_
  _atom_site_type_symbol
  _atom_site_label
  _atom_site_symmetry_multiplicity
  _atom_site_fract_x
  _atom_site_fract_y
  _atom_site_fract_z
  _atom_site_occupancy
  C   C1        1.0  0.49600  0.46515  0.74278  1.0000
  N   N1        1.0  0.52986  0.49742  0.76036  1.0000
  C   C2        1.0  0.52969  0.53045  0.75113  1.0000
  N   N2        1.0  0.49938  0.53388  0.73122  1.0000
  C   C3        1.0  0.46775  0.49978  0.71833  1.0000
  N   N3        1.0  0.46416  0.46415  0.72076  1.0000
  O   O1        1.0  0.49754  0.43227  0.75057  1.0000
  O   O2        1.0  0.56143  0.56561  0.76162  1.0000
  O   O3        1.0  0.43444  0.49723  0.69764  1.0000
  N   N4        1.0  0.38092  0.60866  0.75762  1.0000
  C   C4        1.0  0.35231  0.60257  0.70270  1.0000
  H   H1        1.0  0.33625  0.57485  0.63930  1.0000
  N   N5        1.0  0.72315  0.60854  0.73134  1.0000
  C   C5        1.0  0.75164  0.64449  0.72546  1.0000
  H   H2        1.0  0.74670  0.66923  0.72067  1.0000
  N   N6        1.0  0.38614  0.27441  0.71047  1.0000
  C   C6        1.0  0.38644  0.24748  0.77317  1.0000
  H   H3        1.0  0.40616  0.25428  0.84882  1.0000
  C   C7        1.0  0.16918  0.86762  0.72506  1.0000
  N   N7        1.0  0.13474  0.83569  0.70950  1.0000
  C   C8        1.0  0.13456  0.80240  0.71716  1.0000
  N   N8        1.0  0.16487  0.79846  0.73444  1.0000
  C   C9        1.0  0.19689  0.83223  0.74700  1.0000
  N   N9        1.0  0.20095  0.86808  0.74550  1.0000
  O   O4        1.0  0.16827  0.90079  0.71664  1.0000
  O   O5        1.0  0.10259  0.76739  0.70658  1.0000
  O   O6        1.0  0.23014  0.83414  0.76602  1.0000
  N   N10       1.0  0.27526  0.71792  0.73177  1.0000
  C   C10       1.0  0.30622  0.72336  0.76880  1.0000
  H   H4        1.0  0.32687  0.75174  0.81153  1.0000
  N   N11       1.0  0.94145  0.72379  0.72996  1.0000
  C   C11       1.0  0.91302  0.68779  0.73625  1.0000
  H   H5        1.0  0.91815  0.66309  0.73999  1.0000
  N   N12       1.0  0.28134  0.05799  0.75455  1.0000
  C   C12       1.0  0.28183  0.08500  0.68842  1.0000
  H   H6        1.0  0.26244  0.07835  0.61133  1.0000
  C   C13       1.0  0.49836  0.46658  0.24113  1.0000
  N   N13       1.0  0.53295  0.49868  0.25431  1.0000
  C   C14       1.0  0.53246  0.53185  0.25065  1.0000
  N   N14       1.0  0.50150  0.53542  0.23757  1.0000
  C   C15       1.0  0.46918  0.50151  0.22870  1.0000
  N   N15       1.0  0.46549  0.46574  0.22848  1.0000
  O   O7        1.0  0.50040  0.43362  0.24278  1.0000
  O   O8        1.0  0.56419  0.56698  0.26259  1.0000
  O   O9        1.0  0.43528  0.49960  0.21544  1.0000
  N   N16       1.0  0.39298  0.61727  0.24047  1.0000
  C   C16       1.0  0.36147  0.61166  0.20715  1.0000
  H   H7        1.0  0.34036  0.58302  0.16871  1.0000
  N   N17       1.0  0.72555  0.60945  0.23317  1.0000
  C   C17       1.0  0.75213  0.64545  0.24355  1.0000
  H   H8        1.0  0.74452  0.66968  0.25957  1.0000
  N   N18       1.0  0.38717  0.27573  0.21952  1.0000
  C   C18       1.0  0.39183  0.24759  0.24626  1.0000
  H   H9        1.0  0.41843  0.25235  0.27571  1.0000
  C   C19       1.0  0.16939  0.86812  0.23020  1.0000
  N   N19       1.0  0.13539  0.83568  0.21511  1.0000
  C   C20       1.0  0.13621  0.80278  0.22025  1.0000
  N   N20       1.0  0.16689  0.79965  0.23862  1.0000
  C   C21       1.0  0.19846  0.83391  0.25111  1.0000
  N   N21       1.0  0.20188  0.86945  0.24806  1.0000
  O   O10       1.0  0.16709  0.90067  0.22370  1.0000
  O   O11       1.0  0.10482  0.76763  0.20613  1.0000
  O   O12       1.0  0.23187  0.83686  0.27302  1.0000
  N   N22       1.0  0.28459  0.72564  0.22790  1.0000
  C   C22       1.0  0.31444  0.73186  0.27495  1.0000
  H   H10       1.0  0.33262  0.76016  0.32790  1.0000
  N   N23       1.0  0.94413  0.72638  0.22979  1.0000
  C   C23       1.0  0.91734  0.69047  0.21903  1.0000
  H   H11       1.0  0.92478  0.66611  0.20204  1.0000
  N   N24       1.0  0.27823  0.05922  0.24708  1.0000
  C   C24       1.0  0.27424  0.08715  0.21395  1.0000
  H   H12       1.0  0.24834  0.08219  0.17885  1.0000
  C   C25       1.0  0.45061  0.57768  0.73964  1.0000
  C   C26       1.0  0.43159  0.53708  0.72207  1.0000
  C  Sn1       1.0  0.39231  0.51713  0.70619  1.0000
  C  Sn2       1.0  0.37178  0.53831  0.70792  1.0000
  C   C27       1.0  0.39108  0.57893  0.72542  1.0000
  C   C28       1.0  0.43038  0.59860  0.74129  1.0000
  H   H13       1.0  0.48102  0.59290  0.75181  1.0000
  O  Te1       1.0  0.37375  0.47655  0.68882  1.0000
  O  Te2       1.0  0.33252  0.51911  0.69221  1.0000
  H   H14       1.0  0.44511  0.63004  0.75476  1.0000
  Mg  Mg1       1.0  0.31997  0.46356  0.67158  1.0000
  C   C29       1.0  0.64244  0.62047  0.70623  1.0000
  C   C30       1.0  0.60810  0.58283  0.73925  1.0000
  C  Sn3       1.0  0.61140  0.55255  0.78051  1.0000
  C  Sn4       1.0  0.64982  0.56018  0.78882  1.0000
  C   C31       1.0  0.68398  0.59794  0.75571  1.0000
  C   C32       1.0  0.68034  0.62802  0.71447  1.0000
  H   H15       1.0  0.63961  0.64375  0.67443  1.0000
  O  Te3       1.0  0.57679  0.51512  0.81306  1.0000
  O  Te4       1.0  0.65397  0.53046  0.82984  1.0000
  H   H16       1.0  0.70692  0.65717  0.68904  1.0000
  Mg  Mg2       1.0  0.59793  0.48428  0.86358  1.0000
  C   C33       1.0  0.48045  0.35649  0.71606  1.0000
  C   C34       1.0  0.47297  0.38800  0.72403  1.0000
  C  Sn5       1.0  0.43330  0.38156  0.73908  1.0000
  C  Sn6       1.0  0.40056  0.34282  0.74630  1.0000
  C   C35       1.0  0.40835  0.31150  0.73837  1.0000
  C   C36       1.0  0.44818  0.31827  0.72325  1.0000
  H   H17       1.0  0.51125  0.36173  0.70448  1.0000
  O  Te5       1.0  0.42637  0.41337  0.74680  1.0000
  O  Te6       1.0  0.36061  0.33555  0.76140  1.0000
  H   H18       1.0  0.45395  0.29387  0.71721  1.0000
  Mg  Mg3       1.0  0.36661  0.38854  0.76714  1.0000
  C   C37       1.0  0.21492  0.75403  0.69993  1.0000
  C   C38       1.0  0.22945  0.79304  0.75795  1.0000
  C  Sn7       1.0  0.26494  0.81102  0.80249  1.0000
  C  Sn8       1.0  0.28622  0.78948  0.78850  1.0000
  C   C39       1.0  0.27146  0.75048  0.73020  1.0000
  C   C40       1.0  0.23590  0.73277  0.68603  1.0000
  H   H19       1.0  0.18743  0.74033  0.66566  1.0000
  O  Te7       1.0  0.27903  0.85001  0.86029  1.0000
  O  Te8       1.0  0.32178  0.80674  0.83210  1.0000
  H   H20       1.0  0.22468  0.70258  0.64100  1.0000
  Mg  Mg4       1.0  0.32886  0.86062  0.90438  1.0000
  C   C41       1.0  0.99993  0.70548  0.76355  1.0000
  C   C42       1.0  0.98209  0.72669  0.74636  1.0000
  C  Sn9       1.0  0.00754  0.76617  0.69842  1.0000
  C  Sn10      1.0  0.05165  0.78467  0.66716  1.0000
  C   C43       1.0  0.06920  0.76319  0.68458  1.0000
  C   C44       1.0  0.04344  0.72370  0.73267  1.0000
  H   H21       1.0  0.98001  0.67492  0.80066  1.0000
  O  Te9       1.0  0.98920  0.78693  0.68190  1.0000
  O  Te10      1.0  0.07782  0.82409  0.61902  1.0000
  H   H22       1.0  0.05727  0.70728  0.74585  1.0000
  Mg  Mg5       1.0  0.03800  0.84003  0.61343  1.0000
  C   C45       1.0  0.70282  0.99836  0.74831  1.0000
  C   C46       1.0  0.24181  0.01650  0.75422  1.0000
  C  Sn11      1.0  0.76345  0.99439  0.73652  1.0000
  C  Sn12      1.0  0.74298  0.95337  0.71242  1.0000
  C   C47       1.0  0.70267  0.93551  0.70655  1.0000
  C   C48       1.0  0.68261  0.95791  0.72447  1.0000
  H   H23       1.0  0.18599  0.01570  0.76206  1.0000
  O  Te11      1.0  0.30239  0.01297  0.74281  1.0000
  O  Te12      1.0  0.76258  0.93057  0.69431  1.0000
  H   H24       1.0  0.65142  0.94387  0.71976  1.0000
  Mg  Mg6       1.0  0.81747  0.96935  0.71183  1.0000
  C   C49       1.0  0.80854  0.62367  0.75711  1.0000
  C   C50       1.0  0.79299  0.64754  0.74507  1.0000
  C  Sn13      1.0  0.81939  0.68766  0.71770  1.0000
  C  Sn14      1.0  0.86215  0.70410  0.70209  1.0000
  C   C51       1.0  0.87741  0.67997  0.71419  1.0000
  C   C52       1.0  0.85071  0.63986  0.74166  1.0000
  H   H25       1.0  0.78789  0.59263  0.77825  1.0000
  O  Te13      1.0  0.80334  0.71110  0.70606  1.0000
  O  Te14      1.0  0.88923  0.74411  0.67463  1.0000
  H   H26       1.0  0.86276  0.62138  0.75085  1.0000
  Mg  Mg7       1.0  0.85261  0.76398  0.66797  1.0000
  C   C53       1.0  0.36718  0.68209  0.77235  1.0000
  C   C54       1.0  0.34556  0.64216  0.74156  1.0000
  C  Sn15      1.0  0.30902  0.62725  0.70700  1.0000
  C  Sn16      1.0  0.29393  0.65287  0.70322  1.0000
  C   C55       1.0  0.31580  0.69277  0.73406  1.0000
  C   C56       1.0  0.35232  0.70738  0.76857  1.0000
  H   H27       1.0  0.39545  0.69340  0.79895  1.0000
  O  Te15      1.0  0.28780  0.58727  0.67661  1.0000
  O  Te16      1.0  0.25749  0.63875  0.66894  1.0000
  H   H28       1.0  0.36907  0.73830  0.79228  1.0000
  Mg  Mg8       1.0  0.23958  0.58199  0.63573  1.0000
  C   C57       1.0  0.36492  0.16740  0.78657  1.0000
  C   C58       1.0  0.36437  0.19980  0.74940  1.0000
  C  Sn17      1.0  0.33319  0.19480  0.69608  1.0000
  C  Sn18      1.0  0.30202  0.15662  0.67984  1.0000
  C   C59       1.0  0.30283  0.12440  0.71746  1.0000
  C   C60       1.0  0.33418  0.12973  0.77065  1.0000
  H   H29       1.0  0.38916  0.17152  0.82782  1.0000
  O  Te17      1.0  0.33312  0.22749  0.65941  1.0000
  O  Te18      1.0  0.27049  0.15079  0.62687  1.0000
  H   H30       1.0  0.33458  0.10464  0.79953  1.0000
  Mg  Mg9       1.0  0.28369  0.20454  0.59169  1.0000
  C   C61       1.0  0.38683  0.52264  0.16447  1.0000
  C   C62       1.0  0.42085  0.52789  0.19814  1.0000
  C  Sn19      1.0  0.44540  0.56410  0.25818  1.0000
  C  Sn20      1.0  0.43562  0.59559  0.28494  1.0000
  C   C63       1.0  0.40150  0.59003  0.25100  1.0000
  C   C64       1.0  0.37715  0.55368  0.19090  1.0000
  H   H31       1.0  0.36797  0.49451  0.11807  1.0000
  O  Te19      1.0  0.47928  0.56884  0.29111  1.0000
  O  Te20      1.0  0.45962  0.63209  0.34493  1.0000
  H   H32       1.0  0.35080  0.54962  0.16496  1.0000
  Mg  Mg10      1.0  0.50265  0.62412  0.37125  1.0000
  C   C65       1.0  0.61942  0.54596  0.30774  1.0000
  C   C66       1.0  0.60285  0.56705  0.27929  1.0000
  C  Sn21      1.0  0.62956  0.60581  0.21945  1.0000
  C  Sn22      1.0  0.67367  0.62371  0.18757  1.0000
  C   C67       1.0  0.68995  0.60235  0.21631  1.0000
  C   C68       1.0  0.66293  0.56359  0.27626  1.0000
  H   H33       1.0  0.59853  0.51596  0.35402  1.0000
  O  Te21      1.0  0.61247  0.62646  0.19178  1.0000
  O  Te22      1.0  0.70109  0.66240  0.12767  1.0000
  H   H34       1.0  0.67579  0.54726  0.29815  1.0000
  Mg  Mg11      1.0  0.66270  0.67846  0.10955  1.0000
  C   C69       1.0  0.46351  0.33637  0.26149  1.0000
  C   C70       1.0  0.42426  0.31730  0.24548  1.0000
  C  Sn23      1.0  0.40814  0.33866  0.21583  1.0000
  C  Sn24      1.0  0.43183  0.37989  0.20197  1.0000
  C   C71       1.0  0.47108  0.39870  0.21804  1.0000
  C   C72       1.0  0.48691  0.37703  0.24776  1.0000
  H   H35       1.0  0.47577  0.31961  0.28437  1.0000
  O  Te23      1.0  0.36886  0.31914  0.20023  1.0000
  O  Te24      1.0  0.41647  0.40195  0.17230  1.0000
  H   H36       1.0  0.51731  0.39181  0.26002  1.0000
  Mg  Mg12      1.0  0.36134  0.36201  0.16035  1.0000
  C   C73       1.0  0.28723  0.81869  0.29490  1.0000
  C   C74       1.0  0.25244  0.81148  0.26166  1.0000
  C  Sn25      1.0  0.22595  0.77362  0.22349  1.0000
  C  Sn26      1.0  0.23452  0.74246  0.21865  1.0000
  C   C75       1.0  0.26939  0.74997  0.25223  1.0000
  C   C76       1.0  0.29570  0.78797  0.29023  1.0000
  H   H37       1.0  0.30758  0.84809  0.32441  1.0000
  O  Te25      1.0  0.19133  0.76693  0.19054  1.0000
  O  Te26      1.0  0.20855  0.70433  0.18091  1.0000
  H   H38       1.0  0.32262  0.79355  0.31608  1.0000
  Mg  Mg13      1.0  0.16520  0.70993  0.14514  1.0000
  C   C77       1.0  0.02203  0.71462  0.27903  1.0000
  C   C78       1.0  0.05931  0.74996  0.21334  1.0000
  C  Sn27      1.0  0.05786  0.77987  0.15780  1.0000
  C  Sn28      1.0  0.01830  0.77420  0.16845  1.0000
  C   C79       1.0  0.98117  0.73875  0.23450  1.0000
  C   C80       1.0  0.98300  0.70902  0.28964  1.0000
  H   H39       1.0  0.02344  0.69162  0.32180  1.0000
  O  Te27      1.0  0.09541  0.81499  0.09244  1.0000
  O  Te28      1.0  0.01593  0.80361  0.11392  1.0000
  H   H40       1.0  0.95412  0.68167  0.34062  1.0000
  Mg  Mg14      1.0  0.07584  0.84629  0.03439  1.0000
  C   C81       1.0  0.25678  0.98246  0.27407  1.0000
  C   C82       1.0  0.75239  0.01332  0.23694  1.0000
  C  Sn29      1.0  0.71784  0.00607  0.20184  1.0000
  C  Sn30      1.0  0.18712  0.96718  0.20411  1.0000
  C   C83       1.0  0.19047  0.93652  0.24154  1.0000
  C   C84       1.0  0.22519  0.94409  0.27641  1.0000
  H   H41       1.0  0.28363  0.98832  0.30115  1.0000
  O  Te29      1.0  0.71528  0.03724  0.16492  1.0000
  O  Te30      1.0  0.15224  0.95912  0.16958  1.0000
  H   H42       1.0  0.22754  0.92020  0.30528  1.0000
  Mg  Mg15      1.0  0.66163  0.01142  0.12623  1.0000
  C   C85       1.0  0.83453  0.70441  0.22550  1.0000
  C   C86       1.0  0.80169  0.66692  0.22678  1.0000
  C  Sn31      1.0  0.80543  0.63427  0.23749  1.0000
  C  Sn32      1.0  0.84278  0.63935  0.24714  1.0000
  C   C87       1.0  0.87544  0.67699  0.24590  1.0000
  C   C88       1.0  0.87137  0.70945  0.23509  1.0000
  H   H43       1.0  0.83138  0.72953  0.21724  1.0000
  O  Te31      1.0  0.77232  0.59702  0.23854  1.0000
  O  Te32      1.0  0.84734  0.60724  0.25801  1.0000
  H   H44       1.0  0.89680  0.73847  0.23422  1.0000
  Mg  Mg16      1.0  0.79346  0.56235  0.25507  1.0000
  C   C89       1.0  0.30587  0.63660  0.20026  1.0000
  C   C90       1.0  0.34226  0.64011  0.20777  1.0000
  C  Sn33      1.0  0.37087  0.67597  0.25174  1.0000
  C  Sn34      1.0  0.36282  0.70886  0.28887  1.0000
  C   C91       1.0  0.32631  0.70503  0.28113  1.0000
  C   C92       1.0  0.29789  0.66902  0.23694  1.0000
  H   H45       1.0  0.28387  0.60873  0.16617  1.0000
  O  Te33      1.0  0.40708  0.67898  0.25857  1.0000
  O  Te34      1.0  0.39088  0.74504  0.33323  1.0000
  H   H46       1.0  0.26971  0.66630  0.23126  1.0000
  Mg  Mg17      1.0  0.43584  0.73448  0.32521  1.0000
  C   C93       1.0  0.31184  0.18921  0.23084  1.0000
  C   C94       1.0  0.35054  0.20506  0.24924  1.0000
  C  Sn35      1.0  0.36730  0.18082  0.24538  1.0000
  C  Sn36      1.0  0.34485  0.13997  0.22260  1.0000
  C   C95       1.0  0.30618  0.12441  0.20418  1.0000
  C   C96       1.0  0.28968  0.14893  0.20830  1.0000
  H   H47       1.0  0.29908  0.20818  0.23392  1.0000
  O  Te35      1.0  0.40600  0.19713  0.26402  1.0000
  O  Te36      1.0  0.36089  0.11508  0.21819  1.0000
  H   H48       1.0  0.25973  0.13666  0.19393  1.0000
  Mg  Mg18      1.0  0.41482  0.15118  0.24931  1.0000
