data_image0
_chemical_formula_structural       CNCNCNO3NCHNCHNCHCNCNCNO3CNCNCNO3NCHNCHNCHCNCNCNO3C2Sn2C2HTe2HMgC2Sn2C2HTe2HMgC2Sn2C2HTe2HMgC2Sn2C2HTe2HMgC2Sn2C2HTe2HMgC2Sn2C2HTe2HMgC2Sn2C2HTe2HMgC2Sn2C2HTe2HMgC2Sn2C2HTe2HMgC2Sn2C2HTe2HMgC2Sn2C2HTe2HMgC2Sn2C2HTe2HMg
_chemical_formula_sum              "C66 N18 O12 H30 Sn24 Te24 Mg12"
_cell_length_a       28.4884
_cell_length_b       28.3552
_cell_length_c       7.97944
_cell_angle_alpha    103.284
_cell_angle_beta     105.236
_cell_angle_gamma    120.499

_symmetry_space_group_name_H-M    'P1'
_space_group_IT_number       1

loop_
  _space_group_symop_operation_xyz
  'x, y, z'

loop_
  _atom_site_type_symbol
  _atom_site_label
  _atom_site_symmetry_multiplicity
  _atom_site_fract_x
  _atom_site_fract_y
  _atom_site_fract_z
  _atom_site_occupancy
  C   C1        1.0  0.50125  0.45672  0.74968  1.0000
  N   N1        1.0  0.54854  0.50036  0.73509  1.0000
  C   C2        1.0  0.54523  0.54474  0.72552  1.0000
  N   N2        1.0  0.50036  0.54908  0.72786  1.0000
  C   C3        1.0  0.45683  0.50311  0.74346  1.0000
  N   N3        1.0  0.45443  0.45532  0.75612  1.0000
  O   O1        1.0  0.50653  0.41263  0.75855  1.0000
  O   O2        1.0  0.58865  0.59198  0.70854  1.0000
  O   O3        1.0  0.40812  0.49927  0.74934  1.0000
  N   N4        1.0  0.33698  0.64954  0.71189  1.0000
  C   C4        1.0  0.29482  0.64582  0.75445  1.0000
  H   H1        1.0  0.26774  0.61163  0.79941  1.0000
  N   N5        1.0  0.81422  0.65833  0.74539  1.0000
  C   C5        1.0  0.84991  0.70206  0.71084  1.0000
  H   H2        1.0  0.83924  0.73114  0.66907  1.0000
  N   N6        1.0  0.33937  0.18542  0.71701  1.0000
  C   C6        1.0  0.35207  0.14858  0.73460  1.0000
  H   H3        1.0  0.39673  0.15894  0.75692  1.0000
  C   C7        1.0  0.20729  0.82309  0.73603  1.0000
  N   N7        1.0  0.21882  0.87529  0.73297  1.0000
  C   C8        1.0  0.17656  0.88189  0.74396  1.0000
  N   N8        1.0  0.12598  0.84242  0.75551  1.0000
  C   C9        1.0  0.11996  0.79267  0.75277  1.0000
  N   N9        1.0  0.15921  0.77999  0.74449  1.0000
  O   O4        1.0  0.25163  0.81852  0.72742  1.0000
  O   O5        1.0  0.17953  0.93072  0.74253  1.0000
  O   O6        1.0  0.07166  0.74776  0.76068  1.0000
  C   C10       1.0  0.49905  0.45711  0.25455  1.0000
  N   N10       1.0  0.54749  0.49963  0.24114  1.0000
  C   C11       1.0  0.54560  0.54439  0.22686  1.0000
  N   N11       1.0  0.50150  0.55041  0.22546  1.0000
  C   C12       1.0  0.45679  0.50550  0.24088  1.0000
  N   N12       1.0  0.45261  0.45723  0.25667  1.0000
  O   O7        1.0  0.50261  0.41232  0.26669  1.0000
  O   O8        1.0  0.58975  0.59031  0.20792  1.0000
  O   O9        1.0  0.40855  0.50344  0.24208  1.0000
  N   N13       1.0  0.34732  0.66112  0.20784  1.0000
  C   C13       1.0  0.31075  0.66203  0.27366  1.0000
  H   H4        1.0  0.29201  0.63426  0.34810  1.0000
  N   N14       1.0  0.81376  0.65057  0.24710  1.0000
  C   C14       1.0  0.84913  0.69357  0.20951  1.0000
  H   H5        1.0  0.83804  0.72199  0.16441  1.0000
  N   N15       1.0  0.33045  0.18538  0.21557  1.0000
  C   C15       1.0  0.34300  0.14825  0.23038  1.0000
  H   H6        1.0  0.38730  0.15828  0.24916  1.0000
  C   C16       1.0  0.20679  0.82435  0.22731  1.0000
  N   N16       1.0  0.21600  0.87580  0.22509  1.0000
  C   C17       1.0  0.17391  0.88138  0.24460  1.0000
  N   N17       1.0  0.12497  0.84109  0.26133  1.0000
  C   C18       1.0  0.12067  0.79181  0.25513  1.0000
  N   N18       1.0  0.16049  0.78058  0.24064  1.0000
  O   O10       1.0  0.25127  0.82136  0.21094  1.0000
  O   O11       1.0  0.17575  0.93008  0.24877  1.0000
  O   O12       1.0  0.07392  0.74612  0.26665  1.0000
  C   C19       1.0  0.31465  0.54026  0.73198  1.0000
  C   C20       1.0  0.34356  0.59746  0.73199  1.0000
  C  Sn1       1.0  0.39952  0.62537  0.72550  1.0000
  C  Sn2       1.0  0.42692  0.59533  0.71883  1.0000
  C   C21       1.0  0.39761  0.53810  0.71874  1.0000
  C   C22       1.0  0.34163  0.51060  0.72533  1.0000
  H   H7        1.0  0.27132  0.51896  0.73697  1.0000
  O  Te1       1.0  0.42780  0.68254  0.72568  1.0000
  O  Te2       1.0  0.48281  0.62218  0.71219  1.0000
  H   H8        1.0  0.31923  0.46629  0.72520  1.0000
  Mg  Mg1       1.0  0.50358  0.70054  0.71528  1.0000
  C   C23       1.0  0.67741  0.56861  0.75509  1.0000
  C   C24       1.0  0.64752  0.59506  0.73082  1.0000
  C  Sn3       1.0  0.67278  0.64668  0.69669  1.0000
  C  Sn4       1.0  0.72901  0.67220  0.68668  1.0000
  C   C25       1.0  0.75854  0.64538  0.71102  1.0000
  C   C26       1.0  0.73286  0.59374  0.74517  1.0000
  H   H9        1.0  0.65753  0.52864  0.78141  1.0000
  O  Te3       1.0  0.64233  0.67254  0.67284  1.0000
  O  Te4       1.0  0.75527  0.72377  0.65266  1.0000
  H   H10       1.0  0.75599  0.57325  0.76383  1.0000
  Mg  Mg2       1.0  0.69640  0.74256  0.62962  1.0000
  C   C27       1.0  0.37978  0.30286  0.79623  1.0000
  C   C28       1.0  0.37740  0.25130  0.72799  1.0000
  C  Sn5       1.0  0.42187  0.25483  0.67608  1.0000
  C  Sn6       1.0  0.46954  0.31109  0.69301  1.0000
  C   C29       1.0  0.47154  0.36242  0.76155  1.0000
  C   C30       1.0  0.42680  0.35837  0.81304  1.0000
  H   H11       1.0  0.34519  0.29974  0.83616  1.0000
  O  Te5       1.0  0.41880  0.20287  0.60811  1.0000
  O  Te6       1.0  0.51458  0.31590  0.64221  1.0000
  H   H12       1.0  0.42867  0.39831  0.86598  1.0000
  Mg  Mg3       1.0  0.49075  0.23235  0.55700  1.0000
  C   C31       1.0  0.96424  0.77792  0.70992  1.0000
  C   C32       1.0  0.91634  0.72731  0.71168  1.0000
  C  Sn7       1.0  0.92289  0.68441  0.74668  1.0000
  C  Sn8       1.0  0.97848  0.69245  0.78055  1.0000
  C   C33       1.0  0.02614  0.74325  0.77862  1.0000
  C   C34       1.0  0.01909  0.78589  0.74339  1.0000
  H   H13       1.0  0.95880  0.81093  0.68277  1.0000
  O  Te7       1.0  0.87457  0.63410  0.74786  1.0000
  O  Te8       1.0  0.98626  0.65027  0.81598  1.0000
  H   H14       1.0  0.05620  0.82509  0.74216  1.0000
  Mg  Mg4       1.0  0.90717  0.58915  0.80286  1.0000
  C   C35       1.0  0.74240  0.06613  0.72637  1.0000
  C   C36       1.0  0.80077  0.09000  0.74144  1.0000
  C  Sn9       1.0  0.82303  0.05609  0.74665  1.0000
  C  Sn10      1.0  0.78604  0.99718  0.73652  1.0000
  C   C37       1.0  0.72769  0.97369  0.72133  1.0000
  C   C38       1.0  0.70588  0.00803  0.71629  1.0000
  H   H15       1.0  0.72551  0.09268  0.72236  1.0000
  O  Te9       1.0  0.88146  0.08063  0.76182  1.0000
  O  Te10      1.0  0.80714  0.96230  0.74136  1.0000
  H   H16       1.0  0.66067  0.98951  0.70450  1.0000
  Mg  Mg5       1.0  0.88991  0.01554  0.76311  1.0000
  C   C39       1.0  0.20745  0.70213  0.73027  1.0000
  C   C40       1.0  0.24485  0.76007  0.74092  1.0000
  C  Sn11      1.0  0.30201  0.78202  0.74761  1.0000
  C  Sn12      1.0  0.32196  0.74518  0.74348  1.0000
  C   C41       1.0  0.28420  0.68726  0.73267  1.0000
  C   C42       1.0  0.22710  0.66575  0.72611  1.0000
  H   H17       1.0  0.16326  0.68547  0.72509  1.0000
  O  Te11      1.0  0.33880  0.84003  0.75830  1.0000
  O  Te12      1.0  0.37887  0.76598  0.74991  1.0000
  H   H18       1.0  0.19814  0.62087  0.71774  1.0000
  Mg  Mg6       1.0  0.41257  0.84820  0.76398  1.0000
  C   C43       1.0  0.43107  0.63713  0.23388  1.0000
  C   C44       1.0  0.37480  0.62464  0.20773  1.0000
  C  Sn13      1.0  0.32943  0.57080  0.20340  1.0000
  C  Sn14      1.0  0.34075  0.52878  0.22576  1.0000
  C   C45       1.0  0.39722  0.54172  0.25198  1.0000
  C   C46       1.0  0.44229  0.59572  0.25602  1.0000
  H   H19       1.0  0.46596  0.67894  0.23711  1.0000
  O  Te13      1.0  0.27346  0.55902  0.17707  1.0000
  O  Te14      1.0  0.29622  0.47463  0.22208  1.0000
  H   H20       1.0  0.48587  0.60540  0.27640  1.0000
  Mg  Mg7       1.0  0.22721  0.47901  0.18232  1.0000
  C   C47       1.0  0.70807  0.57571  0.26862  1.0000
  C   C48       1.0  0.74779  0.62242  0.23182  1.0000
  C  Sn15      1.0  0.73482  0.66111  0.19189  1.0000
  C  Sn16      1.0  0.68106  0.65278  0.18890  1.0000
  C   C49       1.0  0.64163  0.60595  0.22603  1.0000
  C   C50       1.0  0.65505  0.56748  0.26577  1.0000
  H   H21       1.0  0.71846  0.54597  0.29947  1.0000
  O  Te15      1.0  0.77499  0.70754  0.15538  1.0000
  O  Te16      1.0  0.66700  0.69081  0.14946  1.0000
  H   H22       1.0  0.62430  0.53134  0.29437  1.0000
  Mg  Mg8       1.0  0.73595  0.74759  0.10883  1.0000
  C   C51       1.0  0.43754  0.26542  0.18107  1.0000
  C   C52       1.0  0.38828  0.24435  0.22502  1.0000
  C  Sn17      1.0  0.37159  0.28170  0.28076  1.0000
  C  Sn18      1.0  0.40491  0.34124  0.29254  1.0000
  C   C53       1.0  0.45408  0.36188  0.24814  1.0000
  C   C54       1.0  0.47041  0.32413  0.19257  1.0000
  H   H23       1.0  0.45015  0.23620  0.13797  1.0000
  O  Te17      1.0  0.32227  0.25994  0.32424  1.0000
  O  Te18      1.0  0.38919  0.37952  0.34780  1.0000
  H   H24       1.0  0.50852  0.34044  0.15843  1.0000
  Mg  Mg9       1.0  0.31845  0.32920  0.39268  1.0000
  C   C55       1.0  0.99191  0.77790  0.20450  1.0000
  C   C56       1.0  0.02060  0.75233  0.26070  1.0000
  C  Sn19      1.0  0.98998  0.70090  0.29287  1.0000
  C  Sn20      1.0  0.92951  0.67467  0.26815  1.0000
  C   C57       1.0  0.90119  0.70056  0.21176  1.0000
  C   C58       1.0  0.93226  0.75204  0.18001  1.0000
  H   H25       1.0  0.01593  0.81771  0.17983  1.0000
  O  Te19      1.0  0.01933  0.67595  0.34902  1.0000
  O  Te20      1.0  0.89785  0.62325  0.29927  1.0000
  H   H26       1.0  0.91001  0.77180  0.13638  1.0000
  Mg  Mg10      1.0  0.95727  0.60582  0.37424  1.0000
  C   C59       1.0  0.22970  0.06500  0.23024  1.0000
  C   C60       1.0  0.28751  0.08949  0.23933  1.0000
  C  Sn21      1.0  0.31049  0.05613  0.23944  1.0000
  C  Sn22      1.0  0.77997  0.99716  0.23020  1.0000
  C   C61       1.0  0.72217  0.97305  0.22100  1.0000
  C   C62       1.0  0.69963  0.00683  0.22104  1.0000
  H   H27       1.0  0.21224  0.09112  0.23016  1.0000
  O  Te21      1.0  0.36835  0.08130  0.24867  1.0000
  O  Te22      1.0  0.80182  0.96283  0.23001  1.0000
  H   H28       1.0  0.65485  0.98784  0.21387  1.0000
  Mg  Mg11      1.0  0.88337  0.01681  0.24457  1.0000
  C   C63       1.0  0.33085  0.76469  0.20857  1.0000
  C   C64       1.0  0.30475  0.71564  0.25478  1.0000
  C  Sn23      1.0  0.25247  0.69643  0.28104  1.0000
  C  Sn24      1.0  0.22591  0.72696  0.26051  1.0000
  C   C65       1.0  0.25235  0.77595  0.21412  1.0000
  C   C66       1.0  0.30467  0.79481  0.18822  1.0000
  H   H29       1.0  0.37131  0.77926  0.18842  1.0000
  O  Te23      1.0  0.22699  0.64736  0.32724  1.0000
  O  Te24      1.0  0.17365  0.70869  0.28590  1.0000
  H   H30       1.0  0.32485  0.83276  0.15231  1.0000
  Mg  Mg12      1.0  0.15575  0.63942  0.34766  1.0000
