data_image0
_chemical_formula_structural       CNCNCNO3NCHNCHNCHCNCNCNO3CNCNCNO3NCHNCHNCHCNCNCNO3SnCSn2CSnTe4Mg2SnCSn2CSnTe4Mg2SnCSn2CSnTe4Mg2SnCSn2CSnTe4Mg2SnCSn2CSnTe4Mg2SnCSn2CSnTe4Mg2SnCSn2CSnTe4Mg2SnCSn2CSnTe4Mg2SnCSn2CSnTe4Mg2SnCSn2CSnTe4Mg2SnCSn2CSnTe4Mg2SnCSn2CSnTe4Mg2
_chemical_formula_sum              "C42 N18 O12 H6 Sn48 Te48 Mg24"
_cell_length_a       28.4884
_cell_length_b       28.3552
_cell_length_c       7.97944
_cell_angle_alpha    103.284
_cell_angle_beta     105.236
_cell_angle_gamma    120.499

_symmetry_space_group_name_H-M    'P1'
_space_group_IT_number       1

loop_
  _space_group_symop_operation_xyz
  'x, y, z'

loop_
  _atom_site_type_symbol
  _atom_site_label
  _atom_site_symmetry_multiplicity
  _atom_site_fract_x
  _atom_site_fract_y
  _atom_site_fract_z
  _atom_site_occupancy
  C   C1        1.0  0.50125  0.45672  0.74968  1.0000
  N   N1        1.0  0.54854  0.50036  0.73509  1.0000
  C   C2        1.0  0.54523  0.54474  0.72552  1.0000
  N   N2        1.0  0.50036  0.54908  0.72786  1.0000
  C   C3        1.0  0.45683  0.50311  0.74346  1.0000
  N   N3        1.0  0.45443  0.45532  0.75612  1.0000
  O   O1        1.0  0.50653  0.41263  0.75855  1.0000
  O   O2        1.0  0.58865  0.59198  0.70854  1.0000
  O   O3        1.0  0.40812  0.49927  0.74934  1.0000
  N   N4        1.0  0.33698  0.64954  0.71189  1.0000
  C   C4        1.0  0.29482  0.64582  0.75445  1.0000
  H   H1        1.0  0.26774  0.61163  0.79941  1.0000
  N   N5        1.0  0.81422  0.65833  0.74539  1.0000
  C   C5        1.0  0.84991  0.70206  0.71084  1.0000
  H   H2        1.0  0.83924  0.73114  0.66907  1.0000
  N   N6        1.0  0.33937  0.18542  0.71701  1.0000
  C   C6        1.0  0.35207  0.14858  0.73460  1.0000
  H   H3        1.0  0.39673  0.15894  0.75692  1.0000
  C   C7        1.0  0.20729  0.82309  0.73603  1.0000
  N   N7        1.0  0.21882  0.87529  0.73297  1.0000
  C   C8        1.0  0.17656  0.88189  0.74396  1.0000
  N   N8        1.0  0.12598  0.84242  0.75551  1.0000
  C   C9        1.0  0.11996  0.79267  0.75277  1.0000
  N   N9        1.0  0.15921  0.77999  0.74449  1.0000
  O   O4        1.0  0.25163  0.81852  0.72742  1.0000
  O   O5        1.0  0.17953  0.93072  0.74253  1.0000
  O   O6        1.0  0.07166  0.74776  0.76068  1.0000
  C   C10       1.0  0.49905  0.45711  0.25455  1.0000
  N   N10       1.0  0.54749  0.49963  0.24114  1.0000
  C   C11       1.0  0.54560  0.54439  0.22686  1.0000
  N   N11       1.0  0.50150  0.55041  0.22546  1.0000
  C   C12       1.0  0.45679  0.50550  0.24088  1.0000
  N   N12       1.0  0.45261  0.45723  0.25667  1.0000
  O   O7        1.0  0.50261  0.41232  0.26669  1.0000
  O   O8        1.0  0.58975  0.59031  0.20792  1.0000
  O   O9        1.0  0.40855  0.50344  0.24208  1.0000
  N   N13       1.0  0.34732  0.66112  0.20784  1.0000
  C   C13       1.0  0.31075  0.66203  0.27366  1.0000
  H   H4        1.0  0.29201  0.63426  0.34810  1.0000
  N   N14       1.0  0.81376  0.65057  0.24710  1.0000
  C   C14       1.0  0.84913  0.69357  0.20951  1.0000
  H   H5        1.0  0.83804  0.72199  0.16441  1.0000
  N   N15       1.0  0.33045  0.18538  0.21557  1.0000
  C   C15       1.0  0.34300  0.14825  0.23038  1.0000
  H   H6        1.0  0.38730  0.15828  0.24916  1.0000
  C   C16       1.0  0.20679  0.82435  0.22731  1.0000
  N   N16       1.0  0.21600  0.87580  0.22509  1.0000
  C   C17       1.0  0.17391  0.88138  0.24460  1.0000
  N   N17       1.0  0.12497  0.84109  0.26133  1.0000
  C   C18       1.0  0.12067  0.79181  0.25513  1.0000
  N   N18       1.0  0.16049  0.78058  0.24064  1.0000
  O   O10       1.0  0.25127  0.82136  0.21094  1.0000
  O   O11       1.0  0.17575  0.93008  0.24877  1.0000
  O   O12       1.0  0.07392  0.74612  0.26665  1.0000
  C  Sn1       1.0  0.32777  0.55389  0.79448  1.0000
  C   C19       1.0  0.35459  0.60803  0.77441  1.0000
  C  Sn2       1.0  0.40069  0.62649  0.71609  1.0000
  C  Sn3       1.0  0.42039  0.59006  0.67689  1.0000
  C   C20       1.0  0.39357  0.53595  0.69694  1.0000
  C  Sn4       1.0  0.34746  0.51746  0.75528  1.0000
  O  Te1       1.0  0.28174  0.53631  0.85295  1.0000
  O  Te2       1.0  0.42683  0.68081  0.69710  1.0000
  O  Te3       1.0  0.46645  0.60769  0.61839  1.0000
  O  Te4       1.0  0.32132  0.46317  0.77424  1.0000
  Mg  Mg1       1.0  0.48797  0.68541  0.61328  1.0000
  Mg  Mg2       1.0  0.26016  0.45851  0.85795  1.0000
  C  Sn5       1.0  0.68563  0.58343  0.81415  1.0000
  C   C21       1.0  0.65382  0.60708  0.76982  1.0000
  C  Sn6       1.0  0.67139  0.64736  0.68588  1.0000
  C  Sn7       1.0  0.72177  0.66434  0.64529  1.0000
  C   C22       1.0  0.75354  0.64069  0.68958  1.0000
  C  Sn8       1.0  0.73602  0.60041  0.77356  1.0000
  O  Te5       1.0  0.66727  0.54322  0.89801  1.0000
  O  Te6       1.0  0.63890  0.67042  0.64292  1.0000
  O  Te7       1.0  0.74012  0.70458  0.56137  1.0000
  O  Te8       1.0  0.76847  0.57735  0.81649  1.0000
  Mg  Mg3       1.0  0.68141  0.72372  0.52940  1.0000
  Mg  Mg4       1.0  0.72598  0.52402  0.92991  1.0000
  C  Sn9       1.0  0.36963  0.29449  0.73112  1.0000
  C   C23       1.0  0.37199  0.24542  0.68142  1.0000
  C  Sn10      1.0  0.42488  0.25428  0.68123  1.0000
  C  Sn11      1.0  0.47652  0.31342  0.73190  1.0000
  C   C24       1.0  0.47415  0.36245  0.78159  1.0000
  C  Sn12      1.0  0.42127  0.35364  0.78178  1.0000
  O  Te9       1.0  0.31627  0.28458  0.73033  1.0000
  O  Te10      1.0  0.42614  0.20451  0.63096  1.0000
  O  Te11      1.0  0.52990  0.32330  0.73264  1.0000
  O  Te12      1.0  0.42000  0.40336  0.83205  1.0000
  Mg  Mg5       1.0  0.50934  0.24110  0.65355  1.0000
  Mg  Mg6       1.0  0.33684  0.36684  0.80960  1.0000
  C  Sn13      1.0  0.00222  0.79259  0.77233  1.0000
  C   C25       1.0  0.02519  0.76038  0.80441  1.0000
  C  Sn14      1.0  0.98660  0.70098  0.78138  1.0000
  C  Sn15      1.0  0.92373  0.67317  0.72497  1.0000
  C   C26       1.0  0.90079  0.70536  0.69289  1.0000
  C  Sn16      1.0  0.93936  0.76477  0.71593  1.0000
  O  Te13      1.0  0.04164  0.85192  0.79621  1.0000
  O  Te14      1.0  0.01062  0.66971  0.81434  1.0000
  O  Te15      1.0  0.88432  0.61379  0.70111  1.0000
  O  Te16      1.0  0.91537  0.79603  0.68296  1.0000
  Mg  Mg7       1.0  0.93862  0.58982  0.76282  1.0000
  Mg  Mg8       1.0  0.98731  0.87591  0.73433  1.0000
  C  Sn17      1.0  0.71485  0.02725  0.67458  1.0000
  C   C27       1.0  0.72123  0.98209  0.68427  1.0000
  C  Sn18      1.0  0.77825  0.99392  0.73688  1.0000
  C  Sn19      1.0  0.82998  0.05211  0.78086  1.0000
  C   C28       1.0  0.82360  0.09723  0.77120  1.0000
  C  Sn20      1.0  0.76659  0.08544  0.71856  1.0000
  O  Te17      1.0  0.65741  0.01442  0.62167  1.0000
  O  Te18      1.0  0.78349  0.94804  0.74549  1.0000
  O  Te19      1.0  0.88745  0.06491  0.83380  1.0000
  O  Te20      1.0  0.25619  0.13129  0.70997  1.0000
  Mg  Mg9       1.0  0.87140  0.98757  0.82499  1.0000
  Mg  Mg10      1.0  0.16831  0.09182  0.63059  1.0000
  C  Sn21      1.0  0.33330  0.76387  0.80561  1.0000
  C   C29       1.0  0.29567  0.70674  0.79990  1.0000
  C  Sn22      1.0  0.23366  0.67893  0.74373  1.0000
  C  Sn23      1.0  0.20872  0.70883  0.69207  1.0000
  C   C30       1.0  0.24633  0.76592  0.69776  1.0000
  C  Sn24      1.0  0.30836  0.79376  0.75395  1.0000
  O  Te21      1.0  0.39517  0.79081  0.86219  1.0000
  O  Te22      1.0  0.19696  0.62181  0.73921  1.0000
  O  Te23      1.0  0.14680  0.68183  0.63547  1.0000
  O  Te24      1.0  0.34505  0.85084  0.75845  1.0000
  Mg  Mg11      1.0  0.11540  0.60366  0.65223  1.0000
  Mg  Mg12      1.0  0.42660  0.86902  0.84531  1.0000
  C  Sn25      1.0  0.32553  0.52387  0.16161  1.0000
  C   C31       1.0  0.38089  0.53592  0.17671  1.0000
  C  Sn26      1.0  0.43099  0.59495  0.22946  1.0000
  C  Sn27      1.0  0.42566  0.64294  0.26803  1.0000
  C   C32       1.0  0.37033  0.63088  0.25296  1.0000
  C  Sn28      1.0  0.32020  0.57187  0.20019  1.0000
  O  Te25      1.0  0.27604  0.46452  0.10867  1.0000
  O  Te26      1.0  0.48587  0.60587  0.24354  1.0000
  O  Te27      1.0  0.47521  0.70233  0.32100  1.0000
  O  Te28      1.0  0.26536  0.56093  0.18613  1.0000
  Mg  Mg13      1.0  0.54033  0.69438  0.32076  1.0000
  Mg  Mg14      1.0  0.21088  0.47245  0.10902  1.0000
  C  Sn29      1.0  0.70072  0.56795  0.20368  1.0000
  C   C33       1.0  0.74255  0.61871  0.18595  1.0000
  C  Sn30      1.0  0.73689  0.66538  0.19862  1.0000
  C  Sn31      1.0  0.68843  0.66126  0.22978  1.0000
  C   C34       1.0  0.64664  0.61053  0.24752  1.0000
  C  Sn32      1.0  0.65225  0.56383  0.23484  1.0000
  O  Te29      1.0  0.70725  0.52183  0.19055  1.0000
  O  Te30      1.0  0.77927  0.71567  0.18037  1.0000
  O  Te31      1.0  0.68192  0.70743  0.24290  1.0000
  O  Te32      1.0  0.60992  0.51357  0.25310  1.0000
  Mg  Mg15      1.0  0.75112  0.76679  0.20880  1.0000
  Mg  Mg16      1.0  0.63804  0.46244  0.22479  1.0000
  C  Sn33      1.0  0.36237  0.29491  0.22515  1.0000
  C   C35       1.0  0.36439  0.24555  0.17915  1.0000
  C  Sn34      1.0  0.41785  0.25407  0.18703  1.0000
  C  Sn35      1.0  0.47041  0.31317  0.24215  1.0000
  C   C36       1.0  0.46839  0.36248  0.28815  1.0000
  C  Sn36      1.0  0.41494  0.35400  0.28028  1.0000
  O  Te33      1.0  0.30844  0.28534  0.21630  1.0000
  O  Te34      1.0  0.41875  0.20403  0.14032  1.0000
  O  Te35      1.0  0.52437  0.32271  0.25097  1.0000
  O  Te36      1.0  0.41403  0.40401  0.32698  1.0000
  Mg  Mg17      1.0  0.50300  0.24021  0.17406  1.0000
  Mg  Mg18      1.0  0.32982  0.36789  0.29339  1.0000
  C  Sn37      1.0  0.94540  0.68329  0.33062  1.0000
  C   C37       1.0  0.91943  0.71224  0.28742  1.0000
  C  Sn38      1.0  0.94273  0.75326  0.20916  1.0000
  C  Sn39      1.0  0.99303  0.76556  0.17320  1.0000
  C   C38       1.0  0.01896  0.73661  0.21635  1.0000
  C  Sn40      1.0  0.99569  0.69559  0.29466  1.0000
  O  Te37      1.0  0.92135  0.64245  0.40877  1.0000
  O  Te38      1.0  0.91602  0.78166  0.16722  1.0000
  O  Te39      1.0  0.01707  0.80644  0.09498  1.0000
  O  Te40      1.0  0.02237  0.66719  0.33655  1.0000
  Mg  Mg19      1.0  0.96501  0.83370  0.06222  1.0000
  Mg  Mg20      1.0  0.97340  0.61512  0.44146  1.0000
  C  Sn41      1.0  0.29889  0.02875  0.17292  1.0000
  C   C39       1.0  0.29316  0.07511  0.17822  1.0000
  C  Sn42      1.0  0.25136  0.07717  0.23352  1.0000
  C  Sn43      1.0  0.71969  0.03195  0.28472  1.0000
  C   C40       1.0  0.72544  0.98563  0.27944  1.0000
  C  Sn44      1.0  0.76722  0.98353  0.22412  1.0000
  O  Te41      1.0  0.34099  0.02759  0.11720  1.0000
  O  Te42      1.0  0.24643  0.12396  0.23764  1.0000
  O  Te43      1.0  0.67757  0.03315  0.34046  1.0000
  O  Te44      1.0  0.77217  0.93679  0.22002  1.0000
  Mg  Mg21      1.0  0.18250  0.10602  0.32344  1.0000
  Mg  Mg22      1.0  0.83610  0.95470  0.13435  1.0000
  C  Sn45      1.0  0.23532  0.72944  0.32521  1.0000
  C   C41       1.0  0.26251  0.77854  0.27992  1.0000
  C  Sn46      1.0  0.30398  0.78728  0.20533  1.0000
  C  Sn47      1.0  0.31854  0.74606  0.17527  1.0000
  C   C42       1.0  0.29135  0.69699  0.22051  1.0000
  C  Sn48      1.0  0.24988  0.68821  0.29514  1.0000
  O  Te45      1.0  0.19398  0.72158  0.39960  1.0000
  O  Te46      1.0  0.33060  0.83672  0.16121  1.0000
  O  Te47      1.0  0.35991  0.75396  0.10081  1.0000
  O  Te48      1.0  0.22326  0.63881  0.33922  1.0000
  Mg  Mg23      1.0  0.38416  0.82813  0.06303  1.0000
  Mg  Mg24      1.0  0.16967  0.64733  0.43731  1.0000
