data_image0
_chemical_formula_structural       CNCNCNO3C12H8NCHNCHNCHCNCNCNO3C12H8NCHNCHNCHC3HC2HCH2C3HC2HCH2CNCNCNO3C6H4NCHNCHNCHCNCNCNO3C6H4NCHNCHNCHC3HC2HCH2C2Sn2C2HTe2HMgC2Sn2C2HTe2HMgC2Sn2C2HTe2HMgC2Sn2C2HTe2HMgC2Sn2C2HTe2HMgC2Sn2C2HTe2HMgC2Sn2C2HTe2HMgC2Sn2C2HTe2HMgC2Sn2C2HTe2HMg
_chemical_formula_sum              "C114 N24 O12 H66 Sn18 Te18 Mg9"
_cell_length_a       39.3411
_cell_length_b       39.5561
_cell_length_c       8.05387
_cell_angle_alpha    104.064
_cell_angle_beta     61.2205
_cell_angle_gamma    119.907

_symmetry_space_group_name_H-M    'P1'
_space_group_IT_number       1

loop_
  _space_group_symop_operation_xyz
  'x, y, z'

loop_
  _atom_site_type_symbol
  _atom_site_label
  _atom_site_symmetry_multiplicity
  _atom_site_fract_x
  _atom_site_fract_y
  _atom_site_fract_z
  _atom_site_occupancy
  C   C1        1.0  0.49600  0.46515  0.74278  1.0000
  N   N1        1.0  0.52986  0.49742  0.76036  1.0000
  C   C2        1.0  0.52969  0.53045  0.75113  1.0000
  N   N2        1.0  0.49938  0.53388  0.73122  1.0000
  C   C3        1.0  0.46775  0.49978  0.71833  1.0000
  N   N3        1.0  0.46416  0.46415  0.72076  1.0000
  O   O1        1.0  0.49754  0.43227  0.75057  1.0000
  O   O2        1.0  0.56143  0.56561  0.76162  1.0000
  O   O3        1.0  0.43444  0.49723  0.69764  1.0000
  C   C4        1.0  0.60051  0.57317  0.75851  1.0000
  C   C5        1.0  0.42502  0.52775  0.70798  1.0000
  C   C6        1.0  0.44872  0.56734  0.73668  1.0000
  C   C7        1.0  0.43208  0.59271  0.75502  1.0000
  C   C8        1.0  0.39317  0.57986  0.74087  1.0000
  C   C9        1.0  0.36999  0.53965  0.71201  1.0000
  C   C10       1.0  0.38590  0.51396  0.69534  1.0000
  C   C11       1.0  0.60986  0.54695  0.79651  1.0000
  C   C12       1.0  0.65130  0.56032  0.78330  1.0000
  C   C13       1.0  0.68335  0.59903  0.73540  1.0000
  C   C14       1.0  0.67270  0.62482  0.69924  1.0000
  C   C15       1.0  0.63172  0.61206  0.71133  1.0000
  H   H1        1.0  0.47863  0.57772  0.74880  1.0000
  H   H2        1.0  0.44913  0.62356  0.78257  1.0000
  H   H3        1.0  0.33945  0.52840  0.70291  1.0000
  H   H4        1.0  0.36856  0.48292  0.67248  1.0000
  H   H5        1.0  0.58579  0.51693  0.83263  1.0000
  H   H6        1.0  0.65958  0.54075  0.81322  1.0000
  H   H7        1.0  0.69681  0.65479  0.65774  1.0000
  H   H8        1.0  0.62327  0.63142  0.68081  1.0000
  N   N4        1.0  0.38092  0.60866  0.75762  1.0000
  C   C16       1.0  0.35231  0.60257  0.70270  1.0000
  H   H9        1.0  0.33625  0.57485  0.63930  1.0000
  N   N5        1.0  0.72315  0.60854  0.73134  1.0000
  C   C17       1.0  0.75164  0.64449  0.72546  1.0000
  H   H10       1.0  0.74670  0.66923  0.72067  1.0000
  N   N6        1.0  0.38614  0.27441  0.71047  1.0000
  C   C18       1.0  0.38644  0.24748  0.77317  1.0000
  H   H11       1.0  0.40616  0.25428  0.84882  1.0000
  C   C19       1.0  0.16918  0.86762  0.72506  1.0000
  N   N7        1.0  0.13474  0.83569  0.70950  1.0000
  C   C20       1.0  0.13456  0.80240  0.71716  1.0000
  N   N8        1.0  0.16487  0.79846  0.73444  1.0000
  C   C21       1.0  0.19689  0.83223  0.74700  1.0000
  N   N9        1.0  0.20095  0.86808  0.74550  1.0000
  O   O4        1.0  0.16827  0.90079  0.71664  1.0000
  O   O5        1.0  0.10259  0.76739  0.70658  1.0000
  O   O6        1.0  0.23014  0.83414  0.76602  1.0000
  C   C22       1.0  0.06367  0.75988  0.70857  1.0000
  C   C23       1.0  0.23810  0.80281  0.75854  1.0000
  C   C24       1.0  0.21563  0.76403  0.71380  1.0000
  C   C25       1.0  0.22993  0.73746  0.70571  1.0000
  C   C26       1.0  0.26547  0.74820  0.74295  1.0000
  C   C27       1.0  0.28748  0.78769  0.78789  1.0000
  C   C28       1.0  0.27391  0.81462  0.79504  1.0000
  C   C29       1.0  0.05439  0.78600  0.66925  1.0000
  C   C30       1.0  0.01313  0.77242  0.67969  1.0000
  C   C31       1.0  0.98124  0.73363  0.72671  1.0000
  C   C32       1.0  0.99187  0.70796  0.76394  1.0000
  C   C33       1.0  0.03263  0.72092  0.75431  1.0000
  H   H12       1.0  0.18815  0.75494  0.68447  1.0000
  H   H13       1.0  0.21363  0.70714  0.66854  1.0000
  H   H14       1.0  0.31487  0.79750  0.82016  1.0000
  H   H15       1.0  0.29045  0.84511  0.82959  1.0000
  H   H16       1.0  0.07830  0.81610  0.63416  1.0000
  H   H17       1.0  0.00487  0.79187  0.64855  1.0000
  H   H18       1.0  0.96797  0.67791  0.80422  1.0000
  H   H19       1.0  0.04121  0.70170  0.78505  1.0000
  N   N10       1.0  0.27526  0.71792  0.73177  1.0000
  C   C34       1.0  0.30622  0.72336  0.76880  1.0000
  H   H20       1.0  0.32687  0.75174  0.81153  1.0000
  N   N11       1.0  0.94145  0.72379  0.72996  1.0000
  C   C35       1.0  0.91302  0.68779  0.73625  1.0000
  H   H21       1.0  0.91815  0.66309  0.73999  1.0000
  N   N12       1.0  0.28134  0.05799  0.75455  1.0000
  C   C36       1.0  0.28183  0.08500  0.68842  1.0000
  H   H22       1.0  0.26244  0.07835  0.61133  1.0000
  C   C37       1.0  0.87194  0.67719  0.73531  1.0000
  C   C38       1.0  0.84022  0.63783  0.75968  1.0000
  C   C39       1.0  0.82411  0.69443  0.70490  1.0000
  H   H23       1.0  0.84658  0.61606  0.78404  1.0000
  C   C40       1.0  0.86324  0.70537  0.70774  1.0000
  C   C41       1.0  0.80106  0.62688  0.75699  1.0000
  H   H24       1.0  0.88828  0.73544  0.68557  1.0000
  C   C42       1.0  0.79250  0.65505  0.72829  1.0000
  H   H25       1.0  0.77599  0.59682  0.77953  1.0000
  H   H26       1.0  0.81768  0.71621  0.68110  1.0000
  C   C43       1.0  0.31664  0.69188  0.75376  1.0000
  C   C44       1.0  0.35262  0.70033  0.78324  1.0000
  C   C45       1.0  0.30430  0.62451  0.68931  1.0000
  H   H27       1.0  0.37120  0.72996  0.82072  1.0000
  C   C46       1.0  0.29243  0.65337  0.70721  1.0000
  C   C47       1.0  0.36421  0.67143  0.76725  1.0000
  H   H28       1.0  0.26498  0.64721  0.68286  1.0000
  C   C48       1.0  0.34026  0.63301  0.71941  1.0000
  H   H29       1.0  0.39160  0.67749  0.79170  1.0000
  H   H30       1.0  0.28579  0.59489  0.65119  1.0000
  C   C49       1.0  0.49836  0.46658  0.24113  1.0000
  N   N13       1.0  0.53295  0.49868  0.25431  1.0000
  C   C50       1.0  0.53246  0.53185  0.25065  1.0000
  N   N14       1.0  0.50150  0.53542  0.23757  1.0000
  C   C51       1.0  0.46918  0.50151  0.22870  1.0000
  N   N15       1.0  0.46549  0.46574  0.22848  1.0000
  O   O7        1.0  0.50040  0.43362  0.24278  1.0000
  O   O8        1.0  0.56419  0.56698  0.26259  1.0000
  O   O9        1.0  0.43528  0.49960  0.21544  1.0000
  C   C52       1.0  0.46950  0.39515  0.23785  1.0000
  C   C53       1.0  0.43310  0.38276  0.20588  1.0000
  C   C54       1.0  0.40707  0.34274  0.20078  1.0000
  C   C55       1.0  0.41614  0.31490  0.22816  1.0000
  C   C56       1.0  0.45312  0.32841  0.26039  1.0000
  C   C57       1.0  0.47941  0.36804  0.26550  1.0000
  H   H31       1.0  0.42554  0.40368  0.18409  1.0000
  H   H32       1.0  0.37883  0.33218  0.17375  1.0000
  H   H33       1.0  0.46130  0.30807  0.28414  1.0000
  H   H34       1.0  0.50767  0.37877  0.29253  1.0000
  N   N16       1.0  0.39298  0.61727  0.24047  1.0000
  C   C58       1.0  0.36147  0.61166  0.20715  1.0000
  H   H35       1.0  0.34036  0.58302  0.16871  1.0000
  N   N17       1.0  0.72555  0.60945  0.23317  1.0000
  C   C59       1.0  0.75213  0.64545  0.24355  1.0000
  H   H36       1.0  0.74452  0.66968  0.25957  1.0000
  N   N18       1.0  0.38717  0.27573  0.21952  1.0000
  C   C60       1.0  0.39183  0.24759  0.24626  1.0000
  H   H37       1.0  0.41843  0.25235  0.27571  1.0000
  C   C61       1.0  0.16939  0.86812  0.23020  1.0000
  N   N19       1.0  0.13539  0.83568  0.21511  1.0000
  C   C62       1.0  0.13621  0.80278  0.22025  1.0000
  N   N20       1.0  0.16689  0.79965  0.23862  1.0000
  C   C63       1.0  0.19846  0.83391  0.25111  1.0000
  N   N21       1.0  0.20188  0.86945  0.24806  1.0000
  O   O10       1.0  0.16709  0.90067  0.22370  1.0000
  O   O11       1.0  0.10482  0.76763  0.20613  1.0000
  O   O12       1.0  0.23187  0.83686  0.27302  1.0000
  C   C64       1.0  0.06587  0.76047  0.20844  1.0000
  C   C65       1.0  0.05786  0.78664  0.16115  1.0000
  C   C66       1.0  0.01682  0.77395  0.17167  1.0000
  C   C67       1.0  0.98391  0.73572  0.22506  1.0000
  C   C68       1.0  0.99306  0.71002  0.27186  1.0000
  C   C69       1.0  0.03357  0.72228  0.26396  1.0000
  H   H38       1.0  0.08271  0.81625  0.12035  1.0000
  H   H39       1.0  0.00987  0.79363  0.13392  1.0000
  H   H40       1.0  0.96789  0.68068  0.32008  1.0000
  H   H41       1.0  0.04064  0.70319  0.30552  1.0000
  N   N22       1.0  0.28459  0.72564  0.22790  1.0000
  C   C70       1.0  0.31444  0.73186  0.27495  1.0000
  H   H42       1.0  0.33262  0.76016  0.32790  1.0000
  N   N23       1.0  0.94413  0.72638  0.22979  1.0000
  C   C71       1.0  0.91734  0.69047  0.21903  1.0000
  H   H43       1.0  0.92478  0.66611  0.20204  1.0000
  N   N24       1.0  0.27823  0.05922  0.24708  1.0000
  C   C72       1.0  0.27424  0.08715  0.21395  1.0000
  H   H44       1.0  0.24834  0.08219  0.17885  1.0000
  C   C73       1.0  0.32613  0.70123  0.25933  1.0000
  C   C74       1.0  0.36269  0.71012  0.28564  1.0000
  C   C75       1.0  0.31413  0.63406  0.19733  1.0000
  H   H45       1.0  0.38117  0.73989  0.32213  1.0000
  C   C76       1.0  0.30194  0.66260  0.21456  1.0000
  C   C77       1.0  0.37514  0.68163  0.26675  1.0000
  H   H46       1.0  0.27408  0.65605  0.19249  1.0000
  C   C78       1.0  0.35079  0.64297  0.22257  1.0000
  H   H47       1.0  0.40307  0.68818  0.28836  1.0000
  H   H48       1.0  0.29554  0.60427  0.16156  1.0000
  C   C79       1.0  0.61942  0.54596  0.30774  1.0000
  C   C80       1.0  0.60285  0.56705  0.27929  1.0000
  C  Sn1       1.0  0.62956  0.60581  0.21945  1.0000
  C  Sn2       1.0  0.67367  0.62371  0.18757  1.0000
  C   C81       1.0  0.68995  0.60235  0.21631  1.0000
  C   C82       1.0  0.66293  0.56359  0.27626  1.0000
  H   H49       1.0  0.59853  0.51596  0.35402  1.0000
  O  Te1       1.0  0.61247  0.62646  0.19178  1.0000
  O  Te2       1.0  0.70109  0.66240  0.12767  1.0000
  H   H50       1.0  0.67579  0.54726  0.29815  1.0000
  Mg  Mg1       1.0  0.66270  0.67846  0.10955  1.0000
  C   C83       1.0  0.38683  0.52264  0.16447  1.0000
  C   C84       1.0  0.42085  0.52789  0.19814  1.0000
  C  Sn3       1.0  0.44540  0.56410  0.25818  1.0000
  C  Sn4       1.0  0.43562  0.59559  0.28494  1.0000
  C   C85       1.0  0.40150  0.59003  0.25100  1.0000
  C   C86       1.0  0.37715  0.55368  0.19090  1.0000
  H   H51       1.0  0.36797  0.49451  0.11807  1.0000
  O  Te3       1.0  0.47928  0.56884  0.29111  1.0000
  O  Te4       1.0  0.45962  0.63209  0.34493  1.0000
  H   H52       1.0  0.35080  0.54962  0.16496  1.0000
  Mg  Mg2       1.0  0.50265  0.62412  0.37125  1.0000
  C   C87       1.0  0.41556  0.37352  0.75136  1.0000
  C   C88       1.0  0.45609  0.39214  0.75541  1.0000
  C  Sn5       1.0  0.47728  0.37055  0.73365  1.0000
  C  Sn6       1.0  0.45746  0.32957  0.70730  1.0000
  C   C89       1.0  0.41693  0.31121  0.70332  1.0000
  C   C90       1.0  0.39600  0.33310  0.72531  1.0000
  H   H53       1.0  0.39937  0.39045  0.76826  1.0000
  O  Te5       1.0  0.51775  0.38962  0.73813  1.0000
  O  Te6       1.0  0.47794  0.30729  0.68512  1.0000
  H   H54       1.0  0.36463  0.31867  0.72204  1.0000
  Mg  Mg3       1.0  0.53279  0.34661  0.70152  1.0000
  C   C91       1.0  0.31184  0.18921  0.23084  1.0000
  C   C92       1.0  0.35054  0.20506  0.24924  1.0000
  C  Sn7       1.0  0.36730  0.18082  0.24538  1.0000
  C  Sn8       1.0  0.34485  0.13997  0.22260  1.0000
  C   C93       1.0  0.30618  0.12441  0.20418  1.0000
  C   C94       1.0  0.28968  0.14893  0.20830  1.0000
  H   H55       1.0  0.29908  0.20818  0.23392  1.0000
  O  Te7       1.0  0.40600  0.19713  0.26402  1.0000
  O  Te8       1.0  0.36089  0.11508  0.21819  1.0000
  H   H56       1.0  0.25973  0.13666  0.19393  1.0000
  Mg  Mg4       1.0  0.41482  0.15118  0.24931  1.0000
  C   C95       1.0  0.24429  0.96054  0.26157  1.0000
  C   C96       1.0  0.20490  0.94086  0.24663  1.0000
  C  Sn9       1.0  0.18799  0.96166  0.21860  1.0000
  C  Sn10      1.0  0.70969  0.00292  0.20527  1.0000
  C   C97       1.0  0.74908  0.02233  0.22027  1.0000
  C   C98       1.0  0.76571  0.00124  0.24837  1.0000
  H   H57       1.0  0.25718  0.94422  0.28322  1.0000
  O  Te9       1.0  0.14858  0.94154  0.20405  1.0000
  O  Te10      1.0  0.69353  0.02443  0.17720  1.0000
  H   H58       1.0  0.79622  0.01648  0.25981  1.0000
  Mg  Mg5       1.0  0.13985  0.98378  0.16624  1.0000
  C   C99       1.0  0.81290  0.62536  0.24355  1.0000
  C   C100      1.0  0.79512  0.64892  0.24989  1.0000
  C  Sn11      1.0  0.81985  0.68940  0.23489  1.0000
  C  Sn12      1.0  0.86318  0.70652  0.21310  1.0000
  C   C101      1.0  0.88067  0.68268  0.20677  1.0000
  C   C102      1.0  0.85563  0.64222  0.22197  1.0000
  H   H59       1.0  0.79354  0.59405  0.25520  1.0000
  O  Te11      1.0  0.80158  0.71251  0.24158  1.0000
  O  Te12      1.0  0.88862  0.74689  0.19770  1.0000
  H   H60       1.0  0.86942  0.62398  0.21693  1.0000
  Mg  Mg6       1.0  0.84922  0.76611  0.21469  1.0000
  C   C103      1.0  0.70282  0.99836  0.74831  1.0000
  C   C104      1.0  0.24181  0.01650  0.75422  1.0000
  C  Sn13      1.0  0.76345  0.99439  0.73652  1.0000
  C  Sn14      1.0  0.74298  0.95337  0.71242  1.0000
  C   C105      1.0  0.70267  0.93551  0.70655  1.0000
  C   C106      1.0  0.68261  0.95791  0.72447  1.0000
  H   H61       1.0  0.18599  0.01570  0.76206  1.0000
  O  Te13      1.0  0.30239  0.01297  0.74281  1.0000
  O  Te14      1.0  0.76258  0.93057  0.69431  1.0000
  H   H62       1.0  0.65142  0.94387  0.71976  1.0000
  Mg  Mg7       1.0  0.81747  0.96935  0.71183  1.0000
  C   C107      1.0  0.36492  0.16740  0.78657  1.0000
  C   C108      1.0  0.36437  0.19980  0.74940  1.0000
  C  Sn15      1.0  0.33319  0.19480  0.69608  1.0000
  C  Sn16      1.0  0.30202  0.15662  0.67984  1.0000
  C   C109      1.0  0.30283  0.12440  0.71746  1.0000
  C   C110      1.0  0.33418  0.12973  0.77065  1.0000
  H   H63       1.0  0.38916  0.17152  0.82782  1.0000
  O  Te15      1.0  0.33312  0.22749  0.65941  1.0000
  O  Te16      1.0  0.27049  0.15079  0.62687  1.0000
  H   H64       1.0  0.33458  0.10464  0.79953  1.0000
  Mg  Mg8       1.0  0.28369  0.20454  0.59169  1.0000
  C   C111      1.0  0.22599  0.74324  0.22115  1.0000
  C   C112      1.0  0.26460  0.75152  0.22436  1.0000
  C  Sn17      1.0  0.29155  0.78951  0.25897  1.0000
  C  Sn18      1.0  0.27952  0.81970  0.29096  1.0000
  C   C113      1.0  0.24081  0.81111  0.28758  1.0000
  C   C114      1.0  0.21410  0.77300  0.25275  1.0000
  H   H65       1.0  0.20531  0.71375  0.19430  1.0000
  O  Te17      1.0  0.33002  0.79728  0.26162  1.0000
  O  Te18      1.0  0.30584  0.85793  0.32596  1.0000
  H   H66       1.0  0.18419  0.76659  0.25039  1.0000
  Mg  Mg9       1.0  0.35509  0.85398  0.31533  1.0000
