data_image0
_chemical_formula_structural       CNCNCNO3C12H8NCHNCHNCHCNCNCNO3C6H4CNCNCNO3C12H8NCHNCHNCHCNCNCNO3C6H4SnCSn2CSnTe4Mg2SnCSn2CSnTe4Mg2SnCSn2CSnTe4Mg2SnCSn2CSnTe4Mg2SnCSn2CSnTe4Mg2SnCSn2CSnTe4Mg2
_chemical_formula_sum              "C66 N18 O12 H30 Sn24 Te24 Mg12"
_cell_length_a       28.4884
_cell_length_b       28.3552
_cell_length_c       7.97944
_cell_angle_alpha    103.284
_cell_angle_beta     105.236
_cell_angle_gamma    120.499

_symmetry_space_group_name_H-M    'P1'
_space_group_IT_number       1

loop_
  _space_group_symop_operation_xyz
  'x, y, z'

loop_
  _atom_site_type_symbol
  _atom_site_label
  _atom_site_symmetry_multiplicity
  _atom_site_fract_x
  _atom_site_fract_y
  _atom_site_fract_z
  _atom_site_occupancy
  C   C1        1.0  0.50125  0.45672  0.74968  1.0000
  N   N1        1.0  0.54854  0.50036  0.73509  1.0000
  C   C2        1.0  0.54523  0.54474  0.72552  1.0000
  N   N2        1.0  0.50036  0.54908  0.72786  1.0000
  C   C3        1.0  0.45683  0.50311  0.74346  1.0000
  N   N3        1.0  0.45443  0.45532  0.75612  1.0000
  O   O1        1.0  0.50653  0.41263  0.75855  1.0000
  O   O2        1.0  0.58865  0.59198  0.70854  1.0000
  O   O3        1.0  0.40812  0.49927  0.74934  1.0000
  C   C4        1.0  0.64322  0.60348  0.71320  1.0000
  C   C5        1.0  0.39433  0.53969  0.73717  1.0000
  C   C6        1.0  0.42915  0.59365  0.72212  1.0000
  C   C7        1.0  0.40724  0.62766  0.71195  1.0000
  C   C8        1.0  0.35241  0.61006  0.72046  1.0000
  C   C9        1.0  0.31788  0.55494  0.73343  1.0000
  C   C10       1.0  0.33867  0.52017  0.74158  1.0000
  C   C11       1.0  0.66587  0.57156  0.75195  1.0000
  C   C12       1.0  0.72298  0.59236  0.76118  1.0000
  C   C13       1.0  0.75800  0.64367  0.73189  1.0000
  C   C14       1.0  0.73374  0.67484  0.69203  1.0000
  C   C15       1.0  0.67697  0.65484  0.68301  1.0000
  H   H1        1.0  0.47164  0.60813  0.71617  1.0000
  H   H2        1.0  0.43292  0.66940  0.69698  1.0000
  H   H3        1.0  0.27472  0.53902  0.73771  1.0000
  H   H4        1.0  0.31272  0.47784  0.75308  1.0000
  H   H5        1.0  0.63998  0.53218  0.77646  1.0000
  H   H6        1.0  0.74220  0.56896  0.79394  1.0000
  H   H7        1.0  0.75861  0.71415  0.66470  1.0000
  H   H8        1.0  0.65755  0.67813  0.65092  1.0000
  N   N4        1.0  0.33698  0.64954  0.71189  1.0000
  C   C16       1.0  0.29482  0.64582  0.75445  1.0000
  H   H9        1.0  0.26774  0.61163  0.79941  1.0000
  N   N5        1.0  0.81422  0.65833  0.74539  1.0000
  C   C17       1.0  0.84991  0.70206  0.71084  1.0000
  H   H10       1.0  0.83924  0.73114  0.66907  1.0000
  N   N6        1.0  0.33937  0.18542  0.71701  1.0000
  C   C18       1.0  0.35207  0.14858  0.73460  1.0000
  H   H11       1.0  0.39673  0.15894  0.75692  1.0000
  C   C19       1.0  0.20729  0.82309  0.73603  1.0000
  N   N7        1.0  0.21882  0.87529  0.73297  1.0000
  C   C20       1.0  0.17656  0.88189  0.74396  1.0000
  N   N8        1.0  0.12598  0.84242  0.75551  1.0000
  C   C21       1.0  0.11996  0.79267  0.75277  1.0000
  N   N9        1.0  0.15921  0.77999  0.74449  1.0000
  O   O4        1.0  0.25163  0.81852  0.72742  1.0000
  O   O5        1.0  0.17953  0.93072  0.74253  1.0000
  O   O6        1.0  0.07166  0.74776  0.76068  1.0000
  C   C22       1.0  0.01990  0.74345  0.75471  1.0000
  C   C23       1.0  0.00508  0.78146  0.72056  1.0000
  C   C24       1.0  0.94891  0.76675  0.70613  1.0000
  C   C25       1.0  0.90806  0.71584  0.72655  1.0000
  C   C26       1.0  0.92496  0.67912  0.76467  1.0000
  C   C27       1.0  0.98021  0.69261  0.77760  1.0000
  H   H12       1.0  0.03598  0.82047  0.70257  1.0000
  H   H13       1.0  0.93642  0.79545  0.67589  1.0000
  H   H14       1.0  0.89373  0.64036  0.78410  1.0000
  H   H15       1.0  0.99380  0.66455  0.80567  1.0000
  C   C28       1.0  0.49905  0.45711  0.25455  1.0000
  N   N10       1.0  0.54749  0.49963  0.24114  1.0000
  C   C29       1.0  0.54560  0.54439  0.22686  1.0000
  N   N11       1.0  0.50150  0.55041  0.22546  1.0000
  C   C30       1.0  0.45679  0.50550  0.24088  1.0000
  N   N12       1.0  0.45261  0.45723  0.25667  1.0000
  O   O7        1.0  0.50261  0.41232  0.26669  1.0000
  O   O8        1.0  0.58975  0.59031  0.20792  1.0000
  O   O9        1.0  0.40855  0.50344  0.24208  1.0000
  C   C31       1.0  0.45682  0.35743  0.25724  1.0000
  C   C32       1.0  0.64391  0.60034  0.21486  1.0000
  C   C33       1.0  0.66450  0.56664  0.25091  1.0000
  C   C34       1.0  0.72135  0.58584  0.26071  1.0000
  C   C35       1.0  0.75794  0.63719  0.23411  1.0000
  C   C36       1.0  0.73578  0.67026  0.19767  1.0000
  C   C37       1.0  0.67945  0.65203  0.18866  1.0000
  C   C38       1.0  0.40742  0.34519  0.29332  1.0000
  C   C39       1.0  0.36628  0.28696  0.27437  1.0000
  C   C40       1.0  0.37396  0.24137  0.22470  1.0000
  C   C41       1.0  0.42440  0.25530  0.18953  1.0000
  C   C42       1.0  0.46529  0.31267  0.20540  1.0000
  H   H16       1.0  0.63735  0.52729  0.27383  1.0000
  H   H17       1.0  0.73909  0.56113  0.29177  1.0000
  H   H18       1.0  0.76205  0.70990  0.17356  1.0000
  H   H19       1.0  0.66179  0.67701  0.16028  1.0000
  H   H20       1.0  0.40063  0.37962  0.33225  1.0000
  H   H21       1.0  0.32735  0.27596  0.30171  1.0000
  H   H22       1.0  0.43065  0.22057  0.14375  1.0000
  H   H23       1.0  0.50346  0.32374  0.17349  1.0000
  N   N13       1.0  0.34732  0.66112  0.20784  1.0000
  C   C43       1.0  0.31075  0.66203  0.27366  1.0000
  H   H24       1.0  0.29201  0.63426  0.34810  1.0000
  N   N14       1.0  0.81376  0.65057  0.24710  1.0000
  C   C44       1.0  0.84913  0.69357  0.20951  1.0000
  H   H25       1.0  0.83804  0.72199  0.16441  1.0000
  N   N15       1.0  0.33045  0.18538  0.21557  1.0000
  C   C45       1.0  0.34300  0.14825  0.23038  1.0000
  H   H26       1.0  0.38730  0.15828  0.24916  1.0000
  C   C46       1.0  0.20679  0.82435  0.22731  1.0000
  N   N16       1.0  0.21600  0.87580  0.22509  1.0000
  C   C47       1.0  0.17391  0.88138  0.24460  1.0000
  N   N17       1.0  0.12497  0.84109  0.26133  1.0000
  C   C48       1.0  0.12067  0.79181  0.25513  1.0000
  N   N18       1.0  0.16049  0.78058  0.24064  1.0000
  O   O10       1.0  0.25127  0.82136  0.21094  1.0000
  O   O11       1.0  0.17575  0.93008  0.24877  1.0000
  O   O12       1.0  0.07392  0.74612  0.26665  1.0000
  C   C49       1.0  0.22017  0.98132  0.23876  1.0000
  C   C50       1.0  0.27406  0.99462  0.23395  1.0000
  C   C51       1.0  0.31339  0.04966  0.23074  1.0000
  C   C52       1.0  0.29989  0.09083  0.22977  1.0000
  C   C53       1.0  0.24506  0.07594  0.23378  1.0000
  C   C54       1.0  0.20567  0.02182  0.23825  1.0000
  H   H27       1.0  0.28488  0.96316  0.23438  1.0000
  H   H28       1.0  0.35550  0.06056  0.22658  1.0000
  H   H29       1.0  0.23524  0.10841  0.23667  1.0000
  H   H30       1.0  0.16375  0.01002  0.24532  1.0000
  C  Sn1       1.0  0.75496  0.07495  0.79016  1.0000
  C   C55       1.0  0.81043  0.09499  0.78522  1.0000
  C  Sn2       1.0  0.82415  0.05444  0.73804  1.0000
  C  Sn3       1.0  0.78152  0.99255  0.69477  1.0000
  C   C56       1.0  0.72609  0.97253  0.69968  1.0000
  C  Sn4       1.0  0.71233  0.01305  0.74689  1.0000
  O  Te1       1.0  0.23705  0.11628  0.83768  1.0000
  O  Te2       1.0  0.87991  0.07555  0.73411  1.0000
  O  Te3       1.0  0.79433  0.95121  0.64722  1.0000
  O  Te4       1.0  0.65661  0.99197  0.75079  1.0000
  Mg  Mg1       1.0  0.87635  0.00177  0.66109  1.0000
  Mg  Mg2       1.0  0.66011  0.06570  0.82369  1.0000
  C  Sn5       1.0  0.23532  0.72944  0.32521  1.0000
  C   C57       1.0  0.26251  0.77854  0.27992  1.0000
  C  Sn6       1.0  0.30398  0.78728  0.20533  1.0000
  C  Sn7       1.0  0.31854  0.74606  0.17527  1.0000
  C   C58       1.0  0.29135  0.69699  0.22051  1.0000
  C  Sn8       1.0  0.24988  0.68821  0.29514  1.0000
  O  Te5       1.0  0.19398  0.72158  0.39960  1.0000
  O  Te6       1.0  0.33060  0.83672  0.16121  1.0000
  O  Te7       1.0  0.35991  0.75396  0.10081  1.0000
  O  Te8       1.0  0.22326  0.63881  0.33922  1.0000
  Mg  Mg3       1.0  0.38416  0.82813  0.06303  1.0000
  Mg  Mg4       1.0  0.16967  0.64733  0.43731  1.0000
  C  Sn9       1.0  0.32553  0.52387  0.16161  1.0000
  C   C59       1.0  0.38089  0.53592  0.17671  1.0000
  C  Sn10      1.0  0.43099  0.59495  0.22946  1.0000
  C  Sn11      1.0  0.42566  0.64294  0.26803  1.0000
  C   C60       1.0  0.37033  0.63088  0.25296  1.0000
  C  Sn12      1.0  0.32020  0.57187  0.20019  1.0000
  O  Te9       1.0  0.27604  0.46452  0.10867  1.0000
  O  Te10      1.0  0.48587  0.60587  0.24354  1.0000
  O  Te11      1.0  0.47521  0.70233  0.32100  1.0000
  O  Te12      1.0  0.26536  0.56093  0.18613  1.0000
  Mg  Mg5       1.0  0.54033  0.69438  0.32076  1.0000
  Mg  Mg6       1.0  0.21088  0.47245  0.10902  1.0000
  C  Sn13      1.0  0.21237  0.67470  0.68176  1.0000
  C   C61       1.0  0.26535  0.68092  0.69597  1.0000
  C  Sn14      1.0  0.31864  0.73764  0.74732  1.0000
  C  Sn15      1.0  0.31900  0.78923  0.78539  1.0000
  C   C62       1.0  0.26605  0.78300  0.77121  1.0000
  C  Sn16      1.0  0.21273  0.72629  0.71983  1.0000
  O  Te13      1.0  0.15961  0.61755  0.63021  1.0000
  O  Te14      1.0  0.37105  0.74272  0.76052  1.0000
  O  Te15      1.0  0.37182  0.84640  0.83697  1.0000
  O  Te16      1.0  0.16035  0.72120  0.70665  1.0000
  Mg  Mg7       1.0  0.43168  0.83023  0.83594  1.0000
  Mg  Mg8       1.0  0.09970  0.63372  0.63135  1.0000
  C  Sn17      1.0  0.36963  0.29449  0.73112  1.0000
  C   C63       1.0  0.37199  0.24542  0.68142  1.0000
  C  Sn18      1.0  0.42488  0.25428  0.68123  1.0000
  C  Sn19      1.0  0.47652  0.31342  0.73190  1.0000
  C   C64       1.0  0.47415  0.36245  0.78159  1.0000
  C  Sn20      1.0  0.42127  0.35364  0.78178  1.0000
  O  Te17      1.0  0.31627  0.28458  0.73033  1.0000
  O  Te18      1.0  0.42614  0.20451  0.63096  1.0000
  O  Te19      1.0  0.52990  0.32330  0.73264  1.0000
  O  Te20      1.0  0.42000  0.40336  0.83205  1.0000
  Mg  Mg9       1.0  0.50934  0.24110  0.65355  1.0000
  Mg  Mg10      1.0  0.33684  0.36684  0.80960  1.0000
  C  Sn21      1.0  0.96167  0.67091  0.22514  1.0000
  C   C65       1.0  0.00612  0.72009  0.20802  1.0000
  C  Sn22      1.0  0.00403  0.76873  0.21707  1.0000
  C  Sn23      1.0  0.95652  0.76823  0.24392  1.0000
  C   C66       1.0  0.91211  0.71908  0.26105  1.0000
  C  Sn24      1.0  0.91417  0.67040  0.25198  1.0000
  O  Te21      1.0  0.96467  0.62277  0.21568  1.0000
  O  Te22      1.0  0.04897  0.81738  0.19952  1.0000
  O  Te23      1.0  0.95356  0.81642  0.25337  1.0000
  O  Te24      1.0  0.86926  0.62178  0.26955  1.0000
  Mg  Mg11      1.0  0.02529  0.87236  0.22191  1.0000
  Mg  Mg12      1.0  0.89291  0.56680  0.24729  1.0000
