data_image0
_chemical_formula_structural       CNCNCNO3C6H4NCHNCHNCHCNCNCNO3C6H4NCHNCHNCHC3HC2HCH2C3HC2HCH2C3HC2HCH2CNCNCNO3C12H8NCHNCHNCHCNCNCNO3C6H4NCHNCHNCHC3HC2HCH2SnCSn2CSnTe4Mg2SnCSn2CSnTe4Mg2SnCSn2CSnTe4Mg2SnCSn2CSnTe4Mg2SnCSn2CSnTe4Mg2SnCSn2CSnTe4Mg2SnCSn2CSnTe4Mg2SnCSn2CSnTe4Mg2SnCSn2CSnTe4Mg2
_chemical_formula_sum              "C96 N24 O12 H48 Sn36 Te36 Mg18"
_cell_length_a       39.3411
_cell_length_b       39.5561
_cell_length_c       8.05387
_cell_angle_alpha    104.064
_cell_angle_beta     61.2205
_cell_angle_gamma    119.907

_symmetry_space_group_name_H-M    'P1'
_space_group_IT_number       1

loop_
  _space_group_symop_operation_xyz
  'x, y, z'

loop_
  _atom_site_type_symbol
  _atom_site_label
  _atom_site_symmetry_multiplicity
  _atom_site_fract_x
  _atom_site_fract_y
  _atom_site_fract_z
  _atom_site_occupancy
  C   C1        1.0  0.49600  0.46515  0.74278  1.0000
  N   N1        1.0  0.52986  0.49742  0.76036  1.0000
  C   C2        1.0  0.52969  0.53045  0.75113  1.0000
  N   N2        1.0  0.49938  0.53388  0.73122  1.0000
  C   C3        1.0  0.46775  0.49978  0.71833  1.0000
  N   N3        1.0  0.46416  0.46415  0.72076  1.0000
  O   O1        1.0  0.49754  0.43227  0.75057  1.0000
  O   O2        1.0  0.56143  0.56561  0.76162  1.0000
  O   O3        1.0  0.43444  0.49723  0.69764  1.0000
  C   C4        1.0  0.42502  0.52775  0.70798  1.0000
  C   C5        1.0  0.44872  0.56734  0.73668  1.0000
  C   C6        1.0  0.43208  0.59271  0.75502  1.0000
  C   C7        1.0  0.39317  0.57986  0.74087  1.0000
  C   C8        1.0  0.36999  0.53965  0.71201  1.0000
  C   C9        1.0  0.38590  0.51396  0.69534  1.0000
  H   H1        1.0  0.47863  0.57772  0.74880  1.0000
  H   H2        1.0  0.44913  0.62356  0.78257  1.0000
  H   H3        1.0  0.33945  0.52840  0.70291  1.0000
  H   H4        1.0  0.36856  0.48292  0.67248  1.0000
  N   N4        1.0  0.38092  0.60866  0.75762  1.0000
  C   C10       1.0  0.35231  0.60257  0.70270  1.0000
  H   H5        1.0  0.33625  0.57485  0.63930  1.0000
  N   N5        1.0  0.72315  0.60854  0.73134  1.0000
  C   C11       1.0  0.75164  0.64449  0.72546  1.0000
  H   H6        1.0  0.74670  0.66923  0.72067  1.0000
  N   N6        1.0  0.38614  0.27441  0.71047  1.0000
  C   C12       1.0  0.38644  0.24748  0.77317  1.0000
  H   H7        1.0  0.40616  0.25428  0.84882  1.0000
  C   C13       1.0  0.16918  0.86762  0.72506  1.0000
  N   N7        1.0  0.13474  0.83569  0.70950  1.0000
  C   C14       1.0  0.13456  0.80240  0.71716  1.0000
  N   N8        1.0  0.16487  0.79846  0.73444  1.0000
  C   C15       1.0  0.19689  0.83223  0.74700  1.0000
  N   N9        1.0  0.20095  0.86808  0.74550  1.0000
  O   O4        1.0  0.16827  0.90079  0.71664  1.0000
  O   O5        1.0  0.10259  0.76739  0.70658  1.0000
  O   O6        1.0  0.23014  0.83414  0.76602  1.0000
  C   C16       1.0  0.23810  0.80281  0.75854  1.0000
  C   C17       1.0  0.21563  0.76403  0.71380  1.0000
  C   C18       1.0  0.22993  0.73746  0.70571  1.0000
  C   C19       1.0  0.26547  0.74820  0.74295  1.0000
  C   C20       1.0  0.28748  0.78769  0.78789  1.0000
  C   C21       1.0  0.27391  0.81462  0.79504  1.0000
  H   H8        1.0  0.18815  0.75494  0.68447  1.0000
  H   H9        1.0  0.21363  0.70714  0.66854  1.0000
  H   H10       1.0  0.31487  0.79750  0.82016  1.0000
  H   H11       1.0  0.29045  0.84511  0.82959  1.0000
  N   N10       1.0  0.27526  0.71792  0.73177  1.0000
  C   C22       1.0  0.30622  0.72336  0.76880  1.0000
  H   H12       1.0  0.32687  0.75174  0.81153  1.0000
  N   N11       1.0  0.94145  0.72379  0.72996  1.0000
  C   C23       1.0  0.91302  0.68779  0.73625  1.0000
  H   H13       1.0  0.91815  0.66309  0.73999  1.0000
  N   N12       1.0  0.28134  0.05799  0.75455  1.0000
  C   C24       1.0  0.28183  0.08500  0.68842  1.0000
  H   H14       1.0  0.26244  0.07835  0.61133  1.0000
  C   C25       1.0  0.87194  0.67719  0.73531  1.0000
  C   C26       1.0  0.84022  0.63783  0.75968  1.0000
  C   C27       1.0  0.82411  0.69443  0.70490  1.0000
  H   H15       1.0  0.84658  0.61606  0.78404  1.0000
  C   C28       1.0  0.86324  0.70537  0.70774  1.0000
  C   C29       1.0  0.80106  0.62688  0.75699  1.0000
  H   H16       1.0  0.88828  0.73544  0.68557  1.0000
  C   C30       1.0  0.79250  0.65505  0.72829  1.0000
  H   H17       1.0  0.77599  0.59682  0.77953  1.0000
  H   H18       1.0  0.81768  0.71621  0.68110  1.0000
  C   C31       1.0  0.31664  0.69188  0.75376  1.0000
  C   C32       1.0  0.35262  0.70033  0.78324  1.0000
  C   C33       1.0  0.30430  0.62451  0.68931  1.0000
  H   H19       1.0  0.37120  0.72996  0.82072  1.0000
  C   C34       1.0  0.29243  0.65337  0.70721  1.0000
  C   C35       1.0  0.36421  0.67143  0.76725  1.0000
  H   H20       1.0  0.26498  0.64721  0.68286  1.0000
  C   C36       1.0  0.34026  0.63301  0.71941  1.0000
  H   H21       1.0  0.39160  0.67749  0.79170  1.0000
  H   H22       1.0  0.28579  0.59489  0.65119  1.0000
  C   C37       1.0  0.30888  0.12623  0.70932  1.0000
  C   C38       1.0  0.30081  0.15466  0.67885  1.0000
  C   C39       1.0  0.36803  0.17776  0.77993  1.0000
  H   H23       1.0  0.27486  0.14553  0.63752  1.0000
  C   C40       1.0  0.34303  0.13835  0.75923  1.0000
  C   C41       1.0  0.32579  0.19407  0.69957  1.0000
  H   H24       1.0  0.34891  0.11619  0.78280  1.0000
  C   C42       1.0  0.35980  0.20617  0.75039  1.0000
  H   H25       1.0  0.32009  0.21626  0.67498  1.0000
  H   H26       1.0  0.39407  0.18693  0.82081  1.0000
  C   C43       1.0  0.49836  0.46658  0.24113  1.0000
  N   N13       1.0  0.53295  0.49868  0.25431  1.0000
  C   C44       1.0  0.53246  0.53185  0.25065  1.0000
  N   N14       1.0  0.50150  0.53542  0.23757  1.0000
  C   C45       1.0  0.46918  0.50151  0.22870  1.0000
  N   N15       1.0  0.46549  0.46574  0.22848  1.0000
  O   O7        1.0  0.50040  0.43362  0.24278  1.0000
  O   O8        1.0  0.56419  0.56698  0.26259  1.0000
  O   O9        1.0  0.43528  0.49960  0.21544  1.0000
  C   C46       1.0  0.60339  0.57433  0.25752  1.0000
  C   C47       1.0  0.42828  0.53134  0.21881  1.0000
  C   C48       1.0  0.44929  0.56949  0.27494  1.0000
  C   C49       1.0  0.43602  0.59660  0.27934  1.0000
  C   C50       1.0  0.40254  0.58682  0.22925  1.0000
  C   C51       1.0  0.38208  0.54799  0.17245  1.0000
  C   C52       1.0  0.39480  0.52060  0.16788  1.0000
  C   C53       1.0  0.61162  0.54849  0.30590  1.0000
  C   C54       1.0  0.65284  0.56153  0.29413  1.0000
  C   C55       1.0  0.68558  0.59974  0.23881  1.0000
  C   C56       1.0  0.67610  0.62510  0.19132  1.0000
  C   C57       1.0  0.63542  0.61253  0.20056  1.0000
  H   H27       1.0  0.47501  0.57765  0.31488  1.0000
  H   H28       1.0  0.45124  0.62636  0.32585  1.0000
  H   H29       1.0  0.35680  0.53920  0.12745  1.0000
  H   H30       1.0  0.37970  0.49078  0.12167  1.0000
  H   H31       1.0  0.58688  0.51889  0.34855  1.0000
  H   H32       1.0  0.66031  0.54222  0.33139  1.0000
  H   H33       1.0  0.70114  0.65429  0.14035  1.0000
  H   H34       1.0  0.62780  0.63129  0.15985  1.0000
  N   N16       1.0  0.39298  0.61727  0.24047  1.0000
  C   C58       1.0  0.36147  0.61166  0.20715  1.0000
  H   H35       1.0  0.34036  0.58302  0.16871  1.0000
  N   N17       1.0  0.72555  0.60945  0.23317  1.0000
  C   C59       1.0  0.75213  0.64545  0.24355  1.0000
  H   H36       1.0  0.74452  0.66968  0.25957  1.0000
  N   N18       1.0  0.38717  0.27573  0.21952  1.0000
  C   C60       1.0  0.39183  0.24759  0.24626  1.0000
  H   H37       1.0  0.41843  0.25235  0.27571  1.0000
  C   C61       1.0  0.16939  0.86812  0.23020  1.0000
  N   N19       1.0  0.13539  0.83568  0.21511  1.0000
  C   C62       1.0  0.13621  0.80278  0.22025  1.0000
  N   N20       1.0  0.16689  0.79965  0.23862  1.0000
  C   C63       1.0  0.19846  0.83391  0.25111  1.0000
  N   N21       1.0  0.20188  0.86945  0.24806  1.0000
  O   O10       1.0  0.16709  0.90067  0.22370  1.0000
  O   O11       1.0  0.10482  0.76763  0.20613  1.0000
  O   O12       1.0  0.23187  0.83686  0.27302  1.0000
  C   C64       1.0  0.24143  0.80660  0.26540  1.0000
  C   C65       1.0  0.21877  0.76718  0.23032  1.0000
  C   C66       1.0  0.23509  0.74193  0.21785  1.0000
  C   C67       1.0  0.27282  0.75466  0.24187  1.0000
  C   C68       1.0  0.29511  0.79479  0.27599  1.0000
  C   C69       1.0  0.27944  0.82037  0.28791  1.0000
  H   H38       1.0  0.18970  0.75672  0.21092  1.0000
  H   H39       1.0  0.21874  0.71116  0.18715  1.0000
  H   H40       1.0  0.32477  0.80618  0.29299  1.0000
  H   H41       1.0  0.29618  0.85132  0.31428  1.0000
  N   N22       1.0  0.28459  0.72564  0.22790  1.0000
  C   C70       1.0  0.31444  0.73186  0.27495  1.0000
  H   H42       1.0  0.33262  0.76016  0.32790  1.0000
  N   N23       1.0  0.94413  0.72638  0.22979  1.0000
  C   C71       1.0  0.91734  0.69047  0.21903  1.0000
  H   H43       1.0  0.92478  0.66611  0.20204  1.0000
  N   N24       1.0  0.27823  0.05922  0.24708  1.0000
  C   C72       1.0  0.27424  0.08715  0.21395  1.0000
  H   H44       1.0  0.24834  0.08219  0.17885  1.0000
  C   C73       1.0  0.87546  0.67958  0.22579  1.0000
  C   C74       1.0  0.84509  0.63984  0.24109  1.0000
  C   C75       1.0  0.82424  0.69631  0.22403  1.0000
  H   H45       1.0  0.85322  0.61803  0.25112  1.0000
  C   C76       1.0  0.86442  0.70775  0.21746  1.0000
  C   C77       1.0  0.80492  0.62843  0.24777  1.0000
  H   H46       1.0  0.88836  0.73821  0.20331  1.0000
  C   C78       1.0  0.79396  0.65655  0.23817  1.0000
  H   H47       1.0  0.78094  0.59799  0.26213  1.0000
  H   H48       1.0  0.81605  0.71808  0.21423  1.0000
  C  Sn1       1.0  0.66068  0.62776  0.75397  1.0000
  C   C79       1.0  0.67705  0.60618  0.78005  1.0000
  C  Sn2       1.0  0.65550  0.56546  0.78104  1.0000
  C  Sn3       1.0  0.61679  0.54589  0.75531  1.0000
  C   C80       1.0  0.60044  0.56747  0.72922  1.0000
  C  Sn4       1.0  0.62197  0.60819  0.72824  1.0000
  O  Te1       1.0  0.68276  0.66844  0.75347  1.0000
  O  Te2       1.0  0.67249  0.54452  0.80743  1.0000
  O  Te3       1.0  0.59471  0.50518  0.75583  1.0000
  O  Te4       1.0  0.60501  0.62913  0.70183  1.0000
  Mg  Mg1       1.0  0.63068  0.48954  0.79694  1.0000
  Mg  Mg2       1.0  0.64680  0.68411  0.71220  1.0000
  C  Sn5       1.0  0.19729  0.97487  0.14643  1.0000
  C   C81       1.0  0.20231  0.94444  0.17465  1.0000
  C  Sn6       1.0  0.22974  0.95177  0.25583  1.0000
  C  Sn7       1.0  0.25261  0.99031  0.31005  1.0000
  C   C82       1.0  0.74626  0.02072  0.28187  1.0000
  C  Sn8       1.0  0.71884  0.01342  0.20066  1.0000
  O  Te5       1.0  0.16969  0.96688  0.06504  1.0000
  O  Te6       1.0  0.23425  0.92087  0.28256  1.0000
  O  Te7       1.0  0.28022  0.99829  0.39150  1.0000
  O  Te8       1.0  0.71432  0.04429  0.17396  1.0000
  Mg  Mg3       1.0  0.27561  0.94647  0.39906  1.0000
  Mg  Mg4       1.0  0.67295  0.01872  0.05756  1.0000
  C  Sn9       1.0  0.37415  0.16876  0.17184  1.0000
  C   C83       1.0  0.36842  0.20157  0.18425  1.0000
  C  Sn10      1.0  0.32740  0.19764  0.23306  1.0000
  C  Sn11      1.0  0.29135  0.16012  0.27037  1.0000
  C   C84       1.0  0.29709  0.12733  0.25798  1.0000
  C  Sn12      1.0  0.33810  0.13124  0.20914  1.0000
  O  Te9       1.0  0.41545  0.17338  0.12281  1.0000
  O  Te10      1.0  0.32248  0.23088  0.24451  1.0000
  O  Te11      1.0  0.25003  0.15552  0.31942  1.0000
  O  Te12      1.0  0.34303  0.09803  0.19772  1.0000
  Mg  Mg5       1.0  0.25976  0.20958  0.31670  1.0000
  Mg  Mg6       1.0  0.40572  0.11929  0.12564  1.0000
  C  Sn13      1.0  0.31688  0.64072  0.14219  1.0000
  C   C85       1.0  0.35095  0.64417  0.16969  1.0000
  C  Sn14      1.0  0.37164  0.67680  0.26214  1.0000
  C  Sn15      1.0  0.35798  0.70658  0.32860  1.0000
  C   C86       1.0  0.32392  0.70312  0.30112  1.0000
  C  Sn16      1.0  0.30322  0.67051  0.20865  1.0000
  O  Te13      1.0  0.29666  0.60786  0.04940  1.0000
  O  Te14      1.0  0.40564  0.67960  0.28792  1.0000
  O  Te15      1.0  0.37823  0.73947  0.42144  1.0000
  O  Te16      1.0  0.26924  0.66769  0.18289  1.0000
  Mg  Mg7       1.0  0.42297  0.72997  0.42270  1.0000
  Mg  Mg8       1.0  0.25186  0.61733  0.04822  1.0000
  C  Sn17      1.0  0.41282  0.37274  0.81202  1.0000
  C   C87       1.0  0.45517  0.39098  0.79608  1.0000
  C  Sn18      1.0  0.47995  0.37057  0.72410  1.0000
  C  Sn19      1.0  0.46205  0.33112  0.66674  1.0000
  C   C88       1.0  0.41973  0.31291  0.68266  1.0000
  C  Sn20      1.0  0.39492  0.33329  0.75466  1.0000
  O  Te17      1.0  0.38863  0.39370  0.88437  1.0000
  O  Te18      1.0  0.52221  0.38942  0.70957  1.0000
  O  Te19      1.0  0.48628  0.31017  0.59436  1.0000
  O  Te20      1.0  0.35269  0.31446  0.76917  1.0000
  Mg  Mg9       1.0  0.54230  0.34858  0.60210  1.0000
  Mg  Mg10      1.0  0.33257  0.35528  0.87652  1.0000
  C  Sn21      1.0  0.69990  0.99768  0.80934  1.0000
  C   C89       1.0  0.24073  0.01538  0.79529  1.0000
  C  Sn22      1.0  0.76611  0.99435  0.72714  1.0000
  C  Sn23      1.0  0.74766  0.95482  0.67176  1.0000
  C   C90       1.0  0.70554  0.93715  0.68579  1.0000
  C  Sn24      1.0  0.68145  0.95815  0.75396  1.0000
  O  Te21      1.0  0.17513  0.01925  0.87787  1.0000
  O  Te22      1.0  0.30686  0.01267  0.71444  1.0000
  O  Te23      1.0  0.77116  0.93326  0.60320  1.0000
  O  Te24      1.0  0.63941  0.93986  0.76664  1.0000
  Mg  Mg11      1.0  0.82721  0.97109  0.61219  1.0000
  Mg  Mg12      1.0  0.62036  0.98141  0.86877  1.0000
  C  Sn25      1.0  0.48305  0.35888  0.21049  1.0000
  C   C91       1.0  0.47766  0.38978  0.19037  1.0000
  C  Sn26      1.0  0.43802  0.38333  0.20502  1.0000
  C  Sn27      1.0  0.40303  0.34520  0.24064  1.0000
  C   C92       1.0  0.40843  0.31433  0.26077  1.0000
  C  Sn28      1.0  0.44806  0.32075  0.24611  1.0000
  O  Te25      1.0  0.52296  0.36601  0.19531  1.0000
  O  Te26      1.0  0.43341  0.41468  0.18432  1.0000
  O  Te27      1.0  0.36310  0.33809  0.25581  1.0000
  O  Te28      1.0  0.45267  0.28943  0.26682  1.0000
  Mg  Mg13      1.0  0.37273  0.39025  0.21700  1.0000
  Mg  Mg14      1.0  0.51332  0.31383  0.23427  1.0000
  C  Sn29      1.0  0.03057  0.77555  0.11128  1.0000
  C   C93       1.0  0.99438  0.73923  0.16807  1.0000
  C  Sn30      1.0  0.99254  0.71343  0.26723  1.0000
  C  Sn31      1.0  0.02759  0.72417  0.31064  1.0000
  C   C94       1.0  0.06374  0.76047  0.25389  1.0000
  C  Sn32      1.0  0.06561  0.78629  0.15469  1.0000
  O  Te29      1.0  0.03171  0.80088  0.01230  1.0000
  O  Te30      1.0  0.95603  0.67727  0.32246  1.0000
  O  Te31      1.0  0.02642  0.69880  0.40970  1.0000
  O  Te32      1.0  0.10209  0.82243  0.09950  1.0000
  Mg  Mg15      1.0  0.96966  0.65282  0.45451  1.0000
  Mg  Mg16      1.0  0.99034  0.84771  0.96754  1.0000
  C  Sn33      1.0  0.99544  0.71116  0.82069  1.0000
  C   C95       1.0  0.97980  0.73204  0.78360  1.0000
  C  Sn34      1.0  0.00846  0.76755  0.68766  1.0000
  C  Sn35      1.0  0.05371  0.78251  0.62741  1.0000
  C   C96       1.0  0.06933  0.76164  0.66447  1.0000
  C  Sn36      1.0  0.04069  0.72612  0.76044  1.0000
  O  Te33      1.0  0.96619  0.67572  0.91681  1.0000
  O  Te34      1.0  0.99206  0.78790  0.65227  1.0000
  O  Te35      1.0  0.08296  0.81799  0.53122  1.0000
  O  Te36      1.0  0.05707  0.70578  0.79580  1.0000
  Mg  Mg17      1.0  0.04488  0.83490  0.51632  1.0000
  Mg  Mg18      1.0  0.00429  0.65876  0.93165  1.0000
