data_image0
_chemical_formula_structural       CNCNCNO3C18H12NCHNCHNCHCNCNCNO3C6H4CNCNCNO3C6H4NCHNCHNCHCNCNCNO3C6H4C2Sn2C2HTe2HMgC2Sn2C2HTe2HMgC2Sn2C2HTe2HMgC2Sn2C2HTe2HMgC2Sn2C2HTe2HMgC2Sn2C2HTe2HMg
_chemical_formula_sum              "C78 N18 O12 H42 Sn12 Te12 Mg6"
_cell_length_a       28.4884
_cell_length_b       28.3552
_cell_length_c       7.97944
_cell_angle_alpha    103.284
_cell_angle_beta     105.236
_cell_angle_gamma    120.499

_symmetry_space_group_name_H-M    'P1'
_space_group_IT_number       1

loop_
  _space_group_symop_operation_xyz
  'x, y, z'

loop_
  _atom_site_type_symbol
  _atom_site_label
  _atom_site_symmetry_multiplicity
  _atom_site_fract_x
  _atom_site_fract_y
  _atom_site_fract_z
  _atom_site_occupancy
  C   C1        1.0  0.50125  0.45672  0.74968  1.0000
  N   N1        1.0  0.54854  0.50036  0.73509  1.0000
  C   C2        1.0  0.54523  0.54474  0.72552  1.0000
  N   N2        1.0  0.50036  0.54908  0.72786  1.0000
  C   C3        1.0  0.45683  0.50311  0.74346  1.0000
  N   N3        1.0  0.45443  0.45532  0.75612  1.0000
  O   O1        1.0  0.50653  0.41263  0.75855  1.0000
  O   O2        1.0  0.58865  0.59198  0.70854  1.0000
  O   O3        1.0  0.40812  0.49927  0.74934  1.0000
  C   C4        1.0  0.46231  0.35737  0.75184  1.0000
  C   C5        1.0  0.64322  0.60348  0.71320  1.0000
  C   C6        1.0  0.39433  0.53969  0.73717  1.0000
  C   C7        1.0  0.42915  0.59365  0.72212  1.0000
  C   C8        1.0  0.40724  0.62766  0.71195  1.0000
  C   C9        1.0  0.35241  0.61006  0.72046  1.0000
  C   C10       1.0  0.31788  0.55494  0.73343  1.0000
  C   C11       1.0  0.33867  0.52017  0.74158  1.0000
  C   C12       1.0  0.66587  0.57156  0.75195  1.0000
  C   C13       1.0  0.72298  0.59236  0.76118  1.0000
  C   C14       1.0  0.75800  0.64367  0.73189  1.0000
  C   C15       1.0  0.73374  0.67484  0.69203  1.0000
  C   C16       1.0  0.67697  0.65484  0.68301  1.0000
  C   C17       1.0  0.41425  0.34485  0.79635  1.0000
  C   C18       1.0  0.37440  0.28675  0.78000  1.0000
  C   C19       1.0  0.38213  0.24139  0.72499  1.0000
  C   C20       1.0  0.43148  0.25556  0.68303  1.0000
  C   C21       1.0  0.47105  0.31297  0.69582  1.0000
  H   H1        1.0  0.47164  0.60813  0.71617  1.0000
  H   H2        1.0  0.43292  0.66940  0.69698  1.0000
  H   H3        1.0  0.27472  0.53902  0.73771  1.0000
  H   H4        1.0  0.31272  0.47784  0.75308  1.0000
  H   H5        1.0  0.63998  0.53218  0.77646  1.0000
  H   H6        1.0  0.74220  0.56896  0.79394  1.0000
  H   H7        1.0  0.75861  0.71415  0.66470  1.0000
  H   H8        1.0  0.65755  0.67813  0.65092  1.0000
  H   H9        1.0  0.40740  0.37907  0.83912  1.0000
  H   H10       1.0  0.33664  0.27572  0.81434  1.0000
  H   H11       1.0  0.43774  0.22096  0.63453  1.0000
  H   H12       1.0  0.50822  0.32410  0.65831  1.0000
  N   N4        1.0  0.33698  0.64954  0.71189  1.0000
  C   C22       1.0  0.29482  0.64582  0.75445  1.0000
  H   H13       1.0  0.26774  0.61163  0.79941  1.0000
  N   N5        1.0  0.81422  0.65833  0.74539  1.0000
  C   C23       1.0  0.84991  0.70206  0.71084  1.0000
  H   H14       1.0  0.83924  0.73114  0.66907  1.0000
  N   N6        1.0  0.33937  0.18542  0.71701  1.0000
  C   C24       1.0  0.35207  0.14858  0.73460  1.0000
  H   H15       1.0  0.39673  0.15894  0.75692  1.0000
  C   C25       1.0  0.20729  0.82309  0.73603  1.0000
  N   N7        1.0  0.21882  0.87529  0.73297  1.0000
  C   C26       1.0  0.17656  0.88189  0.74396  1.0000
  N   N8        1.0  0.12598  0.84242  0.75551  1.0000
  C   C27       1.0  0.11996  0.79267  0.75277  1.0000
  N   N9        1.0  0.15921  0.77999  0.74449  1.0000
  O   O4        1.0  0.25163  0.81852  0.72742  1.0000
  O   O5        1.0  0.17953  0.93072  0.74253  1.0000
  O   O6        1.0  0.07166  0.74776  0.76068  1.0000
  C   C28       1.0  0.25633  0.77211  0.73552  1.0000
  C   C29       1.0  0.21313  0.71763  0.73362  1.0000
  C   C30       1.0  0.22687  0.67711  0.74242  1.0000
  C   C31       1.0  0.28160  0.68908  0.74739  1.0000
  C   C32       1.0  0.32399  0.74424  0.74782  1.0000
  C   C33       1.0  0.31173  0.78550  0.74306  1.0000
  H   H16       1.0  0.17071  0.70790  0.72917  1.0000
  H   H17       1.0  0.19395  0.63517  0.74527  1.0000
  H   H18       1.0  0.36631  0.75343  0.75123  1.0000
  H   H19       1.0  0.34400  0.82813  0.74261  1.0000
  C   C34       1.0  0.49905  0.45711  0.25455  1.0000
  N   N10       1.0  0.54749  0.49963  0.24114  1.0000
  C   C35       1.0  0.54560  0.54439  0.22686  1.0000
  N   N11       1.0  0.50150  0.55041  0.22546  1.0000
  C   C36       1.0  0.45679  0.50550  0.24088  1.0000
  N   N12       1.0  0.45261  0.45723  0.25667  1.0000
  O   O7        1.0  0.50261  0.41232  0.26669  1.0000
  O   O8        1.0  0.58975  0.59031  0.20792  1.0000
  O   O9        1.0  0.40855  0.50344  0.24208  1.0000
  C   C37       1.0  0.64391  0.60034  0.21486  1.0000
  C   C38       1.0  0.66450  0.56664  0.25091  1.0000
  C   C39       1.0  0.72135  0.58584  0.26071  1.0000
  C   C40       1.0  0.75794  0.63719  0.23411  1.0000
  C   C41       1.0  0.73578  0.67026  0.19767  1.0000
  C   C42       1.0  0.67945  0.65203  0.18866  1.0000
  H   H20       1.0  0.63735  0.52729  0.27383  1.0000
  H   H21       1.0  0.73909  0.56113  0.29177  1.0000
  H   H22       1.0  0.76205  0.70990  0.17356  1.0000
  H   H23       1.0  0.66179  0.67701  0.16028  1.0000
  N   N13       1.0  0.34732  0.66112  0.20784  1.0000
  C   C43       1.0  0.31075  0.66203  0.27366  1.0000
  H   H24       1.0  0.29201  0.63426  0.34810  1.0000
  N   N14       1.0  0.81376  0.65057  0.24710  1.0000
  C   C44       1.0  0.84913  0.69357  0.20951  1.0000
  H   H25       1.0  0.83804  0.72199  0.16441  1.0000
  N   N15       1.0  0.33045  0.18538  0.21557  1.0000
  C   C45       1.0  0.34300  0.14825  0.23038  1.0000
  H   H26       1.0  0.38730  0.15828  0.24916  1.0000
  C   C46       1.0  0.20679  0.82435  0.22731  1.0000
  N   N16       1.0  0.21600  0.87580  0.22509  1.0000
  C   C47       1.0  0.17391  0.88138  0.24460  1.0000
  N   N17       1.0  0.12497  0.84109  0.26133  1.0000
  C   C48       1.0  0.12067  0.79181  0.25513  1.0000
  N   N18       1.0  0.16049  0.78058  0.24064  1.0000
  O   O10       1.0  0.25127  0.82136  0.21094  1.0000
  O   O11       1.0  0.17575  0.93008  0.24877  1.0000
  O   O12       1.0  0.07392  0.74612  0.26665  1.0000
  C   C49       1.0  0.02084  0.73938  0.25803  1.0000
  C   C50       1.0  0.00384  0.77549  0.21909  1.0000
  C   C51       1.0  0.94699  0.75888  0.20251  1.0000
  C   C52       1.0  0.90752  0.70802  0.22585  1.0000
  C   C53       1.0  0.92634  0.67296  0.26764  1.0000
  C   C54       1.0  0.98240  0.68832  0.28265  1.0000
  H   H27       1.0  0.03365  0.81462  0.19940  1.0000
  H   H28       1.0  0.93270  0.78596  0.16818  1.0000
  H   H29       1.0  0.89608  0.63407  0.28859  1.0000
  H   H30       1.0  0.99760  0.66167  0.31404  1.0000
  C   C55       1.0  0.72183  0.03833  0.73794  1.0000
  C   C56       1.0  0.72423  0.98978  0.72754  1.0000
  C  Sn1       1.0  0.77528  0.99394  0.72795  1.0000
  C  Sn2       1.0  0.82477  0.04776  0.73905  1.0000
  C   C57       1.0  0.82195  0.09609  0.74955  1.0000
  C   C58       1.0  0.77064  0.09145  0.74897  1.0000
  H   H31       1.0  0.68215  0.03475  0.73761  1.0000
  O  Te1       1.0  0.77692  0.94499  0.71740  1.0000
  O  Te2       1.0  0.87635  0.05313  0.73979  1.0000
  H   H32       1.0  0.26366  0.12906  0.75715  1.0000
  Mg  Mg1       1.0  0.85715  0.97408  0.72292  1.0000
  C   C59       1.0  0.32973  0.53030  0.22464  1.0000
  C   C60       1.0  0.38193  0.53844  0.21972  1.0000
  C  Sn3       1.0  0.42682  0.59177  0.22036  1.0000
  C  Sn4       1.0  0.41918  0.63772  0.22609  1.0000
  C   C61       1.0  0.36681  0.62916  0.23113  1.0000
  C   C62       1.0  0.32217  0.57561  0.23037  1.0000
  H   H33       1.0  0.29521  0.48888  0.22416  1.0000
  O  Te3       1.0  0.47868  0.59915  0.21533  1.0000
  O  Te4       1.0  0.46334  0.69147  0.22693  1.0000
  H   H34       1.0  0.28178  0.56934  0.23431  1.0000
  Mg  Mg2       1.0  0.52606  0.68037  0.21867  1.0000
  C   C63       1.0  0.22058  0.71432  0.26566  1.0000
  C   C64       1.0  0.25050  0.76727  0.24027  1.0000
  C  Sn5       1.0  0.30312  0.78683  0.21590  1.0000
  C  Sn6       1.0  0.32612  0.75266  0.21698  1.0000
  C   C65       1.0  0.29583  0.69973  0.24235  1.0000
  C   C66       1.0  0.24322  0.68058  0.26668  1.0000
  H   H35       1.0  0.17985  0.69948  0.28438  1.0000
  O  Te5       1.0  0.33246  0.83985  0.19077  1.0000
  O  Te6       1.0  0.37862  0.77117  0.19287  1.0000
  H   H36       1.0  0.22005  0.63956  0.28621  1.0000
  Mg  Mg3       1.0  0.40247  0.84653  0.16364  1.0000
  C   C67       1.0  0.22970  0.06500  0.23024  1.0000
  C   C68       1.0  0.28751  0.08949  0.23933  1.0000
  C  Sn7       1.0  0.31049  0.05613  0.23944  1.0000
  C  Sn8       1.0  0.77997  0.99716  0.23020  1.0000
  C   C69       1.0  0.72217  0.97305  0.22100  1.0000
  C   C70       1.0  0.69963  0.00683  0.22104  1.0000
  H   H37       1.0  0.21224  0.09112  0.23016  1.0000
  O  Te7       1.0  0.36835  0.08130  0.24867  1.0000
  O  Te8       1.0  0.80182  0.96283  0.23001  1.0000
  H   H38       1.0  0.65485  0.98784  0.21387  1.0000
  Mg  Mg4       1.0  0.88337  0.01681  0.24457  1.0000
  C   C71       1.0  0.39246  0.33408  0.29176  1.0000
  C   C72       1.0  0.44701  0.35802  0.27692  1.0000
  C  Sn9       1.0  0.46432  0.32100  0.22458  1.0000
  C  Sn10      1.0  0.42621  0.25887  0.18642  1.0000
  C   C73       1.0  0.37170  0.23535  0.20153  1.0000
  C   C74       1.0  0.35483  0.27281  0.25407  1.0000
  H   H39       1.0  0.37938  0.36305  0.33231  1.0000
  O  Te9       1.0  0.51899  0.34565  0.21050  1.0000
  O  Te10      1.0  0.44240  0.22085  0.13376  1.0000
  H   H40       1.0  0.31257  0.25425  0.26542  1.0000
  Mg  Mg5       1.0  0.52133  0.27559  0.13391  1.0000
  C   C75       1.0  0.99360  0.78449  0.70710  1.0000
  C   C76       1.0  0.02026  0.75679  0.75862  1.0000
  C  Sn11      1.0  0.98805  0.70507  0.78798  1.0000
  C  Sn12      1.0  0.92804  0.68075  0.76518  1.0000
  C   C77       1.0  0.90176  0.70878  0.71348  1.0000
  C   C78       1.0  0.93441  0.76051  0.68451  1.0000
  H   H41       1.0  0.01884  0.82451  0.68459  1.0000
  O  Te11      1.0  0.01537  0.67797  0.83947  1.0000
  O  Te12      1.0  0.89482  0.62909  0.79357  1.0000
  H   H42       1.0  0.91374  0.78193  0.64450  1.0000
  Mg  Mg6       1.0  0.95172  0.60838  0.86237  1.0000
