data_image0
_chemical_formula_structural       CNCNCNO3NCHNCHNCHCNCNCNO3NCHNCHNCHCNCNCNO3NCHNCHNCHCNCNCNO3NCHNCHNCHSnCSn2CSnTe4Mg2SnCSn2CSnTe4Mg2SnCSn2CSnTe4Mg2SnCSn2CSnTe4Mg2SnCSn2CSnTe4Mg2SnCSn2CSnTe4Mg2SnCSn2CSnTe4Mg2SnCSn2CSnTe4Mg2SnCSn2CSnTe4Mg2SnCSn2CSnTe4Mg2SnCSn2CSnTe4Mg2SnCSn2CSnTe4Mg2SnCSn2CSnTe4Mg2SnCSn2CSnTe4Mg2SnCSn2CSnTe4Mg2SnCSn2CSnTe4Mg2SnCSn2CSnTe4Mg2SnCSn2CSnTe4Mg2
_chemical_formula_sum              "C60 N24 O12 H12 Sn72 Te72 Mg36"
_cell_length_a       39.3411
_cell_length_b       39.5561
_cell_length_c       8.05387
_cell_angle_alpha    104.064
_cell_angle_beta     61.2205
_cell_angle_gamma    119.907

_symmetry_space_group_name_H-M    'P1'
_space_group_IT_number       1

loop_
  _space_group_symop_operation_xyz
  'x, y, z'

loop_
  _atom_site_type_symbol
  _atom_site_label
  _atom_site_symmetry_multiplicity
  _atom_site_fract_x
  _atom_site_fract_y
  _atom_site_fract_z
  _atom_site_occupancy
  C   C1        1.0  0.49600  0.46515  0.74278  1.0000
  N   N1        1.0  0.52986  0.49742  0.76036  1.0000
  C   C2        1.0  0.52969  0.53045  0.75113  1.0000
  N   N2        1.0  0.49938  0.53388  0.73122  1.0000
  C   C3        1.0  0.46775  0.49978  0.71833  1.0000
  N   N3        1.0  0.46416  0.46415  0.72076  1.0000
  O   O1        1.0  0.49754  0.43227  0.75057  1.0000
  O   O2        1.0  0.56143  0.56561  0.76162  1.0000
  O   O3        1.0  0.43444  0.49723  0.69764  1.0000
  N   N4        1.0  0.38092  0.60866  0.75762  1.0000
  C   C4        1.0  0.35231  0.60257  0.70270  1.0000
  H   H1        1.0  0.33625  0.57485  0.63930  1.0000
  N   N5        1.0  0.72315  0.60854  0.73134  1.0000
  C   C5        1.0  0.75164  0.64449  0.72546  1.0000
  H   H2        1.0  0.74670  0.66923  0.72067  1.0000
  N   N6        1.0  0.38614  0.27441  0.71047  1.0000
  C   C6        1.0  0.38644  0.24748  0.77317  1.0000
  H   H3        1.0  0.40616  0.25428  0.84882  1.0000
  C   C7        1.0  0.16918  0.86762  0.72506  1.0000
  N   N7        1.0  0.13474  0.83569  0.70950  1.0000
  C   C8        1.0  0.13456  0.80240  0.71716  1.0000
  N   N8        1.0  0.16487  0.79846  0.73444  1.0000
  C   C9        1.0  0.19689  0.83223  0.74700  1.0000
  N   N9        1.0  0.20095  0.86808  0.74550  1.0000
  O   O4        1.0  0.16827  0.90079  0.71664  1.0000
  O   O5        1.0  0.10259  0.76739  0.70658  1.0000
  O   O6        1.0  0.23014  0.83414  0.76602  1.0000
  N   N10       1.0  0.27526  0.71792  0.73177  1.0000
  C   C10       1.0  0.30622  0.72336  0.76880  1.0000
  H   H4        1.0  0.32687  0.75174  0.81153  1.0000
  N   N11       1.0  0.94145  0.72379  0.72996  1.0000
  C   C11       1.0  0.91302  0.68779  0.73625  1.0000
  H   H5        1.0  0.91815  0.66309  0.73999  1.0000
  N   N12       1.0  0.28134  0.05799  0.75455  1.0000
  C   C12       1.0  0.28183  0.08500  0.68842  1.0000
  H   H6        1.0  0.26244  0.07835  0.61133  1.0000
  C   C13       1.0  0.49836  0.46658  0.24113  1.0000
  N   N13       1.0  0.53295  0.49868  0.25431  1.0000
  C   C14       1.0  0.53246  0.53185  0.25065  1.0000
  N   N14       1.0  0.50150  0.53542  0.23757  1.0000
  C   C15       1.0  0.46918  0.50151  0.22870  1.0000
  N   N15       1.0  0.46549  0.46574  0.22848  1.0000
  O   O7        1.0  0.50040  0.43362  0.24278  1.0000
  O   O8        1.0  0.56419  0.56698  0.26259  1.0000
  O   O9        1.0  0.43528  0.49960  0.21544  1.0000
  N   N16       1.0  0.39298  0.61727  0.24047  1.0000
  C   C16       1.0  0.36147  0.61166  0.20715  1.0000
  H   H7        1.0  0.34036  0.58302  0.16871  1.0000
  N   N17       1.0  0.72555  0.60945  0.23317  1.0000
  C   C17       1.0  0.75213  0.64545  0.24355  1.0000
  H   H8        1.0  0.74452  0.66968  0.25957  1.0000
  N   N18       1.0  0.38717  0.27573  0.21952  1.0000
  C   C18       1.0  0.39183  0.24759  0.24626  1.0000
  H   H9        1.0  0.41843  0.25235  0.27571  1.0000
  C   C19       1.0  0.16939  0.86812  0.23020  1.0000
  N   N19       1.0  0.13539  0.83568  0.21511  1.0000
  C   C20       1.0  0.13621  0.80278  0.22025  1.0000
  N   N20       1.0  0.16689  0.79965  0.23862  1.0000
  C   C21       1.0  0.19846  0.83391  0.25111  1.0000
  N   N21       1.0  0.20188  0.86945  0.24806  1.0000
  O   O10       1.0  0.16709  0.90067  0.22370  1.0000
  O   O11       1.0  0.10482  0.76763  0.20613  1.0000
  O   O12       1.0  0.23187  0.83686  0.27302  1.0000
  N   N22       1.0  0.28459  0.72564  0.22790  1.0000
  C   C22       1.0  0.31444  0.73186  0.27495  1.0000
  H   H10       1.0  0.33262  0.76016  0.32790  1.0000
  N   N23       1.0  0.94413  0.72638  0.22979  1.0000
  C   C23       1.0  0.91734  0.69047  0.21903  1.0000
  H   H11       1.0  0.92478  0.66611  0.20204  1.0000
  N   N24       1.0  0.27823  0.05922  0.24708  1.0000
  C   C24       1.0  0.27424  0.08715  0.21395  1.0000
  H   H12       1.0  0.24834  0.08219  0.17885  1.0000
  C  Sn1       1.0  0.36428  0.53029  0.76336  1.0000
  C   C25       1.0  0.38313  0.57072  0.78859  1.0000
  C  Sn2       1.0  0.42672  0.59129  0.75608  1.0000
  C  Sn3       1.0  0.45201  0.57104  0.69700  1.0000
  C   C26       1.0  0.43316  0.53064  0.67177  1.0000
  C  Sn4       1.0  0.38957  0.51004  0.70429  1.0000
  O  Te1       1.0  0.32064  0.51032  0.79667  1.0000
  O  Te2       1.0  0.44484  0.63170  0.78231  1.0000
  O  Te3       1.0  0.49568  0.59105  0.66370  1.0000
  O  Te4       1.0  0.37145  0.46966  0.67805  1.0000
  Mg  Mg1       1.0  0.50565  0.64596  0.71885  1.0000
  Mg  Mg2       1.0  0.31065  0.45537  0.74137  1.0000
  C  Sn5       1.0  0.61345  0.55022  0.85325  1.0000
  C   C27       1.0  0.59800  0.57112  0.81495  1.0000
  C  Sn6       1.0  0.62683  0.60648  0.71770  1.0000
  C  Sn7       1.0  0.67206  0.62125  0.65736  1.0000
  C   C28       1.0  0.68748  0.60036  0.69562  1.0000
  C  Sn8       1.0  0.65867  0.56499  0.79290  1.0000
  O  Te5       1.0  0.58403  0.51493  0.95067  1.0000
  O  Te6       1.0  0.61062  0.62685  0.68112  1.0000
  O  Te7       1.0  0.70147  0.65657  0.55987  1.0000
  O  Te8       1.0  0.67487  0.54462  0.82945  1.0000
  Mg  Mg3       1.0  0.66362  0.67359  0.54364  1.0000
  Mg  Mg4       1.0  0.62189  0.49787  0.96683  1.0000
  C  Sn9       1.0  0.45865  0.33416  0.76667  1.0000
  C   C29       1.0  0.41716  0.31605  0.77284  1.0000
  C  Sn10      1.0  0.40103  0.33779  0.74633  1.0000
  C  Sn11      1.0  0.42692  0.37847  0.71284  1.0000
  C   C30       1.0  0.46838  0.39656  0.70665  1.0000
  C  Sn12      1.0  0.48454  0.37484  0.73318  1.0000
  O  Te9       1.0  0.47411  0.31186  0.79355  1.0000
  O  Te10      1.0  0.35945  0.31904  0.75319  1.0000
  O  Te11      1.0  0.41141  0.40077  0.68596  1.0000
  O  Te12      1.0  0.52609  0.39357  0.72630  1.0000
  Mg  Mg5       1.0  0.35277  0.36195  0.70801  1.0000
  Mg  Mg6       1.0  0.53281  0.35068  0.77136  1.0000
  C  Sn13      1.0  0.20822  0.75379  0.76398  1.0000
  C   C31       1.0  0.22618  0.79371  0.80349  1.0000
  C  Sn14      1.0  0.26775  0.81315  0.79685  1.0000
  C  Sn15      1.0  0.29191  0.79227  0.74962  1.0000
  C   C32       1.0  0.27396  0.75238  0.71011  1.0000
  C  Sn16      1.0  0.23237  0.73291  0.71674  1.0000
  O  Te13      1.0  0.16660  0.73495  0.77145  1.0000
  O  Te14      1.0  0.28501  0.85306  0.83697  1.0000
  O  Te15      1.0  0.33356  0.81115  0.74218  1.0000
  O  Te16      1.0  0.21512  0.69303  0.67662  1.0000
  Mg  Mg7       1.0  0.34303  0.86576  0.80818  1.0000
  Mg  Mg8       1.0  0.15712  0.68031  0.70528  1.0000
  C  Sn17      1.0  0.04215  0.78882  0.72282  1.0000
  C   C33       1.0  0.05833  0.76757  0.75299  1.0000
  C  Sn18      1.0  0.03717  0.72684  0.75348  1.0000
  C  Sn19      1.0  0.99905  0.70693  0.72306  1.0000
  C   C34       1.0  0.98289  0.72818  0.69288  1.0000
  C  Sn20      1.0  0.00403  0.76891  0.69240  1.0000
  O  Te17      1.0  0.06384  0.82952  0.72291  1.0000
  O  Te18      1.0  0.05396  0.70623  0.78401  1.0000
  O  Te19      1.0  0.97737  0.66620  0.72300  1.0000
  O  Te20      1.0  0.98726  0.78952  0.66185  1.0000
  Mg  Mg9       1.0  0.01286  0.65108  0.77085  1.0000
  Mg  Mg10      1.0  0.02835  0.84466  0.67489  1.0000
  C  Sn21      1.0  0.26812  0.98238  0.66424  1.0000
  C   C35       1.0  0.75753  0.01358  0.68969  1.0000
  C  Sn22      1.0  0.71491  0.00699  0.75140  1.0000
  C  Sn23      1.0  0.18215  0.96840  0.78859  1.0000
  C   C36       1.0  0.19143  0.93722  0.76318  1.0000
  C  Sn24      1.0  0.23405  0.94379  0.70143  1.0000
  O  Te21      1.0  0.31097  0.98965  0.60245  1.0000
  O  Te22      1.0  0.70644  0.03865  0.77574  1.0000
  O  Te23      1.0  0.13928  0.96115  0.85043  1.0000
  O  Te24      1.0  0.24253  0.91215  0.67712  1.0000
  Mg  Mg11      1.0  0.64278  0.01386  0.86252  1.0000
  Mg  Mg12      1.0  0.30616  0.93691  0.59045  1.0000
  C  Sn25      1.0  0.83857  0.69755  0.64654  1.0000
  C   C37       1.0  0.80326  0.66055  0.67527  1.0000
  C  Sn26      1.0  0.80021  0.63079  0.75405  1.0000
  C  Sn27      1.0  0.83312  0.63817  0.80531  1.0000
  C   C38       1.0  0.86841  0.67515  0.77661  1.0000
  C  Sn28      1.0  0.87149  0.70493  0.69779  1.0000
  O  Te25      1.0  0.84096  0.72686  0.56757  1.0000
  O  Te26      1.0  0.76460  0.59403  0.78136  1.0000
  O  Te27      1.0  0.83071  0.60881  0.88432  1.0000
  O  Te28      1.0  0.90706  0.74166  0.67052  1.0000
  Mg  Mg13      1.0  0.77590  0.56358  0.89381  1.0000
  Mg  Mg14      1.0  0.89579  0.77214  0.55817  1.0000
  C  Sn29      1.0  0.36533  0.69855  0.72734  1.0000
  C   C39       1.0  0.33052  0.69518  0.70626  1.0000
  C  Sn30      1.0  0.29654  0.65852  0.70743  1.0000
  C  Sn31      1.0  0.29735  0.62453  0.73028  1.0000
  C   C40       1.0  0.33214  0.62792  0.75138  1.0000
  C  Sn32      1.0  0.36615  0.66456  0.75019  1.0000
  O  Te29      1.0  0.39895  0.73550  0.72575  1.0000
  O  Te30      1.0  0.26209  0.65588  0.68603  1.0000
  O  Te31      1.0  0.26369  0.58757  0.73185  1.0000
  O  Te32      1.0  0.40057  0.66721  0.77160  1.0000
  Mg  Mg15      1.0  0.22389  0.59904  0.69769  1.0000
  Mg  Mg16      1.0  0.43878  0.72403  0.76007  1.0000
  C  Sn33      1.0  0.31287  0.16421  0.62458  1.0000
  C   C41       1.0  0.31543  0.13230  0.65384  1.0000
  C  Sn34      1.0  0.33869  0.13693  0.75184  1.0000
  C  Sn35      1.0  0.35980  0.17422  0.82216  1.0000
  C   C42       1.0  0.35722  0.20610  0.79291  1.0000
  C  Sn36      1.0  0.33397  0.20150  0.69490  1.0000
  O  Te33      1.0  0.28944  0.15890  0.52623  1.0000
  O  Te34      1.0  0.34080  0.10460  0.77928  1.0000
  O  Te35      1.0  0.38324  0.17951  0.92056  1.0000
  O  Te36      1.0  0.33185  0.23380  0.66748  1.0000
  Mg  Mg17      1.0  0.37665  0.12658  0.92208  1.0000
  Mg  Mg18      1.0  0.29600  0.21185  0.52479  1.0000
  C  Sn37      1.0  0.37374  0.53735  0.22175  1.0000
  C   C43       1.0  0.39102  0.57691  0.26863  1.0000
  C  Sn38      1.0  0.43106  0.59557  0.27716  1.0000
  C  Sn39      1.0  0.45434  0.57425  0.23791  1.0000
  C   C44       1.0  0.43706  0.53471  0.19103  1.0000
  C  Sn40      1.0  0.39702  0.51602  0.18249  1.0000
  O  Te37      1.0  0.33366  0.51929  0.21404  1.0000
  O  Te38      1.0  0.44767  0.63515  0.32441  1.0000
  O  Te39      1.0  0.49445  0.59234  0.24565  1.0000
  O  Te40      1.0  0.38042  0.47647  0.13525  1.0000
  Mg  Mg19      1.0  0.50355  0.64676  0.31641  1.0000
  Mg  Mg20      1.0  0.32455  0.46484  0.14311  1.0000
  C  Sn41      1.0  0.61526  0.55239  0.36273  1.0000
  C   C45       1.0  0.60083  0.57288  0.31461  1.0000
  C  Sn42      1.0  0.63053  0.60705  0.20816  1.0000
  C  Sn43      1.0  0.67560  0.62103  0.14845  1.0000
  C   C46       1.0  0.69001  0.60054  0.19655  1.0000
  C  Sn44      1.0  0.66033  0.56637  0.30303  1.0000
  O  Te41      1.0  0.58499  0.51829  0.46924  1.0000
  O  Te42      1.0  0.61532  0.62704  0.16184  1.0000
  O  Te43      1.0  0.70587  0.65516  0.04186  1.0000
  O  Te44      1.0  0.67552  0.54638  0.34932  1.0000
  Mg  Mg21      1.0  0.66924  0.67208  0.01421  1.0000
  Mg  Mg22      1.0  0.62164  0.50133  0.49685  1.0000
  C  Sn45      1.0  0.48305  0.35888  0.21049  1.0000
  C   C47       1.0  0.47766  0.38978  0.19037  1.0000
  C  Sn46      1.0  0.43802  0.38333  0.20502  1.0000
  C  Sn47      1.0  0.40303  0.34520  0.24064  1.0000
  C   C48       1.0  0.40843  0.31433  0.26077  1.0000
  C  Sn48      1.0  0.44806  0.32075  0.24611  1.0000
  O  Te45      1.0  0.52296  0.36601  0.19531  1.0000
  O  Te46      1.0  0.43341  0.41468  0.18432  1.0000
  O  Te47      1.0  0.36310  0.33809  0.25581  1.0000
  O  Te48      1.0  0.45267  0.28943  0.26682  1.0000
  Mg  Mg23      1.0  0.37273  0.39025  0.21700  1.0000
  Mg  Mg24      1.0  0.51332  0.31383  0.23427  1.0000
  C  Sn49      1.0  0.28700  0.80039  0.33739  1.0000
  C   C49       1.0  0.27018  0.76041  0.29829  1.0000
  C  Sn50      1.0  0.23968  0.74305  0.22327  1.0000
  C  Sn51      1.0  0.22572  0.76613  0.18645  1.0000
  C   C50       1.0  0.24255  0.80609  0.22551  1.0000
  C  Sn52      1.0  0.27305  0.82347  0.30057  1.0000
  O  Te49      1.0  0.31747  0.81712  0.41235  1.0000
  O  Te50      1.0  0.22331  0.70302  0.18541  1.0000
  O  Te51      1.0  0.19523  0.74936  0.11144  1.0000
  O  Te52      1.0  0.28942  0.86347  0.33839  1.0000
  Mg  Mg25      1.0  0.18245  0.69368  0.08370  1.0000
  Mg  Mg26      1.0  0.33029  0.87285  0.44000  1.0000
  C  Sn53      1.0  0.99655  0.71369  0.32904  1.0000
  C   C51       1.0  0.98249  0.73464  0.28161  1.0000
  C  Sn54      1.0  0.01247  0.76906  0.17721  1.0000
  C  Sn55      1.0  0.05745  0.78281  0.11890  1.0000
  C   C52       1.0  0.07149  0.76186  0.16630  1.0000
  C  Sn56      1.0  0.04153  0.72744  0.27073  1.0000
  O  Te53      1.0  0.96601  0.67937  0.43350  1.0000
  O  Te54      1.0  0.99764  0.78950  0.13154  1.0000
  O  Te55      1.0  0.08800  0.81716  0.01437  1.0000
  O  Te56      1.0  0.05635  0.70700  0.31636  1.0000
  Mg  Mg27      1.0  0.95368  0.83551  0.98687  1.0000
  Mg  Mg28      1.0  0.00219  0.66178  0.46094  1.0000
  C  Sn57      1.0  0.69882  0.99790  0.26241  1.0000
  C   C53       1.0  0.23570  0.01695  0.28721  1.0000
  C  Sn58      1.0  0.75930  0.99653  0.26699  1.0000
  C  Sn59      1.0  0.74307  0.95624  0.22091  1.0000
  C   C54       1.0  0.70489  0.93721  0.19611  1.0000
  C  Sn60      1.0  0.68259  0.95761  0.21633  1.0000
  O  Te57      1.0  0.17576  0.01889  0.28329  1.0000
  O  Te58      1.0  0.29610  0.01621  0.29254  1.0000
  O  Te59      1.0  0.76484  0.93526  0.20004  1.0000
  O  Te60      1.0  0.64450  0.93795  0.19078  1.0000
  Mg  Mg29      1.0  0.81542  0.97497  0.24886  1.0000
  Mg  Mg30      1.0  0.62648  0.97916  0.23432  1.0000
  C  Sn61      1.0  0.85168  0.70919  0.27485  1.0000
  C   C55       1.0  0.86791  0.68511  0.27834  1.0000
  C  Sn62      1.0  0.84799  0.64508  0.24506  1.0000
  C  Sn63      1.0  0.81108  0.62879  0.20738  1.0000
  C   C56       1.0  0.79487  0.65287  0.20387  1.0000
  C  Sn64      1.0  0.81478  0.69290  0.23717  1.0000
  O  Te61      1.0  0.87212  0.74912  0.30851  1.0000
  O  Te62      1.0  0.86480  0.62159  0.24935  1.0000
  O  Te63      1.0  0.79064  0.58883  0.17371  1.0000
  O  Te64      1.0  0.79799  0.71638  0.23286  1.0000
  Mg  Mg31      1.0  0.82564  0.56887  0.19461  1.0000
  Mg  Mg32      1.0  0.83713  0.76911  0.28748  1.0000
  C  Sn65      1.0  0.29435  0.65215  0.26392  1.0000
  C   C57       1.0  0.31529  0.69178  0.30221  1.0000
  C  Sn66      1.0  0.35759  0.70848  0.28509  1.0000
  C  Sn67      1.0  0.37942  0.68509  0.22841  1.0000
  C   C58       1.0  0.35848  0.64548  0.19012  1.0000
  C  Sn68      1.0  0.31618  0.62876  0.20723  1.0000
  O  Te65      1.0  0.25206  0.63607  0.28194  1.0000
  O  Te66      1.0  0.37785  0.74816  0.32421  1.0000
  O  Te67      1.0  0.42174  0.70120  0.21041  1.0000
  O  Te68      1.0  0.29593  0.58910  0.16812  1.0000
  Mg  Mg33      1.0  0.43564  0.75662  0.27928  1.0000
  Mg  Mg34      1.0  0.23815  0.58062  0.21290  1.0000
  C  Sn69      1.0  0.30371  0.16708  0.17326  1.0000
  C   C59       1.0  0.30844  0.13418  0.17057  1.0000
  C  Sn70      1.0  0.33926  0.13723  0.22082  1.0000
  C  Sn71      1.0  0.36589  0.17394  0.27501  1.0000
  C   C60       1.0  0.36115  0.20681  0.27771  1.0000
  C  Sn72      1.0  0.33034  0.20378  0.22745  1.0000
  O  Te69      1.0  0.27268  0.16334  0.12248  1.0000
  O  Te70      1.0  0.34340  0.10393  0.21699  1.0000
  O  Te71      1.0  0.39693  0.17765  0.32580  1.0000
  O  Te72      1.0  0.32619  0.23706  0.23130  1.0000
  Mg  Mg35      1.0  0.39031  0.12386  0.29838  1.0000
  Mg  Mg36      1.0  0.27928  0.21716  0.15003  1.0000
