data_image0
_chemical_formula_structural       C6B6O12C6B6O12C30H12C6B6O12C6B6O12C30H12C2Sn2C2HTe2HMgC2Sn2C2HTe2HMgC2Sn2C2HTe2HMgC2Sn2C2HTe2HMgC2Sn2C2HTe2HMgC2Sn2C2HTe2HMgC2Sn2C2HTe2HMgC2Sn2C2HTe2HMgC2Sn2C2HTe2HMgC2Sn2C2HTe2HMgC2Sn2C2HTe2HMgC2Sn2C2HTe2HMgC2Sn2C2HTe2HMgC2Sn2C2HTe2HMgC2Sn2C2HTe2HMgC2Sn2C2HTe2HMgC2Sn2C2HTe2HMgC2Sn2C2HTe2HMgC2Sn2C2HTe2HMgC2Sn2C2HTe2HMgC2Sn2C2HTe2HMgC2Sn2C2HTe2HMgC2Sn2C2HTe2HMgC2Sn2C2HTe2HMg
_chemical_formula_sum              "C180 B24 O48 H72 Sn48 Te48 Mg24"
_cell_length_a       37.8375
_cell_length_b       37.9197
_cell_length_c       10.8632
_cell_angle_alpha    90.9125
_cell_angle_beta     90.9506
_cell_angle_gamma    120.02

_symmetry_space_group_name_H-M    'P1'
_space_group_IT_number       1

loop_
  _space_group_symop_operation_xyz
  'x, y, z'

loop_
  _atom_site_type_symbol
  _atom_site_label
  _atom_site_symmetry_multiplicity
  _atom_site_fract_x
  _atom_site_fract_y
  _atom_site_fract_z
  _atom_site_occupancy
  C   C1        1.0  0.48243  0.48057  0.25101  1.0000
  C   C2        1.0  0.51957  0.99932  0.24913  1.0000
  C   C3        1.0  0.00099  0.51854  0.25357  1.0000
  C   C4        1.0  0.51807  0.51710  0.25306  1.0000
  C   C5        1.0  0.48353  0.99938  0.24788  1.0000
  C   C6        1.0  0.00078  0.48243  0.25075  1.0000
  B   B1        1.0  0.32528  0.47646  0.25529  1.0000
  B   B2        1.0  0.52291  0.84629  0.24955  1.0000
  B   B3        1.0  0.15370  0.67546  0.25396  1.0000
  B   B4        1.0  0.67509  0.52153  0.25509  1.0000
  B   B5        1.0  0.48242  0.15357  0.25006  1.0000
  B   B6        1.0  0.84818  0.32568  0.26191  1.0000
  O   O1        1.0  0.29575  0.45945  0.34578  1.0000
  O   O2        1.0  0.53849  0.83342  0.34591  1.0000
  O   O3        1.0  0.16782  0.70621  0.34582  1.0000
  O   O4        1.0  0.70610  0.54093  0.34580  1.0000
  O   O5        1.0  0.46194  0.16522  0.33334  1.0000
  O   O6        1.0  0.83706  0.29610  0.35202  1.0000
  O   O7        1.0  0.31266  0.49333  0.16240  1.0000
  O   O8        1.0  0.50718  0.81719  0.15238  1.0000
  O   O9        1.0  0.18143  0.68661  0.15814  1.0000
  O   O10       1.0  0.68599  0.50207  0.16485  1.0000
  O   O11       1.0  0.50326  0.18403  0.16417  1.0000
  O   O12       1.0  0.81772  0.31268  0.16898  1.0000
  C   C7        1.0  0.26433  0.46597  0.30758  1.0000
  C   C8        1.0  0.53222  0.79558  0.30756  1.0000
  C   C9        1.0  0.20499  0.73703  0.30568  1.0000
  C   C10       1.0  0.73692  0.53358  0.31043  1.0000
  C   C11       1.0  0.46979  0.20328  0.29696  1.0000
  C   C12       1.0  0.79901  0.26431  0.31352  1.0000
  B   B7        1.0  0.48216  0.32592  0.23906  1.0000
  B   B8        1.0  0.67661  0.15148  0.25018  1.0000
  B   B9        1.0  0.84838  0.52256  0.25716  1.0000
  B   B10       1.0  0.52081  0.67276  0.25036  1.0000
  B   B11       1.0  0.32627  0.84786  0.24014  1.0000
  B   B12       1.0  0.15218  0.47625  0.24622  1.0000
  O   O13       1.0  0.50366  0.31486  0.15743  1.0000
  O   O14       1.0  0.68729  0.18197  0.16310  1.0000
  O   O15       1.0  0.81648  0.50158  0.16941  1.0000
  O   O16       1.0  0.50369  0.68497  0.15623  1.0000
  O   O17       1.0  0.31279  0.81637  0.15045  1.0000
  O   O18       1.0  0.18233  0.49442  0.15747  1.0000
  O   O19       1.0  0.46066  0.29481  0.32253  1.0000
  O   O20       1.0  0.70785  0.16351  0.34045  1.0000
  O   O21       1.0  0.83775  0.54287  0.34550  1.0000
  O   O22       1.0  0.53817  0.70275  0.34508  1.0000
  O   O23       1.0  0.29773  0.83723  0.33363  1.0000
  O   O24       1.0  0.16438  0.45845  0.33788  1.0000
  C   C13       1.0  0.49541  0.27653  0.19214  1.0000
  C   C14       1.0  0.72570  0.21302  0.20018  1.0000
  C   C15       1.0  0.78597  0.50935  0.20390  1.0000
  C   C16       1.0  0.51113  0.72328  0.19276  1.0000
  C   C17       1.0  0.27529  0.78603  0.18905  1.0000
  C   C18       1.0  0.21332  0.48723  0.19439  1.0000
  C   C19       1.0  0.50965  0.25237  0.13942  1.0000
  C   C20       1.0  0.74976  0.24972  0.14234  1.0000
  C   C21       1.0  0.74822  0.49572  0.14470  1.0000
  C   C22       1.0  0.50080  0.74859  0.12901  1.0000
  C   C23       1.0  0.24937  0.74862  0.13011  1.0000
  C   C24       1.0  0.24988  0.49877  0.13573  1.0000
  C   C25       1.0  0.46928  0.26441  0.29226  1.0000
  C   C26       1.0  0.73807  0.20203  0.30849  1.0000
  C   C27       1.0  0.79885  0.53438  0.31081  1.0000
  C   C28       1.0  0.53182  0.73396  0.30774  1.0000
  C   C29       1.0  0.26622  0.79862  0.30048  1.0000
  C   C30       1.0  0.20247  0.46550  0.30389  1.0000
  C   C31       1.0  0.49531  0.21498  0.19548  1.0000
  C   C32       1.0  0.78708  0.27469  0.20328  1.0000
  C   C33       1.0  0.72445  0.50942  0.20191  1.0000
  C   C34       1.0  0.51264  0.78545  0.19105  1.0000
  C   C35       1.0  0.21355  0.72487  0.19284  1.0000
  C   C36       1.0  0.27479  0.48694  0.19695  1.0000
  C   C37       1.0  0.22751  0.45387  0.36519  1.0000
  C   C38       1.0  0.54316  0.77057  0.37048  1.0000
  C   C39       1.0  0.23067  0.77461  0.36402  1.0000
  C   C40       1.0  0.77484  0.54760  0.36897  1.0000
  C   C41       1.0  0.45528  0.22724  0.34916  1.0000
  C   C42       1.0  0.77521  0.22728  0.37029  1.0000
  H   H1        1.0  0.52944  0.26150  0.06100  1.0000
  H   H2        1.0  0.21931  0.43738  0.45035  1.0000
  H   H3        1.0  0.74059  0.25777  0.05696  1.0000
  H   H4        1.0  0.55840  0.77852  0.46051  1.0000
  H   H5        1.0  0.73856  0.47675  0.06129  1.0000
  H   H6        1.0  0.22383  0.78402  0.45099  1.0000
  H   H7        1.0  0.48561  0.74064  0.03891  1.0000
  H   H8        1.0  0.78455  0.56663  0.45227  1.0000
  H   H9        1.0  0.25616  0.73919  0.04308  1.0000
  H   H10       1.0  0.43546  0.21813  0.42749  1.0000
  H   H11       1.0  0.25792  0.51494  0.04993  1.0000
  H   H12       1.0  0.78428  0.21920  0.45576  1.0000
  C   C43       1.0  0.48175  0.48383  0.75153  1.0000
  C   C44       1.0  0.51494  0.00041  0.74750  1.0000
  C   C45       1.0  0.99850  0.51692  0.75153  1.0000
  C   C46       1.0  0.51740  0.52030  0.75267  1.0000
  C   C47       1.0  0.47919  0.00105  0.74988  1.0000
  C   C48       1.0  0.99819  0.48077  0.74956  1.0000
  B   B13       1.0  0.32247  0.47492  0.75082  1.0000
  B   B14       1.0  0.52155  0.84925  0.75340  1.0000
  B   B15       1.0  0.15143  0.67402  0.76206  1.0000
  B   B16       1.0  0.67439  0.52393  0.75808  1.0000
  B   B17       1.0  0.47982  0.15623  0.75037  1.0000
  B   B18       1.0  0.84576  0.32348  0.75539  1.0000
  O   O25       1.0  0.29144  0.45559  0.83602  1.0000
  O   O26       1.0  0.54158  0.83849  0.84211  1.0000
  O   O27       1.0  0.16323  0.70603  0.84881  1.0000
  O   O28       1.0  0.70357  0.53926  0.85511  1.0000
  O   O29       1.0  0.46625  0.17106  0.84697  1.0000
  O   O30       1.0  0.83332  0.29401  0.84613  1.0000
  O   O31       1.0  0.31144  0.49418  0.66112  1.0000
  O   O32       1.0  0.50230  0.81848  0.66171  1.0000
  O   O33       1.0  0.18110  0.68455  0.67239  1.0000
  O   O34       1.0  0.68720  0.50839  0.66124  1.0000
  O   O35       1.0  0.49462  0.18389  0.65444  1.0000
  O   O36       1.0  0.81596  0.31131  0.66080  1.0000
  C   C49       1.0  0.26075  0.46319  0.79799  1.0000
  C   C50       1.0  0.53452  0.80031  0.80431  1.0000
  C   C51       1.0  0.20076  0.73698  0.81108  1.0000
  C   C52       1.0  0.73500  0.53315  0.81729  1.0000
  C   C53       1.0  0.47220  0.20833  0.80844  1.0000
  C   C54       1.0  0.79512  0.26286  0.80583  1.0000
  B   B19       1.0  0.48101  0.32921  0.74804  1.0000
  B   B20       1.0  0.67221  0.15150  0.73697  1.0000
  B   B21       1.0  0.84684  0.52281  0.75990  1.0000
  B   B22       1.0  0.52142  0.67667  0.74856  1.0000
  B   B23       1.0  0.32229  0.84858  0.75029  1.0000
  B   B24       1.0  0.15017  0.47594  0.73528  1.0000
  O   O37       1.0  0.49723  0.31573  0.65502  1.0000
  O   O38       1.0  0.68402  0.18182  0.64870  1.0000
  O   O39       1.0  0.81641  0.50538  0.66621  1.0000
  O   O40       1.0  0.50077  0.68723  0.66091  1.0000
  O   O41       1.0  0.31084  0.81594  0.66590  1.0000
  O   O42       1.0  0.18147  0.49583  0.65085  1.0000
  O   O43       1.0  0.46558  0.30108  0.84284  1.0000
  O   O44       1.0  0.70254  0.16328  0.83020  1.0000
  O   O45       1.0  0.83490  0.54002  0.85458  1.0000
  O   O46       1.0  0.54273  0.70855  0.83611  1.0000
  O   O47       1.0  0.29184  0.83873  0.83716  1.0000
  O   O48       1.0  0.16078  0.45563  0.82287  1.0000
  C   C55       1.0  0.49116  0.27843  0.69285  1.0000
  C   C56       1.0  0.72230  0.21263  0.68834  1.0000
  C   C57       1.0  0.78564  0.51245  0.70310  1.0000
  C   C58       1.0  0.50945  0.72611  0.69554  1.0000
  C   C59       1.0  0.27291  0.78562  0.70182  1.0000
  C   C60       1.0  0.21185  0.48773  0.68766  1.0000
  C   C61       1.0  0.50095  0.25220  0.63041  1.0000
  C   C62       1.0  0.74725  0.24931  0.63149  1.0000
  C   C63       1.0  0.74926  0.50183  0.63936  1.0000
  C   C64       1.0  0.49607  0.75005  0.63783  1.0000
  C   C65       1.0  0.24865  0.74718  0.64660  1.0000
  C   C66       1.0  0.24950  0.50089  0.63415  1.0000
  C   C67       1.0  0.47212  0.26965  0.80702  1.0000
  C   C68       1.0  0.73348  0.20141  0.79852  1.0000
  C   C69       1.0  0.79669  0.53325  0.81773  1.0000
  C   C70       1.0  0.53482  0.73900  0.80188  1.0000
  C   C71       1.0  0.26139  0.79938  0.80604  1.0000
  C   C72       1.0  0.19923  0.46326  0.79160  1.0000
  C   C73       1.0  0.49009  0.21648  0.69273  1.0000
  C   C74       1.0  0.78434  0.27367  0.69446  1.0000
  C   C75       1.0  0.72466  0.51366  0.70076  1.0000
  C   C76       1.0  0.51010  0.78790  0.69620  1.0000
  C   C77       1.0  0.21186  0.72367  0.70514  1.0000
  C   C78       1.0  0.27312  0.48708  0.69307  1.0000
  C   C79       1.0  0.22309  0.44994  0.85146  1.0000
  C   C80       1.0  0.54847  0.77667  0.86102  1.0000
  C   C81       1.0  0.22480  0.77564  0.86544  1.0000
  C   C82       1.0  0.77169  0.54433  0.88028  1.0000
  C   C83       1.0  0.46187  0.23426  0.87008  1.0000
  C   C84       1.0  0.77035  0.22602  0.86226  1.0000
  H   H13       1.0  0.51518  0.25872  0.54137  1.0000
  H   H14       1.0  0.21337  0.43157  0.93289  1.0000
  H   H15       1.0  0.73895  0.25790  0.54559  1.0000
  H   H16       1.0  0.56753  0.78632  0.94434  1.0000
  H   H17       1.0  0.74130  0.48653  0.54952  1.0000
  H   H18       1.0  0.21611  0.78601  0.94711  1.0000
  H   H19       1.0  0.47678  0.74033  0.55497  1.0000
  H   H20       1.0  0.77972  0.55956  0.97024  1.0000
  H   H21       1.0  0.25745  0.73676  0.56528  1.0000
  H   H22       1.0  0.44746  0.22765  0.95877  1.0000
  H   H23       1.0  0.25926  0.51939  0.55301  1.0000
  H   H24       1.0  0.77876  0.21739  0.94790  1.0000
  C   C85       1.0  0.40549  0.49927  0.36895  1.0000
  C   C86       1.0  0.37331  0.48231  0.28175  1.0000
  C  Sn1       1.0  0.37509  0.46087  0.17850  1.0000
  C  Sn2       1.0  0.40978  0.45636  0.16254  1.0000
  C   C87       1.0  0.44181  0.47342  0.25035  1.0000
  C   C88       1.0  0.43971  0.49482  0.35330  1.0000
  H   H25       1.0  0.40386  0.51582  0.44865  1.0000
  O  Te1       1.0  0.34267  0.44414  0.09224  1.0000
  O  Te2       1.0  0.41235  0.43507  0.06023  1.0000
  H   H26       1.0  0.46463  0.50793  0.42085  1.0000
  Mg  Mg1       1.0  0.36980  0.42706  0.96809  1.0000
  C   C89       1.0  0.54379  0.92505  0.14242  1.0000
  C   C90       1.0  0.52871  0.89408  0.22810  1.0000
  C  Sn3       1.0  0.50781  0.89632  0.33004  1.0000
  C  Sn4       1.0  0.50193  0.93022  0.34623  1.0000
  C   C91       1.0  0.51711  0.96103  0.25994  1.0000
  C   C92       1.0  0.53799  0.95849  0.15829  1.0000
  H   H27       1.0  0.55993  0.92308  0.06373  1.0000
  O  Te3       1.0  0.49296  0.86512  0.41478  1.0000
  O  Te4       1.0  0.48114  0.93321  0.44725  1.0000
  H   H28       1.0  0.54964  0.98246  0.09193  1.0000
  Mg  Mg2       1.0  0.46662  0.88300  0.53756  1.0000
  C   C93       1.0  0.05209  0.59734  0.15331  1.0000
  C   C94       1.0  0.04007  0.56505  0.23338  1.0000
  C  Sn5       1.0  0.06532  0.56842  0.33355  1.0000
  C  Sn6       1.0  0.10327  0.60484  0.35372  1.0000
  C   C95       1.0  0.11500  0.63699  0.27314  1.0000
  C   C96       1.0  0.08951  0.63328  0.17316  1.0000
  H   H29       1.0  0.03236  0.59449  0.07599  1.0000
  O  Te5       1.0  0.05285  0.53585  0.41262  1.0000
  O  Te6       1.0  0.12909  0.60903  0.45315  1.0000
  H   H30       1.0  0.09881  0.65830  0.11123  1.0000
  Mg  Mg3       1.0  0.09863  0.55617  0.53523  1.0000
  C   C97       1.0  0.59664  0.54339  0.15035  1.0000
  C   C98       1.0  0.56478  0.52483  0.23256  1.0000
  C  Sn7       1.0  0.56872  0.50507  0.33488  1.0000
  C  Sn8       1.0  0.60528  0.50393  0.35506  1.0000
  C   C99       1.0  0.63698  0.52262  0.27232  1.0000
  C   C100      1.0  0.63271  0.54230  0.17021  1.0000
  H   H31       1.0  0.59335  0.55864  0.07138  1.0000
  O  Te7       1.0  0.53658  0.48667  0.41607  1.0000
  O  Te8       1.0  0.61003  0.48441  0.45660  1.0000
  H   H32       1.0  0.65740  0.55669  0.10662  1.0000
  Mg  Mg4       1.0  0.55760  0.46378  0.54111  1.0000
  C   C101      1.0  0.49440  0.07197  0.37584  1.0000
  C   C102      1.0  0.48336  0.04263  0.28122  1.0000
  C  Sn9       1.0  0.47225  0.04930  0.16434  1.0000
  C  Sn10      1.0  0.47222  0.08605  0.14203  1.0000
  C   C103      1.0  0.48334  0.11522  0.23729  1.0000
  C   C104      1.0  0.49440  0.10823  0.35391  1.0000
  H   H33       1.0  0.50298  0.06657  0.46606  1.0000
  O  Te9       1.0  0.46129  0.01966  0.07086  1.0000
  O  Te10      1.0  0.46126  0.09351  0.02607  1.0000
  H   H34       1.0  0.50297  0.13096  0.42713  1.0000
  Mg  Mg5       1.0  0.45810  0.05312  0.92837  1.0000
  C   C105      1.0  0.91992  0.38710  0.13548  1.0000
  C   C106      1.0  0.89415  0.36880  0.23375  1.0000
  C  Sn11      1.0  0.90240  0.38923  0.34799  1.0000
  C  Sn12      1.0  0.93712  0.42871  0.36386  1.0000
  C   C107      1.0  0.96270  0.44677  0.26495  1.0000
  C   C108      1.0  0.95416  0.42605  0.15104  1.0000
  H   H35       1.0  0.91330  0.37109  0.04733  1.0000
  O  Te11      1.0  0.87635  0.37049  0.44520  1.0000
  O  Te12      1.0  0.94608  0.44981  0.47703  1.0000
  H   H36       1.0  0.97410  0.44024  0.07496  1.0000
  Mg  Mg6       1.0  0.90142  0.41151  0.58177  1.0000
  C   C109      1.0  0.45618  0.40081  0.34428  1.0000
  C   C110      1.0  0.47677  0.43455  0.26992  1.0000
  C  Sn13      1.0  0.49961  0.43330  0.17194  1.0000
  C  Sn14      1.0  0.50181  0.39755  0.14817  1.0000
  C   C111      1.0  0.48108  0.36395  0.22304  1.0000
  C   C112      1.0  0.45832  0.36553  0.32086  1.0000
  H   H37       1.0  0.43855  0.40202  0.41993  1.0000
  O  Te13      1.0  0.52001  0.46729  0.09859  1.0000
  O  Te14      1.0  0.52441  0.39547  0.05082  1.0000
  H   H38       1.0  0.44236  0.33939  0.37836  1.0000
  Mg  Mg7       1.0  0.55627  0.45894  0.97684  1.0000
  C   C113      1.0  0.59580  0.09565  0.13953  1.0000
  C   C114      1.0  0.62852  0.11009  0.22452  1.0000
  C  Sn15      1.0  0.62737  0.08596  0.32195  1.0000
  C  Sn16      1.0  0.59278  0.04664  0.33425  1.0000
  C   C115      1.0  0.56021  0.03246  0.24869  1.0000
  C   C116      1.0  0.56167  0.05687  0.15157  1.0000
  H   H39       1.0  0.59694  0.11452  0.06434  1.0000
  O  Te15      1.0  0.66032  0.10086  0.40607  1.0000
  O  Te16      1.0  0.59083  0.02188  0.43073  1.0000
  H   H40       1.0  0.53634  0.04567  0.08573  1.0000
  Mg  Mg8       1.0  0.64335  0.05572  0.52197  1.0000
  C   C117      1.0  0.95093  0.54866  0.35481  1.0000
  C   C118      1.0  0.96201  0.52634  0.27687  1.0000
  C  Sn17      1.0  0.93586  0.50243  0.17973  1.0000
  C  Sn18      1.0  0.89793  0.50091  0.16047  1.0000
  C   C119      1.0  0.88714  0.52338  0.23890  1.0000
  C   C120      1.0  0.91354  0.54719  0.33585  1.0000
  H   H41       1.0  0.97136  0.56711  0.42978  1.0000
  O  Te17      1.0  0.94740  0.48031  0.10275  1.0000
  O  Te18      1.0  0.87122  0.47728  0.06406  1.0000
  H   H42       1.0  0.90496  0.56449  0.39613  1.0000
  Mg  Mg9       1.0  0.91001  0.46181  0.98400  1.0000
  C   C121      1.0  0.54449  0.61681  0.35811  1.0000
  C   C122      1.0  0.52761  0.63153  0.27174  1.0000
  C  Sn19      1.0  0.50438  0.60693  0.17114  1.0000
  C  Sn20      1.0  0.49798  0.56687  0.15702  1.0000
  C   C123      1.0  0.51497  0.55242  0.24398  1.0000
  C   C124      1.0  0.53817  0.57730  0.34428  1.0000
  H   H43       1.0  0.56242  0.63605  0.43575  1.0000
  O  Te19      1.0  0.48776  0.62212  0.08569  1.0000
  O  Te20      1.0  0.47488  0.54163  0.05737  1.0000
  H   H44       1.0  0.55121  0.56588  0.41118  1.0000
  Mg  Mg10      1.0  0.46795  0.58537  0.96536  1.0000
  C   C125      1.0  0.42711  0.92024  0.13863  1.0000
  C   C126      1.0  0.44117  0.95485  0.21537  1.0000
  C  Sn21      1.0  0.41720  0.95545  0.31096  1.0000
  C  Sn22      1.0  0.37846  0.92069  0.32987  1.0000
  C   C127      1.0  0.36469  0.88620  0.25264  1.0000
  C   C128      1.0  0.38891  0.88594  0.15724  1.0000
  H   H45       1.0  0.44586  0.92002  0.06486  1.0000
  O  Te21      1.0  0.43170  0.99029  0.38675  1.0000
  O  Te22      1.0  0.35390  0.92046  0.42474  1.0000
  H   H46       1.0  0.37803  0.85912  0.09789  1.0000
  Mg  Mg11      1.0  0.38702  0.97523  0.50359  1.0000
  C   C129      1.0  0.07125  0.45138  0.34349  1.0000
  C   C130      1.0  0.10360  0.46890  0.26256  1.0000
  C  Sn23      1.0  0.10366  0.49398  0.16961  1.0000
  C  Sn24      1.0  0.07069  0.50160  0.15771  1.0000
  C   C131      1.0  0.03849  0.48395  0.23919  1.0000
  C   C132      1.0  0.03873  0.45889  0.33184  1.0000
  H   H47       1.0  0.07145  0.43201  0.41522  1.0000
  O  Te23      1.0  0.13621  0.51123  0.08951  1.0000
  O  Te24      1.0  0.06999  0.52656  0.06567  1.0000
  H   H48       1.0  0.01370  0.44535  0.39454  1.0000
  Mg  Mg12      1.0  0.13076  0.55234  0.97886  1.0000
  C   C133      1.0  0.40243  0.45726  0.64193  1.0000
  C   C134      1.0  0.43464  0.47564  0.72882  1.0000
  C  Sn25      1.0  0.43047  0.49363  0.83670  1.0000
  C  Sn26      1.0  0.39333  0.49316  0.85775  1.0000
  C   C135      1.0  0.36128  0.47467  0.77030  1.0000
  C   C136      1.0  0.36578  0.45677  0.66264  1.0000
  H   H49       1.0  0.40590  0.44339  0.55866  1.0000
  O  Te25      1.0  0.46296  0.51187  0.92253  1.0000
  O  Te26      1.0  0.38834  0.51090  0.96481  1.0000
  H   H50       1.0  0.34082  0.44252  0.59542  1.0000
  Mg  Mg13      1.0  0.43202  0.52277  0.05426  1.0000
  C   C137      1.0  0.53893  0.94598  0.64221  1.0000
  C   C138      1.0  0.52138  0.96061  0.72616  1.0000
  C  Sn27      1.0  0.50383  0.93920  0.83256  1.0000
  C  Sn28      1.0  0.50391  0.90249  0.85511  1.0000
  C   C139      1.0  0.52157  0.88812  0.77060  1.0000
  C   C140      1.0  0.53904  0.90978  0.66440  1.0000
  H   H51       1.0  0.55247  0.96274  0.56007  1.0000
  O  Te27      1.0  0.48641  0.95424  0.91545  1.0000
  O  Te28      1.0  0.48659  0.88049  0.96074  1.0000
  H   H52       1.0  0.55265  0.89846  0.59946  1.0000
  Mg  Mg14      1.0  0.45717  0.90411  0.04618  1.0000
  C   C141      1.0  0.07391  0.57649  0.87603  1.0000
  C   C142      1.0  0.04286  0.55941  0.78521  1.0000
  C  Sn29      1.0  0.04684  0.57953  0.67522  1.0000
  C  Sn30      1.0  0.08260  0.61743  0.65605  1.0000
  C   C143      1.0  0.11351  0.63424  0.74744  1.0000
  C   C144      1.0  0.10920  0.61386  0.85718  1.0000
  H   H53       1.0  0.07059  0.56072  0.96091  1.0000
  O  Te29      1.0  0.01551  0.56204  0.58546  1.0000
  O  Te30      1.0  0.08738  0.63817  0.54696  1.0000
  H   H54       1.0  0.13326  0.62708  0.92744  1.0000
  Mg  Mg15      1.0  0.03622  0.60198  0.45220  1.0000
  C   C145      1.0  0.61424  0.54190  0.64308  1.0000
  C   C146      1.0  0.63197  0.52946  0.73376  1.0000
  C  Sn31      1.0  0.61091  0.51164  0.84047  1.0000
  C  Sn32      1.0  0.57136  0.50621  0.85642  1.0000
  C   C147      1.0  0.55387  0.51873  0.76512  1.0000
  C   C148      1.0  0.57522  0.53654  0.65871  1.0000
  H   H55       1.0  0.63074  0.55565  0.56072  1.0000
  O  Te31      1.0  0.62909  0.49940  0.93017  1.0000
  O  Te32      1.0  0.54963  0.48848  0.96215  1.0000
  H   H56       1.0  0.56147  0.54614  0.58848  1.0000
  Mg  Mg16      1.0  0.57792  0.46751  0.05825  1.0000
  C   C149      1.0  0.44963  0.05228  0.65475  1.0000
  C   C150      1.0  0.47217  0.04060  0.72969  1.0000
  C  Sn33      1.0  0.49834  0.06702  0.82292  1.0000
  C  Sn34      1.0  0.50195  0.10583  0.84127  1.0000
  C   C151      1.0  0.47924  0.11722  0.76587  1.0000
  C   C152      1.0  0.45315  0.09055  0.67282  1.0000
  H   H57       1.0  0.42942  0.03164  0.58280  1.0000
  O  Te33      1.0  0.52065  0.05487  0.89693  1.0000
  O  Te34      1.0  0.52787  0.13283  0.93381  1.0000
  H   H58       1.0  0.43568  0.09960  0.61486  1.0000
  Mg  Mg17      1.0  0.54252  0.09311  0.01085  1.0000
  C   C153      1.0  0.92620  0.37896  0.65452  1.0000
  C   C154      1.0  0.89424  0.36497  0.73686  1.0000
  C  Sn35      1.0  0.89490  0.39067  0.83155  1.0000
  C  Sn36      1.0  0.92821  0.43114  0.84377  1.0000
  C   C155      1.0  0.96002  0.44486  0.76087  1.0000
  C   C156      1.0  0.95906  0.41887  0.66648  1.0000
  H   H59       1.0  0.92545  0.35887  0.58145  1.0000
  O  Te35      1.0  0.86273  0.37619  0.91304  1.0000
  O  Te36      1.0  0.92963  0.45748  0.93754  1.0000
  H   H60       1.0  0.98379  0.42973  0.60269  1.0000
  Mg  Mg18      1.0  0.86915  0.41438  0.02581  1.0000
  C   C157      1.0  0.50296  0.40749  0.63829  1.0000
  C   C158      1.0  0.48657  0.37640  0.72346  1.0000
  C  Sn37      1.0  0.46462  0.37875  0.82233  1.0000
  C  Sn38      1.0  0.45901  0.41290  0.83592  1.0000
  C   C159      1.0  0.47550  0.44383  0.75017  1.0000
  C   C160      1.0  0.49743  0.44117  0.65160  1.0000
  H   H61       1.0  0.51990  0.40543  0.56198  1.0000
  O  Te37      1.0  0.44847  0.34742  0.90661  1.0000
  O  Te38      1.0  0.43719  0.41601  0.93386  1.0000
  H   H62       1.0  0.51009  0.46524  0.58563  1.0000
  Mg  Mg19      1.0  0.41166  0.35629  0.02473  1.0000
  C   C161      1.0  0.61531  0.07440  0.84865  1.0000
  C   C162      1.0  0.63095  0.10371  0.75792  1.0000
  C  Sn39      1.0  0.60692  0.10026  0.65436  1.0000
  C  Sn40      1.0  0.56649  0.06682  0.64166  1.0000
  C   C163      1.0  0.55113  0.03767  0.73298  1.0000
  C   C164      1.0  0.57544  0.04141  0.83622  1.0000
  H   H63       1.0  0.63412  0.07730  0.92857  1.0000
  O  Te39      1.0  0.62302  0.12980  0.56456  1.0000
  O  Te40      1.0  0.54181  0.06263  0.53910  1.0000
  H   H64       1.0  0.56332  0.01873  0.90649  1.0000
  Mg  Mg20      1.0  0.57749  0.11075  0.44152  1.0000
  C   C165      1.0  0.92805  0.54499  0.86444  1.0000
  C   C166      1.0  0.89533  0.52939  0.77915  1.0000
  C  Sn41      1.0  0.89493  0.50678  0.67580  1.0000
  C  Sn42      1.0  0.92794  0.49969  0.65776  1.0000
  C   C167      1.0  0.96052  0.51540  0.74367  1.0000
  C   C168      1.0  0.96062  0.53800  0.84675  1.0000
  H   H65       1.0  0.92811  0.56246  0.94424  1.0000
  O  Te41      1.0  0.86201  0.49143  0.59147  1.0000
  O  Te42      1.0  0.92832  0.47718  0.55530  1.0000
  H   H66       1.0  0.98594  0.55005  0.91281  1.0000
  Mg  Mg21      1.0  0.87651  0.46260  0.46625  1.0000
  C   C169      1.0  0.49117  0.57372  0.64935  1.0000
  C   C170      1.0  0.51330  0.56137  0.72360  1.0000
  C  Sn43      1.0  0.53932  0.58716  0.81819  1.0000
  C  Sn44      1.0  0.54318  0.62600  0.83862  1.0000
  C   C171      1.0  0.52088  0.63805  0.76388  1.0000
  C   C172      1.0  0.49495  0.61202  0.66947  1.0000
  H   H67       1.0  0.47109  0.55357  0.57635  1.0000
  O  Te43      1.0  0.56122  0.57435  0.89148  1.0000
  O  Te44      1.0  0.56895  0.65236  0.93253  1.0000
  H   H68       1.0  0.47780  0.62158  0.61205  1.0000
  Mg  Mg22      1.0  0.58302  0.61188  0.00787  1.0000
  C   C173      1.0  0.40027  0.90363  0.63713  1.0000
  C   C174      1.0  0.36997  0.88961  0.72510  1.0000
  C  Sn45      1.0  0.37365  0.91444  0.82657  1.0000
  C  Sn46      1.0  0.40834  0.95404  0.83996  1.0000
  C   C175      1.0  0.43847  0.96780  0.75140  1.0000
  C   C176      1.0  0.43449  0.94269  0.65023  1.0000
  H   H69       1.0  0.39719  0.88422  0.55882  1.0000
  O  Te45      1.0  0.34311  0.89995  0.91363  1.0000
  O  Te46      1.0  0.41278  0.97950  0.94046  1.0000
  H   H70       1.0  0.45794  0.95357  0.58210  1.0000
  Mg  Mg23      1.0  0.35357  0.93675  0.03461  1.0000
  C   C177      1.0  0.07447  0.50183  0.63406  1.0000
  C   C178      1.0  0.04208  0.48271  0.71425  1.0000
  C  Sn47      1.0  0.04463  0.46066  0.81247  1.0000
  C  Sn48      1.0  0.08031  0.45778  0.83053  1.0000
  C   C179      1.0  0.11256  0.47704  0.74985  1.0000
  C   C180      1.0  0.10969  0.49901  0.65184  1.0000
  H   H71       1.0  0.07226  0.51884  0.55827  1.0000
  O  Te47      1.0  0.01198  0.44173  0.89169  1.0000
  O  Te48      1.0  0.08368  0.43596  0.92799  1.0000
  H   H72       1.0  0.13478  0.51383  0.58982  1.0000
  Mg  Mg24      1.0  0.02163  0.40621  0.01112  1.0000
