data_image0
_chemical_formula_structural       C6B6O12C6B6O12C30H12C6B6O12C6B6O12C30H12SnCSn2CSnTe4Mg2SnCSn2CSnTe4Mg2SnCSn2CSnTe4Mg2SnCSn2CSnTe4Mg2SnCSn2CSnTe4Mg2SnCSn2CSnTe4Mg2SnCSn2CSnTe4Mg2SnCSn2CSnTe4Mg2SnCSn2CSnTe4Mg2SnCSn2CSnTe4Mg2SnCSn2CSnTe4Mg2SnCSn2CSnTe4Mg2SnCSn2CSnTe4Mg2SnCSn2CSnTe4Mg2SnCSn2CSnTe4Mg2SnCSn2CSnTe4Mg2SnCSn2CSnTe4Mg2SnCSn2CSnTe4Mg2SnCSn2CSnTe4Mg2SnCSn2CSnTe4Mg2SnCSn2CSnTe4Mg2SnCSn2CSnTe4Mg2SnCSn2CSnTe4Mg2SnCSn2CSnTe4Mg2
_chemical_formula_sum              "C132 B24 O48 H24 Sn96 Te96 Mg48"
_cell_length_a       37.8375
_cell_length_b       37.9197
_cell_length_c       10.8632
_cell_angle_alpha    90.9125
_cell_angle_beta     90.9506
_cell_angle_gamma    120.02

_symmetry_space_group_name_H-M    'P1'
_space_group_IT_number       1

loop_
  _space_group_symop_operation_xyz
  'x, y, z'

loop_
  _atom_site_type_symbol
  _atom_site_label
  _atom_site_symmetry_multiplicity
  _atom_site_fract_x
  _atom_site_fract_y
  _atom_site_fract_z
  _atom_site_occupancy
  C   C1        1.0  0.48243  0.48057  0.25101  1.0000
  C   C2        1.0  0.51957  0.99932  0.24913  1.0000
  C   C3        1.0  0.00099  0.51854  0.25357  1.0000
  C   C4        1.0  0.51807  0.51710  0.25306  1.0000
  C   C5        1.0  0.48353  0.99938  0.24788  1.0000
  C   C6        1.0  0.00078  0.48243  0.25075  1.0000
  B   B1        1.0  0.32528  0.47646  0.25529  1.0000
  B   B2        1.0  0.52291  0.84629  0.24955  1.0000
  B   B3        1.0  0.15370  0.67546  0.25396  1.0000
  B   B4        1.0  0.67509  0.52153  0.25509  1.0000
  B   B5        1.0  0.48242  0.15357  0.25006  1.0000
  B   B6        1.0  0.84818  0.32568  0.26191  1.0000
  O   O1        1.0  0.29575  0.45945  0.34578  1.0000
  O   O2        1.0  0.53849  0.83342  0.34591  1.0000
  O   O3        1.0  0.16782  0.70621  0.34582  1.0000
  O   O4        1.0  0.70610  0.54093  0.34580  1.0000
  O   O5        1.0  0.46194  0.16522  0.33334  1.0000
  O   O6        1.0  0.83706  0.29610  0.35202  1.0000
  O   O7        1.0  0.31266  0.49333  0.16240  1.0000
  O   O8        1.0  0.50718  0.81719  0.15238  1.0000
  O   O9        1.0  0.18143  0.68661  0.15814  1.0000
  O   O10       1.0  0.68599  0.50207  0.16485  1.0000
  O   O11       1.0  0.50326  0.18403  0.16417  1.0000
  O   O12       1.0  0.81772  0.31268  0.16898  1.0000
  C   C7        1.0  0.26433  0.46597  0.30758  1.0000
  C   C8        1.0  0.53222  0.79558  0.30756  1.0000
  C   C9        1.0  0.20499  0.73703  0.30568  1.0000
  C   C10       1.0  0.73692  0.53358  0.31043  1.0000
  C   C11       1.0  0.46979  0.20328  0.29696  1.0000
  C   C12       1.0  0.79901  0.26431  0.31352  1.0000
  B   B7        1.0  0.48216  0.32592  0.23906  1.0000
  B   B8        1.0  0.67661  0.15148  0.25018  1.0000
  B   B9        1.0  0.84838  0.52256  0.25716  1.0000
  B   B10       1.0  0.52081  0.67276  0.25036  1.0000
  B   B11       1.0  0.32627  0.84786  0.24014  1.0000
  B   B12       1.0  0.15218  0.47625  0.24622  1.0000
  O   O13       1.0  0.50366  0.31486  0.15743  1.0000
  O   O14       1.0  0.68729  0.18197  0.16310  1.0000
  O   O15       1.0  0.81648  0.50158  0.16941  1.0000
  O   O16       1.0  0.50369  0.68497  0.15623  1.0000
  O   O17       1.0  0.31279  0.81637  0.15045  1.0000
  O   O18       1.0  0.18233  0.49442  0.15747  1.0000
  O   O19       1.0  0.46066  0.29481  0.32253  1.0000
  O   O20       1.0  0.70785  0.16351  0.34045  1.0000
  O   O21       1.0  0.83775  0.54287  0.34550  1.0000
  O   O22       1.0  0.53817  0.70275  0.34508  1.0000
  O   O23       1.0  0.29773  0.83723  0.33363  1.0000
  O   O24       1.0  0.16438  0.45845  0.33788  1.0000
  C   C13       1.0  0.49541  0.27653  0.19214  1.0000
  C   C14       1.0  0.72570  0.21302  0.20018  1.0000
  C   C15       1.0  0.78597  0.50935  0.20390  1.0000
  C   C16       1.0  0.51113  0.72328  0.19276  1.0000
  C   C17       1.0  0.27529  0.78603  0.18905  1.0000
  C   C18       1.0  0.21332  0.48723  0.19439  1.0000
  C   C19       1.0  0.50965  0.25237  0.13942  1.0000
  C   C20       1.0  0.74976  0.24972  0.14234  1.0000
  C   C21       1.0  0.74822  0.49572  0.14470  1.0000
  C   C22       1.0  0.50080  0.74859  0.12901  1.0000
  C   C23       1.0  0.24937  0.74862  0.13011  1.0000
  C   C24       1.0  0.24988  0.49877  0.13573  1.0000
  C   C25       1.0  0.46928  0.26441  0.29226  1.0000
  C   C26       1.0  0.73807  0.20203  0.30849  1.0000
  C   C27       1.0  0.79885  0.53438  0.31081  1.0000
  C   C28       1.0  0.53182  0.73396  0.30774  1.0000
  C   C29       1.0  0.26622  0.79862  0.30048  1.0000
  C   C30       1.0  0.20247  0.46550  0.30389  1.0000
  C   C31       1.0  0.49531  0.21498  0.19548  1.0000
  C   C32       1.0  0.78708  0.27469  0.20328  1.0000
  C   C33       1.0  0.72445  0.50942  0.20191  1.0000
  C   C34       1.0  0.51264  0.78545  0.19105  1.0000
  C   C35       1.0  0.21355  0.72487  0.19284  1.0000
  C   C36       1.0  0.27479  0.48694  0.19695  1.0000
  C   C37       1.0  0.22751  0.45387  0.36519  1.0000
  C   C38       1.0  0.54316  0.77057  0.37048  1.0000
  C   C39       1.0  0.23067  0.77461  0.36402  1.0000
  C   C40       1.0  0.77484  0.54760  0.36897  1.0000
  C   C41       1.0  0.45528  0.22724  0.34916  1.0000
  C   C42       1.0  0.77521  0.22728  0.37029  1.0000
  H   H1        1.0  0.52944  0.26150  0.06100  1.0000
  H   H2        1.0  0.21931  0.43738  0.45035  1.0000
  H   H3        1.0  0.74059  0.25777  0.05696  1.0000
  H   H4        1.0  0.55840  0.77852  0.46051  1.0000
  H   H5        1.0  0.73856  0.47675  0.06129  1.0000
  H   H6        1.0  0.22383  0.78402  0.45099  1.0000
  H   H7        1.0  0.48561  0.74064  0.03891  1.0000
  H   H8        1.0  0.78455  0.56663  0.45227  1.0000
  H   H9        1.0  0.25616  0.73919  0.04308  1.0000
  H   H10       1.0  0.43546  0.21813  0.42749  1.0000
  H   H11       1.0  0.25792  0.51494  0.04993  1.0000
  H   H12       1.0  0.78428  0.21920  0.45576  1.0000
  C   C43       1.0  0.48175  0.48383  0.75153  1.0000
  C   C44       1.0  0.51494  0.00041  0.74750  1.0000
  C   C45       1.0  0.99850  0.51692  0.75153  1.0000
  C   C46       1.0  0.51740  0.52030  0.75267  1.0000
  C   C47       1.0  0.47919  0.00105  0.74988  1.0000
  C   C48       1.0  0.99819  0.48077  0.74956  1.0000
  B   B13       1.0  0.32247  0.47492  0.75082  1.0000
  B   B14       1.0  0.52155  0.84925  0.75340  1.0000
  B   B15       1.0  0.15143  0.67402  0.76206  1.0000
  B   B16       1.0  0.67439  0.52393  0.75808  1.0000
  B   B17       1.0  0.47982  0.15623  0.75037  1.0000
  B   B18       1.0  0.84576  0.32348  0.75539  1.0000
  O   O25       1.0  0.29144  0.45559  0.83602  1.0000
  O   O26       1.0  0.54158  0.83849  0.84211  1.0000
  O   O27       1.0  0.16323  0.70603  0.84881  1.0000
  O   O28       1.0  0.70357  0.53926  0.85511  1.0000
  O   O29       1.0  0.46625  0.17106  0.84697  1.0000
  O   O30       1.0  0.83332  0.29401  0.84613  1.0000
  O   O31       1.0  0.31144  0.49418  0.66112  1.0000
  O   O32       1.0  0.50230  0.81848  0.66171  1.0000
  O   O33       1.0  0.18110  0.68455  0.67239  1.0000
  O   O34       1.0  0.68720  0.50839  0.66124  1.0000
  O   O35       1.0  0.49462  0.18389  0.65444  1.0000
  O   O36       1.0  0.81596  0.31131  0.66080  1.0000
  C   C49       1.0  0.26075  0.46319  0.79799  1.0000
  C   C50       1.0  0.53452  0.80031  0.80431  1.0000
  C   C51       1.0  0.20076  0.73698  0.81108  1.0000
  C   C52       1.0  0.73500  0.53315  0.81729  1.0000
  C   C53       1.0  0.47220  0.20833  0.80844  1.0000
  C   C54       1.0  0.79512  0.26286  0.80583  1.0000
  B   B19       1.0  0.48101  0.32921  0.74804  1.0000
  B   B20       1.0  0.67221  0.15150  0.73697  1.0000
  B   B21       1.0  0.84684  0.52281  0.75990  1.0000
  B   B22       1.0  0.52142  0.67667  0.74856  1.0000
  B   B23       1.0  0.32229  0.84858  0.75029  1.0000
  B   B24       1.0  0.15017  0.47594  0.73528  1.0000
  O   O37       1.0  0.49723  0.31573  0.65502  1.0000
  O   O38       1.0  0.68402  0.18182  0.64870  1.0000
  O   O39       1.0  0.81641  0.50538  0.66621  1.0000
  O   O40       1.0  0.50077  0.68723  0.66091  1.0000
  O   O41       1.0  0.31084  0.81594  0.66590  1.0000
  O   O42       1.0  0.18147  0.49583  0.65085  1.0000
  O   O43       1.0  0.46558  0.30108  0.84284  1.0000
  O   O44       1.0  0.70254  0.16328  0.83020  1.0000
  O   O45       1.0  0.83490  0.54002  0.85458  1.0000
  O   O46       1.0  0.54273  0.70855  0.83611  1.0000
  O   O47       1.0  0.29184  0.83873  0.83716  1.0000
  O   O48       1.0  0.16078  0.45563  0.82287  1.0000
  C   C55       1.0  0.49116  0.27843  0.69285  1.0000
  C   C56       1.0  0.72230  0.21263  0.68834  1.0000
  C   C57       1.0  0.78564  0.51245  0.70310  1.0000
  C   C58       1.0  0.50945  0.72611  0.69554  1.0000
  C   C59       1.0  0.27291  0.78562  0.70182  1.0000
  C   C60       1.0  0.21185  0.48773  0.68766  1.0000
  C   C61       1.0  0.50095  0.25220  0.63041  1.0000
  C   C62       1.0  0.74725  0.24931  0.63149  1.0000
  C   C63       1.0  0.74926  0.50183  0.63936  1.0000
  C   C64       1.0  0.49607  0.75005  0.63783  1.0000
  C   C65       1.0  0.24865  0.74718  0.64660  1.0000
  C   C66       1.0  0.24950  0.50089  0.63415  1.0000
  C   C67       1.0  0.47212  0.26965  0.80702  1.0000
  C   C68       1.0  0.73348  0.20141  0.79852  1.0000
  C   C69       1.0  0.79669  0.53325  0.81773  1.0000
  C   C70       1.0  0.53482  0.73900  0.80188  1.0000
  C   C71       1.0  0.26139  0.79938  0.80604  1.0000
  C   C72       1.0  0.19923  0.46326  0.79160  1.0000
  C   C73       1.0  0.49009  0.21648  0.69273  1.0000
  C   C74       1.0  0.78434  0.27367  0.69446  1.0000
  C   C75       1.0  0.72466  0.51366  0.70076  1.0000
  C   C76       1.0  0.51010  0.78790  0.69620  1.0000
  C   C77       1.0  0.21186  0.72367  0.70514  1.0000
  C   C78       1.0  0.27312  0.48708  0.69307  1.0000
  C   C79       1.0  0.22309  0.44994  0.85146  1.0000
  C   C80       1.0  0.54847  0.77667  0.86102  1.0000
  C   C81       1.0  0.22480  0.77564  0.86544  1.0000
  C   C82       1.0  0.77169  0.54433  0.88028  1.0000
  C   C83       1.0  0.46187  0.23426  0.87008  1.0000
  C   C84       1.0  0.77035  0.22602  0.86226  1.0000
  H   H13       1.0  0.51518  0.25872  0.54137  1.0000
  H   H14       1.0  0.21337  0.43157  0.93289  1.0000
  H   H15       1.0  0.73895  0.25790  0.54559  1.0000
  H   H16       1.0  0.56753  0.78632  0.94434  1.0000
  H   H17       1.0  0.74130  0.48653  0.54952  1.0000
  H   H18       1.0  0.21611  0.78601  0.94711  1.0000
  H   H19       1.0  0.47678  0.74033  0.55497  1.0000
  H   H20       1.0  0.77972  0.55956  0.97024  1.0000
  H   H21       1.0  0.25745  0.73676  0.56528  1.0000
  H   H22       1.0  0.44746  0.22765  0.95877  1.0000
  H   H23       1.0  0.25926  0.51939  0.55301  1.0000
  H   H24       1.0  0.77876  0.21739  0.94790  1.0000
  C  Sn1       1.0  0.40893  0.50867  0.33955  1.0000
  C   C85       1.0  0.37553  0.48790  0.25767  1.0000
  C  Sn2       1.0  0.37346  0.45809  0.17585  1.0000
  C  Sn3       1.0  0.40543  0.44882  0.17590  1.0000
  C   C86       1.0  0.43880  0.46958  0.25776  1.0000
  C  Sn4       1.0  0.44090  0.49940  0.33961  1.0000
  O  Te1       1.0  0.41037  0.53836  0.42055  1.0000
  O  Te2       1.0  0.33977  0.43774  0.09482  1.0000
  O  Te3       1.0  0.40397  0.41910  0.09481  1.0000
  O  Te4       1.0  0.47456  0.51974  0.42061  1.0000
  Mg  Mg1       1.0  0.35175  0.39975  0.00203  1.0000
  Mg  Mg2       1.0  0.46261  0.55772  0.51348  1.0000
  C  Sn5       1.0  0.49160  0.89767  0.33312  1.0000
  C   C87       1.0  0.51154  0.88496  0.25185  1.0000
  C  Sn6       1.0  0.54053  0.91256  0.17260  1.0000
  C  Sn7       1.0  0.54981  0.95374  0.17467  1.0000
  C   C88       1.0  0.52989  0.96643  0.25591  1.0000
  C  Sn8       1.0  0.50088  0.93884  0.33519  1.0000
  O  Te5       1.0  0.46273  0.86955  0.41153  1.0000
  O  Te6       1.0  0.56005  0.89914  0.09214  1.0000
  O  Te7       1.0  0.57871  0.98186  0.09616  1.0000
  O  Te8       1.0  0.48137  0.95225  0.41562  1.0000
  Mg  Mg3       1.0  0.59712  0.94894  0.00318  1.0000
  Mg  Mg4       1.0  0.44431  0.90249  0.50466  1.0000
  C  Sn9       1.0  0.06912  0.62230  0.17948  1.0000
  C   C89       1.0  0.10319  0.63643  0.25904  1.0000
  C  Sn10      1.0  0.10716  0.60973  0.33757  1.0000
  C  Sn11      1.0  0.07645  0.56803  0.33653  1.0000
  C   C90       1.0  0.04241  0.55391  0.25699  1.0000
  C  Sn12      1.0  0.03841  0.58059  0.17843  1.0000
  O  Te9       1.0  0.06578  0.64954  0.10176  1.0000
  O  Te10      1.0  0.14149  0.62458  0.41632  1.0000
  O  Te11      1.0  0.07982  0.54079  0.41434  1.0000
  O  Te12      1.0  0.00410  0.56577  0.09971  1.0000
  Mg  Mg5       1.0  0.13223  0.57557  0.50493  1.0000
  Mg  Mg6       1.0  0.01334  0.61474  0.01102  1.0000
  C  Sn13      1.0  0.58924  0.53020  0.13750  1.0000
  C   C91       1.0  0.55969  0.51505  0.22775  1.0000
  C  Sn14      1.0  0.56877  0.50561  0.34352  1.0000
  C  Sn15      1.0  0.60823  0.51145  0.36968  1.0000
  C   C92       1.0  0.63776  0.52659  0.27948  1.0000
  C  Sn16      1.0  0.62870  0.53604  0.16366  1.0000
  O  Te13      1.0  0.57949  0.53943  0.02240  1.0000
  O  Te14      1.0  0.53872  0.49049  0.43224  1.0000
  O  Te15      1.0  0.61796  0.50220  0.48490  1.0000
  O  Te16      1.0  0.65873  0.55115  0.07499  1.0000
  Mg  Mg7       1.0  0.56673  0.48241  0.57535  1.0000
  Mg  Mg8       1.0  0.64016  0.56852  0.93187  1.0000
  C  Sn17      1.0  0.48209  0.06383  0.12706  1.0000
  C   C93       1.0  0.48917  0.04501  0.22646  1.0000
  C  Sn18      1.0  0.48926  0.05839  0.34709  1.0000
  C  Sn19      1.0  0.48211  0.09125  0.36883  1.0000
  C   C94       1.0  0.47504  0.11005  0.26947  1.0000
  C  Sn20      1.0  0.47494  0.09669  0.14880  1.0000
  O  Te17      1.0  0.48214  0.04995  0.00724  1.0000
  O  Te18      1.0  0.49642  0.03910  0.44497  1.0000
  O  Te19      1.0  0.48207  0.10512  0.48877  1.0000
  O  Te20      1.0  0.46779  0.11596  0.05096  1.0000
  Mg  Mg9       1.0  0.49330  0.06901  0.59159  1.0000
  Mg  Mg10      1.0  0.48028  0.09532  0.90432  1.0000
  C  Sn21      1.0  0.93458  0.41359  0.13325  1.0000
  C   C95       1.0  0.95454  0.44198  0.22978  1.0000
  C  Sn22      1.0  0.94314  0.43147  0.35130  1.0000
  C  Sn23      1.0  0.91114  0.39176  0.37690  1.0000
  C   C96       1.0  0.89120  0.36339  0.28041  1.0000
  C  Sn24      1.0  0.90257  0.37388  0.15884  1.0000
  O  Te21      1.0  0.94649  0.42476  0.01246  1.0000
  O  Te22      1.0  0.96354  0.46038  0.44626  1.0000
  O  Te23      1.0  0.89924  0.38061  0.49780  1.0000
  O  Te24      1.0  0.88220  0.34500  0.06392  1.0000
  Mg  Mg11      1.0  0.93626  0.43063  0.59564  1.0000
  Mg  Mg12      1.0  0.91887  0.38396  0.91453  1.0000
  C  Sn25      1.0  0.51430  0.40940  0.16568  1.0000
  C   C97       1.0  0.49422  0.37645  0.24323  1.0000
  C  Sn26      1.0  0.46351  0.37365  0.31907  1.0000
  C  Sn27      1.0  0.45263  0.40441  0.31732  1.0000
  C   C98       1.0  0.47270  0.43733  0.23979  1.0000
  C  Sn28      1.0  0.50342  0.44016  0.16393  1.0000
  O  Te25      1.0  0.54491  0.41157  0.09063  1.0000
  O  Te26      1.0  0.44387  0.34042  0.39585  1.0000
  O  Te27      1.0  0.42199  0.40221  0.39246  1.0000
  O  Te28      1.0  0.52304  0.47335  0.08717  1.0000
  Mg  Mg13      1.0  0.40414  0.35104  0.48109  1.0000
  Mg  Mg14      1.0  0.56277  0.46276  0.00185  1.0000
  C  Sn29      1.0  0.57980  0.06954  0.12672  1.0000
  C   C99       1.0  0.56594  0.03813  0.21078  1.0000
  C  Sn30      1.0  0.58644  0.04411  0.32407  1.0000
  C  Sn31      1.0  0.62152  0.08230  0.35401  1.0000
  C   C100      1.0  0.63536  0.11368  0.26999  1.0000
  C  Sn32      1.0  0.61488  0.10772  0.15666  1.0000
  O  Te29      1.0  0.55882  0.06287  0.01401  1.0000
  O  Te30      1.0  0.57202  0.01225  0.40659  1.0000
  O  Te31      1.0  0.64249  0.08894  0.46684  1.0000
  O  Te32      1.0  0.62928  0.13956  0.07418  1.0000
  Mg  Mg15      1.0  0.61101  0.03617  0.54859  1.0000
  Mg  Mg16      1.0  0.59971  0.12493  0.93219  1.0000
  C  Sn33      1.0  0.89724  0.48855  0.17727  1.0000
  C   C101      1.0  0.88676  0.51089  0.25719  1.0000
  C  Sn34      1.0  0.91663  0.54235  0.33206  1.0000
  C  Sn35      1.0  0.95785  0.55169  0.32689  1.0000
  C   C102      1.0  0.96832  0.52937  0.24699  1.0000
  C  Sn36      1.0  0.93846  0.49790  0.17210  1.0000
  O  Te33      1.0  0.86688  0.45724  0.10325  1.0000
  O  Te34      1.0  0.90540  0.56424  0.41126  1.0000
  O  Te35      1.0  0.98821  0.58304  0.40100  1.0000
  O  Te36      1.0  0.94967  0.47602  0.09292  1.0000
  Mg  Mg17      1.0  0.95778  0.60414  0.49386  1.0000
  Mg  Mg18      1.0  0.89732  0.43613  0.01024  1.0000
  C  Sn37      1.0  0.48736  0.58902  0.16995  1.0000
  C   C103      1.0  0.50884  0.62263  0.25040  1.0000
  C  Sn38      1.0  0.53974  0.62523  0.32881  1.0000
  C  Sn39      1.0  0.54940  0.59359  0.32672  1.0000
  C   C104      1.0  0.52793  0.56001  0.24631  1.0000
  C  Sn40      1.0  0.49702  0.55738  0.16787  1.0000
  O  Te37      1.0  0.45658  0.58705  0.09238  1.0000
  O  Te38      1.0  0.56078  0.65913  0.40845  1.0000
  O  Te39      1.0  0.58020  0.59558  0.40440  1.0000
  O  Te40      1.0  0.47599  0.52351  0.08825  1.0000
  Mg  Mg19      1.0  0.60018  0.64789  0.49645  1.0000
  Mg  Mg20      1.0  0.43660  0.53472  0.00017  1.0000
  C  Sn41      1.0  0.40992  0.94378  0.35768  1.0000
  C   C105      1.0  0.44142  0.95607  0.27424  1.0000
  C  Sn42      1.0  0.43459  0.93536  0.16105  1.0000
  C  Sn43      1.0  0.39546  0.90167  0.13059  1.0000
  C   C106      1.0  0.36398  0.88940  0.21399  1.0000
  C  Sn44      1.0  0.37078  0.91009  0.32722  1.0000
  O  Te41      1.0  0.41743  0.96494  0.47031  1.0000
  O  Te42      1.0  0.46657  0.94820  0.07915  1.0000
  O  Te43      1.0  0.38796  0.88051  0.01786  1.0000
  O  Te44      1.0  0.33883  0.89727  0.40908  1.0000
  Mg  Mg21      1.0  0.45066  0.91885  0.93704  1.0000
  Mg  Mg22      1.0  0.36410  0.93587  0.55119  1.0000
  C  Sn45      1.0  0.06731  0.44278  0.31027  1.0000
  C   C107      1.0  0.10109  0.46399  0.23626  1.0000
  C  Sn46      1.0  0.10544  0.49680  0.16812  1.0000
  C  Sn47      1.0  0.07541  0.50867  0.17412  1.0000
  C   C108      1.0  0.04165  0.48747  0.24810  1.0000
  C  Sn48      1.0  0.03728  0.45465  0.31626  1.0000
  O  Te45      1.0  0.06359  0.41008  0.37761  1.0000
  O  Te46      1.0  0.13947  0.51753  0.09476  1.0000
  O  Te47      1.0  0.07915  0.54140  0.10669  1.0000
  O  Te48      1.0  0.00327  0.43393  0.38960  1.0000
  Mg  Mg23      1.0  0.13094  0.56009  0.02017  1.0000
  Mg  Mg24      1.0  0.01179  0.39138  0.46428  1.0000
  C  Sn49      1.0  0.40941  0.47061  0.63278  1.0000
  C   C109      1.0  0.43944  0.48546  0.72675  1.0000
  C  Sn50      1.0  0.43049  0.49300  0.84518  1.0000
  C  Sn51      1.0  0.39068  0.48552  0.87024  1.0000
  C   C110      1.0  0.36067  0.47067  0.77631  1.0000
  C  Sn52      1.0  0.36960  0.46313  0.65784  1.0000
  O  Te49      1.0  0.41904  0.46329  0.51507  1.0000
  O  Te50      1.0  0.46102  0.50786  0.93760  1.0000
  O  Te51      1.0  0.38106  0.49285  0.98806  1.0000
  O  Te52      1.0  0.33910  0.44827  0.56546  1.0000
  Mg  Mg25      1.0  0.42359  0.50378  0.08323  1.0000
  Mg  Mg26      1.0  0.36708  0.44306  0.41982  1.0000
  C  Sn53      1.0  0.52550  0.93967  0.63153  1.0000
  C   C111      1.0  0.51152  0.95565  0.72298  1.0000
  C  Sn54      1.0  0.50452  0.93989  0.84110  1.0000
  C  Sn55      1.0  0.51166  0.90749  0.86843  1.0000
  C   C112      1.0  0.52564  0.89153  0.77702  1.0000
  C  Sn56      1.0  0.53264  0.90727  0.65886  1.0000
  O  Te53      1.0  0.53230  0.95590  0.51408  1.0000
  O  Te54      1.0  0.49052  0.95636  0.93098  1.0000
  O  Te55      1.0  0.50485  0.89127  0.98599  1.0000
  O  Te56      1.0  0.54663  0.89083  0.56901  1.0000
  Mg  Mg27      1.0  0.47639  0.91469  0.07729  1.0000
  Mg  Mg28      1.0  0.55139  0.92322  0.42271  1.0000
  C  Sn57      1.0  0.06043  0.58537  0.63464  1.0000
  C   C113      1.0  0.04393  0.55738  0.72872  1.0000
  C  Sn58      1.0  0.05969  0.56842  0.84922  1.0000
  C  Sn59      1.0  0.09261  0.60827  0.87629  1.0000
  C   C114      1.0  0.10909  0.63623  0.78225  1.0000
  C  Sn60      1.0  0.09335  0.62522  0.66171  1.0000
  O  Te57      1.0  0.04419  0.57367  0.51484  1.0000
  O  Te58      1.0  0.04271  0.53991  0.94172  1.0000
  O  Te59      1.0  0.10885  0.61995  0.99620  1.0000
  O  Te60      1.0  0.11031  0.65370  0.56925  1.0000
  Mg  Mg29      1.0  0.06594  0.56106  0.09060  1.0000
  Mg  Mg30      1.0  0.07769  0.62334  0.42036  1.0000
  C  Sn61      1.0  0.58766  0.53033  0.63611  1.0000
  C   C115      1.0  0.55877  0.51719  0.72829  1.0000
  C  Sn62      1.0  0.56864  0.51014  0.84636  1.0000
  C  Sn63      1.0  0.60822  0.51636  0.87289  1.0000
  C   C116      1.0  0.63709  0.52950  0.78076  1.0000
  C  Sn64      1.0  0.62724  0.53656  0.66264  1.0000
  O  Te61      1.0  0.57712  0.53720  0.51873  1.0000
  O  Te62      1.0  0.53924  0.49700  0.93698  1.0000
  O  Te63      1.0  0.61874  0.50948  0.99039  1.0000
  O  Te64      1.0  0.65662  0.54969  0.57207  1.0000
  Mg  Mg31      1.0  0.55880  0.48254  0.08286  1.0000
  Mg  Mg32      1.0  0.62770  0.55492  0.42617  1.0000
  C  Sn65      1.0  0.44347  0.07040  0.68237  1.0000
  C   C117      1.0  0.46724  0.10551  0.75526  1.0000
  C  Sn66      1.0  0.50042  0.10961  0.82547  1.0000
  C  Sn67      1.0  0.51007  0.07796  0.82271  1.0000
  C   C118      1.0  0.48631  0.04288  0.74985  1.0000
  C  Sn68      1.0  0.45312  0.03875  0.67962  1.0000
  O  Te65      1.0  0.41044  0.06695  0.61292  1.0000
  O  Te66      1.0  0.52372  0.14499  0.89766  1.0000
  O  Te67      1.0  0.54313  0.08143  0.89225  1.0000
  O  Te68      1.0  0.93122  0.00340  0.60745  1.0000
  Mg  Mg33      1.0  0.56571  0.13545  0.97605  1.0000
  Mg  Mg34      1.0  0.38785  0.01292  0.52898  1.0000
  C  Sn69      1.0  0.94089  0.40507  0.64078  1.0000
  C   C119      1.0  0.95431  0.43818  0.72349  1.0000
  C  Sn70      1.0  0.93498  0.43367  0.83534  1.0000
  C  Sn71      1.0  0.90157  0.39525  0.86520  1.0000
  C   C120      1.0  0.88818  0.36216  0.78254  1.0000
  C  Sn72      1.0  0.90748  0.36665  0.67064  1.0000
  O  Te69      1.0  0.96067  0.41027  0.52949  1.0000
  O  Te70      1.0  0.94893  0.46723  0.91652  1.0000
  O  Te71      1.0  0.88180  0.39007  0.97660  1.0000
  O  Te72      1.0  0.89355  0.33312  0.58950  1.0000
  Mg  Mg35      1.0  0.90262  0.43562  0.05686  1.0000
  Mg  Mg36      1.0  0.93045  0.35543  0.44918  1.0000
  C  Sn73      1.0  0.49201  0.42271  0.62681  1.0000
  C   C121      1.0  0.47514  0.43749  0.71270  1.0000
  C  Sn74      1.0  0.46283  0.41911  0.82645  1.0000
  C  Sn75      1.0  0.46750  0.38527  0.85499  1.0000
  C   C122      1.0  0.48437  0.37051  0.76913  1.0000
  C  Sn76      1.0  0.49668  0.38887  0.65534  1.0000
  O  Te73      1.0  0.50410  0.44156  0.51366  1.0000
  O  Te74      1.0  0.44603  0.43441  0.91082  1.0000
  O  Te75      1.0  0.45538  0.36642  0.96824  1.0000
  O  Te76      1.0  0.51347  0.37358  0.57102  1.0000
  Mg  Mg37      1.0  0.42477  0.38913  0.05271  1.0000
  Mg  Mg38      1.0  0.52536  0.40959  0.42913  1.0000
  C  Sn77      1.0  0.58910  0.06014  0.85888  1.0000
  C   C123      1.0  0.55725  0.04465  0.77056  1.0000
  C  Sn78      1.0  0.56369  0.06089  0.65312  1.0000
  C  Sn79      1.0  0.60278  0.09327  0.62330  1.0000
  C   C124      1.0  0.63461  0.10873  0.71158  1.0000
  C  Sn80      1.0  0.62819  0.09252  0.82906  1.0000
  O  Te77      1.0  0.58197  0.04344  0.97570  1.0000
  O  Te78      1.0  0.53138  0.04492  0.56639  1.0000
  O  Te79      1.0  0.60989  0.10997  0.50637  1.0000
  O  Te80      1.0  0.66048  0.10847  0.91576  1.0000
  Mg  Mg39      1.0  0.55622  0.07786  0.41974  1.0000
  Mg  Mg40      1.0  0.62627  0.06629  0.06240  1.0000
  C  Sn81      1.0  0.94276  0.53325  0.87237  1.0000
  C   C125      1.0  0.95505  0.51537  0.78184  1.0000
  C  Sn82      1.0  0.93449  0.50335  0.66748  1.0000
  C  Sn83      1.0  0.90096  0.50935  0.64306  1.0000
  C   C126      1.0  0.88869  0.52724  0.73354  1.0000
  C  Sn84      1.0  0.90923  0.53926  0.84794  1.0000
  O  Te81      1.0  0.96376  0.54504  0.98603  1.0000
  O  Te82      1.0  0.94733  0.48551  0.57845  1.0000
  O  Te83      1.0  0.87996  0.49755  0.52928  1.0000
  O  Te84      1.0  0.89641  0.55709  0.93693  1.0000
  Mg  Mg41      1.0  0.90897  0.47458  0.43772  1.0000
  Mg  Mg42      1.0  0.92535  0.55879  0.07766  1.0000
  C  Sn85      1.0  0.55491  0.62591  0.82014  1.0000
  C   C127      1.0  0.53262  0.63760  0.74409  1.0000
  C  Sn86      1.0  0.49937  0.60850  0.67282  1.0000
  C  Sn87      1.0  0.48815  0.56683  0.67771  1.0000
  C   C128      1.0  0.51043  0.55516  0.75374  1.0000
  C  Sn88      1.0  0.54369  0.58424  0.82503  1.0000
  O  Te85      1.0  0.58804  0.65552  0.89060  1.0000
  O  Te86      1.0  0.47756  0.62092  0.59746  1.0000
  O  Te87      1.0  0.45500  0.53721  0.60716  1.0000
  O  Te88      1.0  0.56549  0.57183  0.90037  1.0000
  Mg  Mg43      1.0  0.43480  0.56921  0.51882  1.0000
  Mg  Mg44      1.0  0.60824  0.62352  0.97909  1.0000
  C  Sn89      1.0  0.40447  0.89828  0.66702  1.0000
  C   C129      1.0  0.37279  0.88672  0.74945  1.0000
  C  Sn90      1.0  0.37205  0.91561  0.82912  1.0000
  C  Sn91      1.0  0.40362  0.95692  0.82630  1.0000
  C   C130      1.0  0.43526  0.96845  0.74389  1.0000
  C  Sn92      1.0  0.43603  0.93958  0.66420  1.0000
  O  Te89      1.0  0.40459  0.86888  0.58821  1.0000
  O  Te90      1.0  0.34007  0.90333  0.91075  1.0000
  O  Te91      1.0  0.40347  0.98632  0.90520  1.0000
  O  Te92      1.0  0.46798  0.95185  0.58259  1.0000
  Mg  Mg45      1.0  0.35338  0.95464  0.99985  1.0000
  Mg  Mg46      1.0  0.45469  0.90057  0.49341  1.0000
  C  Sn93      1.0  0.05797  0.46659  0.85882  1.0000
  C   C131      1.0  0.04308  0.48381  0.77449  1.0000
  C  Sn94      1.0  0.06026  0.49501  0.65877  1.0000
  C  Sn95      1.0  0.09300  0.48886  0.62663  1.0000
  C   C132      1.0  0.10786  0.47164  0.71092  1.0000
  C  Sn96      1.0  0.09070  0.46043  0.82668  1.0000
  O  Te93      1.0  0.04032  0.45561  0.97398  1.0000
  O  Te94      1.0  0.04486  0.51219  0.57602  1.0000
  O  Te95      1.0  0.11064  0.49985  0.51136  1.0000
  O  Te96      1.0  0.10608  0.44327  0.90938  1.0000
  Mg  Mg47      1.0  0.07904  0.52213  0.43029  1.0000
  Mg  Mg48      1.0  0.06251  0.42404  0.05512  1.0000
