data_image0
_chemical_formula_structural       C48B6O12C6B6O12C30H40C36B6O12C6B6O12C30H32C2Sn2C2HTe2HMgC2Sn2C2HTe2HMgC2Sn2C2HTe2HMgC2Sn2C2HTe2HMgC2Sn2C2HTe2HMgC2Sn2C2HTe2HMgC2Sn2C2HTe2HMgC2Sn2C2HTe2HMgC2Sn2C2HTe2HMgC2Sn2C2HTe2HMgC2Sn2C2HTe2HMgC2Sn2C2HTe2HMg
_chemical_formula_sum              "C204 B24 O48 H96 Sn24 Te24 Mg12"
_cell_length_a       37.8375
_cell_length_b       37.9197
_cell_length_c       10.8632
_cell_angle_alpha    90.9125
_cell_angle_beta     90.9506
_cell_angle_gamma    120.02

_symmetry_space_group_name_H-M    'P1'
_space_group_IT_number       1

loop_
  _space_group_symop_operation_xyz
  'x, y, z'

loop_
  _atom_site_type_symbol
  _atom_site_label
  _atom_site_symmetry_multiplicity
  _atom_site_fract_x
  _atom_site_fract_y
  _atom_site_fract_z
  _atom_site_occupancy
  C   C1        1.0  0.48243  0.48057  0.25101  1.0000
  C   C2        1.0  0.51957  0.99932  0.24913  1.0000
  C   C3        1.0  0.00099  0.51854  0.25357  1.0000
  C   C4        1.0  0.51807  0.51710  0.25306  1.0000
  C   C5        1.0  0.48353  0.99938  0.24788  1.0000
  C   C6        1.0  0.00078  0.48243  0.25075  1.0000
  C   C7        1.0  0.03939  0.55862  0.25800  1.0000
  C   C8        1.0  0.96207  0.44262  0.25579  1.0000
  C   C9        1.0  0.04594  0.58711  0.16721  1.0000
  C   C10       1.0  0.94813  0.41611  0.15205  1.0000
  C   C11       1.0  0.08262  0.62396  0.16500  1.0000
  C   C12       1.0  0.91133  0.37939  0.15392  1.0000
  C   C13       1.0  0.11307  0.63456  0.25739  1.0000
  C   C14       1.0  0.88844  0.36688  0.26170  1.0000
  C   C15       1.0  0.10552  0.60682  0.35171  1.0000
  C   C16       1.0  0.90332  0.39293  0.36671  1.0000
  C   C17       1.0  0.06959  0.56916  0.35059  1.0000
  C   C18       1.0  0.93921  0.43058  0.36297  1.0000
  C   C19       1.0  0.48180  0.44109  0.24455  1.0000
  C   C20       1.0  0.55972  0.03746  0.24597  1.0000
  C   C21       1.0  0.96267  0.52034  0.25195  1.0000
  C   C22       1.0  0.51915  0.55675  0.24984  1.0000
  C   C23       1.0  0.44324  0.96137  0.24249  1.0000
  C   C24       1.0  0.46026  0.41126  0.33191  1.0000
  C   C25       1.0  0.59057  0.04478  0.33394  1.0000
  C   C26       1.0  0.95689  0.54417  0.34126  1.0000
  C   C27       1.0  0.54176  0.58709  0.34065  1.0000
  C   C28       1.0  0.41348  0.95546  0.32855  1.0000
  C   C29       1.0  0.46074  0.37477  0.33036  1.0000
  C   C30       1.0  0.62782  0.08108  0.33559  1.0000
  C   C31       1.0  0.92044  0.54483  0.34401  1.0000
  C   C32       1.0  0.54185  0.62385  0.34178  1.0000
  C   C33       1.0  0.37629  0.91912  0.32783  1.0000
  C   C34       1.0  0.48185  0.36626  0.23943  1.0000
  C   C35       1.0  0.63611  0.11087  0.24704  1.0000
  C   C36       1.0  0.88903  0.52280  0.25498  1.0000
  C   C37       1.0  0.52065  0.63221  0.24938  1.0000
  C   C38       1.0  0.36690  0.88813  0.23826  1.0000
  C   C39       1.0  0.50241  0.39575  0.15008  1.0000
  C   C40       1.0  0.60580  0.10256  0.15578  1.0000
  C   C41       1.0  0.89572  0.50045  0.16250  1.0000
  C   C42       1.0  0.49938  0.60234  0.15581  1.0000
  C   C43       1.0  0.39611  0.89497  0.14891  1.0000
  C   C44       1.0  0.50250  0.43252  0.15295  1.0000
  C   C45       1.0  0.56825  0.06666  0.15580  1.0000
  C   C46       1.0  0.93173  0.49900  0.16166  1.0000
  C   C47       1.0  0.49830  0.56512  0.15696  1.0000
  C   C48       1.0  0.43375  0.93077  0.15196  1.0000
  B   B1        1.0  0.32528  0.47646  0.25529  1.0000
  B   B2        1.0  0.52291  0.84629  0.24955  1.0000
  B   B3        1.0  0.15370  0.67546  0.25396  1.0000
  B   B4        1.0  0.67509  0.52153  0.25509  1.0000
  B   B5        1.0  0.48242  0.15357  0.25006  1.0000
  B   B6        1.0  0.84818  0.32568  0.26191  1.0000
  O   O1        1.0  0.29575  0.45945  0.34578  1.0000
  O   O2        1.0  0.53849  0.83342  0.34591  1.0000
  O   O3        1.0  0.16782  0.70621  0.34582  1.0000
  O   O4        1.0  0.70610  0.54093  0.34580  1.0000
  O   O5        1.0  0.46194  0.16522  0.33334  1.0000
  O   O6        1.0  0.83706  0.29610  0.35202  1.0000
  O   O7        1.0  0.31266  0.49333  0.16240  1.0000
  O   O8        1.0  0.50718  0.81719  0.15238  1.0000
  O   O9        1.0  0.18143  0.68661  0.15814  1.0000
  O   O10       1.0  0.68599  0.50207  0.16485  1.0000
  O   O11       1.0  0.50326  0.18403  0.16417  1.0000
  O   O12       1.0  0.81772  0.31268  0.16898  1.0000
  C   C49       1.0  0.26433  0.46597  0.30758  1.0000
  C   C50       1.0  0.53222  0.79558  0.30756  1.0000
  C   C51       1.0  0.20499  0.73703  0.30568  1.0000
  C   C52       1.0  0.73692  0.53358  0.31043  1.0000
  C   C53       1.0  0.46979  0.20328  0.29696  1.0000
  C   C54       1.0  0.79901  0.26431  0.31352  1.0000
  B   B7        1.0  0.48216  0.32592  0.23906  1.0000
  B   B8        1.0  0.67661  0.15148  0.25018  1.0000
  B   B9        1.0  0.84838  0.52256  0.25716  1.0000
  B   B10       1.0  0.52081  0.67276  0.25036  1.0000
  B   B11       1.0  0.32627  0.84786  0.24014  1.0000
  B   B12       1.0  0.15218  0.47625  0.24622  1.0000
  O   O13       1.0  0.50366  0.31486  0.15743  1.0000
  O   O14       1.0  0.68729  0.18197  0.16310  1.0000
  O   O15       1.0  0.81648  0.50158  0.16941  1.0000
  O   O16       1.0  0.50369  0.68497  0.15623  1.0000
  O   O17       1.0  0.31279  0.81637  0.15045  1.0000
  O   O18       1.0  0.18233  0.49442  0.15747  1.0000
  O   O19       1.0  0.46066  0.29481  0.32253  1.0000
  O   O20       1.0  0.70785  0.16351  0.34045  1.0000
  O   O21       1.0  0.83775  0.54287  0.34550  1.0000
  O   O22       1.0  0.53817  0.70275  0.34508  1.0000
  O   O23       1.0  0.29773  0.83723  0.33363  1.0000
  O   O24       1.0  0.16438  0.45845  0.33788  1.0000
  C   C55       1.0  0.49541  0.27653  0.19214  1.0000
  C   C56       1.0  0.72570  0.21302  0.20018  1.0000
  C   C57       1.0  0.78597  0.50935  0.20390  1.0000
  C   C58       1.0  0.51113  0.72328  0.19276  1.0000
  C   C59       1.0  0.27529  0.78603  0.18905  1.0000
  C   C60       1.0  0.21332  0.48723  0.19439  1.0000
  C   C61       1.0  0.50965  0.25237  0.13942  1.0000
  C   C62       1.0  0.74976  0.24972  0.14234  1.0000
  C   C63       1.0  0.74822  0.49572  0.14470  1.0000
  C   C64       1.0  0.50080  0.74859  0.12901  1.0000
  C   C65       1.0  0.24937  0.74862  0.13011  1.0000
  C   C66       1.0  0.24988  0.49877  0.13573  1.0000
  C   C67       1.0  0.46928  0.26441  0.29226  1.0000
  C   C68       1.0  0.73807  0.20203  0.30849  1.0000
  C   C69       1.0  0.79885  0.53438  0.31081  1.0000
  C   C70       1.0  0.53182  0.73396  0.30774  1.0000
  C   C71       1.0  0.26622  0.79862  0.30048  1.0000
  C   C72       1.0  0.20247  0.46550  0.30389  1.0000
  C   C73       1.0  0.49531  0.21498  0.19548  1.0000
  C   C74       1.0  0.78708  0.27469  0.20328  1.0000
  C   C75       1.0  0.72445  0.50942  0.20191  1.0000
  C   C76       1.0  0.51264  0.78545  0.19105  1.0000
  C   C77       1.0  0.21355  0.72487  0.19284  1.0000
  C   C78       1.0  0.27479  0.48694  0.19695  1.0000
  C   C79       1.0  0.22751  0.45387  0.36519  1.0000
  C   C80       1.0  0.54316  0.77057  0.37048  1.0000
  C   C81       1.0  0.23067  0.77461  0.36402  1.0000
  C   C82       1.0  0.77484  0.54760  0.36897  1.0000
  C   C83       1.0  0.45528  0.22724  0.34916  1.0000
  C   C84       1.0  0.77521  0.22728  0.37029  1.0000
  H   H1        1.0  0.44390  0.41732  0.40297  1.0000
  H   H2        1.0  0.44489  0.35262  0.40096  1.0000
  H   H3        1.0  0.51841  0.38971  0.07775  1.0000
  H   H4        1.0  0.51865  0.45500  0.08364  1.0000
  H   H5        1.0  0.52944  0.26150  0.06100  1.0000
  H   H6        1.0  0.21931  0.43738  0.45035  1.0000
  H   H7        1.0  0.58470  0.02207  0.40277  1.0000
  H   H8        1.0  0.65080  0.08667  0.40665  1.0000
  H   H9        1.0  0.61180  0.12456  0.08443  1.0000
  H   H10       1.0  0.54506  0.06086  0.08554  1.0000
  H   H11       1.0  0.74059  0.25777  0.05696  1.0000
  H   H12       1.0  0.55840  0.77852  0.46051  1.0000
  H   H13       1.0  0.02243  0.57971  0.09628  1.0000
  H   H14       1.0  0.08760  0.64485  0.09104  1.0000
  H   H15       1.0  0.12812  0.61445  0.42586  1.0000
  H   H16       1.0  0.06474  0.54758  0.42213  1.0000
  H   H17       1.0  0.98093  0.56152  0.41023  1.0000
  H   H18       1.0  0.91600  0.56233  0.41633  1.0000
  H   H19       1.0  0.87235  0.48414  0.09085  1.0000
  H   H20       1.0  0.93632  0.48136  0.09050  1.0000
  H   H21       1.0  0.73856  0.47675  0.06129  1.0000
  H   H22       1.0  0.22383  0.78402  0.45099  1.0000
  H   H23       1.0  0.55849  0.58117  0.41209  1.0000
  H   H24       1.0  0.55847  0.64645  0.41498  1.0000
  H   H25       1.0  0.48352  0.60840  0.08193  1.0000
  H   H26       1.0  0.48123  0.54202  0.08564  1.0000
  H   H27       1.0  0.48561  0.74064  0.03891  1.0000
  H   H28       1.0  0.78455  0.56663  0.45227  1.0000
  H   H29       1.0  0.42014  0.97918  0.39784  1.0000
  H   H30       1.0  0.35417  0.91438  0.39775  1.0000
  H   H31       1.0  0.38924  0.87196  0.07693  1.0000
  H   H32       1.0  0.45627  0.93544  0.08376  1.0000
  H   H33       1.0  0.25616  0.73919  0.04308  1.0000
  H   H34       1.0  0.43546  0.21813  0.42749  1.0000
  H   H35       1.0  0.96559  0.42503  0.06830  1.0000
  H   H36       1.0  0.90032  0.36002  0.07098  1.0000
  H   H37       1.0  0.88654  0.38397  0.45170  1.0000
  H   H38       1.0  0.95008  0.45079  0.44407  1.0000
  H   H39       1.0  0.25792  0.51494  0.04993  1.0000
  H   H40       1.0  0.78428  0.21920  0.45576  1.0000
  C   C85       1.0  0.48175  0.48383  0.75153  1.0000
  C   C86       1.0  0.51494  0.00041  0.74750  1.0000
  C   C87       1.0  0.99850  0.51692  0.75153  1.0000
  C   C88       1.0  0.51740  0.52030  0.75267  1.0000
  C   C89       1.0  0.47919  0.00105  0.74988  1.0000
  C   C90       1.0  0.99819  0.48077  0.74956  1.0000
  C   C91       1.0  0.47852  0.03990  0.75318  1.0000
  C   C92       1.0  0.96007  0.44071  0.75517  1.0000
  C   C93       1.0  0.45395  0.04611  0.66776  1.0000
  C   C94       1.0  0.95297  0.40920  0.67068  1.0000
  C   C95       1.0  0.45494  0.08337  0.66441  1.0000
  C   C96       1.0  0.91649  0.37204  0.67026  1.0000
  C   C97       1.0  0.47887  0.11496  0.75068  1.0000
  C   C98       1.0  0.88667  0.36435  0.75794  1.0000
  C   C99       1.0  0.50217  0.10802  0.83910  1.0000
  C   C100      1.0  0.89474  0.39529  0.84604  1.0000
  C   C101      1.0  0.50253  0.07145  0.83894  1.0000
  C   C102      1.0  0.93054  0.43297  0.84355  1.0000
  C   C103      1.0  0.48087  0.44426  0.74713  1.0000
  C   C104      1.0  0.43888  0.96287  0.74739  1.0000
  C   C105      1.0  0.03652  0.47913  0.74253  1.0000
  C   C106      1.0  0.45928  0.41504  0.83598  1.0000
  C   C107      1.0  0.41055  0.95600  0.83943  1.0000
  C   C108      1.0  0.04537  0.45782  0.83130  1.0000
  C   C109      1.0  0.45963  0.37852  0.83694  1.0000
  C   C110      1.0  0.37346  0.91953  0.84082  1.0000
  C   C111      1.0  0.08173  0.45707  0.82846  1.0000
  C   C112      1.0  0.48024  0.36925  0.74635  1.0000
  C   C113      1.0  0.36284  0.88912  0.74821  1.0000
  C   C114      1.0  0.10998  0.47658  0.73496  1.0000
  C   C115      1.0  0.50034  0.39787  0.65444  1.0000
  C   C116      1.0  0.39076  0.89678  0.65385  1.0000
  C   C117      1.0  0.10034  0.49673  0.64388  1.0000
  C   C118      1.0  0.50094  0.43487  0.65559  1.0000
  C   C119      1.0  0.42816  0.93290  0.65383  1.0000
  C   C120      1.0  0.06429  0.49811  0.64819  1.0000
  B   B13       1.0  0.32247  0.47492  0.75082  1.0000
  B   B14       1.0  0.52155  0.84925  0.75340  1.0000
  B   B15       1.0  0.15143  0.67402  0.76206  1.0000
  B   B16       1.0  0.67439  0.52393  0.75808  1.0000
  B   B17       1.0  0.47982  0.15623  0.75037  1.0000
  B   B18       1.0  0.84576  0.32348  0.75539  1.0000
  O   O25       1.0  0.29144  0.45559  0.83602  1.0000
  O   O26       1.0  0.54158  0.83849  0.84211  1.0000
  O   O27       1.0  0.16323  0.70603  0.84881  1.0000
  O   O28       1.0  0.70357  0.53926  0.85511  1.0000
  O   O29       1.0  0.46625  0.17106  0.84697  1.0000
  O   O30       1.0  0.83332  0.29401  0.84613  1.0000
  O   O31       1.0  0.31144  0.49418  0.66112  1.0000
  O   O32       1.0  0.50230  0.81848  0.66171  1.0000
  O   O33       1.0  0.18110  0.68455  0.67239  1.0000
  O   O34       1.0  0.68720  0.50839  0.66124  1.0000
  O   O35       1.0  0.49462  0.18389  0.65444  1.0000
  O   O36       1.0  0.81596  0.31131  0.66080  1.0000
  C   C121      1.0  0.26075  0.46319  0.79799  1.0000
  C   C122      1.0  0.53452  0.80031  0.80431  1.0000
  C   C123      1.0  0.20076  0.73698  0.81108  1.0000
  C   C124      1.0  0.73500  0.53315  0.81729  1.0000
  C   C125      1.0  0.47220  0.20833  0.80844  1.0000
  C   C126      1.0  0.79512  0.26286  0.80583  1.0000
  B   B19       1.0  0.48101  0.32921  0.74804  1.0000
  B   B20       1.0  0.67221  0.15150  0.73697  1.0000
  B   B21       1.0  0.84684  0.52281  0.75990  1.0000
  B   B22       1.0  0.52142  0.67667  0.74856  1.0000
  B   B23       1.0  0.32229  0.84858  0.75029  1.0000
  B   B24       1.0  0.15017  0.47594  0.73528  1.0000
  O   O37       1.0  0.49723  0.31573  0.65502  1.0000
  O   O38       1.0  0.68402  0.18182  0.64870  1.0000
  O   O39       1.0  0.81641  0.50538  0.66621  1.0000
  O   O40       1.0  0.50077  0.68723  0.66091  1.0000
  O   O41       1.0  0.31084  0.81594  0.66590  1.0000
  O   O42       1.0  0.18147  0.49583  0.65085  1.0000
  O   O43       1.0  0.46558  0.30108  0.84284  1.0000
  O   O44       1.0  0.70254  0.16328  0.83020  1.0000
  O   O45       1.0  0.83490  0.54002  0.85458  1.0000
  O   O46       1.0  0.54273  0.70855  0.83611  1.0000
  O   O47       1.0  0.29184  0.83873  0.83716  1.0000
  O   O48       1.0  0.16078  0.45563  0.82287  1.0000
  C   C127      1.0  0.49116  0.27843  0.69285  1.0000
  C   C128      1.0  0.72230  0.21263  0.68834  1.0000
  C   C129      1.0  0.78564  0.51245  0.70310  1.0000
  C   C130      1.0  0.50945  0.72611  0.69554  1.0000
  C   C131      1.0  0.27291  0.78562  0.70182  1.0000
  C   C132      1.0  0.21185  0.48773  0.68766  1.0000
  C   C133      1.0  0.50095  0.25220  0.63041  1.0000
  C   C134      1.0  0.74725  0.24931  0.63149  1.0000
  C   C135      1.0  0.74926  0.50183  0.63936  1.0000
  C   C136      1.0  0.49607  0.75005  0.63783  1.0000
  C   C137      1.0  0.24865  0.74718  0.64660  1.0000
  C   C138      1.0  0.24950  0.50089  0.63415  1.0000
  C   C139      1.0  0.47212  0.26965  0.80702  1.0000
  C   C140      1.0  0.73348  0.20141  0.79852  1.0000
  C   C141      1.0  0.79669  0.53325  0.81773  1.0000
  C   C142      1.0  0.53482  0.73900  0.80188  1.0000
  C   C143      1.0  0.26139  0.79938  0.80604  1.0000
  C   C144      1.0  0.19923  0.46326  0.79160  1.0000
  C   C145      1.0  0.49009  0.21648  0.69273  1.0000
  C   C146      1.0  0.78434  0.27367  0.69446  1.0000
  C   C147      1.0  0.72466  0.51366  0.70076  1.0000
  C   C148      1.0  0.51010  0.78790  0.69620  1.0000
  C   C149      1.0  0.21186  0.72367  0.70514  1.0000
  C   C150      1.0  0.27312  0.48708  0.69307  1.0000
  C   C151      1.0  0.22309  0.44994  0.85146  1.0000
  C   C152      1.0  0.54847  0.77667  0.86102  1.0000
  C   C153      1.0  0.22480  0.77564  0.86544  1.0000
  C   C154      1.0  0.77169  0.54433  0.88028  1.0000
  C   C155      1.0  0.46187  0.23426  0.87008  1.0000
  C   C156      1.0  0.77035  0.22602  0.86226  1.0000
  H   H41       1.0  0.44299  0.42169  0.90592  1.0000
  H   H42       1.0  0.44401  0.35688  0.90894  1.0000
  H   H43       1.0  0.51572  0.39103  0.58198  1.0000
  H   H44       1.0  0.51687  0.45690  0.58502  1.0000
  H   H45       1.0  0.51518  0.25872  0.54137  1.0000
  H   H46       1.0  0.21337  0.43157  0.93289  1.0000
  H   H47       1.0  0.73895  0.25790  0.54559  1.0000
  H   H48       1.0  0.56753  0.78632  0.94434  1.0000
  H   H49       1.0  0.74130  0.48653  0.54952  1.0000
  H   H50       1.0  0.21611  0.78601  0.94711  1.0000
  H   H51       1.0  0.47678  0.74033  0.55497  1.0000
  H   H52       1.0  0.77972  0.55956  0.97024  1.0000
  H   H53       1.0  0.43465  0.02173  0.60195  1.0000
  H   H54       1.0  0.43672  0.08781  0.59438  1.0000
  H   H55       1.0  0.52054  0.13164  0.90808  1.0000
  H   H56       1.0  0.52160  0.06715  0.90591  1.0000
  H   H57       1.0  0.41819  0.97909  0.91176  1.0000
  H   H58       1.0  0.35257  0.91430  0.91513  1.0000
  H   H59       1.0  0.38297  0.87416  0.57993  1.0000
  H   H60       1.0  0.44945  0.93832  0.58074  1.0000
  H   H61       1.0  0.25745  0.73676  0.56528  1.0000
  H   H62       1.0  0.44746  0.22765  0.95877  1.0000
  H   H63       1.0  0.97587  0.41432  0.60309  1.0000
  H   H64       1.0  0.91117  0.34870  0.60097  1.0000
  H   H65       1.0  0.87262  0.39008  0.91647  1.0000
  H   H66       1.0  0.93586  0.45690  0.91033  1.0000
  H   H67       1.0  0.02390  0.44263  0.90410  1.0000
  H   H68       1.0  0.08872  0.44145  0.89973  1.0000
  H   H69       1.0  0.12117  0.51125  0.56909  1.0000
  H   H70       1.0  0.05711  0.51381  0.57789  1.0000
  H   H71       1.0  0.25926  0.51939  0.55301  1.0000
  H   H72       1.0  0.77876  0.21739  0.94790  1.0000
  C   C157      1.0  0.54780  0.60190  0.84847  1.0000
  C   C158      1.0  0.52444  0.56694  0.77460  1.0000
  C  Sn1       1.0  0.49910  0.56706  0.67981  1.0000
  C  Sn2       1.0  0.49717  0.60290  0.65877  1.0000
  C   C159      1.0  0.52067  0.63773  0.73312  1.0000
  C   C160      1.0  0.54592  0.63727  0.82775  1.0000
  H   H73       1.0  0.56735  0.60156  0.92164  1.0000
  O  Te1       1.0  0.47596  0.53185  0.60690  1.0000
  O  Te2       1.0  0.47210  0.60386  0.56463  1.0000
  H   H74       1.0  0.56402  0.66436  0.88487  1.0000
  Mg  Mg1       1.0  0.44638  0.54822  0.49000  1.0000
  C   C161      1.0  0.54547  0.94586  0.14714  1.0000
  C   C162      1.0  0.52642  0.95963  0.22832  1.0000
  C  Sn3       1.0  0.50586  0.93651  0.32921  1.0000
  C  Sn4       1.0  0.50439  0.89891  0.34898  1.0000
  C   C163      1.0  0.52357  0.88540  0.26729  1.0000
  C   C164      1.0  0.54405  0.90878  0.16660  1.0000
  H   H75       1.0  0.56133  0.96395  0.06927  1.0000
  O  Te3       1.0  0.48699  0.95072  0.40939  1.0000
  O  Te4       1.0  0.48406  0.87519  0.44911  1.0000
  H   H76       1.0  0.55881  0.89812  0.10381  1.0000
  Mg  Mg2       1.0  0.46304  0.90750  0.53263  1.0000
  C   C165      1.0  0.59229  0.09339  0.62295  1.0000
  C   C166      1.0  0.62425  0.10989  0.71092  1.0000
  C  Sn5       1.0  0.62221  0.08825  0.81600  1.0000
  C  Sn6       1.0  0.58750  0.04936  0.83305  1.0000
  C   C167      1.0  0.55569  0.03310  0.74446  1.0000
  C   C168      1.0  0.55804  0.05502  0.63968  1.0000
  H   H77       1.0  0.59411  0.11034  0.54184  1.0000
  O  Te5       1.0  0.65442  0.10519  0.90299  1.0000
  O  Te6       1.0  0.58467  0.02706  0.93719  1.0000
  H   H78       1.0  0.53330  0.04222  0.57155  1.0000
  Mg  Mg3       1.0  0.62698  0.05381  0.02972  1.0000
  C   C169      1.0  0.61424  0.54190  0.64308  1.0000
  C   C170      1.0  0.63197  0.52946  0.73376  1.0000
  C  Sn7       1.0  0.61091  0.51164  0.84047  1.0000
  C  Sn8       1.0  0.57136  0.50621  0.85642  1.0000
  C   C171      1.0  0.55387  0.51873  0.76512  1.0000
  C   C172      1.0  0.57522  0.53654  0.65871  1.0000
  H   H79       1.0  0.63074  0.55565  0.56072  1.0000
  O  Te7       1.0  0.62909  0.49940  0.93017  1.0000
  O  Te8       1.0  0.54963  0.48848  0.96215  1.0000
  H   H80       1.0  0.56147  0.54614  0.58848  1.0000
  Mg  Mg4       1.0  0.57792  0.46751  0.05825  1.0000
  C   C173      1.0  0.59753  0.50086  0.36949  1.0000
  C   C174      1.0  0.62782  0.51626  0.28151  1.0000
  C  Sn9       1.0  0.62377  0.53580  0.17877  1.0000
  C  Sn10      1.0  0.58871  0.53995  0.16411  1.0000
  C   C175      1.0  0.55859  0.52447  0.25270  1.0000
  C   C176      1.0  0.56294  0.50497  0.35513  1.0000
  H   H81       1.0  0.60091  0.48579  0.44878  1.0000
  O  Te9       1.0  0.65432  0.55099  0.09172  1.0000
  O  Te10      1.0  0.58389  0.55935  0.06233  1.0000
  H   H82       1.0  0.53950  0.49307  0.42328  1.0000
  Mg  Mg5       1.0  0.64326  0.58426  0.96873  1.0000
  C   C177      1.0  0.46833  0.05784  0.12772  1.0000
  C   C178      1.0  0.47934  0.04038  0.22239  1.0000
  C  Sn11      1.0  0.49047  0.05923  0.33925  1.0000
  C  Sn12      1.0  0.49055  0.09624  0.36147  1.0000
  C   C179      1.0  0.47946  0.11345  0.26617  1.0000
  C   C180      1.0  0.46839  0.09434  0.14957  1.0000
  H   H83       1.0  0.45974  0.04305  0.03752  1.0000
  O  Te11      1.0  0.50139  0.04138  0.43278  1.0000
  O  Te12      1.0  0.50153  0.11572  0.47741  1.0000
  H   H84       1.0  0.45984  0.10786  0.07631  1.0000
  Mg  Mg6       1.0  0.51403  0.07948  0.57520  1.0000
  C   C181      1.0  0.94858  0.54614  0.85878  1.0000
  C   C182      1.0  0.95983  0.52502  0.77646  1.0000
  C  Sn13      1.0  0.93415  0.50303  0.67616  1.0000
  C  Sn14      1.0  0.89652  0.50223  0.65817  1.0000
  C   C183      1.0  0.88556  0.52348  0.74100  1.0000
  C   C184      1.0  0.91148  0.54537  0.84108  1.0000
  H   H85       1.0  0.96865  0.56310  0.93618  1.0000
  O  Te13      1.0  0.94585  0.48210  0.59482  1.0000
  O  Te14      1.0  0.87028  0.48051  0.55867  1.0000
  H   H86       1.0  0.90278  0.56174  0.90475  1.0000
  Mg  Mg7       1.0  0.89973  0.45684  0.47307  1.0000
  C   C185      1.0  0.07903  0.50527  0.14533  1.0000
  C   C186      1.0  0.04475  0.48423  0.21758  1.0000
  C  Sn15      1.0  0.04452  0.45883  0.30974  1.0000
  C  Sn16      1.0  0.07928  0.45449  0.32974  1.0000
  C   C187      1.0  0.11343  0.47570  0.25701  1.0000
  C   C188      1.0  0.11334  0.50102  0.16502  1.0000
  H   H87       1.0  0.07897  0.52488  0.07419  1.0000
  O  Te15      1.0  0.01001  0.43802  0.38107  1.0000
  O  Te16      1.0  0.07987  0.42932  0.42125  1.0000
  H   H88       1.0  0.13989  0.51733  0.10914  1.0000
  Mg  Mg8       1.0  0.02549  0.40730  0.49451  1.0000
  C   C189      1.0  0.07515  0.61195  0.64003  1.0000
  C   C190      1.0  0.10446  0.63065  0.73517  1.0000
  C  Sn17      1.0  0.10036  0.61065  0.84547  1.0000
  C  Sn18      1.0  0.06625  0.57120  0.86051  1.0000
  C   C191      1.0  0.03710  0.55275  0.76474  1.0000
  C   C192      1.0  0.04150  0.57303  0.65477  1.0000
  H   H89       1.0  0.07856  0.62764  0.55491  1.0000
  O  Te17      1.0  0.12992  0.62978  0.93960  1.0000
  O  Te18      1.0  0.06140  0.55052  0.96977  1.0000
  H   H90       1.0  0.01881  0.55854  0.58109  1.0000
  Mg  Mg9       1.0  0.10042  0.58001  0.07133  1.0000
  C   C193      1.0  0.40549  0.49927  0.36895  1.0000
  C   C194      1.0  0.37331  0.48231  0.28175  1.0000
  C  Sn19      1.0  0.37509  0.46087  0.17850  1.0000
  C  Sn20      1.0  0.40978  0.45636  0.16254  1.0000
  C   C195      1.0  0.44181  0.47342  0.25035  1.0000
  C   C196      1.0  0.43971  0.49482  0.35330  1.0000
  H   H91       1.0  0.40386  0.51582  0.44865  1.0000
  O  Te19      1.0  0.34267  0.44414  0.09224  1.0000
  O  Te20      1.0  0.41235  0.43507  0.06023  1.0000
  H   H92       1.0  0.46463  0.50793  0.42085  1.0000
  Mg  Mg10      1.0  0.36980  0.42706  0.96809  1.0000
  C   C197      1.0  0.38281  0.45809  0.63838  1.0000
  C   C198      1.0  0.36539  0.47050  0.72952  1.0000
  C  Sn21      1.0  0.38753  0.48990  0.83790  1.0000
  C  Sn22      1.0  0.42784  0.49698  0.85509  1.0000
  C   C199      1.0  0.44500  0.48447  0.76332  1.0000
  C   C200      1.0  0.42258  0.46507  0.65524  1.0000
  H   H93       1.0  0.36547  0.44310  0.55473  1.0000
  O  Te21      1.0  0.36966  0.50209  0.92803  1.0000
  O  Te22      1.0  0.45065  0.51631  0.96250  1.0000
  H   H94       1.0  0.43608  0.45549  0.58466  1.0000
  Mg  Mg11      1.0  0.40358  0.51801  0.05856  1.0000
  C   C201      1.0  0.49800  0.92569  0.86566  1.0000
  C   C202      1.0  0.51329  0.95664  0.77993  1.0000
  C  Sn23      1.0  0.53208  0.95313  0.67450  1.0000
  C  Sn24      1.0  0.53558  0.91793  0.65477  1.0000
  C   C203      1.0  0.52016  0.88712  0.74105  1.0000
  C   C204      1.0  0.50142  0.89096  0.84625  1.0000
  H   H95       1.0  0.48348  0.92864  0.94702  1.0000
  O  Te23      1.0  0.54720  0.98434  0.58981  1.0000
  O  Te24      1.0  0.55420  0.91363  0.55017  1.0000
  H   H96       1.0  0.48956  0.86697  0.91257  1.0000
  Mg  Mg12      1.0  0.57007  0.96442  0.46146  1.0000
