data_image0
_chemical_formula_structural       C4NC2OC5NC2OC5NC2OC5NC2OC5NC2OC5NC2OCH36C4NC2OC5NC2OC5NC2OC5NC2OC5NC2OC5NC2OCH36SnCSn2CSnTe4Mg2SnCSn2CSnTe4Mg2SnCSn2CSnTe4Mg2SnCSn2CSnTe4Mg2SnCSn2CSnTe4Mg2SnCSn2CSnTe4Mg2SnCSn2CSnTe4Mg2SnCSn2CSnTe4Mg2SnCSn2CSnTe4Mg2SnCSn2CSnTe4Mg2SnCSn2CSnTe4Mg2SnCSn2CSnTe4Mg2
_chemical_formula_sum              "C108 N12 O12 H72 Sn48 Te48 Mg24"
_cell_length_a       37.6846
_cell_length_b       36.9561
_cell_length_c       8.17133
_cell_angle_alpha    80.0326
_cell_angle_beta     121.535
_cell_angle_gamma    120.357

_symmetry_space_group_name_H-M    'P1'
_space_group_IT_number       1

loop_
  _space_group_symop_operation_xyz
  'x, y, z'

loop_
  _atom_site_type_symbol
  _atom_site_label
  _atom_site_symmetry_multiplicity
  _atom_site_fract_x
  _atom_site_fract_y
  _atom_site_fract_z
  _atom_site_occupancy
  C   C1        1.0  0.49872  0.82381  0.83331  1.0000
  C   C2        1.0  0.47225  0.84239  0.82864  1.0000
  C   C3        1.0  0.49339  0.75735  0.77638  1.0000
  C   C4        1.0  0.47466  0.77932  0.79730  1.0000
  N   N1        1.0  0.54759  0.72361  0.73458  1.0000
  C   C5        1.0  0.31877  0.98033  0.77577  1.0000
  C   C6        1.0  0.30291  0.93688  0.78257  1.0000
  O   O1        1.0  0.46968  0.71442  0.73609  1.0000
  C   C7        1.0  0.60483  0.32126  0.75577  1.0000
  C   C8        1.0  0.05352  0.81379  0.72966  1.0000
  C   C9        1.0  0.09567  0.83608  0.71089  1.0000
  C   C10       1.0  0.98703  0.81856  0.69585  1.0000
  C   C11       1.0  0.02716  0.83475  0.67872  1.0000
  N   N2        1.0  0.89791  0.76894  0.72935  1.0000
  C   C12       1.0  0.39086  0.99233  0.80316  1.0000
  C   C13       1.0  0.36271  0.00870  0.78666  1.0000
  O   O2        1.0  0.96258  0.83936  0.65594  1.0000
  C   C14       1.0  0.42668  0.69078  0.74448  1.0000
  C   C15       1.0  0.47290  0.25745  0.73278  1.0000
  C   C16       1.0  0.45003  0.21138  0.70583  1.0000
  C   C17       1.0  0.54327  0.32379  0.76139  1.0000
  C   C18       1.0  0.51575  0.27982  0.72917  1.0000
  N   N3        1.0  0.58103  0.41687  0.75757  1.0000
  C   C19       1.0  0.33146  0.92180  0.79395  1.0000
  C   C20       1.0  0.37537  0.94885  0.80298  1.0000
  O   O3        1.0  0.58646  0.34541  0.77128  1.0000
  C   C21       1.0  0.97597  0.87788  0.57155  1.0000
  C   C22       1.0  0.53887  0.78070  0.79096  1.0000
  C   C23       1.0  0.56259  0.76335  0.76236  1.0000
  C   C24       1.0  0.54520  0.84702  0.85738  1.0000
  C   C25       1.0  0.56356  0.82506  0.83347  1.0000
  N   N4        1.0  0.48794  0.88253  0.84885  1.0000
  C   C26       1.0  0.69876  0.61920  0.69437  1.0000
  C   C27       1.0  0.71665  0.66268  0.67820  1.0000
  O   O4        1.0  0.56910  0.88984  0.90034  1.0000
  C   C28       1.0  0.39456  0.28204  0.77466  1.0000
  C   C29       1.0  0.97027  0.77818  0.75997  1.0000
  C   C30       1.0  0.92665  0.75516  0.76824  1.0000
  C   C31       1.0  0.03821  0.77456  0.80370  1.0000
  C   C32       1.0  0.99704  0.75761  0.81335  1.0000
  N   N5        1.0  0.12460  0.82282  0.74594  1.0000
  C   C33       1.0  0.63260  0.61463  0.69288  1.0000
  C   C34       1.0  0.65663  0.59450  0.70225  1.0000
  O   O5        1.0  0.06461  0.75465  0.86129  1.0000
  C   C35       1.0  0.61398  0.91334  0.90654  1.0000
  C   C36       1.0  0.52604  0.34754  0.78729  1.0000
  C   C37       1.0  0.54816  0.39342  0.80093  1.0000
  C   C38       1.0  0.45628  0.28101  0.76406  1.0000
  C   C39       1.0  0.48288  0.32508  0.78949  1.0000
  N   N6        1.0  0.42490  0.18624  0.78186  1.0000
  C   C40       1.0  0.69123  0.68139  0.66864  1.0000
  C   C41       1.0  0.64945  0.65788  0.67774  1.0000
  O   O6        1.0  0.41325  0.25856  0.75649  1.0000
  C   C42       1.0  0.05782  0.72337  0.98989  1.0000
  H   H1        1.0  0.43565  0.81896  0.79704  1.0000
  H   H2        1.0  0.43965  0.76199  0.78370  1.0000
  H   H3        1.0  0.29574  0.99199  0.75733  1.0000
  H   H4        1.0  0.58099  0.30146  0.61521  1.0000
  H   H5        1.0  0.61050  0.30133  0.87346  1.0000
  H   H6        1.0  0.63914  0.34466  0.76710  1.0000
  H   H7        1.0  0.10207  0.86737  0.66228  1.0000
  H   H8        1.0  0.03928  0.86479  0.62287  1.0000
  H   H9        1.0  0.42584  0.01381  0.81988  1.0000
  H   H10       1.0  0.39861  0.69804  0.63341  1.0000
  H   H11       1.0  0.43400  0.69640  0.88979  1.0000
  H   H12       1.0  0.41488  0.65759  0.71452  1.0000
  H   H13       1.0  0.45763  0.19972  0.61916  1.0000
  H   H14       1.0  0.52742  0.26132  0.70100  1.0000
  H   H15       1.0  0.31910  0.88818  0.79557  1.0000
  H   H16       1.0  0.95188  0.88882  0.55032  1.0000
  H   H17       1.0  0.97041  0.87212  0.43028  1.0000
  H   H18       1.0  0.01331  0.90188  0.66848  1.0000
  H   H19       1.0  0.59566  0.78790  0.76447  1.0000
  H   H20       1.0  0.59810  0.84245  0.84310  1.0000
  H   H21       1.0  0.71935  0.60500  0.70967  1.0000
  H   H22       1.0  0.36054  0.25828  0.76494  1.0000
  H   H23       1.0  0.38819  0.30199  0.65754  1.0000
  H   H24       1.0  0.41878  0.30190  0.91531  1.0000
  H   H25       1.0  0.91894  0.72320  0.81025  1.0000
  H   H26       1.0  0.98458  0.72730  0.86661  1.0000
  H   H27       1.0  0.60061  0.59692  0.70314  1.0000
  H   H28       1.0  0.62550  0.94656  0.93348  1.0000
  H   H29       1.0  0.60927  0.90729  0.76748  1.0000
  H   H30       1.0  0.64097  0.90588  0.02552  1.0000
  H   H31       1.0  0.53308  0.40630  0.84375  1.0000
  H   H32       1.0  0.47020  0.34365  0.80974  1.0000
  H   H33       1.0  0.70375  0.71470  0.65164  1.0000
  H   H34       1.0  0.02265  0.69469  0.91466  1.0000
  H   H35       1.0  0.06170  0.73667  0.11266  1.0000
  H   H36       1.0  0.08597  0.71537  0.04020  1.0000
  C   C43       1.0  0.47202  0.81260  0.33119  1.0000
  C   C44       1.0  0.44590  0.83025  0.33793  1.0000
  C   C45       1.0  0.46464  0.74673  0.25197  1.0000
  C   C46       1.0  0.44613  0.76847  0.27604  1.0000
  N   N7        1.0  0.51669  0.71366  0.19073  1.0000
  C   C47       1.0  0.29851  0.97610  0.28984  1.0000
  C   C48       1.0  0.27989  0.93237  0.29816  1.0000
  O   O7        1.0  0.43974  0.70388  0.20193  1.0000
  C   C49       1.0  0.60461  0.31084  0.24501  1.0000
  C   C50       1.0  0.02475  0.81586  0.20630  1.0000
  C   C51       1.0  0.06793  0.83945  0.19489  1.0000
  C   C52       1.0  0.95662  0.81843  0.16699  1.0000
  C   C53       1.0  0.99766  0.83601  0.15567  1.0000
  N   N8        1.0  0.87015  0.76866  0.22238  1.0000
  C   C54       1.0  0.36339  0.98065  0.28019  1.0000
  C   C55       1.0  0.34027  0.00075  0.28004  1.0000
  O   O8        1.0  0.92992  0.83790  0.11249  1.0000
  C   C56       1.0  0.39937  0.67997  0.22814  1.0000
  C   C57       1.0  0.47344  0.24818  0.23249  1.0000
  C   C58       1.0  0.45006  0.20222  0.21465  1.0000
  C   C59       1.0  0.54406  0.31376  0.25754  1.0000
  C   C60       1.0  0.51658  0.26976  0.23064  1.0000
  N   N9        1.0  0.58014  0.40885  0.24989  1.0000
  C   C61       1.0  0.30560  0.91400  0.30739  1.0000
  C   C62       1.0  0.34745  0.93750  0.29781  1.0000
  O   O9        1.0  0.58690  0.33521  0.26424  1.0000
  C   C63       1.0  0.93743  0.87079  0.99160  1.0000
  C   C64       1.0  0.51171  0.76962  0.28193  1.0000
  C   C65       1.0  0.53663  0.75166  0.26757  1.0000
  C   C66       1.0  0.51980  0.83512  0.37022  1.0000
  C   C67       1.0  0.53778  0.81336  0.34261  1.0000
  N   N10       1.0  0.46143  0.87013  0.36558  1.0000
  C   C68       1.0  0.67564  0.61172  0.19433  1.0000
  C   C69       1.0  0.69116  0.65500  0.18206  1.0000
  O   O10       1.0  0.55120  0.87668  0.45300  1.0000
  C   C70       1.0  0.39582  0.27621  0.26325  1.0000
  C   C71       1.0  0.94169  0.77889  0.23940  1.0000
  C   C72       1.0  0.89950  0.75585  0.25815  1.0000
  C   C73       1.0  0.00860  0.77531  0.27015  1.0000
  C   C74       1.0  0.96846  0.75845  0.28783  1.0000
  N   N11       1.0  0.09691  0.82610  0.23214  1.0000
  C   C75       1.0  0.60788  0.60117  0.20146  1.0000
  C   C76       1.0  0.63446  0.58428  0.20571  1.0000
  O   O11       1.0  0.03348  0.75495  0.30922  1.0000
  C   C77       1.0  0.55050  0.90839  0.32121  1.0000
  C   C78       1.0  0.52800  0.33808  0.28765  1.0000
  C   C79       1.0  0.55072  0.38409  0.30846  1.0000
  C   C80       1.0  0.45700  0.27255  0.25926  1.0000
  C   C81       1.0  0.48502  0.31647  0.29030  1.0000
  N   N12       1.0  0.41667  0.17904  0.25532  1.0000
  C   C82       1.0  0.66272  0.67019  0.17100  1.0000
  C   C83       1.0  0.62121  0.64395  0.18117  1.0000
  O   O12       1.0  0.41380  0.25150  0.24917  1.0000
  C   C84       1.0  0.02029  0.71606  0.39162  1.0000
  H   H37       1.0  0.40936  0.80631  0.30501  1.0000
  H   H38       1.0  0.41010  0.75126  0.25242  1.0000
  H   H39       1.0  0.27984  0.99096  0.28878  1.0000
  H   H40       1.0  0.57981  0.29088  0.10448  1.0000
  H   H41       1.0  0.61093  0.29100  0.36264  1.0000
  H   H42       1.0  0.63861  0.33409  0.25345  1.0000
  H   H43       1.0  0.07498  0.87127  0.15211  1.0000
  H   H44       1.0  0.00965  0.86637  0.10210  1.0000
  H   H45       1.0  0.39448  0.99917  0.26450  1.0000
  H   H46       1.0  0.36958  0.68582  0.12461  1.0000
  H   H47       1.0  0.40996  0.68715  0.37722  1.0000
  H   H48       1.0  0.38804  0.64677  0.20178  1.0000
  H   H49       1.0  0.46375  0.18848  0.16777  1.0000
  H   H50       1.0  0.52820  0.25062  0.20681  1.0000
  H   H51       1.0  0.29241  0.88058  0.32185  1.0000
  H   H52       1.0  0.90936  0.87866  0.94516  1.0000
  H   H53       1.0  0.93400  0.85920  0.86581  1.0000
  H   H54       1.0  0.97258  0.89922  0.07175  1.0000
  H   H55       1.0  0.57521  0.77395  0.33031  1.0000
  H   H56       1.0  0.57445  0.83131  0.37252  1.0000
  H   H57       1.0  0.69648  0.59930  0.19612  1.0000
  H   H58       1.0  0.36124  0.25317  0.25025  1.0000
  H   H59       1.0  0.39063  0.29615  0.14538  1.0000
  H   H60       1.0  0.41961  0.29603  0.40377  1.0000
  H   H61       1.0  0.89348  0.72455  0.30619  1.0000
  H   H62       1.0  0.95650  0.72810  0.34159  1.0000
  H   H63       1.0  0.57780  0.58152  0.22341  1.0000
  H   H64       1.0  0.51647  0.90827  0.25290  1.0000
  H   H65       1.0  0.55623  0.90303  0.21100  1.0000
  H   H66       1.0  0.58000  0.93868  0.41116  1.0000
  H   H67       1.0  0.53932  0.39679  0.37328  1.0000
  H   H68       1.0  0.47372  0.33556  0.31690  1.0000
  H   H69       1.0  0.67233  0.70291  0.14937  1.0000
  H   H70       1.0  0.98299  0.69200  0.29410  1.0000
  H   H71       1.0  0.02601  0.72130  0.53398  1.0000
  H   H72       1.0  0.04448  0.70548  0.41035  1.0000
  C  Sn1       1.0  0.40625  0.86994  0.83765  1.0000
  C   C85       1.0  0.44245  0.88754  0.79336  1.0000
  C  Sn2       1.0  0.46387  0.93047  0.77303  1.0000
  C  Sn3       1.0  0.44883  0.95637  0.79758  1.0000
  C   C86       1.0  0.41266  0.93877  0.84187  1.0000
  C  Sn4       1.0  0.39120  0.89584  0.86220  1.0000
  O  Te1       1.0  0.38533  0.82694  0.85731  1.0000
  O  Te2       1.0  0.49998  0.94734  0.72865  1.0000
  O  Te3       1.0  0.46978  0.99940  0.77787  1.0000
  O  Te4       1.0  0.35512  0.87897  0.90659  1.0000
  Mg  Mg1       1.0  0.51756  0.00768  0.71667  1.0000
  Mg  Mg2       1.0  0.33754  0.81864  0.91870  1.0000
  C  Sn5       1.0  0.64864  0.71903  0.83875  1.0000
  C   C87       1.0  0.62901  0.68030  0.73992  1.0000
  C  Sn6       1.0  0.57988  0.65729  0.60795  1.0000
  C  Sn7       1.0  0.54975  0.67334  0.57394  1.0000
  C   C88       1.0  0.56938  0.71205  0.67271  1.0000
  C  Sn8       1.0  0.61851  0.73508  0.80474  1.0000
  O  Te5       1.0  0.69785  0.74150  0.97003  1.0000
  O  Te6       1.0  0.56108  0.61864  0.51094  1.0000
  O  Te7       1.0  0.50050  0.65083  0.44254  1.0000
  O  Te8       1.0  0.63731  0.77371  0.90169  1.0000
  Mg  Mg3       1.0  0.49182  0.59973  0.34588  1.0000
  Mg  Mg4       1.0  0.57973  0.76556  0.06669  1.0000
  C  Sn9       1.0  0.23419  0.91575  0.88703  1.0000
  C   C89       1.0  0.25809  0.90674  0.82892  1.0000
  C  Sn10      1.0  0.23400  0.86963  0.70818  1.0000
  C  Sn11      1.0  0.18498  0.84093  0.64409  1.0000
  C   C90       1.0  0.16110  0.84995  0.70217  1.0000
  C  Sn12      1.0  0.18517  0.88705  0.82294  1.0000
  O  Te9       1.0  0.13215  0.92594  0.00777  1.0000
  O  Te10      1.0  0.25866  0.86130  0.65207  1.0000
  O  Te11      1.0  0.16019  0.80362  0.52326  1.0000
  O  Te12      1.0  0.16053  0.89539  0.87902  1.0000
  Mg  Mg5       1.0  0.20932  0.80633  0.48626  1.0000
  Mg  Mg6       1.0  0.08299  0.92326  0.04473  1.0000
  C  Sn13      1.0  0.79304  0.74285  0.70565  1.0000
  C   C91       1.0  0.76271  0.69933  0.64914  1.0000
  C  Sn14      1.0  0.77940  0.67427  0.63673  1.0000
  C  Sn15      1.0  0.82740  0.69309  0.68185  1.0000
  C   C92       1.0  0.85770  0.73658  0.73835  1.0000
  C  Sn16      1.0  0.84105  0.76167  0.75078  1.0000
  O  Te13      1.0  0.77560  0.76730  0.71708  1.0000
  O  Te14      1.0  0.74840  0.63083  0.57984  1.0000
  O  Te15      1.0  0.84482  0.66860  0.67038  1.0000
  O  Te16      1.0  0.87201  0.80508  0.80766  1.0000
  Mg  Mg7       1.0  0.78887  0.61083  0.58607  1.0000
  Mg  Mg8       1.0  0.83159  0.82510  0.80158  1.0000
  C  Sn17      1.0  0.43071  0.09308  0.79347  1.0000
  C   C93       1.0  0.39374  0.06209  0.82295  1.0000
  C  Sn18      1.0  0.36063  0.07063  0.81347  1.0000
  C  Sn19      1.0  0.36451  0.11097  0.77357  1.0000
  C   C94       1.0  0.40145  0.14193  0.74408  1.0000
  C  Sn20      1.0  0.43459  0.13343  0.75357  1.0000
  O  Te17      1.0  0.46341  0.08386  0.80361  1.0000
  O  Te18      1.0  0.32399  0.03914  0.84353  1.0000
  O  Te19      1.0  0.33177  0.12018  0.76345  1.0000
  O  Te20      1.0  0.47121  0.16488  0.72351  1.0000
  Mg  Mg9       1.0  0.28815  0.06692  0.81480  1.0000
  Mg  Mg10      1.0  0.50705  0.13714  0.75210  1.0000
  C  Sn21      1.0  0.60730  0.52083  0.84251  1.0000
  C   C95       1.0  0.64154  0.54630  0.78957  1.0000
  C  Sn22      1.0  0.65266  0.52809  0.69942  1.0000
  C  Sn23      1.0  0.62906  0.48349  0.66127  1.0000
  C   C96       1.0  0.59484  0.45804  0.71417  1.0000
  C  Sn24      1.0  0.58370  0.47622  0.80436  1.0000
  O  Te21      1.0  0.59674  0.53971  0.93246  1.0000
  O  Te22      1.0  0.68703  0.55422  0.64790  1.0000
  O  Te23      1.0  0.63965  0.46461  0.57125  1.0000
  O  Te24      1.0  0.54935  0.45012  0.85583  1.0000
  Mg  Mg11      1.0  0.68905  0.51355  0.52844  1.0000
  Mg  Mg12      1.0  0.54728  0.49076  0.97521  1.0000
  C  Sn25      1.0  0.37721  0.87554  0.42241  1.0000
  C   C97       1.0  0.38198  0.91509  0.36943  1.0000
  C  Sn26      1.0  0.40996  0.93917  0.28662  1.0000
  C  Sn27      1.0  0.43365  0.92337  0.25600  1.0000
  C   C98       1.0  0.42887  0.88384  0.30894  1.0000
  C  Sn28      1.0  0.40090  0.85974  0.39180  1.0000
  O  Te25      1.0  0.34905  0.85202  0.50496  1.0000
  O  Te26      1.0  0.41420  0.97862  0.23490  1.0000
  O  Te27      1.0  0.46183  0.94693  0.17338  1.0000
  O  Te28      1.0  0.39665  0.82031  0.44347  1.0000
  Mg  Mg13      1.0  0.45657  0.99884  0.12713  1.0000
  Mg  Mg14      1.0  0.35427  0.80005  0.55115  1.0000
  C  Sn29      1.0  0.61817  0.70862  0.30664  1.0000
  C   C99       1.0  0.59952  0.66716  0.23789  1.0000
  C  Sn30      1.0  0.55014  0.64111  0.12055  1.0000
  C  Sn31      1.0  0.51875  0.65682  0.07077  1.0000
  C   C100      1.0  0.53740  0.69825  0.13947  1.0000
  C  Sn32      1.0  0.58678  0.72433  0.25686  1.0000
  O  Te29      1.0  0.66765  0.73410  0.42374  1.0000
  O  Te30      1.0  0.53234  0.59977  0.05362  1.0000
  O  Te31      1.0  0.59607  0.65839  0.95357  1.0000
  O  Te32      1.0  0.60458  0.76564  0.32374  1.0000
  Mg  Mg15      1.0  0.58907  0.60436  0.89808  1.0000
  Mg  Mg16      1.0  0.67468  0.78818  0.47919  1.0000
  C  Sn33      1.0  0.20903  0.91699  0.38436  1.0000
  C   C101      1.0  0.23353  0.90545  0.34093  1.0000
  C  Sn34      1.0  0.20930  0.86749  0.22575  1.0000
  C  Sn35      1.0  0.15953  0.84049  0.15235  1.0000
  C   C102      1.0  0.13506  0.85203  0.19575  1.0000
  C  Sn36      1.0  0.15926  0.88999  0.31096  1.0000
  O  Te33      1.0  0.23398  0.95509  0.49978  1.0000
  O  Te34      1.0  0.23457  0.85663  0.18436  1.0000
  O  Te35      1.0  0.13459  0.80237  0.03685  1.0000
  O  Te36      1.0  0.13402  0.90086  0.35233  1.0000
  Mg  Mg17      1.0  0.18474  0.80145  0.02068  1.0000
  Mg  Mg18      1.0  0.18381  0.95604  0.51590  1.0000
  C  Sn37      1.0  0.77452  0.67033  0.19289  1.0000
  C   C103      1.0  0.74856  0.68009  0.23471  1.0000
  C  Sn38      1.0  0.75992  0.72201  0.25405  1.0000
  C  Sn39      1.0  0.79801  0.75485  0.23100  1.0000
  C   C104      1.0  0.82394  0.74509  0.18917  1.0000
  C  Sn40      1.0  0.81261  0.70318  0.16983  1.0000
  O  Te37      1.0  0.76254  0.62821  0.17417  1.0000
  O  Te38      1.0  0.73347  0.73098  0.29596  1.0000
  O  Te39      1.0  0.80998  0.79700  0.24976  1.0000
  O  Te40      1.0  0.83903  0.69419  0.12792  1.0000
  Mg  Mg19      1.0  0.76343  0.79328  0.30750  1.0000
  Mg  Mg20      1.0  0.80908  0.63191  0.11625  1.0000
  C  Sn41      1.0  0.41920  0.08417  0.37209  1.0000
  C   C105      1.0  0.37266  0.05427  0.32936  1.0000
  C  Sn42      1.0  0.33590  0.06426  0.22806  1.0000
  C  Sn43      1.0  0.34587  0.10497  0.16811  1.0000
  C   C106      1.0  0.39238  0.13485  0.21081  1.0000
  C  Sn44      1.0  0.42916  0.12489  0.31214  1.0000
  O  Te41      1.0  0.45538  0.07350  0.47350  1.0000
  O  Te42      1.0  0.28967  0.03384  0.18708  1.0000
  O  Te43      1.0  0.30963  0.11563  0.06663  1.0000
  O  Te44      1.0  0.47537  0.15528  0.35308  1.0000
  Mg  Mg21      1.0  0.25243  0.06343  0.04519  1.0000
  Mg  Mg22      1.0  0.51263  0.12572  0.49487  1.0000
  C  Sn45      1.0  0.64916  0.49267  0.34126  1.0000
  C   C107      1.0  0.60418  0.45870  0.29855  1.0000
  C  Sn46      1.0  0.56391  0.46389  0.20049  1.0000
  C  Sn47      1.0  0.56869  0.50388  0.14382  1.0000
  C   C108      1.0  0.61364  0.53782  0.18649  1.0000
  C  Sn48      1.0  0.65394  0.53265  0.28458  1.0000
  O  Te45      1.0  0.68893  0.48675  0.43941  1.0000
  O  Te46      1.0  0.51932  0.42946  0.15948  1.0000
  O  Te47      1.0  0.52887  0.50977  0.04560  1.0000
  O  Te48      1.0  0.69850  0.56705  0.32557  1.0000
  Mg  Mg23      1.0  0.47577  0.45330  0.02272  1.0000
  Mg  Mg24      1.0  0.74207  0.54325  0.46222  1.0000
