data_image0
_chemical_formula_structural       C4NC2OC5NC2OC5NC2OC5NC2OC5NC2OC5NC2OCH36C4NC2OC5NC2OC5NC2OC5NC2OC5NC2OC5NC2OCH36C2Sn2C2HTe2HMgC2Sn2C2HTe2HMgC2Sn2C2HTe2HMgC2Sn2C2HTe2HMgC2Sn2C2HTe2HMgC2Sn2C2HTe2HMgC2Sn2C2HTe2HMgC2Sn2C2HTe2HMgC2Sn2C2HTe2HMgC2Sn2C2HTe2HMgC2Sn2C2HTe2HMgC2Sn2C2HTe2HMg
_chemical_formula_sum              "C132 N12 O12 H96 Sn24 Te24 Mg12"
_cell_length_a       37.6846
_cell_length_b       36.9561
_cell_length_c       8.17133
_cell_angle_alpha    80.0326
_cell_angle_beta     121.535
_cell_angle_gamma    120.357

_symmetry_space_group_name_H-M    'P1'
_space_group_IT_number       1

loop_
  _space_group_symop_operation_xyz
  'x, y, z'

loop_
  _atom_site_type_symbol
  _atom_site_label
  _atom_site_symmetry_multiplicity
  _atom_site_fract_x
  _atom_site_fract_y
  _atom_site_fract_z
  _atom_site_occupancy
  C   C1        1.0  0.49872  0.82381  0.83331  1.0000
  C   C2        1.0  0.47225  0.84239  0.82864  1.0000
  C   C3        1.0  0.49339  0.75735  0.77638  1.0000
  C   C4        1.0  0.47466  0.77932  0.79730  1.0000
  N   N1        1.0  0.54759  0.72361  0.73458  1.0000
  C   C5        1.0  0.31877  0.98033  0.77577  1.0000
  C   C6        1.0  0.30291  0.93688  0.78257  1.0000
  O   O1        1.0  0.46968  0.71442  0.73609  1.0000
  C   C7        1.0  0.60483  0.32126  0.75577  1.0000
  C   C8        1.0  0.05352  0.81379  0.72966  1.0000
  C   C9        1.0  0.09567  0.83608  0.71089  1.0000
  C   C10       1.0  0.98703  0.81856  0.69585  1.0000
  C   C11       1.0  0.02716  0.83475  0.67872  1.0000
  N   N2        1.0  0.89791  0.76894  0.72935  1.0000
  C   C12       1.0  0.39086  0.99233  0.80316  1.0000
  C   C13       1.0  0.36271  0.00870  0.78666  1.0000
  O   O2        1.0  0.96258  0.83936  0.65594  1.0000
  C   C14       1.0  0.42668  0.69078  0.74448  1.0000
  C   C15       1.0  0.47290  0.25745  0.73278  1.0000
  C   C16       1.0  0.45003  0.21138  0.70583  1.0000
  C   C17       1.0  0.54327  0.32379  0.76139  1.0000
  C   C18       1.0  0.51575  0.27982  0.72917  1.0000
  N   N3        1.0  0.58103  0.41687  0.75757  1.0000
  C   C19       1.0  0.33146  0.92180  0.79395  1.0000
  C   C20       1.0  0.37537  0.94885  0.80298  1.0000
  O   O3        1.0  0.58646  0.34541  0.77128  1.0000
  C   C21       1.0  0.97597  0.87788  0.57155  1.0000
  C   C22       1.0  0.53887  0.78070  0.79096  1.0000
  C   C23       1.0  0.56259  0.76335  0.76236  1.0000
  C   C24       1.0  0.54520  0.84702  0.85738  1.0000
  C   C25       1.0  0.56356  0.82506  0.83347  1.0000
  N   N4        1.0  0.48794  0.88253  0.84885  1.0000
  C   C26       1.0  0.69876  0.61920  0.69437  1.0000
  C   C27       1.0  0.71665  0.66268  0.67820  1.0000
  O   O4        1.0  0.56910  0.88984  0.90034  1.0000
  C   C28       1.0  0.39456  0.28204  0.77466  1.0000
  C   C29       1.0  0.97027  0.77818  0.75997  1.0000
  C   C30       1.0  0.92665  0.75516  0.76824  1.0000
  C   C31       1.0  0.03821  0.77456  0.80370  1.0000
  C   C32       1.0  0.99704  0.75761  0.81335  1.0000
  N   N5        1.0  0.12460  0.82282  0.74594  1.0000
  C   C33       1.0  0.63260  0.61463  0.69288  1.0000
  C   C34       1.0  0.65663  0.59450  0.70225  1.0000
  O   O5        1.0  0.06461  0.75465  0.86129  1.0000
  C   C35       1.0  0.61398  0.91334  0.90654  1.0000
  C   C36       1.0  0.52604  0.34754  0.78729  1.0000
  C   C37       1.0  0.54816  0.39342  0.80093  1.0000
  C   C38       1.0  0.45628  0.28101  0.76406  1.0000
  C   C39       1.0  0.48288  0.32508  0.78949  1.0000
  N   N6        1.0  0.42490  0.18624  0.78186  1.0000
  C   C40       1.0  0.69123  0.68139  0.66864  1.0000
  C   C41       1.0  0.64945  0.65788  0.67774  1.0000
  O   O6        1.0  0.41325  0.25856  0.75649  1.0000
  C   C42       1.0  0.05782  0.72337  0.98989  1.0000
  H   H1        1.0  0.43565  0.81896  0.79704  1.0000
  H   H2        1.0  0.43965  0.76199  0.78370  1.0000
  H   H3        1.0  0.29574  0.99199  0.75733  1.0000
  H   H4        1.0  0.58099  0.30146  0.61521  1.0000
  H   H5        1.0  0.61050  0.30133  0.87346  1.0000
  H   H6        1.0  0.63914  0.34466  0.76710  1.0000
  H   H7        1.0  0.10207  0.86737  0.66228  1.0000
  H   H8        1.0  0.03928  0.86479  0.62287  1.0000
  H   H9        1.0  0.42584  0.01381  0.81988  1.0000
  H   H10       1.0  0.39861  0.69804  0.63341  1.0000
  H   H11       1.0  0.43400  0.69640  0.88979  1.0000
  H   H12       1.0  0.41488  0.65759  0.71452  1.0000
  H   H13       1.0  0.45763  0.19972  0.61916  1.0000
  H   H14       1.0  0.52742  0.26132  0.70100  1.0000
  H   H15       1.0  0.31910  0.88818  0.79557  1.0000
  H   H16       1.0  0.95188  0.88882  0.55032  1.0000
  H   H17       1.0  0.97041  0.87212  0.43028  1.0000
  H   H18       1.0  0.01331  0.90188  0.66848  1.0000
  H   H19       1.0  0.59566  0.78790  0.76447  1.0000
  H   H20       1.0  0.59810  0.84245  0.84310  1.0000
  H   H21       1.0  0.71935  0.60500  0.70967  1.0000
  H   H22       1.0  0.36054  0.25828  0.76494  1.0000
  H   H23       1.0  0.38819  0.30199  0.65754  1.0000
  H   H24       1.0  0.41878  0.30190  0.91531  1.0000
  H   H25       1.0  0.91894  0.72320  0.81025  1.0000
  H   H26       1.0  0.98458  0.72730  0.86661  1.0000
  H   H27       1.0  0.60061  0.59692  0.70314  1.0000
  H   H28       1.0  0.62550  0.94656  0.93348  1.0000
  H   H29       1.0  0.60927  0.90729  0.76748  1.0000
  H   H30       1.0  0.64097  0.90588  0.02552  1.0000
  H   H31       1.0  0.53308  0.40630  0.84375  1.0000
  H   H32       1.0  0.47020  0.34365  0.80974  1.0000
  H   H33       1.0  0.70375  0.71470  0.65164  1.0000
  H   H34       1.0  0.02265  0.69469  0.91466  1.0000
  H   H35       1.0  0.06170  0.73667  0.11266  1.0000
  H   H36       1.0  0.08597  0.71537  0.04020  1.0000
  C   C43       1.0  0.47202  0.81260  0.33119  1.0000
  C   C44       1.0  0.44590  0.83025  0.33793  1.0000
  C   C45       1.0  0.46464  0.74673  0.25197  1.0000
  C   C46       1.0  0.44613  0.76847  0.27604  1.0000
  N   N7        1.0  0.51669  0.71366  0.19073  1.0000
  C   C47       1.0  0.29851  0.97610  0.28984  1.0000
  C   C48       1.0  0.27989  0.93237  0.29816  1.0000
  O   O7        1.0  0.43974  0.70388  0.20193  1.0000
  C   C49       1.0  0.60461  0.31084  0.24501  1.0000
  C   C50       1.0  0.02475  0.81586  0.20630  1.0000
  C   C51       1.0  0.06793  0.83945  0.19489  1.0000
  C   C52       1.0  0.95662  0.81843  0.16699  1.0000
  C   C53       1.0  0.99766  0.83601  0.15567  1.0000
  N   N8        1.0  0.87015  0.76866  0.22238  1.0000
  C   C54       1.0  0.36339  0.98065  0.28019  1.0000
  C   C55       1.0  0.34027  0.00075  0.28004  1.0000
  O   O8        1.0  0.92992  0.83790  0.11249  1.0000
  C   C56       1.0  0.39937  0.67997  0.22814  1.0000
  C   C57       1.0  0.47344  0.24818  0.23249  1.0000
  C   C58       1.0  0.45006  0.20222  0.21465  1.0000
  C   C59       1.0  0.54406  0.31376  0.25754  1.0000
  C   C60       1.0  0.51658  0.26976  0.23064  1.0000
  N   N9        1.0  0.58014  0.40885  0.24989  1.0000
  C   C61       1.0  0.30560  0.91400  0.30739  1.0000
  C   C62       1.0  0.34745  0.93750  0.29781  1.0000
  O   O9        1.0  0.58690  0.33521  0.26424  1.0000
  C   C63       1.0  0.93743  0.87079  0.99160  1.0000
  C   C64       1.0  0.51171  0.76962  0.28193  1.0000
  C   C65       1.0  0.53663  0.75166  0.26757  1.0000
  C   C66       1.0  0.51980  0.83512  0.37022  1.0000
  C   C67       1.0  0.53778  0.81336  0.34261  1.0000
  N   N10       1.0  0.46143  0.87013  0.36558  1.0000
  C   C68       1.0  0.67564  0.61172  0.19433  1.0000
  C   C69       1.0  0.69116  0.65500  0.18206  1.0000
  O   O10       1.0  0.55120  0.87668  0.45300  1.0000
  C   C70       1.0  0.39582  0.27621  0.26325  1.0000
  C   C71       1.0  0.94169  0.77889  0.23940  1.0000
  C   C72       1.0  0.89950  0.75585  0.25815  1.0000
  C   C73       1.0  0.00860  0.77531  0.27015  1.0000
  C   C74       1.0  0.96846  0.75845  0.28783  1.0000
  N   N11       1.0  0.09691  0.82610  0.23214  1.0000
  C   C75       1.0  0.60788  0.60117  0.20146  1.0000
  C   C76       1.0  0.63446  0.58428  0.20571  1.0000
  O   O11       1.0  0.03348  0.75495  0.30922  1.0000
  C   C77       1.0  0.55050  0.90839  0.32121  1.0000
  C   C78       1.0  0.52800  0.33808  0.28765  1.0000
  C   C79       1.0  0.55072  0.38409  0.30846  1.0000
  C   C80       1.0  0.45700  0.27255  0.25926  1.0000
  C   C81       1.0  0.48502  0.31647  0.29030  1.0000
  N   N12       1.0  0.41667  0.17904  0.25532  1.0000
  C   C82       1.0  0.66272  0.67019  0.17100  1.0000
  C   C83       1.0  0.62121  0.64395  0.18117  1.0000
  O   O12       1.0  0.41380  0.25150  0.24917  1.0000
  C   C84       1.0  0.02029  0.71606  0.39162  1.0000
  H   H37       1.0  0.40936  0.80631  0.30501  1.0000
  H   H38       1.0  0.41010  0.75126  0.25242  1.0000
  H   H39       1.0  0.27984  0.99096  0.28878  1.0000
  H   H40       1.0  0.57981  0.29088  0.10448  1.0000
  H   H41       1.0  0.61093  0.29100  0.36264  1.0000
  H   H42       1.0  0.63861  0.33409  0.25345  1.0000
  H   H43       1.0  0.07498  0.87127  0.15211  1.0000
  H   H44       1.0  0.00965  0.86637  0.10210  1.0000
  H   H45       1.0  0.39448  0.99917  0.26450  1.0000
  H   H46       1.0  0.36958  0.68582  0.12461  1.0000
  H   H47       1.0  0.40996  0.68715  0.37722  1.0000
  H   H48       1.0  0.38804  0.64677  0.20178  1.0000
  H   H49       1.0  0.46375  0.18848  0.16777  1.0000
  H   H50       1.0  0.52820  0.25062  0.20681  1.0000
  H   H51       1.0  0.29241  0.88058  0.32185  1.0000
  H   H52       1.0  0.90936  0.87866  0.94516  1.0000
  H   H53       1.0  0.93400  0.85920  0.86581  1.0000
  H   H54       1.0  0.97258  0.89922  0.07175  1.0000
  H   H55       1.0  0.57521  0.77395  0.33031  1.0000
  H   H56       1.0  0.57445  0.83131  0.37252  1.0000
  H   H57       1.0  0.69648  0.59930  0.19612  1.0000
  H   H58       1.0  0.36124  0.25317  0.25025  1.0000
  H   H59       1.0  0.39063  0.29615  0.14538  1.0000
  H   H60       1.0  0.41961  0.29603  0.40377  1.0000
  H   H61       1.0  0.89348  0.72455  0.30619  1.0000
  H   H62       1.0  0.95650  0.72810  0.34159  1.0000
  H   H63       1.0  0.57780  0.58152  0.22341  1.0000
  H   H64       1.0  0.51647  0.90827  0.25290  1.0000
  H   H65       1.0  0.55623  0.90303  0.21100  1.0000
  H   H66       1.0  0.58000  0.93868  0.41116  1.0000
  H   H67       1.0  0.53932  0.39679  0.37328  1.0000
  H   H68       1.0  0.47372  0.33556  0.31690  1.0000
  H   H69       1.0  0.67233  0.70291  0.14937  1.0000
  H   H70       1.0  0.98299  0.69200  0.29410  1.0000
  H   H71       1.0  0.02601  0.72130  0.53398  1.0000
  H   H72       1.0  0.04448  0.70548  0.41035  1.0000
  C   C85       1.0  0.41515  0.87406  0.90213  1.0000
  C   C86       1.0  0.44790  0.88893  0.84015  1.0000
  C  Sn1       1.0  0.46089  0.92790  0.76845  1.0000
  C  Sn2       1.0  0.44067  0.95237  0.75886  1.0000
  C   C87       1.0  0.40797  0.93722  0.82135  1.0000
  C   C88       1.0  0.39521  0.89818  0.89278  1.0000
  H   H73       1.0  0.40530  0.84387  0.95749  1.0000
  O  Te1       1.0  0.49364  0.94228  0.70707  1.0000
  O  Te2       1.0  0.45304  0.99143  0.68790  1.0000
  H   H74       1.0  0.36988  0.88669  0.94087  1.0000
  Mg  Mg1       1.0  0.49920  0.99750  0.62155  1.0000
  C   C89       1.0  0.63669  0.73559  0.81145  1.0000
  C   C90       1.0  0.58751  0.71917  0.72829  1.0000
  C  Sn3       1.0  0.55499  0.67919  0.62048  1.0000
  C  Sn4       1.0  0.57211  0.65528  0.59577  1.0000
  C   C91       1.0  0.62138  0.67197  0.67966  1.0000
  C   C92       1.0  0.65361  0.71202  0.78721  1.0000
  H   H75       1.0  0.66163  0.76657  0.89475  1.0000
  O  Te3       1.0  0.50597  0.66327  0.53833  1.0000
  O  Te4       1.0  0.54039  0.61523  0.48878  1.0000
  H   H76       1.0  0.69169  0.72471  0.85168  1.0000
  Mg  Mg2       1.0  0.47689  0.60716  0.40506  1.0000
  C   C93       1.0  0.22628  0.92068  0.83344  1.0000
  C   C94       1.0  0.25318  0.91155  0.79513  1.0000
  C  Sn5       1.0  0.23483  0.87073  0.72019  1.0000
  C  Sn6       1.0  0.18869  0.83851  0.68301  1.0000
  C   C95       1.0  0.16206  0.84797  0.72171  1.0000
  C   C96       1.0  0.18076  0.88893  0.79674  1.0000
  H   H77       1.0  0.24074  0.95237  0.89140  1.0000
  O  Te5       1.0  0.26218  0.86214  0.68282  1.0000
  O  Te6       1.0  0.16949  0.79744  0.60807  1.0000
  H   H78       1.0  0.15992  0.89600  0.82627  1.0000
  Mg  Mg3       1.0  0.22051  0.80132  0.58108  1.0000
  C   C97       1.0  0.79184  0.67350  0.62597  1.0000
  C   C98       1.0  0.76863  0.68364  0.68374  1.0000
  C  Sn7       1.0  0.78856  0.72511  0.75657  1.0000
  C  Sn8       1.0  0.83255  0.75696  0.77163  1.0000
  C   C99       1.0  0.85548  0.74651  0.71332  1.0000
  C   C100      1.0  0.83522  0.70490  0.64070  1.0000
  H   H79       1.0  0.77616  0.64132  0.56968  1.0000
  O  Te7       1.0  0.76490  0.73469  0.81369  1.0000
  O  Te8       1.0  0.85326  0.79867  0.84384  1.0000
  H   H80       1.0  0.85319  0.69707  0.59587  1.0000
  Mg  Mg4       1.0  0.80739  0.79609  0.90298  1.0000
  C   C101      1.0  0.42267  0.09203  0.72810  1.0000
  C   C102      1.0  0.38932  0.06119  0.77661  1.0000
  C  Sn9       1.0  0.36396  0.07155  0.81971  1.0000
  C  Sn10      1.0  0.37222  0.11358  0.81397  1.0000
  C   C103      1.0  0.40564  0.14419  0.76514  1.0000
  C   C104      1.0  0.43083  0.13349  0.72233  1.0000
  H   H81       1.0  0.44215  0.08374  0.69488  1.0000
  O  Te9       1.0  0.33077  0.04036  0.86797  1.0000
  O  Te10      1.0  0.34736  0.12479  0.85632  1.0000
  H   H82       1.0  0.45663  0.15736  0.68465  1.0000
  Mg  Mg5       1.0  0.30579  0.07112  0.91415  1.0000
  C   C105      1.0  0.64296  0.49164  0.69615  1.0000
  C   C106      1.0  0.61084  0.46602  0.75923  1.0000
  C  Sn11      1.0  0.59032  0.48254  0.80386  1.0000
  C  Sn12      1.0  0.60225  0.52550  0.78479  1.0000
  C   C107      1.0  0.63440  0.55085  0.72144  1.0000
  C   C108      1.0  0.65473  0.53401  0.67723  1.0000
  H   H83       1.0  0.65868  0.47860  0.66184  1.0000
  O  Te11      1.0  0.55831  0.45651  0.86677  1.0000
  O  Te12      1.0  0.58225  0.54281  0.82835  1.0000
  H   H84       1.0  0.67958  0.55384  0.62827  1.0000
  Mg  Mg6       1.0  0.54047  0.49467  0.90865  1.0000
  C   C109      1.0  0.38262  0.85921  0.38576  1.0000
  C   C110      1.0  0.41964  0.87553  0.34724  1.0000
  C  Sn13      1.0  0.43659  0.91611  0.29292  1.0000
  C  Sn14      1.0  0.41603  0.94074  0.27705  1.0000
  C   C111      1.0  0.37902  0.92415  0.31603  1.0000
  C   C112      1.0  0.36233  0.88350  0.37022  1.0000
  H   H85       1.0  0.36971  0.82777  0.42779  1.0000
  O  Te13      1.0  0.47359  0.93192  0.25489  1.0000
  O  Te14      1.0  0.43229  0.98140  0.22311  1.0000
  H   H86       1.0  0.33368  0.87088  0.40016  1.0000
  Mg  Mg7       1.0  0.48348  0.98904  0.18620  1.0000
  C   C113      1.0  0.60523  0.72433  0.26620  1.0000
  C   C114      1.0  0.55625  0.70710  0.19149  1.0000
  C  Sn15      1.0  0.52451  0.66469  0.11233  1.0000
  C  Sn16      1.0  0.54225  0.63914  0.10814  1.0000
  C   C115      1.0  0.59132  0.65667  0.18337  1.0000
  C   C116      1.0  0.62275  0.69914  0.26219  1.0000
  H   H87       1.0  0.62955  0.75719  0.32728  1.0000
  O  Te15      1.0  0.47568  0.64799  0.03825  1.0000
  O  Te16      1.0  0.51133  0.59666  0.02993  1.0000
  H   H88       1.0  0.66068  0.71247  0.32014  1.0000
  Mg  Mg8       1.0  0.57461  0.61548  0.94672  1.0000
  C   C117      1.0  0.17025  0.83816  0.18893  1.0000
  C   C118      1.0  0.14693  0.84810  0.24684  1.0000
  C  Sn17      1.0  0.16668  0.88954  0.31952  1.0000
  C  Sn18      1.0  0.21057  0.92154  0.33426  1.0000
  C   C119      1.0  0.23360  0.91127  0.27581  1.0000
  C   C120      1.0  0.21354  0.86971  0.20335  1.0000
  H   H89       1.0  0.15472  0.80600  0.13277  1.0000
  O  Te17      1.0  0.14292  0.89892  0.37679  1.0000
  O  Te18      1.0  0.23109  0.96321  0.40631  1.0000
  H   H90       1.0  0.23159  0.86202  0.15841  1.0000
  Mg  Mg9       1.0  0.18515  0.96034  0.46575  1.0000
  C   C121      1.0  0.77273  0.73827  0.26857  1.0000
  C   C122      1.0  0.74123  0.69557  0.19410  1.0000
  C  Sn19      1.0  0.75391  0.67347  0.13146  1.0000
  C  Sn20      1.0  0.79900  0.69460  0.14384  1.0000
  C   C123      1.0  0.83027  0.73731  0.21869  1.0000
  C   C124      1.0  0.81722  0.75912  0.28090  1.0000
  H   H91       1.0  0.76265  0.75514  0.31681  1.0000
  O  Te19      1.0  0.72201  0.63083  0.05737  1.0000
  O  Te20      1.0  0.81258  0.67327  0.08233  1.0000
  H   H92       1.0  0.84163  0.79217  0.33868  1.0000
  Mg  Mg10      1.0  0.88362  0.64246  0.99205  1.0000
  C   C125      1.0  0.42915  0.10686  0.32126  1.0000
  C   C126      1.0  0.40650  0.13116  0.25611  1.0000
  C  Sn21      1.0  0.35850  0.11265  0.20192  1.0000
  C  Sn22      1.0  0.33280  0.06899  0.21338  1.0000
  C   C127      1.0  0.35580  0.04496  0.27889  1.0000
  C   C128      1.0  0.40384  0.06380  0.33269  1.0000
  H   H93       1.0  0.46633  0.12144  0.36299  1.0000
  O  Te21      1.0  0.33641  0.13739  0.13708  1.0000
  O  Te22      1.0  0.28481  0.04969  0.16021  1.0000
  H   H94       1.0  0.42138  0.04498  0.38325  1.0000
  Mg  Mg11      1.0  0.27042  0.09665  0.08092  1.0000
  C   C129      1.0  0.65580  0.51587  0.28733  1.0000
  C   C130      1.0  0.62873  0.53582  0.23261  1.0000
  C  Sn23      1.0  0.58115  0.51243  0.18774  1.0000
  C  Sn24      1.0  0.56039  0.46827  0.19804  1.0000
  C   C131      1.0  0.58779  0.44863  0.25307  1.0000
  C   C132      1.0  0.63537  0.47232  0.29760  1.0000
  H   H95       1.0  0.69262  0.53421  0.32189  1.0000
  O  Te23      1.0  0.55460  0.53285  0.13325  1.0000
  O  Te24      1.0  0.51293  0.44415  0.15404  1.0000
  H   H96       1.0  0.65633  0.45688  0.34009  1.0000
  Mg  Mg12      1.0  0.49132  0.48637  0.08713  1.0000
