data_image0
_chemical_formula_structural       C8NC2OC5NC2OC5NC4OC9NC2OC5NC2OC5NC4OCH44C6NC4OC9NC4OC7NC2OC7NC4OC9NC2OC7NC4OCH52C2Sn2C2HTe2HMgC2Sn2C2HTe2HMgC2Sn2C2HTe2HMgC2Sn2C2HTe2HMgC2Sn2C2HTe2HMgC2Sn2C2HTe2HMg
_chemical_formula_sum              "C144 N12 O12 H108 Sn12 Te12 Mg6"
_cell_length_a       37.6846
_cell_length_b       36.9561
_cell_length_c       8.17133
_cell_angle_alpha    80.0326
_cell_angle_beta     121.535
_cell_angle_gamma    120.357

_symmetry_space_group_name_H-M    'P1'
_space_group_IT_number       1

loop_
  _space_group_symop_operation_xyz
  'x, y, z'

loop_
  _atom_site_type_symbol
  _atom_site_label
  _atom_site_symmetry_multiplicity
  _atom_site_fract_x
  _atom_site_fract_y
  _atom_site_fract_z
  _atom_site_occupancy
  C   C1        1.0  0.49872  0.82381  0.83331  1.0000
  C   C2        1.0  0.47225  0.84239  0.82864  1.0000
  C   C3        1.0  0.42365  0.87455  0.88982  1.0000
  C   C4        1.0  0.39730  0.89174  0.87963  1.0000
  C   C5        1.0  0.49339  0.75735  0.77638  1.0000
  C   C6        1.0  0.55011  0.67052  0.61880  1.0000
  C   C7        1.0  0.57409  0.65428  0.60036  1.0000
  C   C8        1.0  0.47466  0.77932  0.79730  1.0000
  N   N1        1.0  0.54759  0.72361  0.73458  1.0000
  C   C9        1.0  0.31877  0.98033  0.77577  1.0000
  C   C10       1.0  0.30291  0.93688  0.78257  1.0000
  O   O1        1.0  0.46968  0.71442  0.73609  1.0000
  C   C11       1.0  0.60483  0.32126  0.75577  1.0000
  C   C12       1.0  0.05352  0.81379  0.72966  1.0000
  C   C13       1.0  0.09567  0.83608  0.71089  1.0000
  C   C14       1.0  0.98703  0.81856  0.69585  1.0000
  C   C15       1.0  0.02716  0.83475  0.67872  1.0000
  N   N2        1.0  0.89791  0.76894  0.72935  1.0000
  C   C16       1.0  0.39086  0.99233  0.80316  1.0000
  C   C17       1.0  0.36271  0.00870  0.78666  1.0000
  O   O2        1.0  0.96258  0.83936  0.65594  1.0000
  C   C18       1.0  0.42668  0.69078  0.74448  1.0000
  C   C19       1.0  0.47290  0.25745  0.73278  1.0000
  C   C20       1.0  0.45003  0.21138  0.70583  1.0000
  C   C21       1.0  0.54327  0.32379  0.76139  1.0000
  C   C22       1.0  0.51575  0.27982  0.72917  1.0000
  N   N3        1.0  0.58103  0.41687  0.75757  1.0000
  C   C23       1.0  0.33146  0.92180  0.79395  1.0000
  C   C24       1.0  0.37537  0.94885  0.80298  1.0000
  C   C25       1.0  0.45905  0.89687  0.83887  1.0000
  C   C26       1.0  0.40424  0.93146  0.81495  1.0000
  O   O3        1.0  0.58646  0.34541  0.77128  1.0000
  C   C27       1.0  0.97597  0.87788  0.57155  1.0000
  C   C28       1.0  0.53887  0.78070  0.79096  1.0000
  C   C29       1.0  0.56259  0.76335  0.76236  1.0000
  C   C30       1.0  0.62502  0.73473  0.79644  1.0000
  C   C31       1.0  0.64891  0.71817  0.77776  1.0000
  C   C32       1.0  0.54520  0.84702  0.85738  1.0000
  C   C33       1.0  0.46727  0.93713  0.77987  1.0000
  C   C34       1.0  0.43986  0.95361  0.76519  1.0000
  C   C35       1.0  0.56356  0.82506  0.83347  1.0000
  N   N4        1.0  0.48794  0.88253  0.84885  1.0000
  C   C36       1.0  0.69876  0.61920  0.69437  1.0000
  C   C37       1.0  0.71665  0.66268  0.67820  1.0000
  O   O4        1.0  0.56910  0.88984  0.90034  1.0000
  C   C38       1.0  0.39456  0.28204  0.77466  1.0000
  C   C39       1.0  0.97027  0.77818  0.75997  1.0000
  C   C40       1.0  0.92665  0.75516  0.76824  1.0000
  C   C41       1.0  0.03821  0.77456  0.80370  1.0000
  C   C42       1.0  0.99704  0.75761  0.81335  1.0000
  N   N5        1.0  0.12460  0.82282  0.74594  1.0000
  C   C43       1.0  0.63260  0.61463  0.69288  1.0000
  C   C44       1.0  0.65663  0.59450  0.70225  1.0000
  O   O5        1.0  0.06461  0.75465  0.86129  1.0000
  C   C45       1.0  0.61398  0.91334  0.90654  1.0000
  C   C46       1.0  0.52604  0.34754  0.78729  1.0000
  C   C47       1.0  0.54816  0.39342  0.80093  1.0000
  C   C48       1.0  0.45628  0.28101  0.76406  1.0000
  C   C49       1.0  0.48288  0.32508  0.78949  1.0000
  N   N6        1.0  0.42490  0.18624  0.78186  1.0000
  C   C50       1.0  0.69123  0.68139  0.66864  1.0000
  C   C51       1.0  0.64945  0.65788  0.67774  1.0000
  C   C52       1.0  0.57495  0.71101  0.71762  1.0000
  C   C53       1.0  0.62401  0.67739  0.68112  1.0000
  O   O6        1.0  0.41325  0.25856  0.75649  1.0000
  C   C54       1.0  0.05782  0.72337  0.98989  1.0000
  H   H1        1.0  0.43565  0.81896  0.79704  1.0000
  H   H2        1.0  0.41835  0.84445  0.94578  1.0000
  H   H3        1.0  0.37168  0.87455  0.92772  1.0000
  H   H4        1.0  0.51152  0.65269  0.55630  1.0000
  H   H5        1.0  0.55391  0.62332  0.51948  1.0000
  H   H6        1.0  0.43965  0.76199  0.78370  1.0000
  H   H7        1.0  0.29574  0.99199  0.75733  1.0000
  H   H8        1.0  0.58099  0.30146  0.61521  1.0000
  H   H9        1.0  0.61050  0.30133  0.87346  1.0000
  H   H10       1.0  0.63914  0.34466  0.76710  1.0000
  H   H11       1.0  0.10207  0.86737  0.66228  1.0000
  H   H12       1.0  0.03928  0.86479  0.62287  1.0000
  H   H13       1.0  0.42584  0.01381  0.81988  1.0000
  H   H14       1.0  0.39861  0.69804  0.63341  1.0000
  H   H15       1.0  0.43400  0.69640  0.88979  1.0000
  H   H16       1.0  0.41488  0.65759  0.71452  1.0000
  H   H17       1.0  0.45763  0.19972  0.61916  1.0000
  H   H18       1.0  0.52742  0.26132  0.70100  1.0000
  H   H19       1.0  0.31910  0.88818  0.79557  1.0000
  H   H20       1.0  0.95188  0.88882  0.55032  1.0000
  H   H21       1.0  0.97041  0.87212  0.43028  1.0000
  H   H22       1.0  0.01331  0.90188  0.66848  1.0000
  H   H23       1.0  0.59566  0.78790  0.76447  1.0000
  H   H24       1.0  0.64545  0.76546  0.88005  1.0000
  H   H25       1.0  0.68777  0.73604  0.84730  1.0000
  H   H26       1.0  0.49439  0.95410  0.73939  1.0000
  H   H27       1.0  0.44530  0.98374  0.70920  1.0000
  H   H28       1.0  0.59810  0.84245  0.84310  1.0000
  H   H29       1.0  0.71935  0.60500  0.70967  1.0000
  H   H30       1.0  0.36054  0.25828  0.76494  1.0000
  H   H31       1.0  0.38819  0.30199  0.65754  1.0000
  H   H32       1.0  0.41878  0.30190  0.91531  1.0000
  H   H33       1.0  0.91894  0.72320  0.81025  1.0000
  H   H34       1.0  0.98458  0.72730  0.86661  1.0000
  H   H35       1.0  0.60061  0.59692  0.70314  1.0000
  H   H36       1.0  0.62550  0.94656  0.93348  1.0000
  H   H37       1.0  0.60927  0.90729  0.76748  1.0000
  H   H38       1.0  0.64097  0.90588  0.02552  1.0000
  H   H39       1.0  0.53308  0.40630  0.84375  1.0000
  H   H40       1.0  0.47020  0.34365  0.80974  1.0000
  H   H41       1.0  0.70375  0.71470  0.65164  1.0000
  H   H42       1.0  0.02265  0.69469  0.91466  1.0000
  H   H43       1.0  0.06170  0.73667  0.11266  1.0000
  H   H44       1.0  0.08597  0.71537  0.04020  1.0000
  C   C55       1.0  0.47202  0.81260  0.33119  1.0000
  C   C56       1.0  0.44590  0.83025  0.33793  1.0000
  C   C57       1.0  0.46464  0.74673  0.25197  1.0000
  C   C58       1.0  0.52035  0.65645  0.11456  1.0000
  C   C59       1.0  0.54449  0.63830  0.11018  1.0000
  C   C60       1.0  0.44613  0.76847  0.27604  1.0000
  N   N7        1.0  0.51669  0.71366  0.19073  1.0000
  C   C61       1.0  0.29851  0.97610  0.28984  1.0000
  C   C62       1.0  0.27989  0.93237  0.29816  1.0000
  C   C63       1.0  0.14056  0.85406  0.24179  1.0000
  C   C64       1.0  0.23297  0.90581  0.28502  1.0000
  O   O7        1.0  0.43974  0.70388  0.20193  1.0000
  C   C65       1.0  0.60461  0.31084  0.24501  1.0000
  C   C66       1.0  0.02475  0.81586  0.20630  1.0000
  C   C67       1.0  0.06793  0.83945  0.19489  1.0000
  C   C68       1.0  0.16703  0.89765  0.30672  1.0000
  C   C69       1.0  0.21234  0.92263  0.32940  1.0000
  C   C70       1.0  0.95662  0.81843  0.16699  1.0000
  C   C71       1.0  0.80574  0.75487  0.26497  1.0000
  C   C72       1.0  0.76178  0.72756  0.25155  1.0000
  C   C73       1.0  0.99766  0.83601  0.15567  1.0000
  N   N8        1.0  0.87015  0.76866  0.22238  1.0000
  C   C74       1.0  0.36339  0.98065  0.28019  1.0000
  C   C75       1.0  0.34027  0.00075  0.28004  1.0000
  C   C76       1.0  0.39933  0.13554  0.25531  1.0000
  C   C77       1.0  0.35984  0.04668  0.26803  1.0000
  O   O8        1.0  0.92992  0.83790  0.11249  1.0000
  C   C78       1.0  0.39937  0.67997  0.22814  1.0000
  C   C79       1.0  0.47344  0.24818  0.23249  1.0000
  C   C80       1.0  0.45006  0.20222  0.21465  1.0000
  C   C81       1.0  0.42708  0.11610  0.30620  1.0000
  C   C82       1.0  0.40772  0.07282  0.31373  1.0000
  C   C83       1.0  0.54406  0.31376  0.25754  1.0000
  C   C84       1.0  0.51658  0.26976  0.23064  1.0000
  N   N9        1.0  0.58014  0.40885  0.24989  1.0000
  C   C85       1.0  0.30560  0.91400  0.30739  1.0000
  C   C86       1.0  0.34745  0.93750  0.29781  1.0000
  O   O9        1.0  0.58690  0.33521  0.26424  1.0000
  C   C87       1.0  0.93743  0.87079  0.99160  1.0000
  C   C88       1.0  0.51171  0.76962  0.28193  1.0000
  C   C89       1.0  0.53663  0.75166  0.26757  1.0000
  C   C90       1.0  0.59352  0.72344  0.25080  1.0000
  C   C91       1.0  0.61743  0.70521  0.24662  1.0000
  C   C92       1.0  0.51980  0.83512  0.37022  1.0000
  C   C93       1.0  0.53778  0.81336  0.34261  1.0000
  N   N10       1.0  0.46143  0.87013  0.36558  1.0000
  C   C94       1.0  0.67564  0.61172  0.19433  1.0000
  C   C95       1.0  0.69116  0.65500  0.18206  1.0000
  C   C96       1.0  0.82744  0.73977  0.21860  1.0000
  C   C97       1.0  0.73701  0.68401  0.18894  1.0000
  O   O10       1.0  0.55120  0.87668  0.45300  1.0000
  C   C98       1.0  0.39582  0.27621  0.26325  1.0000
  C   C99       1.0  0.94169  0.77889  0.23940  1.0000
  C   C100      1.0  0.89950  0.75585  0.25815  1.0000
  C   C101      1.0  0.80260  0.69630  0.15389  1.0000
  C   C102      1.0  0.75854  0.66927  0.14006  1.0000
  C   C103      1.0  0.00860  0.77531  0.27015  1.0000
  C   C104      1.0  0.16125  0.83694  0.19990  1.0000
  C   C105      1.0  0.20589  0.86233  0.21784  1.0000
  C   C106      1.0  0.96846  0.75845  0.28783  1.0000
  N   N11       1.0  0.09691  0.82610  0.23214  1.0000
  C   C107      1.0  0.60788  0.60117  0.20146  1.0000
  C   C108      1.0  0.63446  0.58428  0.20571  1.0000
  O   O11       1.0  0.03348  0.75495  0.30922  1.0000
  C   C109      1.0  0.55050  0.90839  0.32121  1.0000
  C   C110      1.0  0.52800  0.33808  0.28765  1.0000
  C   C111      1.0  0.55072  0.38409  0.30846  1.0000
  C   C112      1.0  0.45700  0.27255  0.25926  1.0000
  C   C113      1.0  0.35174  0.10984  0.21290  1.0000
  C   C114      1.0  0.33230  0.06638  0.21595  1.0000
  C   C115      1.0  0.48502  0.31647  0.29030  1.0000
  N   N12       1.0  0.41667  0.17904  0.25532  1.0000
  C   C116      1.0  0.66272  0.67019  0.17100  1.0000
  C   C117      1.0  0.62121  0.64395  0.18117  1.0000
  C   C118      1.0  0.54429  0.69921  0.18695  1.0000
  C   C119      1.0  0.59390  0.66223  0.17790  1.0000
  O   O12       1.0  0.41380  0.25150  0.24917  1.0000
  C   C120      1.0  0.02029  0.71606  0.39162  1.0000
  H   H45       1.0  0.40936  0.80631  0.30501  1.0000
  H   H46       1.0  0.48230  0.63792  0.06443  1.0000
  H   H47       1.0  0.52479  0.60531  0.05099  1.0000
  H   H48       1.0  0.41010  0.75126  0.25242  1.0000
  H   H49       1.0  0.27984  0.99096  0.28878  1.0000
  H   H50       1.0  0.57981  0.29088  0.10448  1.0000
  H   H51       1.0  0.61093  0.29100  0.36264  1.0000
  H   H52       1.0  0.63861  0.33409  0.25345  1.0000
  H   H53       1.0  0.07498  0.87127  0.15211  1.0000
  H   H54       1.0  0.15325  0.91128  0.35135  1.0000
  H   H55       1.0  0.23293  0.95561  0.38965  1.0000
  H   H56       1.0  0.82503  0.78822  0.31731  1.0000
  H   H57       1.0  0.74722  0.73993  0.29757  1.0000
  H   H58       1.0  0.00965  0.86637  0.10210  1.0000
  H   H59       1.0  0.39448  0.99917  0.26450  1.0000
  H   H60       1.0  0.36958  0.68582  0.12461  1.0000
  H   H61       1.0  0.40996  0.68715  0.37722  1.0000
  H   H62       1.0  0.38804  0.64677  0.20178  1.0000
  H   H63       1.0  0.46375  0.18848  0.16777  1.0000
  H   H64       1.0  0.46442  0.13535  0.34552  1.0000
  H   H65       1.0  0.43070  0.05914  0.36044  1.0000
  H   H66       1.0  0.52820  0.25062  0.20681  1.0000
  H   H67       1.0  0.29241  0.88058  0.32185  1.0000
  H   H68       1.0  0.90936  0.87866  0.94516  1.0000
  H   H69       1.0  0.93400  0.85920  0.86581  1.0000
  H   H70       1.0  0.97258  0.89922  0.07175  1.0000
  H   H71       1.0  0.57521  0.77395  0.33031  1.0000
  H   H72       1.0  0.61361  0.75658  0.30787  1.0000
  H   H73       1.0  0.65572  0.72432  0.30234  1.0000
  H   H74       1.0  0.57445  0.83131  0.37252  1.0000
  H   H75       1.0  0.69648  0.59930  0.19612  1.0000
  H   H76       1.0  0.36124  0.25317  0.25025  1.0000
  H   H77       1.0  0.39063  0.29615  0.14538  1.0000
  H   H78       1.0  0.41961  0.29603  0.40377  1.0000
  H   H79       1.0  0.89348  0.72455  0.30619  1.0000
  H   H80       1.0  0.81699  0.68438  0.10457  1.0000
  H   H81       1.0  0.73968  0.63635  0.08274  1.0000
  H   H82       1.0  0.14090  0.80358  0.14701  1.0000
  H   H83       1.0  0.21941  0.84826  0.17401  1.0000
  H   H84       1.0  0.95650  0.72810  0.34159  1.0000
  H   H85       1.0  0.57780  0.58152  0.22341  1.0000
  H   H86       1.0  0.51647  0.90827  0.25290  1.0000
  H   H87       1.0  0.55623  0.90303  0.21100  1.0000
  H   H88       1.0  0.58000  0.93868  0.41116  1.0000
  H   H89       1.0  0.53932  0.39679  0.37328  1.0000
  H   H90       1.0  0.33058  0.12496  0.17698  1.0000
  H   H91       1.0  0.29509  0.04743  0.17830  1.0000
  H   H92       1.0  0.47372  0.33556  0.31690  1.0000
  H   H93       1.0  0.67233  0.70291  0.14937  1.0000
  H   H94       1.0  0.98299  0.69200  0.29410  1.0000
  H   H95       1.0  0.02601  0.72130  0.53398  1.0000
  H   H96       1.0  0.04448  0.70548  0.41035  1.0000
  C   C121      1.0  0.81728  0.68663  0.64532  1.0000
  C   C122      1.0  0.84783  0.73023  0.69789  1.0000
  C  Sn1       1.0  0.83682  0.75418  0.75941  1.0000
  C  Sn2       1.0  0.79443  0.73402  0.76838  1.0000
  C   C123      1.0  0.76412  0.69039  0.71561  1.0000
  C   C124      1.0  0.77547  0.66673  0.65419  1.0000
  H   H97       1.0  0.82608  0.66831  0.59790  1.0000
  O  Te1       1.0  0.86772  0.79770  0.81134  1.0000
  O  Te2       1.0  0.78257  0.75721  0.82942  1.0000
  H   H98       1.0  0.75183  0.63297  0.61362  1.0000
  Mg  Mg1       1.0  0.83606  0.81571  0.88511  1.0000
  C   C125      1.0  0.42529  0.94327  0.28499  1.0000
  C   C126      1.0  0.38277  0.92391  0.28778  1.0000
  C  Sn3       1.0  0.36512  0.88294  0.33753  1.0000
  C  Sn4       1.0  0.39059  0.86103  0.38535  1.0000
  C   C127      1.0  0.43311  0.88069  0.38226  1.0000
  C   C128      1.0  0.45044  0.92169  0.33221  1.0000
  H   H99       1.0  0.43871  0.97501  0.24637  1.0000
  O  Te3       1.0  0.32259  0.86406  0.33953  1.0000
  O  Te4       1.0  0.37377  0.82006  0.43567  1.0000
  H   H100      1.0  0.48337  0.93668  0.33019  1.0000
  Mg  Mg2       1.0  0.31413  0.80774  0.41755  1.0000
  C   C129      1.0  0.65580  0.51587  0.28733  1.0000
  C   C130      1.0  0.62873  0.53582  0.23261  1.0000
  C  Sn5       1.0  0.58115  0.51243  0.18774  1.0000
  C  Sn6       1.0  0.56039  0.46827  0.19804  1.0000
  C   C131      1.0  0.58779  0.44863  0.25307  1.0000
  C   C132      1.0  0.63537  0.47232  0.29760  1.0000
  H   H101      1.0  0.69262  0.53421  0.32189  1.0000
  O  Te5       1.0  0.55460  0.53285  0.13325  1.0000
  O  Te6       1.0  0.51293  0.44415  0.15404  1.0000
  H   H102      1.0  0.65633  0.45688  0.34009  1.0000
  Mg  Mg3       1.0  0.49132  0.48637  0.08713  1.0000
  C   C133      1.0  0.64296  0.49164  0.69615  1.0000
  C   C134      1.0  0.61084  0.46602  0.75923  1.0000
  C  Sn7       1.0  0.59032  0.48254  0.80386  1.0000
  C  Sn8       1.0  0.60225  0.52550  0.78479  1.0000
  C   C135      1.0  0.63440  0.55085  0.72144  1.0000
  C   C136      1.0  0.65473  0.53401  0.67723  1.0000
  H   H103      1.0  0.65868  0.47860  0.66184  1.0000
  O  Te7       1.0  0.55831  0.45651  0.86677  1.0000
  O  Te8       1.0  0.58225  0.54281  0.82835  1.0000
  H   H104      1.0  0.67958  0.55384  0.62827  1.0000
  Mg  Mg4       1.0  0.54047  0.49467  0.90865  1.0000
  C   C137      1.0  0.19642  0.83872  0.67868  1.0000
  C   C138      1.0  0.17347  0.84628  0.74772  1.0000
  C  Sn9       1.0  0.19230  0.88691  0.82642  1.0000
  C  Sn10      1.0  0.23489  0.92054  0.83595  1.0000
  C   C139      1.0  0.25756  0.91266  0.76637  1.0000
  C   C140      1.0  0.23842  0.87188  0.68795  1.0000
  H   H105      1.0  0.18160  0.80717  0.61791  1.0000
  O  Te9       1.0  0.16893  0.89391  0.89480  1.0000
  O  Te10      1.0  0.25447  0.96146  0.91383  1.0000
  H   H106      1.0  0.25618  0.86604  0.63440  1.0000
  Mg  Mg5       1.0  0.20953  0.95516  0.98823  1.0000
  C   C141      1.0  0.35788  0.08232  0.82539  1.0000
  C   C142      1.0  0.37135  0.05804  0.78154  1.0000
  C  Sn11      1.0  0.40740  0.07733  0.73591  1.0000
  C  Sn12      1.0  0.43034  0.12176  0.73432  1.0000
  C   C143      1.0  0.41663  0.14577  0.77853  1.0000
  C   C144      1.0  0.38050  0.12615  0.82393  1.0000
  H   H107      1.0  0.32994  0.06714  0.86062  1.0000
  O  Te11      1.0  0.42040  0.05259  0.69239  1.0000
  O  Te12      1.0  0.46649  0.14185  0.68929  1.0000
  H   H108      1.0  0.37010  0.14496  0.85800  1.0000
  Mg  Mg6       1.0  0.47163  0.09456  0.64001  1.0000
