data_image0
_chemical_formula_structural       C16N4C4N4C16H20C24N4C8N4C16H32C2Sn2C2HTe2HMgC2Sn2C2HTe2HMgC2Sn2C2HTe2HMgC2Sn2C2HTe2HMgC2Sn2C2HTe2HMgC2Sn2C2HTe2HMg
_chemical_formula_sum              "C108 N16 H64 Sn12 Te12 Mg6"
_cell_length_a       25.5419
_cell_length_b       25.5914
_cell_length_c       10.8005
_cell_angle_alpha    64.9159
_cell_angle_beta     75.5144
_cell_angle_gamma    90.885

_symmetry_space_group_name_H-M    'P1'
_space_group_IT_number       1

loop_
  _space_group_symop_operation_xyz
  'x, y, z'

loop_
  _atom_site_type_symbol
  _atom_site_label
  _atom_site_symmetry_multiplicity
  _atom_site_fract_x
  _atom_site_fract_y
  _atom_site_fract_z
  _atom_site_occupancy
  C   C1        1.0  0.30378  0.01848  0.25299  1.0000
  C   C2        1.0  0.26064  0.01109  0.37123  1.0000
  C   C3        1.0  0.20657  0.00488  0.36962  1.0000
  C   C4        1.0  0.52404  0.94628  0.78779  1.0000
  C   C5        1.0  0.45764  0.02111  0.86098  1.0000
  C   C6        1.0  0.19404  0.00863  0.24672  1.0000
  C   C7        1.0  0.13628  0.00464  0.24245  1.0000
  C   C8        1.0  0.86907  0.98976  0.22568  1.0000
  C   C9        1.0  0.86085  0.99405  0.76832  1.0000
  C   C10       1.0  0.13595  0.01037  0.75072  1.0000
  C   C11       1.0  0.35984  0.02082  0.26336  1.0000
  C   C12       1.0  0.63924  0.98288  0.25755  1.0000
  C   C13       1.0  0.63899  0.98547  0.73576  1.0000
  C   C14       1.0  0.36008  0.02208  0.76523  1.0000
  C   C15       1.0  0.23734  0.01754  0.12658  1.0000
  C   C16       1.0  0.29134  0.02110  0.13043  1.0000
  N   N1        1.0  0.39949  0.01257  0.17744  1.0000
  N   N2        1.0  0.61963  0.02675  0.17649  1.0000
  N   N3        1.0  0.60022  0.99311  0.82579  1.0000
  N   N4        1.0  0.38190  0.97552  0.82000  1.0000
  C   C17       1.0  0.51161  0.02361  0.86338  1.0000
  C   C18       1.0  0.46935  0.94193  0.79176  1.0000
  C   C19       1.0  0.54618  0.98769  0.82241  1.0000
  C   C20       1.0  0.43583  0.98056  0.82376  1.0000
  N   N5        1.0  0.06268  0.94539  0.22719  1.0000
  N   N6        1.0  0.94407  0.05036  0.23292  1.0000
  N   N7        1.0  0.93861  0.05267  0.77148  1.0000
  N   N8        1.0  0.05585  0.94795  0.76707  1.0000
  C   C21       1.0  0.11632  0.95926  0.21719  1.0000
  C   C22       1.0  0.89263  0.04106  0.22177  1.0000
  C   C23       1.0  0.88634  0.04470  0.76365  1.0000
  C   C24       1.0  0.11027  0.95988  0.75448  1.0000
  C   C25       1.0  0.14954  0.91806  0.18619  1.0000
  C   C26       1.0  0.86341  0.09065  0.21255  1.0000
  C   C27       1.0  0.85976  0.09639  0.74697  1.0000
  C   C28       1.0  0.13944  0.91236  0.74705  1.0000
  C   C29       1.0  0.06086  0.89551  0.20900  1.0000
  C   C30       1.0  0.94765  0.10411  0.23258  1.0000
  C   C31       1.0  0.94567  0.10810  0.76030  1.0000
  C   C32       1.0  0.04981  0.89352  0.77115  1.0000
  C   C33       1.0  0.11533  0.87880  0.17834  1.0000
  C   C34       1.0  0.89838  0.13054  0.21361  1.0000
  C   C35       1.0  0.89647  0.13542  0.74745  1.0000
  C   C36       1.0  0.10172  0.87048  0.76199  1.0000
  H   H1        1.0  0.26959  0.00907  0.46649  1.0000
  H   H2        1.0  0.17357  0.99676  0.46411  1.0000
  H   H3        1.0  0.54983  0.91641  0.76273  1.0000
  H   H4        1.0  0.43079  0.04758  0.89735  1.0000
  H   H5        1.0  0.22832  0.02169  0.02969  1.0000
  H   H6        1.0  0.32439  0.02629  0.03881  1.0000
  H   H7        1.0  0.52854  0.05271  0.89831  1.0000
  H   H8        1.0  0.45137  0.90956  0.76806  1.0000
  H   H9        1.0  0.19307  0.91968  0.16934  1.0000
  H   H10       1.0  0.82179  0.09437  0.20613  1.0000
  H   H11       1.0  0.81891  0.10191  0.73632  1.0000
  H   H12       1.0  0.18283  0.91156  0.72980  1.0000
  H   H13       1.0  0.12562  0.84339  0.15028  1.0000
  H   H14       1.0  0.89169  0.17398  0.20109  1.0000
  H   H15       1.0  0.89206  0.17890  0.73732  1.0000
  H   H16       1.0  0.10838  0.82793  0.76852  1.0000
  H   H17       1.0  0.96696  0.96677  0.77904  1.0000
  H   H18       1.0  0.02895  0.03256  0.76212  1.0000
  H   H19       1.0  0.02807  0.03097  0.23244  1.0000
  H   H20       1.0  0.97783  0.96501  0.22344  1.0000
  C   C37       1.0  0.98681  0.29803  0.25968  1.0000
  C   C38       1.0  0.00500  0.69643  0.76286  1.0000
  C   C39       1.0  0.94175  0.25369  0.33980  1.0000
  C   C40       1.0  0.04549  0.74377  0.66753  1.0000
  C   C41       1.0  0.94349  0.19925  0.33993  1.0000
  C   C42       1.0  0.04374  0.79787  0.66865  1.0000
  C   C43       1.0  0.97495  0.47471  0.19179  1.0000
  C   C44       1.0  0.06940  0.53822  0.17213  1.0000
  C   C45       1.0  0.01510  0.51724  0.84945  1.0000
  C   C46       1.0  0.93861  0.46593  0.77350  1.0000
  C   C47       1.0  0.98942  0.18729  0.25746  1.0000
  C   C48       1.0  0.00311  0.80611  0.77143  1.0000
  C   C49       1.0  0.99201  0.13008  0.25336  1.0000
  C   C50       1.0  0.01290  0.86234  0.22288  1.0000
  C   C51       1.0  0.00139  0.86330  0.77688  1.0000
  C   C52       1.0  0.99334  0.13675  0.75980  1.0000
  C   C53       1.0  0.98548  0.35434  0.26287  1.0000
  C   C54       1.0  0.03861  0.63593  0.23902  1.0000
  C   C55       1.0  0.00732  0.64100  0.75417  1.0000
  C   C56       1.0  0.97982  0.36534  0.73706  1.0000
  C   C57       1.0  0.03386  0.23260  0.17426  1.0000
  C   C58       1.0  0.96300  0.75790  0.86880  1.0000
  C   C59       1.0  0.03310  0.28614  0.17816  1.0000
  C   C60       1.0  0.96302  0.70467  0.86291  1.0000
  N   N9        1.0  0.02816  0.39375  0.20189  1.0000
  N   N10       1.0  0.01396  0.61726  0.17125  1.0000
  N   N11       1.0  0.96550  0.60196  0.80467  1.0000
  N   N12       1.0  0.98601  0.37853  0.83561  1.0000
  C   C61       1.0  0.07098  0.48262  0.18053  1.0000
  C   C62       1.0  0.97381  0.53091  0.17868  1.0000
  C   C63       1.0  0.93411  0.52077  0.76841  1.0000
  C   C64       1.0  0.01800  0.46128  0.86172  1.0000
  C   C65       1.0  0.02351  0.44901  0.19592  1.0000
  C   C66       1.0  0.02016  0.56268  0.17503  1.0000
  C   C67       1.0  0.97273  0.54784  0.80386  1.0000
  C   C68       1.0  0.98081  0.43520  0.82059  1.0000
  N   N13       1.0  0.05391  0.05617  0.25088  1.0000
  N   N14       1.0  0.94979  0.93524  0.22610  1.0000
  N   N15       1.0  0.93907  0.93656  0.78279  1.0000
  N   N16       1.0  0.05572  0.06321  0.75994  1.0000
  C   C69       1.0  0.04015  0.10498  0.26927  1.0000
  C   C70       1.0  0.96114  0.88174  0.23146  1.0000
  C   C71       1.0  0.95040  0.88410  0.78260  1.0000
  C   C72       1.0  0.04321  0.11494  0.76315  1.0000
  C   C73       1.0  0.08513  0.12642  0.30046  1.0000
  C   C74       1.0  0.91103  0.85179  0.24284  1.0000
  C   C75       1.0  0.90069  0.85645  0.78419  1.0000
  C   C76       1.0  0.09183  0.14346  0.76334  1.0000
  C   C77       1.0  0.10621  0.04738  0.26327  1.0000
  C   C78       1.0  0.89586  0.94143  0.22955  1.0000
  C   C79       1.0  0.88596  0.94413  0.78099  1.0000
  C   C80       1.0  0.10931  0.05734  0.75781  1.0000
  C   C81       1.0  0.12548  0.09198  0.29532  1.0000
  C   C82       1.0  0.87209  0.88866  0.23695  1.0000
  C   C83       1.0  0.86140  0.89219  0.78695  1.0000
  C   C84       1.0  0.13176  0.10810  0.76251  1.0000
  H   H21       1.0  0.90587  0.26202  0.40445  1.0000
  H   H22       1.0  0.07842  0.73750  0.59064  1.0000
  H   H23       1.0  0.90902  0.16496  0.40706  1.0000
  H   H24       1.0  0.07346  0.83465  0.58775  1.0000
  H   H25       1.0  0.93923  0.45167  0.19046  1.0000
  H   H26       1.0  0.10649  0.56408  0.15794  1.0000
  H   H27       1.0  0.04360  0.53656  0.88353  1.0000
  H   H28       1.0  0.90849  0.44524  0.74641  1.0000
  H   H29       1.0  0.06890  0.22476  0.10604  1.0000
  H   H30       1.0  0.93202  0.76258  0.95181  1.0000
  H   H31       1.0  0.06747  0.32049  0.11497  1.0000
  H   H32       1.0  0.93183  0.66812  0.93878  1.0000
  H   H33       1.0  0.10878  0.46360  0.17576  1.0000
  H   H34       1.0  0.93733  0.55201  0.17027  1.0000
  H   H35       1.0  0.90094  0.54415  0.73559  1.0000
  H   H36       1.0  0.04874  0.43613  0.90401  1.0000
  H   H37       1.0  0.08634  0.16288  0.32635  1.0000
  H   H38       1.0  0.90628  0.80797  0.25287  1.0000
  H   H39       1.0  0.89584  0.81499  0.78127  1.0000
  H   H40       1.0  0.09495  0.18559  0.76408  1.0000
  H   H41       1.0  0.16563  0.09664  0.30960  1.0000
  H   H42       1.0  0.83041  0.88034  0.23721  1.0000
  H   H43       1.0  0.81916  0.88375  0.79251  1.0000
  H   H44       1.0  0.17287  0.11581  0.76648  1.0000
  H   H45       1.0  0.97313  0.39820  0.63807  1.0000
  H   H46       1.0  0.38394  0.06532  0.71456  1.0000
  H   H47       1.0  0.04775  0.63440  0.70127  1.0000
  H   H48       1.0  0.63139  0.97768  0.64855  1.0000
  H   H49       1.0  0.06376  0.60923  0.30465  1.0000
  H   H50       1.0  0.61255  0.94267  0.33838  1.0000
  H   H51       1.0  0.94601  0.36130  0.32026  1.0000
  H   H52       1.0  0.36561  0.02783  0.35346  1.0000
  C   C85       1.0  0.99411  0.77407  0.13063  1.0000
  C   C86       1.0  0.01092  0.79958  0.20841  1.0000
  C  Sn1       1.0  0.04069  0.77024  0.30354  1.0000
  C  Sn2       1.0  0.05382  0.71434  0.32088  1.0000
  C   C87       1.0  0.03685  0.68921  0.24250  1.0000
  C   C88       1.0  0.00706  0.71894  0.14763  1.0000
  H   H53       1.0  0.97109  0.79708  0.05716  1.0000
  O  Te1       1.0  0.05715  0.79635  0.38045  1.0000
  O  Te2       1.0  0.08355  0.68407  0.41520  1.0000
  H   H54       1.0  0.99408  0.69920  0.08736  1.0000
  Mg  Mg1       1.0  0.09682  0.73781  0.49604  1.0000
  C   C89       1.0  0.99013  0.21428  0.89264  1.0000
  C   C90       1.0  0.98896  0.19632  0.78777  1.0000
  C  Sn3       1.0  0.98766  0.23692  0.65255  1.0000
  C  Sn4       1.0  0.98754  0.29657  0.62207  1.0000
  C   C91       1.0  0.98875  0.31410  0.72768  1.0000
  C   C92       1.0  0.99003  0.27311  0.86264  1.0000
  H   H55       1.0  0.99115  0.18258  0.99704  1.0000
  O  Te3       1.0  0.98648  0.21823  0.54903  1.0000
  O  Te4       1.0  0.98627  0.33805  0.48780  1.0000
  H   H56       1.0  0.99097  0.28704  0.94378  1.0000
  Mg  Mg2       1.0  0.98496  0.29121  0.38208  1.0000
  C   C93       1.0  0.20845  0.95842  0.85915  1.0000
  C   C94       1.0  0.18206  0.00295  0.78150  1.0000
  C  Sn5       1.0  0.21170  0.05724  0.68213  1.0000
  C  Sn6       1.0  0.26882  0.06700  0.66031  1.0000
  C   C95       1.0  0.29485  0.02215  0.73845  1.0000
  C   C96       1.0  0.26479  0.96799  0.83765  1.0000
  H   H57       1.0  0.18521  0.91651  0.93584  1.0000
  O  Te5       1.0  0.18468  0.10127  0.60550  1.0000
  O  Te6       1.0  0.29943  0.12083  0.56163  1.0000
  H   H58       1.0  0.28525  0.93351  0.89768  1.0000
  Mg  Mg3       1.0  0.24412  0.16717  0.48306  1.0000
  C   C97       1.0  0.74770  0.00385  0.86812  1.0000
  C   C98       1.0  0.79360  0.99160  0.78814  1.0000
  C  Sn7       1.0  0.79019  0.98000  0.67489  1.0000
  C  Sn8       1.0  0.73985  0.98072  0.64133  1.0000
  C   C99       1.0  0.69418  0.99307  0.72193  1.0000
  C   C100      1.0  0.69804  0.00460  0.83505  1.0000
  H   H59       1.0  0.75069  0.01280  0.95560  1.0000
  O  Te7       1.0  0.83643  0.96782  0.59611  1.0000
  O  Te8       1.0  0.73531  0.96931  0.52868  1.0000
  H   H60       1.0  0.66251  0.01411  0.89690  1.0000
  Mg  Mg4       1.0  0.80978  0.95502  0.45264  1.0000
  C   C101      1.0  0.49536  0.96268  0.18551  1.0000
  C   C102      1.0  0.44384  0.00254  0.19239  1.0000
  C  Sn9       1.0  0.46240  0.05499  0.18859  1.0000
  C  Sn10      1.0  0.51811  0.06766  0.17766  1.0000
  C   C103      1.0  0.55386  0.02752  0.17074  1.0000
  C   C104      1.0  0.53485  0.97515  0.17467  1.0000
  H   H61       1.0  0.48067  0.92218  0.18847  1.0000
  O  Te9       1.0  0.42582  0.09432  0.19562  1.0000
  O  Te10      1.0  0.53775  0.11976  0.17359  1.0000
  H   H62       1.0  0.57826  0.94432  0.16925  1.0000
  Mg  Mg5       1.0  0.47207  0.15946  0.18635  1.0000
  C   C105      1.0  0.72720  0.93192  0.36491  1.0000
  C   C106      1.0  0.68540  0.97300  0.27703  1.0000
  C  Sn11      1.0  0.71579  0.02192  0.15612  1.0000
  C  Sn12      1.0  0.77359  0.02975  0.12283  1.0000
  C   C107      1.0  0.79953  0.98838  0.21138  1.0000
  C   C108      1.0  0.78421  0.93959  0.33213  1.0000
  H   H63       1.0  0.70337  0.89415  0.45830  1.0000
  O  Te11      1.0  0.68884  0.06255  0.06949  1.0000
  O  Te12      1.0  0.80495  0.07824  0.00262  1.0000
  H   H64       1.0  0.80460  0.90778  0.40011  1.0000
  Mg  Mg6       1.0  0.64086  0.94091  0.91746  1.0000
