data_image0
_chemical_formula_structural       C34N4C4N4C16H32C14N8C16H20SnCSn2CSnTe4Mg2SnCSn2CSnTe4Mg2SnCSn2CSnTe4Mg2SnCSn2CSnTe4Mg2SnCSn2CSnTe4Mg2SnCSn2CSnTe4Mg2
_chemical_formula_sum              "C96 N16 H52 Sn24 Te24 Mg12"
_cell_length_a       25.5419
_cell_length_b       25.5914
_cell_length_c       10.8005
_cell_angle_alpha    64.9159
_cell_angle_beta     75.5144
_cell_angle_gamma    90.885

_symmetry_space_group_name_H-M    'P1'
_space_group_IT_number       1

loop_
  _space_group_symop_operation_xyz
  'x, y, z'

loop_
  _atom_site_type_symbol
  _atom_site_label
  _atom_site_symmetry_multiplicity
  _atom_site_fract_x
  _atom_site_fract_y
  _atom_site_fract_z
  _atom_site_occupancy
  C   C1        1.0  0.30378  0.01848  0.25299  1.0000
  C   C2        1.0  0.69725  0.98450  0.24851  1.0000
  C   C3        1.0  0.69525  0.98790  0.74311  1.0000
  C   C4        1.0  0.30365  0.01935  0.76164  1.0000
  C   C5        1.0  0.26064  0.01109  0.37123  1.0000
  C   C6        1.0  0.71609  0.93957  0.35077  1.0000
  C   C7        1.0  0.73695  0.97922  0.64360  1.0000
  C   C8        1.0  0.28546  0.06702  0.66545  1.0000
  C   C9        1.0  0.20657  0.00488  0.36962  1.0000
  C   C10       1.0  0.77144  0.94056  0.34285  1.0000
  C   C11       1.0  0.79086  0.98158  0.64982  1.0000
  C   C12       1.0  0.23223  0.06382  0.65630  1.0000
  C   C13       1.0  0.48032  0.06487  0.18319  1.0000
  C   C14       1.0  0.53671  0.97135  0.18924  1.0000
  C   C15       1.0  0.19404  0.00863  0.24672  1.0000
  C   C16       1.0  0.81031  0.98602  0.23090  1.0000
  C   C17       1.0  0.80403  0.99233  0.75687  1.0000
  C   C18       1.0  0.19417  0.01364  0.74861  1.0000
  C   C19       1.0  0.13628  0.00464  0.24245  1.0000
  C   C20       1.0  0.86907  0.98976  0.22568  1.0000
  C   C21       1.0  0.86085  0.99405  0.76832  1.0000
  C   C22       1.0  0.13595  0.01037  0.75072  1.0000
  C   C23       1.0  0.35984  0.02082  0.26336  1.0000
  C   C24       1.0  0.63924  0.98288  0.25755  1.0000
  C   C25       1.0  0.63899  0.98547  0.73576  1.0000
  C   C26       1.0  0.36008  0.02208  0.76523  1.0000
  C   C27       1.0  0.23734  0.01754  0.12658  1.0000
  C   C28       1.0  0.79117  0.02981  0.12679  1.0000
  C   C29       1.0  0.76196  0.00107  0.85565  1.0000
  C   C30       1.0  0.21285  0.96653  0.84603  1.0000
  C   C31       1.0  0.29134  0.02110  0.13043  1.0000
  C   C32       1.0  0.73605  0.03011  0.13744  1.0000
  C   C33       1.0  0.70839  0.99905  0.84958  1.0000
  C   C34       1.0  0.26634  0.96861  0.85098  1.0000
  N   N1        1.0  0.39949  0.01257  0.17744  1.0000
  N   N2        1.0  0.61963  0.02675  0.17649  1.0000
  N   N3        1.0  0.60022  0.99311  0.82579  1.0000
  N   N4        1.0  0.38190  0.97552  0.82000  1.0000
  C   C35       1.0  0.48246  0.96938  0.18857  1.0000
  C   C36       1.0  0.53554  0.06825  0.17618  1.0000
  C   C37       1.0  0.45304  0.01556  0.18774  1.0000
  C   C38       1.0  0.56416  0.02085  0.18400  1.0000
  N   N5        1.0  0.06268  0.94539  0.22719  1.0000
  N   N6        1.0  0.94407  0.05036  0.23292  1.0000
  N   N7        1.0  0.93861  0.05267  0.77148  1.0000
  N   N8        1.0  0.05585  0.94795  0.76707  1.0000
  C   C39       1.0  0.11632  0.95926  0.21719  1.0000
  C   C40       1.0  0.89263  0.04106  0.22177  1.0000
  C   C41       1.0  0.88634  0.04470  0.76365  1.0000
  C   C42       1.0  0.11027  0.95988  0.75448  1.0000
  C   C43       1.0  0.14954  0.91806  0.18619  1.0000
  C   C44       1.0  0.86341  0.09065  0.21255  1.0000
  C   C45       1.0  0.85976  0.09639  0.74697  1.0000
  C   C46       1.0  0.13944  0.91236  0.74705  1.0000
  C   C47       1.0  0.06086  0.89551  0.20900  1.0000
  C   C48       1.0  0.94765  0.10411  0.23258  1.0000
  C   C49       1.0  0.94567  0.10810  0.76030  1.0000
  C   C50       1.0  0.04981  0.89352  0.77115  1.0000
  C   C51       1.0  0.11533  0.87880  0.17834  1.0000
  C   C52       1.0  0.89838  0.13054  0.21361  1.0000
  C   C53       1.0  0.89647  0.13542  0.74745  1.0000
  C   C54       1.0  0.10172  0.87048  0.76199  1.0000
  H   H1        1.0  0.26959  0.00907  0.46649  1.0000
  H   H2        1.0  0.68676  0.90403  0.43830  1.0000
  H   H3        1.0  0.72713  0.97095  0.56042  1.0000
  H   H4        1.0  0.31409  0.10653  0.59647  1.0000
  H   H5        1.0  0.17357  0.99676  0.46411  1.0000
  H   H6        1.0  0.78508  0.90673  0.42571  1.0000
  H   H7        1.0  0.82283  0.97547  0.57127  1.0000
  H   H8        1.0  0.21970  0.10043  0.57749  1.0000
  H   H9        1.0  0.45860  0.10166  0.17781  1.0000
  H   H10       1.0  0.55949  0.93626  0.18455  1.0000
  H   H11       1.0  0.22832  0.02169  0.02969  1.0000
  H   H12       1.0  0.82086  0.06394  0.03663  1.0000
  H   H13       1.0  0.77179  0.00824  0.93972  1.0000
  H   H14       1.0  0.18313  0.92895  0.92165  1.0000
  H   H15       1.0  0.32439  0.02629  0.03881  1.0000
  H   H16       1.0  0.72164  0.06435  0.05727  1.0000
  H   H17       1.0  0.67601  0.00580  0.92630  1.0000
  H   H18       1.0  0.28010  0.93194  0.92696  1.0000
  H   H19       1.0  0.46184  0.93297  0.18470  1.0000
  H   H20       1.0  0.55753  0.10691  0.16800  1.0000
  H   H21       1.0  0.19307  0.91968  0.16934  1.0000
  H   H22       1.0  0.82179  0.09437  0.20613  1.0000
  H   H23       1.0  0.81891  0.10191  0.73632  1.0000
  H   H24       1.0  0.18283  0.91156  0.72980  1.0000
  H   H25       1.0  0.12562  0.84339  0.15028  1.0000
  H   H26       1.0  0.89169  0.17398  0.20109  1.0000
  H   H27       1.0  0.89206  0.17890  0.73732  1.0000
  H   H28       1.0  0.10838  0.82793  0.76852  1.0000
  H   H29       1.0  0.96696  0.96677  0.77904  1.0000
  H   H30       1.0  0.02895  0.03256  0.76212  1.0000
  H   H31       1.0  0.02807  0.03097  0.23244  1.0000
  H   H32       1.0  0.97783  0.96501  0.22344  1.0000
  C   C55       1.0  0.98681  0.29803  0.25968  1.0000
  C   C56       1.0  0.94175  0.25369  0.33980  1.0000
  C   C57       1.0  0.94349  0.19925  0.33993  1.0000
  C   C58       1.0  0.98942  0.18729  0.25746  1.0000
  C   C59       1.0  0.99201  0.13008  0.25336  1.0000
  C   C60       1.0  0.01290  0.86234  0.22288  1.0000
  C   C61       1.0  0.00139  0.86330  0.77688  1.0000
  C   C62       1.0  0.99334  0.13675  0.75980  1.0000
  C   C63       1.0  0.98548  0.35434  0.26287  1.0000
  C   C64       1.0  0.03861  0.63593  0.23902  1.0000
  C   C65       1.0  0.00732  0.64100  0.75417  1.0000
  C   C66       1.0  0.97982  0.36534  0.73706  1.0000
  C   C67       1.0  0.03386  0.23260  0.17426  1.0000
  C   C68       1.0  0.03310  0.28614  0.17816  1.0000
  N   N9        1.0  0.02816  0.39375  0.20189  1.0000
  N   N10       1.0  0.01396  0.61726  0.17125  1.0000
  N   N11       1.0  0.96550  0.60196  0.80467  1.0000
  N   N12       1.0  0.98601  0.37853  0.83561  1.0000
  N   N13       1.0  0.05391  0.05617  0.25088  1.0000
  N   N14       1.0  0.94979  0.93524  0.22610  1.0000
  N   N15       1.0  0.93907  0.93656  0.78279  1.0000
  N   N16       1.0  0.05572  0.06321  0.75994  1.0000
  C   C69       1.0  0.04015  0.10498  0.26927  1.0000
  C   C70       1.0  0.96114  0.88174  0.23146  1.0000
  C   C71       1.0  0.95040  0.88410  0.78260  1.0000
  C   C72       1.0  0.04321  0.11494  0.76315  1.0000
  C   C73       1.0  0.08513  0.12642  0.30046  1.0000
  C   C74       1.0  0.91103  0.85179  0.24284  1.0000
  C   C75       1.0  0.90069  0.85645  0.78419  1.0000
  C   C76       1.0  0.09183  0.14346  0.76334  1.0000
  C   C77       1.0  0.10621  0.04738  0.26327  1.0000
  C   C78       1.0  0.89586  0.94143  0.22955  1.0000
  C   C79       1.0  0.88596  0.94413  0.78099  1.0000
  C   C80       1.0  0.10931  0.05734  0.75781  1.0000
  C   C81       1.0  0.12548  0.09198  0.29532  1.0000
  C   C82       1.0  0.87209  0.88866  0.23695  1.0000
  C   C83       1.0  0.86140  0.89219  0.78695  1.0000
  C   C84       1.0  0.13176  0.10810  0.76251  1.0000
  H   H33       1.0  0.90587  0.26202  0.40445  1.0000
  H   H34       1.0  0.90902  0.16496  0.40706  1.0000
  H   H35       1.0  0.06890  0.22476  0.10604  1.0000
  H   H36       1.0  0.06747  0.32049  0.11497  1.0000
  H   H37       1.0  0.08634  0.16288  0.32635  1.0000
  H   H38       1.0  0.90628  0.80797  0.25287  1.0000
  H   H39       1.0  0.89584  0.81499  0.78127  1.0000
  H   H40       1.0  0.09495  0.18559  0.76408  1.0000
  H   H41       1.0  0.16563  0.09664  0.30960  1.0000
  H   H42       1.0  0.83041  0.88034  0.23721  1.0000
  H   H43       1.0  0.81916  0.88375  0.79251  1.0000
  H   H44       1.0  0.17287  0.11581  0.76648  1.0000
  H   H45       1.0  0.97313  0.39820  0.63807  1.0000
  H   H46       1.0  0.38394  0.06532  0.71456  1.0000
  H   H47       1.0  0.04775  0.63440  0.70127  1.0000
  H   H48       1.0  0.63139  0.97768  0.64855  1.0000
  H   H49       1.0  0.06376  0.60923  0.30465  1.0000
  H   H50       1.0  0.61255  0.94267  0.33838  1.0000
  H   H51       1.0  0.94601  0.36130  0.32026  1.0000
  H   H52       1.0  0.36561  0.02783  0.35346  1.0000
  C  Sn1       1.0  0.92195  0.50201  0.80668  1.0000
  C   C85       1.0  0.95605  0.53438  0.83959  1.0000
  C  Sn2       1.0  0.00725  0.51884  0.85294  1.0000
  C  Sn3       1.0  0.02476  0.46994  0.83288  1.0000
  C   C86       1.0  0.99069  0.43761  0.79997  1.0000
  C  Sn4       1.0  0.93947  0.45311  0.78662  1.0000
  O  Te1       1.0  0.87093  0.51835  0.79384  1.0000
  O  Te2       1.0  0.04060  0.55186  0.88596  1.0000
  O  Te3       1.0  0.07583  0.45362  0.84575  1.0000
  O  Te4       1.0  0.90613  0.42013  0.75360  1.0000
  Mg  Mg1       1.0  0.10657  0.51229  0.89205  1.0000
  Mg  Mg2       1.0  0.84017  0.45967  0.74741  1.0000
  C  Sn5       1.0  0.06478  0.76109  0.29155  1.0000
  C   C87       1.0  0.03467  0.80182  0.21671  1.0000
  C  Sn6       1.0  0.99807  0.78585  0.15784  1.0000
  C  Sn7       1.0  0.99140  0.72794  0.17417  1.0000
  C   C88       1.0  0.02149  0.68724  0.24899  1.0000
  C  Sn8       1.0  0.05811  0.70318  0.30789  1.0000
  O  Te5       1.0  0.10114  0.77802  0.34952  1.0000
  O  Te6       1.0  0.96843  0.82735  0.08343  1.0000
  O  Te7       1.0  0.95501  0.71104  0.11612  1.0000
  O  Te8       1.0  0.08773  0.66172  0.38228  1.0000
  Mg  Mg3       1.0  0.92389  0.78324  0.02400  1.0000
  Mg  Mg4       1.0  0.13226  0.70577  0.44181  1.0000
  C  Sn9       1.0  0.96873  0.73955  0.90302  1.0000
  C   C89       1.0  0.00553  0.79061  0.81592  1.0000
  C  Sn10      1.0  0.04087  0.79751  0.68663  1.0000
  C  Sn11      1.0  0.03939  0.75247  0.64344  1.0000
  C   C90       1.0  0.00261  0.70145  0.73050  1.0000
  C  Sn12      1.0  0.96725  0.69450  0.85983  1.0000
  O  Te9       1.0  0.04234  0.91418  0.03183  1.0000
  O  Te10      1.0  0.07731  0.84894  0.60139  1.0000
  O  Te11      1.0  0.07439  0.75847  0.51452  1.0000
  O  Te12      1.0  0.93082  0.64311  0.94503  1.0000
  Mg  Mg5       1.0  0.11674  0.83658  0.43529  1.0000
  Mg  Mg6       1.0  0.99993  0.83603  0.11111  1.0000
  C  Sn13      1.0  0.47303  0.03692  0.82288  1.0000
  C   C91       1.0  0.44445  0.99928  0.79160  1.0000
  C  Sn14      1.0  0.46578  0.94988  0.78776  1.0000
  C  Sn15      1.0  0.51673  0.93783  0.81587  1.0000
  C   C92       1.0  0.54528  0.97545  0.84715  1.0000
  C  Sn16      1.0  0.52399  0.02487  0.85098  1.0000
  O  Te13      1.0  0.45093  0.08605  0.82614  1.0000
  O  Te14      1.0  0.43646  0.91289  0.75620  1.0000
  O  Te15      1.0  0.53882  0.88865  0.81258  1.0000
  O  Te16      1.0  0.55327  0.06183  0.88255  1.0000
  Mg  Mg7       1.0  0.49899  0.85142  0.76451  1.0000
  Mg  Mg8       1.0  0.50625  0.12330  0.87434  1.0000
  C  Sn17      1.0  0.00572  0.26024  0.60475  1.0000
  C   C93       1.0  0.00607  0.20805  0.72155  1.0000
  C  Sn18      1.0  0.98991  0.20362  0.85951  1.0000
  C  Sn19      1.0  0.97300  0.25236  0.88122  1.0000
  C   C94       1.0  0.97264  0.30451  0.76448  1.0000
  C  Sn20      1.0  0.98881  0.30899  0.62646  1.0000
  O  Te17      1.0  0.02204  0.26369  0.46777  1.0000
  O  Te18      1.0  0.99063  0.15098  0.97460  1.0000
  O  Te19      1.0  0.06524  0.42947  0.01835  1.0000
  O  Te20      1.0  0.98808  0.36158  0.51143  1.0000
  Mg  Mg9       1.0  0.07325  0.34841  0.14089  1.0000
  Mg  Mg10      1.0  0.01399  0.34479  0.34511  1.0000
  C  Sn21      1.0  0.97516  0.49289  0.14661  1.0000
  C   C95       1.0  0.01889  0.46061  0.15427  1.0000
  C  Sn22      1.0  0.06456  0.47792  0.18396  1.0000
  C  Sn23      1.0  0.06655  0.52853  0.20655  1.0000
  C   C96       1.0  0.02285  0.56077  0.19891  1.0000
  C  Sn24      1.0  0.97716  0.54349  0.16920  1.0000
  O  Te21      1.0  0.92992  0.47477  0.11680  1.0000
  O  Te22      1.0  0.10777  0.44496  0.19103  1.0000
  O  Te23      1.0  0.11185  0.54663  0.23638  1.0000
  O  Te24      1.0  0.93396  0.57642  0.16216  1.0000
  Mg  Mg11      1.0  0.16048  0.48730  0.23490  1.0000
  Mg  Mg12      1.0  0.88122  0.53411  0.11837  1.0000
