data_image0
_chemical_formula_structural       C8N8C16H12C8N8C16H16C2Sn2C2HTe2HMgC2Sn2C2HTe2HMgC2Sn2C2HTe2HMgC2Sn2C2HTe2HMgC2Sn2C2HTe2HMgC2Sn2C2HTe2HMgC2Sn2C2HTe2HMgC2Sn2C2HTe2HMgC2Sn2C2HTe2HMgC2Sn2C2HTe2HMgC2Sn2C2HTe2HMgC2Sn2C2HTe2HMg
_chemical_formula_sum              "C96 N16 H52 Sn24 Te24 Mg12"
_cell_length_a       25.5419
_cell_length_b       25.5914
_cell_length_c       10.8005
_cell_angle_alpha    64.9159
_cell_angle_beta     75.5144
_cell_angle_gamma    90.885

_symmetry_space_group_name_H-M    'P1'
_space_group_IT_number       1

loop_
  _space_group_symop_operation_xyz
  'x, y, z'

loop_
  _atom_site_type_symbol
  _atom_site_label
  _atom_site_symmetry_multiplicity
  _atom_site_fract_x
  _atom_site_fract_y
  _atom_site_fract_z
  _atom_site_occupancy
  C   C1        1.0  0.13628  0.00464  0.24245  1.0000
  C   C2        1.0  0.86907  0.98976  0.22568  1.0000
  C   C3        1.0  0.86085  0.99405  0.76832  1.0000
  C   C4        1.0  0.13595  0.01037  0.75072  1.0000
  C   C5        1.0  0.35984  0.02082  0.26336  1.0000
  C   C6        1.0  0.63924  0.98288  0.25755  1.0000
  C   C7        1.0  0.63899  0.98547  0.73576  1.0000
  C   C8        1.0  0.36008  0.02208  0.76523  1.0000
  N   N1        1.0  0.39949  0.01257  0.17744  1.0000
  N   N2        1.0  0.61963  0.02675  0.17649  1.0000
  N   N3        1.0  0.60022  0.99311  0.82579  1.0000
  N   N4        1.0  0.38190  0.97552  0.82000  1.0000
  N   N5        1.0  0.06268  0.94539  0.22719  1.0000
  N   N6        1.0  0.94407  0.05036  0.23292  1.0000
  N   N7        1.0  0.93861  0.05267  0.77148  1.0000
  N   N8        1.0  0.05585  0.94795  0.76707  1.0000
  C   C9        1.0  0.11632  0.95926  0.21719  1.0000
  C   C10       1.0  0.89263  0.04106  0.22177  1.0000
  C   C11       1.0  0.88634  0.04470  0.76365  1.0000
  C   C12       1.0  0.11027  0.95988  0.75448  1.0000
  C   C13       1.0  0.14954  0.91806  0.18619  1.0000
  C   C14       1.0  0.86341  0.09065  0.21255  1.0000
  C   C15       1.0  0.85976  0.09639  0.74697  1.0000
  C   C16       1.0  0.13944  0.91236  0.74705  1.0000
  C   C17       1.0  0.06086  0.89551  0.20900  1.0000
  C   C18       1.0  0.94765  0.10411  0.23258  1.0000
  C   C19       1.0  0.94567  0.10810  0.76030  1.0000
  C   C20       1.0  0.04981  0.89352  0.77115  1.0000
  C   C21       1.0  0.11533  0.87880  0.17834  1.0000
  C   C22       1.0  0.89838  0.13054  0.21361  1.0000
  C   C23       1.0  0.89647  0.13542  0.74745  1.0000
  C   C24       1.0  0.10172  0.87048  0.76199  1.0000
  H   H1        1.0  0.19307  0.91968  0.16934  1.0000
  H   H2        1.0  0.82179  0.09437  0.20613  1.0000
  H   H3        1.0  0.81891  0.10191  0.73632  1.0000
  H   H4        1.0  0.18283  0.91156  0.72980  1.0000
  H   H5        1.0  0.12562  0.84339  0.15028  1.0000
  H   H6        1.0  0.89169  0.17398  0.20109  1.0000
  H   H7        1.0  0.89206  0.17890  0.73732  1.0000
  H   H8        1.0  0.10838  0.82793  0.76852  1.0000
  H   H9        1.0  0.96696  0.96677  0.77904  1.0000
  H   H10       1.0  0.02895  0.03256  0.76212  1.0000
  H   H11       1.0  0.02807  0.03097  0.23244  1.0000
  H   H12       1.0  0.97783  0.96501  0.22344  1.0000
  C   C25       1.0  0.99201  0.13008  0.25336  1.0000
  C   C26       1.0  0.01290  0.86234  0.22288  1.0000
  C   C27       1.0  0.00139  0.86330  0.77688  1.0000
  C   C28       1.0  0.99334  0.13675  0.75980  1.0000
  C   C29       1.0  0.98548  0.35434  0.26287  1.0000
  C   C30       1.0  0.03861  0.63593  0.23902  1.0000
  C   C31       1.0  0.00732  0.64100  0.75417  1.0000
  C   C32       1.0  0.97982  0.36534  0.73706  1.0000
  N   N9        1.0  0.02816  0.39375  0.20189  1.0000
  N   N10       1.0  0.01396  0.61726  0.17125  1.0000
  N   N11       1.0  0.96550  0.60196  0.80467  1.0000
  N   N12       1.0  0.98601  0.37853  0.83561  1.0000
  N   N13       1.0  0.05391  0.05617  0.25088  1.0000
  N   N14       1.0  0.94979  0.93524  0.22610  1.0000
  N   N15       1.0  0.93907  0.93656  0.78279  1.0000
  N   N16       1.0  0.05572  0.06321  0.75994  1.0000
  C   C33       1.0  0.04015  0.10498  0.26927  1.0000
  C   C34       1.0  0.96114  0.88174  0.23146  1.0000
  C   C35       1.0  0.95040  0.88410  0.78260  1.0000
  C   C36       1.0  0.04321  0.11494  0.76315  1.0000
  C   C37       1.0  0.08513  0.12642  0.30046  1.0000
  C   C38       1.0  0.91103  0.85179  0.24284  1.0000
  C   C39       1.0  0.90069  0.85645  0.78419  1.0000
  C   C40       1.0  0.09183  0.14346  0.76334  1.0000
  C   C41       1.0  0.10621  0.04738  0.26327  1.0000
  C   C42       1.0  0.89586  0.94143  0.22955  1.0000
  C   C43       1.0  0.88596  0.94413  0.78099  1.0000
  C   C44       1.0  0.10931  0.05734  0.75781  1.0000
  C   C45       1.0  0.12548  0.09198  0.29532  1.0000
  C   C46       1.0  0.87209  0.88866  0.23695  1.0000
  C   C47       1.0  0.86140  0.89219  0.78695  1.0000
  C   C48       1.0  0.13176  0.10810  0.76251  1.0000
  H   H13       1.0  0.08634  0.16288  0.32635  1.0000
  H   H14       1.0  0.90628  0.80797  0.25287  1.0000
  H   H15       1.0  0.89584  0.81499  0.78127  1.0000
  H   H16       1.0  0.09495  0.18559  0.76408  1.0000
  H   H17       1.0  0.16563  0.09664  0.30960  1.0000
  H   H18       1.0  0.83041  0.88034  0.23721  1.0000
  H   H19       1.0  0.81916  0.88375  0.79251  1.0000
  H   H20       1.0  0.17287  0.11581  0.76648  1.0000
  H   H21       1.0  0.97313  0.39820  0.63807  1.0000
  H   H22       1.0  0.38394  0.06532  0.71456  1.0000
  H   H23       1.0  0.04775  0.63440  0.70127  1.0000
  H   H24       1.0  0.63139  0.97768  0.64855  1.0000
  H   H25       1.0  0.06376  0.60923  0.30465  1.0000
  H   H26       1.0  0.61255  0.94267  0.33838  1.0000
  H   H27       1.0  0.94601  0.36130  0.32026  1.0000
  H   H28       1.0  0.36561  0.02783  0.35346  1.0000
  C   C49       1.0  0.28145  0.02010  0.11086  1.0000
  C   C50       1.0  0.30207  0.01994  0.21927  1.0000
  C  Sn1       1.0  0.26652  0.01196  0.34931  1.0000
  C  Sn2       1.0  0.20928  0.00399  0.37092  1.0000
  C   C51       1.0  0.18906  0.00418  0.26182  1.0000
  C   C52       1.0  0.22500  0.01222  0.13210  1.0000
  H   H29       1.0  0.30926  0.02629  0.01051  1.0000
  O  Te1       1.0  0.28781  0.01195  0.45647  1.0000
  O  Te2       1.0  0.17283  0.99590  0.49986  1.0000
  H   H30       1.0  0.20903  0.01230  0.04822  1.0000
  Mg  Mg1       1.0  0.22162  0.99929  0.61354  1.0000
  C   C53       1.0  0.75707  0.93362  0.36409  1.0000
  C   C54       1.0  0.78589  0.97293  0.25703  1.0000
  C  Sn3       1.0  0.77721  0.02109  0.14245  1.0000
  C  Sn4       1.0  0.72315  0.02996  0.13523  1.0000
  C   C55       1.0  0.67911  0.99041  0.24292  1.0000
  C   C56       1.0  0.68825  0.94235  0.35708  1.0000
  H   H31       1.0  0.76414  0.89645  0.45245  1.0000
  O  Te3       1.0  0.82193  0.05992  0.03637  1.0000
  O  Te4       1.0  0.71331  0.07774  0.02194  1.0000
  H   H32       1.0  0.66943  0.91194  0.44000  1.0000
  Mg  Mg2       1.0  0.67905  0.93790  0.90334  1.0000
  C   C57       1.0  0.76521  0.97789  0.63409  1.0000
  C   C58       1.0  0.78716  0.99266  0.72313  1.0000
  C  Sn5       1.0  0.75298  0.00287  0.83135  1.0000
  C  Sn6       1.0  0.69579  0.99816  0.85054  1.0000
  C   C59       1.0  0.67423  0.98333  0.76096  1.0000
  C   C60       1.0  0.70881  0.97322  0.65298  1.0000
  H   H33       1.0  0.79196  0.97004  0.55058  1.0000
  O  Te5       1.0  0.77558  0.01760  0.91932  1.0000
  O  Te6       1.0  0.66069  0.00811  0.95790  1.0000
  H   H34       1.0  0.69180  0.96175  0.58411  1.0000
  Mg  Mg3       1.0  0.81953  0.20762  0.05060  1.0000
  C   C61       1.0  0.24545  0.07320  0.64607  1.0000
  C   C62       1.0  0.20452  0.02516  0.71571  1.0000
  C  Sn7       1.0  0.21290  0.97284  0.81956  1.0000
  C  Sn8       1.0  0.26322  0.96867  0.85412  1.0000
  C   C63       1.0  0.30389  0.01699  0.78390  1.0000
  C   C64       1.0  0.29509  0.06913  0.68013  1.0000
  H   H35       1.0  0.23863  0.11355  0.56583  1.0000
  O  Te7       1.0  0.17158  0.92526  0.88808  1.0000
  O  Te8       1.0  0.27266  0.91691  0.95752  1.0000
  H   H36       1.0  0.32677  0.10633  0.62628  1.0000
  Mg  Mg4       1.0  0.31242  0.04471  0.02136  1.0000
  C   C65       1.0  0.49536  0.96268  0.18551  1.0000
  C   C66       1.0  0.44384  0.00254  0.19239  1.0000
  C  Sn9       1.0  0.46240  0.05499  0.18859  1.0000
  C  Sn10      1.0  0.51811  0.06766  0.17766  1.0000
  C   C67       1.0  0.55386  0.02752  0.17074  1.0000
  C   C68       1.0  0.53485  0.97515  0.17467  1.0000
  H   H37       1.0  0.48067  0.92218  0.18847  1.0000
  O  Te9       1.0  0.42582  0.09432  0.19562  1.0000
  O  Te10      1.0  0.53775  0.11976  0.17359  1.0000
  H   H38       1.0  0.57826  0.94432  0.16925  1.0000
  Mg  Mg5       1.0  0.47207  0.15946  0.18635  1.0000
  C   C69       1.0  0.46766  0.93768  0.78131  1.0000
  C   C70       1.0  0.42676  0.96634  0.82764  1.0000
  C  Sn11      1.0  0.43953  0.00869  0.86895  1.0000
  C  Sn12      1.0  0.49430  0.02252  0.86363  1.0000
  C   C71       1.0  0.53493  0.99363  0.81703  1.0000
  C   C72       1.0  0.52169  0.95131  0.77598  1.0000
  H   H39       1.0  0.45742  0.90496  0.74948  1.0000
  O  Te11      1.0  0.39816  0.03689  0.91502  1.0000
  O  Te12      1.0  0.50821  0.06468  0.90425  1.0000
  H   H40       1.0  0.55338  0.92916  0.74002  1.0000
  Mg  Mg6       1.0  0.43744  0.09112  0.95938  1.0000
  C   C73       1.0  0.04049  0.24799  0.15924  1.0000
  C   C74       1.0  0.00192  0.19792  0.23752  1.0000
  C  Sn13      1.0  0.95261  0.19880  0.32843  1.0000
  C  Sn14      1.0  0.94182  0.25084  0.34096  1.0000
  C   C75       1.0  0.98066  0.30071  0.26212  1.0000
  C   C76       1.0  0.02988  0.29934  0.17149  1.0000
  H   H41       1.0  0.07856  0.24695  0.08906  1.0000
  O  Te13      1.0  0.91453  0.14838  0.40590  1.0000
  O  Te14      1.0  0.89286  0.25293  0.43100  1.0000
  H   H42       1.0  0.05972  0.33812  0.11083  1.0000
  Mg  Mg7       1.0  0.85379  0.17295  0.51453  1.0000
  C   C77       1.0  0.99411  0.77407  0.13063  1.0000
  C   C78       1.0  0.01092  0.79958  0.20841  1.0000
  C  Sn15      1.0  0.04069  0.77024  0.30354  1.0000
  C  Sn16      1.0  0.05382  0.71434  0.32088  1.0000
  C   C79       1.0  0.03685  0.68921  0.24250  1.0000
  C   C80       1.0  0.00706  0.71894  0.14763  1.0000
  H   H43       1.0  0.97109  0.79708  0.05716  1.0000
  O  Te15      1.0  0.05715  0.79635  0.38045  1.0000
  O  Te16      1.0  0.08355  0.68407  0.41520  1.0000
  H   H44       1.0  0.99408  0.69920  0.08736  1.0000
  Mg  Mg8       1.0  0.09682  0.73781  0.49604  1.0000
  C   C81       1.0  0.95551  0.74315  0.88051  1.0000
  C   C82       1.0  0.99475  0.79271  0.80468  1.0000
  C  Sn17      1.0  0.03973  0.79507  0.69666  1.0000
  C  Sn18      1.0  0.04541  0.74686  0.66418  1.0000
  C   C83       1.0  0.00591  0.69750  0.74059  1.0000
  C   C84       1.0  0.96107  0.69560  0.84850  1.0000
  H   H45       1.0  0.92081  0.74168  0.96395  1.0000
  O  Te17      1.0  0.07856  0.84491  0.62199  1.0000
  O  Te18      1.0  0.08995  0.74807  0.55670  1.0000
  H   H46       1.0  0.93068  0.65724  0.90713  1.0000
  Mg  Mg9       1.0  0.13207  0.82576  0.48492  1.0000
  C   C85       1.0  0.98774  0.25898  0.60753  1.0000
  C   C86       1.0  0.99383  0.20753  0.71831  1.0000
  C  Sn19      1.0  0.99238  0.20577  0.85022  1.0000
  C  Sn20      1.0  0.98467  0.25651  0.87130  1.0000
  C   C87       1.0  0.97858  0.30775  0.75983  1.0000
  C   C88       1.0  0.98012  0.30905  0.62825  1.0000
  H   H47       1.0  0.98890  0.25998  0.50575  1.0000
  O  Te19      1.0  0.99854  0.15401  0.95975  1.0000
  O  Te20      1.0  0.09160  0.43654  0.00208  1.0000
  H   H48       1.0  0.97537  0.34887  0.54252  1.0000
  Mg  Mg10      1.0  0.10197  0.35558  0.11869  1.0000
  C   C89       1.0  0.07880  0.49649  0.17392  1.0000
  C   C90       1.0  0.03587  0.45648  0.19425  1.0000
  C  Sn21      1.0  0.98374  0.47246  0.19575  1.0000
  C  Sn22      1.0  0.97454  0.52959  0.17649  1.0000
  C   C91       1.0  0.01776  0.56931  0.15614  1.0000
  C   C92       1.0  0.06976  0.55286  0.15486  1.0000
  H   H49       1.0  0.11904  0.48378  0.17286  1.0000
  O  Te21      1.0  0.94131  0.43193  0.21624  1.0000
  O  Te22      1.0  0.92285  0.54671  0.17748  1.0000
  H   H50       1.0  0.10299  0.58386  0.13903  1.0000
  Mg  Mg11      1.0  0.87810  0.47590  0.20921  1.0000
  C   C93       1.0  0.92957  0.50927  0.75907  1.0000
  C   C94       1.0  0.95958  0.53993  0.80510  1.0000
  C  Sn23      1.0  0.00343  0.51746  0.85636  1.0000
  C  Sn24      1.0  0.01741  0.46328  0.86147  1.0000
  C   C95       1.0  0.98717  0.43296  0.81508  1.0000
  C   C96       1.0  0.94335  0.45584  0.76402  1.0000
  H   H51       1.0  0.89569  0.52698  0.71949  1.0000
  O  Te23      1.0  0.03296  0.54865  0.90198  1.0000
  O  Te24      1.0  0.06106  0.43983  0.91216  1.0000
  H   H52       1.0  0.92015  0.43211  0.72830  1.0000
  Mg  Mg12      1.0  0.08897  0.49866  0.96233  1.0000
