data_image0
_chemical_formula_structural       C8N8C16H12C8N8C16H16SnCSn2CSnTe4Mg2SnCSn2CSnTe4Mg2SnCSn2CSnTe4Mg2SnCSn2CSnTe4Mg2SnCSn2CSnTe4Mg2SnCSn2CSnTe4Mg2SnCSn2CSnTe4Mg2SnCSn2CSnTe4Mg2SnCSn2CSnTe4Mg2SnCSn2CSnTe4Mg2SnCSn2CSnTe4Mg2SnCSn2CSnTe4Mg2
_chemical_formula_sum              "C72 N16 H28 Sn48 Te48 Mg24"
_cell_length_a       25.5419
_cell_length_b       25.5914
_cell_length_c       10.8005
_cell_angle_alpha    64.9159
_cell_angle_beta     75.5144
_cell_angle_gamma    90.885

_symmetry_space_group_name_H-M    'P1'
_space_group_IT_number       1

loop_
  _space_group_symop_operation_xyz
  'x, y, z'

loop_
  _atom_site_type_symbol
  _atom_site_label
  _atom_site_symmetry_multiplicity
  _atom_site_fract_x
  _atom_site_fract_y
  _atom_site_fract_z
  _atom_site_occupancy
  C   C1        1.0  0.13628  0.00464  0.24245  1.0000
  C   C2        1.0  0.86907  0.98976  0.22568  1.0000
  C   C3        1.0  0.86085  0.99405  0.76832  1.0000
  C   C4        1.0  0.13595  0.01037  0.75072  1.0000
  C   C5        1.0  0.35984  0.02082  0.26336  1.0000
  C   C6        1.0  0.63924  0.98288  0.25755  1.0000
  C   C7        1.0  0.63899  0.98547  0.73576  1.0000
  C   C8        1.0  0.36008  0.02208  0.76523  1.0000
  N   N1        1.0  0.39949  0.01257  0.17744  1.0000
  N   N2        1.0  0.61963  0.02675  0.17649  1.0000
  N   N3        1.0  0.60022  0.99311  0.82579  1.0000
  N   N4        1.0  0.38190  0.97552  0.82000  1.0000
  N   N5        1.0  0.06268  0.94539  0.22719  1.0000
  N   N6        1.0  0.94407  0.05036  0.23292  1.0000
  N   N7        1.0  0.93861  0.05267  0.77148  1.0000
  N   N8        1.0  0.05585  0.94795  0.76707  1.0000
  C   C9        1.0  0.11632  0.95926  0.21719  1.0000
  C   C10       1.0  0.89263  0.04106  0.22177  1.0000
  C   C11       1.0  0.88634  0.04470  0.76365  1.0000
  C   C12       1.0  0.11027  0.95988  0.75448  1.0000
  C   C13       1.0  0.14954  0.91806  0.18619  1.0000
  C   C14       1.0  0.86341  0.09065  0.21255  1.0000
  C   C15       1.0  0.85976  0.09639  0.74697  1.0000
  C   C16       1.0  0.13944  0.91236  0.74705  1.0000
  C   C17       1.0  0.06086  0.89551  0.20900  1.0000
  C   C18       1.0  0.94765  0.10411  0.23258  1.0000
  C   C19       1.0  0.94567  0.10810  0.76030  1.0000
  C   C20       1.0  0.04981  0.89352  0.77115  1.0000
  C   C21       1.0  0.11533  0.87880  0.17834  1.0000
  C   C22       1.0  0.89838  0.13054  0.21361  1.0000
  C   C23       1.0  0.89647  0.13542  0.74745  1.0000
  C   C24       1.0  0.10172  0.87048  0.76199  1.0000
  H   H1        1.0  0.19307  0.91968  0.16934  1.0000
  H   H2        1.0  0.82179  0.09437  0.20613  1.0000
  H   H3        1.0  0.81891  0.10191  0.73632  1.0000
  H   H4        1.0  0.18283  0.91156  0.72980  1.0000
  H   H5        1.0  0.12562  0.84339  0.15028  1.0000
  H   H6        1.0  0.89169  0.17398  0.20109  1.0000
  H   H7        1.0  0.89206  0.17890  0.73732  1.0000
  H   H8        1.0  0.10838  0.82793  0.76852  1.0000
  H   H9        1.0  0.96696  0.96677  0.77904  1.0000
  H   H10       1.0  0.02895  0.03256  0.76212  1.0000
  H   H11       1.0  0.02807  0.03097  0.23244  1.0000
  H   H12       1.0  0.97783  0.96501  0.22344  1.0000
  C   C25       1.0  0.99201  0.13008  0.25336  1.0000
  C   C26       1.0  0.01290  0.86234  0.22288  1.0000
  C   C27       1.0  0.00139  0.86330  0.77688  1.0000
  C   C28       1.0  0.99334  0.13675  0.75980  1.0000
  C   C29       1.0  0.98548  0.35434  0.26287  1.0000
  C   C30       1.0  0.03861  0.63593  0.23902  1.0000
  C   C31       1.0  0.00732  0.64100  0.75417  1.0000
  C   C32       1.0  0.97982  0.36534  0.73706  1.0000
  N   N9        1.0  0.02816  0.39375  0.20189  1.0000
  N   N10       1.0  0.01396  0.61726  0.17125  1.0000
  N   N11       1.0  0.96550  0.60196  0.80467  1.0000
  N   N12       1.0  0.98601  0.37853  0.83561  1.0000
  N   N13       1.0  0.05391  0.05617  0.25088  1.0000
  N   N14       1.0  0.94979  0.93524  0.22610  1.0000
  N   N15       1.0  0.93907  0.93656  0.78279  1.0000
  N   N16       1.0  0.05572  0.06321  0.75994  1.0000
  C   C33       1.0  0.04015  0.10498  0.26927  1.0000
  C   C34       1.0  0.96114  0.88174  0.23146  1.0000
  C   C35       1.0  0.95040  0.88410  0.78260  1.0000
  C   C36       1.0  0.04321  0.11494  0.76315  1.0000
  C   C37       1.0  0.08513  0.12642  0.30046  1.0000
  C   C38       1.0  0.91103  0.85179  0.24284  1.0000
  C   C39       1.0  0.90069  0.85645  0.78419  1.0000
  C   C40       1.0  0.09183  0.14346  0.76334  1.0000
  C   C41       1.0  0.10621  0.04738  0.26327  1.0000
  C   C42       1.0  0.89586  0.94143  0.22955  1.0000
  C   C43       1.0  0.88596  0.94413  0.78099  1.0000
  C   C44       1.0  0.10931  0.05734  0.75781  1.0000
  C   C45       1.0  0.12548  0.09198  0.29532  1.0000
  C   C46       1.0  0.87209  0.88866  0.23695  1.0000
  C   C47       1.0  0.86140  0.89219  0.78695  1.0000
  C   C48       1.0  0.13176  0.10810  0.76251  1.0000
  H   H13       1.0  0.08634  0.16288  0.32635  1.0000
  H   H14       1.0  0.90628  0.80797  0.25287  1.0000
  H   H15       1.0  0.89584  0.81499  0.78127  1.0000
  H   H16       1.0  0.09495  0.18559  0.76408  1.0000
  H   H17       1.0  0.16563  0.09664  0.30960  1.0000
  H   H18       1.0  0.83041  0.88034  0.23721  1.0000
  H   H19       1.0  0.81916  0.88375  0.79251  1.0000
  H   H20       1.0  0.17287  0.11581  0.76648  1.0000
  H   H21       1.0  0.97313  0.39820  0.63807  1.0000
  H   H22       1.0  0.38394  0.06532  0.71456  1.0000
  H   H23       1.0  0.04775  0.63440  0.70127  1.0000
  H   H24       1.0  0.63139  0.97768  0.64855  1.0000
  H   H25       1.0  0.06376  0.60923  0.30465  1.0000
  H   H26       1.0  0.61255  0.94267  0.33838  1.0000
  H   H27       1.0  0.94601  0.36130  0.32026  1.0000
  H   H28       1.0  0.36561  0.02783  0.35346  1.0000
  C  Sn1       1.0  0.24816  0.99168  0.39461  1.0000
  C   C49       1.0  0.29564  0.00388  0.28337  1.0000
  C  Sn2       1.0  0.29302  0.02386  0.14327  1.0000
  C  Sn3       1.0  0.24188  0.03183  0.11371  1.0000
  C   C50       1.0  0.19443  0.01964  0.22490  1.0000
  C  Sn4       1.0  0.19701  0.99966  0.36505  1.0000
  O  Te1       1.0  0.25174  0.97176  0.53385  1.0000
  O  Te2       1.0  0.34104  0.03575  0.03385  1.0000
  O  Te3       1.0  0.12976  0.87117  0.97433  1.0000
  O  Te4       1.0  0.14903  0.98778  0.47442  1.0000
  Mg  Mg1       1.0  0.20656  0.88141  0.86162  1.0000
  Mg  Mg2       1.0  0.17490  0.96155  0.64667  1.0000
  C  Sn5       1.0  0.74961  0.02418  0.10377  1.0000
  C   C51       1.0  0.70603  0.98464  0.21318  1.0000
  C  Sn6       1.0  0.71390  0.94641  0.34316  1.0000
  C  Sn7       1.0  0.76643  0.94775  0.36427  1.0000
  C   C52       1.0  0.80998  0.98728  0.25491  1.0000
  C  Sn8       1.0  0.80214  0.02552  0.12488  1.0000
  O  Te5       1.0  0.63223  0.88141  0.97471  1.0000
  O  Te6       1.0  0.68518  0.90725  0.45094  1.0000
  O  Te7       1.0  0.79069  0.90988  0.49347  1.0000
  O  Te8       1.0  0.84630  0.06467  0.01715  1.0000
  Mg  Mg3       1.0  0.71768  0.86448  0.60791  1.0000
  Mg  Mg4       1.0  0.70528  0.92687  0.86017  1.0000
  C  Sn9       1.0  0.76772  0.99759  0.61422  1.0000
  C   C53       1.0  0.78782  0.00653  0.71377  1.0000
  C  Sn10      1.0  0.75218  0.00089  0.84149  1.0000
  C  Sn11      1.0  0.69526  0.98598  0.87035  1.0000
  C   C54       1.0  0.67519  0.97704  0.77085  1.0000
  C  Sn12      1.0  0.71080  0.98268  0.64309  1.0000
  O  Te9       1.0  0.80409  0.00345  0.48725  1.0000
  O  Te10      1.0  0.77324  0.01006  0.93935  1.0000
  O  Te11      1.0  0.65888  0.98013  0.99745  1.0000
  O  Te12      1.0  0.68977  0.97351  0.54527  1.0000
  Mg  Mg5       1.0  0.81583  0.17755  0.09723  1.0000
  Mg  Mg6       1.0  0.75570  0.98657  0.38740  1.0000
  C  Sn13      1.0  0.20432  0.96905  0.88384  1.0000
  C   C55       1.0  0.18011  0.01231  0.79451  1.0000
  C  Sn14      1.0  0.21241  0.05930  0.67203  1.0000
  C  Sn15      1.0  0.27012  0.06312  0.63806  1.0000
  C   C56       1.0  0.29430  0.01987  0.72734  1.0000
  C  Sn16      1.0  0.26203  0.97287  0.84986  1.0000
  O  Te13      1.0  0.27980  0.10306  0.00573  1.0000
  O  Te14      1.0  0.18726  0.10203  0.58440  1.0000
  O  Te15      1.0  0.30320  0.10976  0.51605  1.0000
  O  Te16      1.0  0.28715  0.93016  0.93745  1.0000
  Mg  Mg7       1.0  0.24980  0.15705  0.43015  1.0000
  Mg  Mg8       1.0  0.33322  0.05570  0.09168  1.0000
  C  Sn17      1.0  0.51445  0.97463  0.14622  1.0000
  C   C57       1.0  0.54690  0.01857  0.14823  1.0000
  C  Sn18      1.0  0.52301  0.06098  0.18357  1.0000
  C  Sn19      1.0  0.46547  0.05942  0.21771  1.0000
  C   C58       1.0  0.43306  0.01549  0.21571  1.0000
  C  Sn20      1.0  0.45692  0.97306  0.18035  1.0000
  O  Te17      1.0  0.55469  0.93268  0.11058  1.0000
  O  Te18      1.0  0.55629  0.10450  0.18481  1.0000
  O  Te19      1.0  0.44072  0.10142  0.25335  1.0000
  O  Te20      1.0  0.43914  0.92957  0.17912  1.0000
  Mg  Mg9       1.0  0.50337  0.15190  0.24028  1.0000
  Mg  Mg10      1.0  0.49202  0.88212  0.12375  1.0000
  C  Sn21      1.0  0.50144  0.95425  0.74403  1.0000
  C   C59       1.0  0.52965  0.99084  0.77894  1.0000
  C  Sn22      1.0  0.50117  0.01965  0.85367  1.0000
  C  Sn23      1.0  0.44326  0.01169  0.89443  1.0000
  C   C60       1.0  0.41507  0.97511  0.85954  1.0000
  C  Sn24      1.0  0.44353  0.94629  0.78479  1.0000
  O  Te21      1.0  0.53075  0.92590  0.66928  1.0000
  O  Te22      1.0  0.53028  0.05602  0.88732  1.0000
  O  Te23      1.0  0.41395  0.04009  0.96923  1.0000
  O  Te24      1.0  0.41445  0.90993  0.75116  1.0000
  Mg  Mg11      1.0  0.47198  0.08511  0.99045  1.0000
  Mg  Mg12      1.0  0.48818  0.88080  0.64811  1.0000
  C  Sn25      1.0  0.04378  0.23900  0.20217  1.0000
  C   C61       1.0  0.00226  0.19154  0.27035  1.0000
  C  Sn26      1.0  0.94891  0.19831  0.32832  1.0000
  C  Sn27      1.0  0.93679  0.25367  0.31786  1.0000
  C   C62       1.0  0.97829  0.30110  0.24970  1.0000
  C  Sn28      1.0  0.03166  0.29436  0.19171  1.0000
  O  Te25      1.0  0.09682  0.23123  0.14498  1.0000
  O  Te26      1.0  0.90810  0.15021  0.39602  1.0000
  O  Te27      1.0  0.88370  0.26141  0.37513  1.0000
  O  Te28      1.0  0.07245  0.34242  0.12403  1.0000
  Mg  Mg13      1.0  0.84212  0.18273  0.45706  1.0000
  Mg  Mg14      1.0  0.13843  0.30996  0.06289  1.0000
  C  Sn29      1.0  0.98101  0.76721  0.17284  1.0000
  C   C63       1.0  0.00309  0.79404  0.24089  1.0000
  C  Sn30      1.0  0.04431  0.77112  0.30368  1.0000
  C  Sn31      1.0  0.06390  0.72035  0.29827  1.0000
  C   C64       1.0  0.04182  0.69356  0.23023  1.0000
  C  Sn32      1.0  0.00059  0.71644  0.16743  1.0000
  O  Te29      1.0  0.93983  0.79088  0.11078  1.0000
  O  Te30      1.0  0.06574  0.79870  0.37114  1.0000
  O  Te31      1.0  0.10511  0.69670  0.36040  1.0000
  O  Te32      1.0  0.97918  0.68890  0.09998  1.0000
  Mg  Mg15      1.0  0.12131  0.74994  0.43992  1.0000
  Mg  Mg16      1.0  0.92363  0.73764  0.03111  1.0000
  C  Sn33      1.0  0.03864  0.79199  0.63308  1.0000
  C   C65       1.0  0.00011  0.80763  0.72388  1.0000
  C  Sn34      1.0  0.96569  0.76483  0.85117  1.0000
  C  Sn35      1.0  0.96991  0.70515  0.88854  1.0000
  C   C66       1.0  0.00843  0.68953  0.79777  1.0000
  C  Sn36      1.0  0.04285  0.73231  0.67044  1.0000
  O  Te33      1.0  0.07262  0.83551  0.50636  1.0000
  O  Te34      1.0  0.92748  0.78154  0.94021  1.0000
  O  Te35      1.0  0.04445  0.84222  0.01537  1.0000
  O  Te36      1.0  0.08106  0.71563  0.58145  1.0000
  Mg  Mg17      1.0  0.99890  0.88679  0.10142  1.0000
  Mg  Mg18      1.0  0.11824  0.79093  0.42025  1.0000
  C  Sn37      1.0  0.00572  0.26024  0.60475  1.0000
  C   C67       1.0  0.00607  0.20805  0.72155  1.0000
  C  Sn38      1.0  0.98991  0.20362  0.85951  1.0000
  C  Sn39      1.0  0.97300  0.25236  0.88122  1.0000
  C   C68       1.0  0.97264  0.30451  0.76448  1.0000
  C  Sn40      1.0  0.98881  0.30899  0.62646  1.0000
  O  Te37      1.0  0.02204  0.26369  0.46777  1.0000
  O  Te38      1.0  0.99063  0.15098  0.97460  1.0000
  O  Te39      1.0  0.06524  0.42947  0.01835  1.0000
  O  Te40      1.0  0.98808  0.36158  0.51143  1.0000
  Mg  Mg19      1.0  0.07325  0.34841  0.14089  1.0000
  Mg  Mg20      1.0  0.01399  0.34479  0.34511  1.0000
  C  Sn41      1.0  0.96599  0.51220  0.22446  1.0000
  C   C69       1.0  0.00912  0.55060  0.20988  1.0000
  C  Sn42      1.0  0.06301  0.54032  0.17225  1.0000
  C  Sn43      1.0  0.07403  0.49063  0.14862  1.0000
  C   C70       1.0  0.03092  0.45227  0.16318  1.0000
  C  Sn44      1.0  0.97701  0.46251  0.20083  1.0000
  O  Te41      1.0  0.91243  0.52334  0.26216  1.0000
  O  Te42      1.0  0.10545  0.57933  0.15835  1.0000
  O  Te43      1.0  0.12765  0.47952  0.11090  1.0000
  O  Te44      1.0  0.93458  0.42354  0.21471  1.0000
  Mg  Mg21      1.0  0.17155  0.54539  0.10500  1.0000
  Mg  Mg22      1.0  0.86848  0.45746  0.26798  1.0000
  C  Sn45      1.0  0.02883  0.51181  0.81502  1.0000
  C   C71       1.0  0.99025  0.54827  0.77118  1.0000
  C  Sn46      1.0  0.94153  0.52581  0.76386  1.0000
  C  Sn47      1.0  0.93113  0.46563  0.80123  1.0000
  C   C72       1.0  0.96969  0.42921  0.84507  1.0000
  C  Sn48      1.0  0.01843  0.45164  0.85240  1.0000
  O  Te45      1.0  0.07726  0.53522  0.82155  1.0000
  O  Te46      1.0  0.90359  0.56312  0.71967  1.0000
  O  Te47      1.0  0.88265  0.44225  0.79466  1.0000
  O  Te48      1.0  0.05635  0.41436  0.89658  1.0000
  Mg  Mg23      1.0  0.84363  0.51063  0.72818  1.0000
  Mg  Mg24      1.0  0.11631  0.46680  0.88817  1.0000
