data_image0
_chemical_formula_structural       C12N12C24H24C12O12C12N12H12C12N12C24H24C12O12C12N12H12C2Sn2C2HTe2HMgC2Sn2C2HTe2HMgC2Sn2C2HTe2HMgC2Sn2C2HTe2HMgC2Sn2C2HTe2HMgC2Sn2C2HTe2HMgC2Sn2C2HTe2HMgC2Sn2C2HTe2HMgC2Sn2C2HTe2HMgC2Sn2C2HTe2HMgC2Sn2C2HTe2HMgC2Sn2C2HTe2HMgC2Sn2C2HTe2HMgC2Sn2C2HTe2HMgC2Sn2C2HTe2HMgC2Sn2C2HTe2HMgC2Sn2C2HTe2HMgC2Sn2C2HTe2HMgC2Sn2C2HTe2HMgC2Sn2C2HTe2HMgC2Sn2C2HTe2HMgC2Sn2C2HTe2HMgC2Sn2C2HTe2HMgC2Sn2C2HTe2HMg
_chemical_formula_sum              "C216 N48 H120 O24 Sn48 Te48 Mg24"
_cell_length_a       64.0968
_cell_length_b       36.56
_cell_length_c       7.89003
_cell_angle_alpha    93.1668
_cell_angle_beta     64.0829
_cell_angle_gamma    90.1254

_symmetry_space_group_name_H-M    'P1'
_space_group_IT_number       1

loop_
  _space_group_symop_operation_xyz
  'x, y, z'

loop_
  _atom_site_type_symbol
  _atom_site_label
  _atom_site_symmetry_multiplicity
  _atom_site_fract_x
  _atom_site_fract_y
  _atom_site_fract_z
  _atom_site_occupancy
  C   C1        1.0  0.73204  0.14014  0.25581  1.0000
  C   C2        1.0  0.56086  0.00523  0.18100  1.0000
  C   C3        1.0  0.70721  0.80895  0.29228  1.0000
  C   C4        1.0  0.22975  0.63900  0.30008  1.0000
  C   C5        1.0  0.05983  0.51787  0.19978  1.0000
  C   C6        1.0  0.21193  0.30856  0.21775  1.0000
  C   C7        1.0  0.26901  0.13889  0.24138  1.0000
  C   C8        1.0  0.44102  0.00945  0.29437  1.0000
  C   C9        1.0  0.29121  0.80714  0.20903  1.0000
  C   C10       1.0  0.76883  0.63979  0.23294  1.0000
  C   C11       1.0  0.93954  0.51143  0.32199  1.0000
  C   C12       1.0  0.79151  0.30860  0.25234  1.0000
  N   N1        1.0  0.72397  0.17318  0.27290  1.0000
  N   N2        1.0  0.54447  0.98170  0.24699  1.0000
  N   N3        1.0  0.72838  0.80344  0.26672  1.0000
  N   N4        1.0  0.22122  0.67191  0.32279  1.0000
  N   N5        1.0  0.04424  0.49282  0.24805  1.0000
  N   N6        1.0  0.23025  0.30393  0.24520  1.0000
  N   N7        1.0  0.27641  0.17205  0.23336  1.0000
  N   N8        1.0  0.45646  0.98318  0.24765  1.0000
  N   N9        1.0  0.26936  0.80320  0.25564  1.0000
  N   N10       1.0  0.77607  0.67279  0.23409  1.0000
  N   N11       1.0  0.95574  0.48621  0.26122  1.0000
  N   N12       1.0  0.77024  0.30385  0.28151  1.0000
  C   C13       1.0  0.73707  0.20332  0.27898  1.0000
  C   C14       1.0  0.52327  0.98526  0.23987  1.0000
  C   C15       1.0  0.73834  0.76941  0.26001  1.0000
  C   C16       1.0  0.23472  0.70229  0.31140  1.0000
  C   C17       1.0  0.02246  0.49576  0.25211  1.0000
  C   C18       1.0  0.24026  0.26959  0.23532  1.0000
  C   C19       1.0  0.26339  0.20238  0.23253  1.0000
  C   C20       1.0  0.47792  0.98675  0.24953  1.0000
  C   C21       1.0  0.25932  0.76905  0.26817  1.0000
  C   C22       1.0  0.76270  0.70307  0.24003  1.0000
  C   C23       1.0  0.97696  0.49123  0.26674  1.0000
  C   C24       1.0  0.76098  0.26942  0.28234  1.0000
  C   C25       1.0  0.72598  0.23285  0.41118  1.0000
  C   C26       1.0  0.51111  0.95280  0.24426  1.0000
  C   C27       1.0  0.76243  0.76509  0.14378  1.0000
  C   C28       1.0  0.22470  0.73356  0.43301  1.0000
  C   C29       1.0  0.00928  0.46362  0.29993  1.0000
  C   C30       1.0  0.26470  0.26599  0.14762  1.0000
  C   C31       1.0  0.27577  0.23340  0.14483  1.0000
  C   C32       1.0  0.48957  0.95359  0.24421  1.0000
  C   C33       1.0  0.23665  0.76584  0.41350  1.0000
  C   C34       1.0  0.77415  0.73277  0.13286  1.0000
  C   C35       1.0  0.98762  0.46092  0.30295  1.0000
  C   C36       1.0  0.73757  0.26488  0.41061  1.0000
  H   H1        1.0  0.74882  0.13430  0.25640  1.0000
  H   H2        1.0  0.55996  0.02873  0.10344  1.0000
  H   H3        1.0  0.69540  0.78649  0.29981  1.0000
  H   H4        1.0  0.24688  0.63343  0.29375  1.0000
  H   H5        1.0  0.05737  0.54491  0.15720  1.0000
  H   H6        1.0  0.20386  0.28584  0.17295  1.0000
  H   H7        1.0  0.25247  0.13225  0.23877  1.0000
  H   H8        1.0  0.44324  0.03692  0.34554  1.0000
  H   H9        1.0  0.30325  0.78364  0.17928  1.0000
  H   H10       1.0  0.75267  0.63388  0.22191  1.0000
  H   H11       1.0  0.94100  0.53748  0.39163  1.0000
  H   H12       1.0  0.80325  0.28581  0.23992  1.0000
  H   H13       1.0  0.70804  0.22978  0.51257  1.0000
  H   H14       1.0  0.51953  0.92714  0.24559  1.0000
  H   H15       1.0  0.77121  0.78806  0.06179  1.0000
  H   H16       1.0  0.20720  0.73147  0.54441  1.0000
  H   H17       1.0  0.01731  0.44063  0.33255  1.0000
  H   H18       1.0  0.27448  0.28979  0.08218  1.0000
  H   H19       1.0  0.29459  0.23081  0.07705  1.0000
  H   H20       1.0  0.48054  0.92848  0.24252  1.0000
  H   H21       1.0  0.22898  0.78966  0.50995  1.0000
  H   H22       1.0  0.79262  0.72927  0.04187  1.0000
  H   H23       1.0  0.97809  0.43566  0.33633  1.0000
  H   H24       1.0  0.72887  0.28780  0.51097  1.0000
  C   C37       1.0  0.77234  0.23983  0.15047  1.0000
  C   C38       1.0  0.98965  0.52373  0.22139  1.0000
  C   C39       1.0  0.73873  0.70725  0.36148  1.0000
  C   C40       1.0  0.26917  0.73821  0.14196  1.0000
  C   C41       1.0  0.48965  0.01954  0.25264  1.0000
  C   C42       1.0  0.23886  0.20603  0.32581  1.0000
  C   C43       1.0  0.22769  0.23896  0.32493  1.0000
  C   C44       1.0  0.01203  0.52594  0.20995  1.0000
  C   C45       1.0  0.25741  0.70515  0.16586  1.0000
  C   C46       1.0  0.72681  0.73979  0.36849  1.0000
  C   C47       1.0  0.51193  0.01863  0.24392  1.0000
  C   C48       1.0  0.76033  0.20777  0.14687  1.0000
  O   O1        1.0  0.79476  0.24263  0.01542  1.0000
  O   O2        1.0  0.98166  0.55559  0.17712  1.0000
  O   O3        1.0  0.72710  0.67968  0.47550  1.0000
  O   O4        1.0  0.29069  0.73900  0.98249  1.0000
  O   O5        1.0  0.47935  0.05356  0.26778  1.0000
  O   O6        1.0  0.22547  0.17791  0.42532  1.0000
  O   O7        1.0  0.20372  0.23915  0.42691  1.0000
  O   O8        1.0  0.02359  0.55811  0.15049  1.0000
  O   O9        1.0  0.26777  0.67582  0.04002  1.0000
  O   O10       1.0  0.70350  0.74092  0.49563  1.0000
  O   O11       1.0  0.52099  0.05304  0.24978  1.0000
  O   O12       1.0  0.77251  0.18156  0.99917  1.0000
  C   C49       1.0  0.82144  0.51524  0.25954  1.0000
  C   C50       1.0  0.82675  0.45330  0.24605  1.0000
  C   C51       1.0  0.85336  0.49142  0.27439  1.0000
  C   C52       1.0  0.32197  0.01294  0.25183  1.0000
  C   C53       1.0  0.32730  0.95079  0.22630  1.0000
  C   C54       1.0  0.35389  0.98784  0.26249  1.0000
  C   C55       1.0  0.17888  0.51380  0.23956  1.0000
  C   C56       1.0  0.17392  0.45203  0.23874  1.0000
  C   C57       1.0  0.14748  0.49003  0.21230  1.0000
  C   C58       1.0  0.67937  0.01403  0.23569  1.0000
  C   C59       1.0  0.67367  0.95262  0.26272  1.0000
  C   C60       1.0  0.64709  0.98911  0.22938  1.0000
  N   N13       1.0  0.84090  0.52157  0.28108  1.0000
  N   N14       1.0  0.81351  0.48169  0.24377  1.0000
  N   N15       1.0  0.84712  0.45675  0.25616  1.0000
  N   N16       1.0  0.34146  0.01839  0.27386  1.0000
  N   N17       1.0  0.31405  0.97967  0.22970  1.0000
  N   N18       1.0  0.34762  0.95344  0.23820  1.0000
  N   N19       1.0  0.15956  0.51997  0.21746  1.0000
  N   N20       1.0  0.18683  0.48036  0.25019  1.0000
  N   N21       1.0  0.15398  0.45535  0.22176  1.0000
  N   N22       1.0  0.65963  0.01935  0.21817  1.0000
  N   N23       1.0  0.68729  0.98121  0.25577  1.0000
  N   N24       1.0  0.65331  0.95527  0.25237  1.0000
  H   H25       1.0  0.79759  0.22051  0.93129  1.0000
  H   H26       1.0  0.97426  0.54891  0.09490  1.0000
  H   H27       1.0  0.71251  0.69040  0.57169  1.0000
  H   H28       1.0  0.28701  0.74240  0.87572  1.0000
  H   H29       1.0  0.49133  0.07132  0.25594  1.0000
  H   H30       1.0  0.20988  0.18848  0.49954  1.0000
  H   H31       1.0  0.19813  0.26461  0.44971  1.0000
  H   H32       1.0  0.01212  0.57413  0.13785  1.0000
  H   H33       1.0  0.28289  0.68433  0.95093  1.0000
  H   H34       1.0  0.69790  0.76626  0.51098  1.0000
  H   H35       1.0  0.53049  0.05174  0.31836  1.0000
  H   H36       1.0  0.76597  0.18287  0.90783  1.0000
  C   C61       1.0  0.73157  0.14069  0.75483  1.0000
  C   C62       1.0  0.55959  0.01690  0.69198  1.0000
  C   C63       1.0  0.70643  0.81025  0.79041  1.0000
  C   C64       1.0  0.23070  0.64104  0.78695  1.0000
  C   C65       1.0  0.06004  0.50592  0.68663  1.0000
  C   C66       1.0  0.20911  0.30875  0.73547  1.0000
  C   C67       1.0  0.27093  0.14411  0.72716  1.0000
  C   C68       1.0  0.43990  0.01031  0.80561  1.0000
  C   C69       1.0  0.29105  0.81135  0.72753  1.0000
  C   C70       1.0  0.76850  0.64141  0.73308  1.0000
  C   C71       1.0  0.93986  0.51396  0.80998  1.0000
  C   C72       1.0  0.79140  0.30917  0.75228  1.0000
  N   N25       1.0  0.72365  0.17382  0.77162  1.0000
  N   N26       1.0  0.54424  0.99150  0.73439  1.0000
  N   N27       1.0  0.72753  0.80527  0.76825  1.0000
  N   N28       1.0  0.22294  0.67430  0.80344  1.0000
  N   N29       1.0  0.04306  0.48388  0.76558  1.0000
  N   N30       1.0  0.23012  0.30403  0.71446  1.0000
  N   N31       1.0  0.27734  0.17706  0.74583  1.0000
  N   N32       1.0  0.45627  0.98539  0.73790  1.0000
  N   N33       1.0  0.27007  0.80628  0.74906  1.0000
  N   N34       1.0  0.77590  0.67444  0.72929  1.0000
  N   N35       1.0  0.95496  0.48733  0.76795  1.0000
  N   N36       1.0  0.77025  0.30407  0.77976  1.0000
  C   C73       1.0  0.73692  0.20368  0.77818  1.0000
  C   C74       1.0  0.52269  0.99436  0.73409  1.0000
  C   C75       1.0  0.73774  0.77136  0.76129  1.0000
  C   C76       1.0  0.23649  0.70444  0.79661  1.0000
  C   C77       1.0  0.02172  0.48789  0.76108  1.0000
  C   C78       1.0  0.23980  0.27063  0.72123  1.0000
  C   C79       1.0  0.26441  0.20695  0.73730  1.0000
  C   C80       1.0  0.47753  0.99017  0.74310  1.0000
  C   C81       1.0  0.26030  0.77170  0.76621  1.0000
  C   C82       1.0  0.76241  0.70476  0.73683  1.0000
  C   C83       1.0  0.97645  0.49050  0.77000  1.0000
  C   C84       1.0  0.76100  0.26957  0.78205  1.0000
  C   C85       1.0  0.72594  0.23319  0.91096  1.0000
  C   C86       1.0  0.50986  0.96181  0.77300  1.0000
  C   C87       1.0  0.76179  0.76700  0.64271  1.0000
  C   C88       1.0  0.22562  0.73573  0.91593  1.0000
  C   C89       1.0  0.00862  0.45601  0.77889  1.0000
  C   C90       1.0  0.26425  0.26739  0.62578  1.0000
  C   C91       1.0  0.27627  0.23658  0.63229  1.0000
  C   C92       1.0  0.48841  0.95930  0.77218  1.0000
  C   C93       1.0  0.23707  0.76835  0.90129  1.0000
  C   C94       1.0  0.77363  0.73460  0.62934  1.0000
  C   C95       1.0  0.98712  0.45729  0.77826  1.0000
  C   C96       1.0  0.73763  0.26506  0.91109  1.0000
  H   H37       1.0  0.74836  0.13462  0.75474  1.0000
  H   H38       1.0  0.55720  0.04401  0.64993  1.0000
  H   H39       1.0  0.69493  0.78741  0.79628  1.0000
  H   H40       1.0  0.24757  0.63481  0.78433  1.0000
  H   H41       1.0  0.05947  0.52807  0.60019  1.0000
  H   H42       1.0  0.19726  0.28606  0.75201  1.0000
  H   H43       1.0  0.25609  0.13869  0.69568  1.0000
  H   H44       1.0  0.44136  0.03590  0.87885  1.0000
  H   H45       1.0  0.30238  0.78897  0.72969  1.0000
  H   H46       1.0  0.75204  0.63537  0.72745  1.0000
  H   H47       1.0  0.94239  0.54165  0.85677  1.0000
  H   H48       1.0  0.80318  0.28659  0.74233  1.0000
  H   H49       1.0  0.70798  0.23023  0.01216  1.0000
  H   H50       1.0  0.51797  0.93849  0.80242  1.0000
  H   H51       1.0  0.77053  0.78985  0.55942  1.0000
  H   H52       1.0  0.20765  0.73349  0.01895  1.0000
  H   H53       1.0  0.01628  0.43037  0.79096  1.0000
  H   H54       1.0  0.27325  0.29048  0.54605  1.0000
  H   H55       1.0  0.29506  0.23441  0.55708  1.0000
  H   H56       1.0  0.47914  0.93375  0.79710  1.0000
  H   H57       1.0  0.22851  0.79233  0.99324  1.0000
  H   H58       1.0  0.79201  0.73112  0.53523  1.0000
  H   H59       1.0  0.97738  0.43256  0.78648  1.0000
  H   H60       1.0  0.72903  0.28791  0.01224  1.0000
  C   C97       1.0  0.77228  0.23993  0.65052  1.0000
  C   C98       1.0  0.98906  0.52288  0.76039  1.0000
  C   C99       1.0  0.73852  0.70908  0.86081  1.0000
  C   C100      1.0  0.27131  0.74057  0.64575  1.0000
  C   C101      1.0  0.48987  0.02309  0.70612  1.0000
  C   C102      1.0  0.24011  0.21031  0.83940  1.0000
  C   C103      1.0  0.22785  0.24107  0.82879  1.0000
  C   C104      1.0  0.01125  0.52138  0.75389  1.0000
  C   C105      1.0  0.25972  0.70737  0.65994  1.0000
  C   C106      1.0  0.72649  0.74171  0.87065  1.0000
  C   C107      1.0  0.51220  0.02500  0.69604  1.0000
  C   C108      1.0  0.76022  0.20793  0.64655  1.0000
  O   O13       1.0  0.79472  0.24256  0.51590  1.0000
  O   O14       1.0  0.97977  0.55692  0.75957  1.0000
  O   O15       1.0  0.72695  0.68157  0.97561  1.0000
  O   O16       1.0  0.29354  0.74079  0.49788  1.0000
  O   O17       1.0  0.48158  0.05544  0.66888  1.0000
  O   O18       1.0  0.22647  0.18396  0.95886  1.0000
  O   O19       1.0  0.20414  0.24257  0.93480  1.0000
  O   O20       1.0  0.02113  0.55544  0.74909  1.0000
  O   O21       1.0  0.27085  0.67839  0.53346  1.0000
  O   O22       1.0  0.70335  0.74276  0.00204  1.0000
  O   O23       1.0  0.52382  0.05742  0.64224  1.0000
  O   O24       1.0  0.77246  0.18172  0.49870  1.0000
  C   C109      1.0  0.82112  0.51635  0.75852  1.0000
  C   C110      1.0  0.82625  0.45435  0.74580  1.0000
  C   C111      1.0  0.85284  0.49228  0.77623  1.0000
  C   C112      1.0  0.32152  0.01712  0.75370  1.0000
  C   C113      1.0  0.32685  0.95509  0.72796  1.0000
  C   C114      1.0  0.35328  0.99207  0.76589  1.0000
  C   C115      1.0  0.17872  0.51561  0.73971  1.0000
  C   C116      1.0  0.17427  0.45365  0.74240  1.0000
  C   C117      1.0  0.14704  0.49073  0.72253  1.0000
  C   C118      1.0  0.67860  0.01519  0.73411  1.0000
  C   C119      1.0  0.67243  0.95383  0.75732  1.0000
  C   C120      1.0  0.64653  0.99120  0.71944  1.0000
  N   N37       1.0  0.84051  0.52250  0.78112  1.0000
  N   N38       1.0  0.81312  0.48283  0.74241  1.0000
  N   N39       1.0  0.84651  0.45767  0.75783  1.0000
  N   N40       1.0  0.34090  0.02258  0.77735  1.0000
  N   N41       1.0  0.31364  0.98392  0.73037  1.0000
  N   N42       1.0  0.34708  0.95773  0.74071  1.0000
  N   N43       1.0  0.15899  0.52119  0.72203  1.0000
  N   N44       1.0  0.18724  0.48238  0.74774  1.0000
  N   N45       1.0  0.15388  0.45652  0.73324  1.0000
  N   N46       1.0  0.65919  0.02105  0.71297  1.0000
  N   N47       1.0  0.68605  0.98214  0.75562  1.0000
  N   N48       1.0  0.65242  0.95696  0.74111  1.0000
  H   H61       1.0  0.79761  0.22005  0.43431  1.0000
  H   H62       1.0  0.99196  0.57438  0.74529  1.0000
  H   H63       1.0  0.71248  0.69249  0.07274  1.0000
  H   H64       1.0  0.29706  0.76612  0.46398  1.0000
  H   H65       1.0  0.47399  0.04950  0.58722  1.0000
  H   H66       1.0  0.23267  0.17961  0.04967  1.0000
  H   H67       1.0  0.20083  0.22075  0.00889  1.0000
  H   H68       1.0  0.03177  0.55395  0.80729  1.0000
  H   H69       1.0  0.28445  0.68845  0.43223  1.0000
  H   H70       1.0  0.69772  0.76811  0.01967  1.0000
  H   H71       1.0  0.51231  0.07434  0.63654  1.0000
  H   H72       1.0  0.76658  0.18403  0.40360  1.0000
  C   C121      1.0  0.82701  0.35628  0.24688  1.0000
  C   C122      1.0  0.80581  0.34583  0.25114  1.0000
  C  Sn1       1.0  0.79068  0.37204  0.24011  1.0000
  C  Sn2       1.0  0.79695  0.40938  0.22449  1.0000
  C   C123      1.0  0.81821  0.41955  0.22021  1.0000
  C   C124      1.0  0.83321  0.39310  0.23139  1.0000
  H   H73       1.0  0.83862  0.33582  0.25543  1.0000
  O  Te1       1.0  0.76957  0.36113  0.24464  1.0000
  O  Te2       1.0  0.78217  0.43613  0.21316  1.0000
  H   H74       1.0  0.84963  0.40120  0.22797  1.0000
  Mg  Mg1       1.0  0.75528  0.40772  0.22505  1.0000
  C   C125      1.0  0.89823  0.46429  0.21247  1.0000
  C   C126      1.0  0.87875  0.48781  0.28261  1.0000
  C  Sn3       1.0  0.87959  0.52273  0.36044  1.0000
  C  Sn4       1.0  0.90034  0.53425  0.36795  1.0000
  C   C127      1.0  0.91973  0.51052  0.29729  1.0000
  C   C128      1.0  0.91871  0.47563  0.21976  1.0000
  H   H75       1.0  0.89744  0.43730  0.15239  1.0000
  O  Te3       1.0  0.85996  0.54588  0.42993  1.0000
  O  Te4       1.0  0.90165  0.56901  0.44493  1.0000
  H   H76       1.0  0.93380  0.45743  0.16536  1.0000
  Mg  Mg2       1.0  0.87031  0.59065  0.52146  1.0000
  C   C129      1.0  0.77604  0.56260  0.21421  1.0000
  C   C130      1.0  0.77938  0.59973  0.24424  1.0000
  C  Sn5       1.0  0.79863  0.61072  0.27177  1.0000
  C  Sn6       1.0  0.81479  0.58396  0.26905  1.0000
  C   C131      1.0  0.81130  0.54689  0.23876  1.0000
  C   C132      1.0  0.79198  0.53619  0.21143  1.0000
  H   H77       1.0  0.76110  0.55432  0.19296  1.0000
  O  Te5       1.0  0.80170  0.64793  0.30166  1.0000
  O  Te6       1.0  0.83418  0.59419  0.29611  1.0000
  H   H78       1.0  0.78940  0.50744  0.18806  1.0000
  Mg  Mg3       1.0  0.83082  0.64826  0.33158  1.0000
  C   C133      1.0  0.32756  0.85340  0.20177  1.0000
  C   C134      1.0  0.30621  0.84377  0.20653  1.0000
  C  Sn7       1.0  0.29092  0.87078  0.20496  1.0000
  C  Sn8       1.0  0.29718  0.90811  0.19846  1.0000
  C   C135      1.0  0.31858  0.91746  0.19361  1.0000
  C   C136      1.0  0.33375  0.89021  0.19529  1.0000
  H   H79       1.0  0.33930  0.83232  0.20297  1.0000
  O  Te7       1.0  0.26966  0.86067  0.20984  1.0000
  O  Te8       1.0  0.28223  0.93566  0.19669  1.0000
  H   H80       1.0  0.35028  0.89768  0.19148  1.0000
  Mg  Mg4       1.0  0.25517  0.90817  0.20510  1.0000
  C   C137      1.0  0.40999  0.96273  0.21164  1.0000
  C   C138      1.0  0.41875  0.99492  0.25682  1.0000
  C  Sn9       1.0  0.40358  0.02675  0.32210  1.0000
  C  Sn10      1.0  0.38047  0.02625  0.34244  1.0000
  C   C139      1.0  0.37311  0.99390  0.29699  1.0000
  C   C140      1.0  0.38719  0.96221  0.23172  1.0000
  H   H81       1.0  0.42088  0.93820  0.16124  1.0000
  O  Te9       1.0  0.41260  0.05868  0.36653  1.0000
  O  Te10      1.0  0.36617  0.05766  0.40745  1.0000
  H   H82       1.0  0.38040  0.93728  0.19687  1.0000
  Mg  Mg5       1.0  0.38637  0.09450  0.44971  1.0000
  C   C141      1.0  0.27591  0.06184  0.22467  1.0000
  C   C142      1.0  0.27957  0.09883  0.25509  1.0000
  C  Sn11      1.0  0.29928  0.10931  0.27670  1.0000
  C  Sn12      1.0  0.31561  0.08220  0.26756  1.0000
  C   C143      1.0  0.31180  0.04528  0.23694  1.0000
  C   C144      1.0  0.29201  0.03509  0.21556  1.0000
  H   H83       1.0  0.26060  0.05396  0.20802  1.0000
  O  Te11      1.0  0.30267  0.14638  0.30707  1.0000
  O  Te12      1.0  0.33547  0.09192  0.28862  1.0000
  H   H84       1.0  0.28918  0.00645  0.19189  1.0000
  Mg  Mg6       1.0  0.33239  0.14598  0.32738  1.0000
  C   C145      1.0  0.21254  0.38675  0.27363  1.0000
  C   C146      1.0  0.20385  0.35247  0.25475  1.0000
  C  Sn13      1.0  0.18425  0.34986  0.22063  1.0000
  C  Sn14      1.0  0.17319  0.38223  0.20514  1.0000
  C   C147      1.0  0.18203  0.41640  0.22412  1.0000
  C   C148      1.0  0.20165  0.41869  0.25831  1.0000
  H   H85       1.0  0.22773  0.38853  0.29998  1.0000
  O  Te13      1.0  0.17578  0.31539  0.20220  1.0000
  O  Te14      1.0  0.15358  0.38042  0.17101  1.0000
  H   H86       1.0  0.20838  0.44524  0.27280  1.0000
  Mg  Mg7       1.0  0.14858  0.32710  0.15652  1.0000
  C   C149      1.0  0.10283  0.46568  0.25562  1.0000
  C   C150      1.0  0.12222  0.48789  0.19891  1.0000
  C  Sn15      1.0  0.12102  0.52348  0.14724  1.0000
  C  Sn16      1.0  0.09999  0.53702  0.15263  1.0000
  C   C151      1.0  0.08069  0.51460  0.20970  1.0000
  C   C152      1.0  0.08209  0.47902  0.26105  1.0000
  H   H87       1.0  0.10390  0.43816  0.29545  1.0000
  O  Te15      1.0  0.14055  0.54530  0.09086  1.0000
  O  Te16      1.0  0.09831  0.57249  0.10180  1.0000
  H   H88       1.0  0.06707  0.46184  0.30507  1.0000
  Mg  Mg8       1.0  0.12967  0.59174  0.03480  1.0000
  C   C153      1.0  0.22416  0.56179  0.29032  1.0000
  C   C154      1.0  0.22011  0.59863  0.27310  1.0000
  C  Sn17      1.0  0.20043  0.60925  0.25300  1.0000
  C  Sn18      1.0  0.18453  0.58243  0.25020  1.0000
  C   C155      1.0  0.18873  0.54565  0.26766  1.0000
  C   C156      1.0  0.20849  0.53532  0.28764  1.0000
  H   H89       1.0  0.23944  0.55379  0.30589  1.0000
  O  Te17      1.0  0.19665  0.64618  0.23590  1.0000
  O  Te18      1.0  0.16471  0.59230  0.23035  1.0000
  H   H90       1.0  0.21161  0.50679  0.30110  1.0000
  Mg  Mg9       1.0  0.16715  0.64607  0.21189  1.0000
  C   C157      1.0  0.67194  0.85620  0.29186  1.0000
  C   C158      1.0  0.69305  0.84587  0.28951  1.0000
  C  Sn19      1.0  0.70858  0.87249  0.29242  1.0000
  C  Sn20      1.0  0.70283  0.91013  0.29784  1.0000
  C   C159      1.0  0.68166  0.92018  0.30028  1.0000
  C   C160      1.0  0.66625  0.89332  0.29727  1.0000
  H   H91       1.0  0.66001  0.83542  0.28964  1.0000
  O  Te19      1.0  0.72960  0.86169  0.28995  1.0000
  O  Te20      1.0  0.71803  0.93729  0.30091  1.0000
  H   H92       1.0  0.64990  0.90133  0.29921  1.0000
  Mg  Mg10      1.0  0.74459  0.90888  0.29572  1.0000
  C   C161      1.0  0.60297  0.96112  0.28149  1.0000
  C   C162      1.0  0.62191  0.98430  0.21850  1.0000
  C  Sn21      1.0  0.61905  0.01814  0.15039  1.0000
  C  Sn22      1.0  0.59807  0.02889  0.14546  1.0000
  C   C163      1.0  0.57923  0.00550  0.20893  1.0000
  C   C164      1.0  0.58228  0.97170  0.27675  1.0000
  H   H93       1.0  0.60436  0.93497  0.33407  1.0000
  O  Te21      1.0  0.63813  0.04096  0.08793  1.0000
  O  Te22      1.0  0.59599  0.06256  0.07814  1.0000
  H   H94       1.0  0.56761  0.95377  0.32562  1.0000
  Mg  Mg11      1.0  0.62681  0.08415  0.00858  1.0000
  C   C165      1.0  0.69306  0.10841  0.21892  1.0000
  C   C166      1.0  0.71294  0.11044  0.24943  1.0000
  C  Sn23      1.0  0.72372  0.07850  0.26520  1.0000
  C  Sn24      1.0  0.71440  0.04391  0.25004  1.0000
  C   C167      1.0  0.69451  0.04217  0.21938  1.0000
  C   C168      1.0  0.68385  0.07430  0.20387  1.0000
  H   H95       1.0  0.68482  0.13327  0.20681  1.0000
  O  Te23      1.0  0.74357  0.08103  0.29575  1.0000
  O  Te24      1.0  0.72483  0.01156  0.26520  1.0000
  H   H96       1.0  0.66847  0.07272  0.18013  1.0000
  Mg  Mg12      1.0  0.75156  0.02919  0.30673  1.0000
  C   C169      1.0  0.79232  0.40561  0.71936  1.0000
  C   C170      1.0  0.81178  0.41680  0.74316  1.0000
  C  Sn25      1.0  0.82667  0.39085  0.75948  1.0000
  C  Sn26      1.0  0.82195  0.35302  0.75172  1.0000
  C   C171      1.0  0.80244  0.34211  0.72774  1.0000
  C   C172      1.0  0.78765  0.36831  0.71162  1.0000
  H   H97       1.0  0.78089  0.42588  0.70678  1.0000
  O  Te25      1.0  0.84604  0.40250  0.78327  1.0000
  O  Te26      1.0  0.83654  0.32651  0.76759  1.0000
  H   H98       1.0  0.77259  0.35964  0.69307  1.0000
  Mg  Mg13      1.0  0.86076  0.35598  0.79821  1.0000
  C   C173      1.0  0.89567  0.54083  0.86122  1.0000
  C   C174      1.0  0.91333  0.51504  0.82719  1.0000
  C  Sn27      1.0  0.91194  0.47924  0.76183  1.0000
  C  Sn28      1.0  0.89249  0.46916  0.73003  1.0000
  C   C175      1.0  0.87493  0.49517  0.76437  1.0000
  C   C176      1.0  0.87649  0.53091  0.82981  1.0000
  H   H99       1.0  0.89688  0.56849  0.91175  1.0000
  O  Te27      1.0  0.92973  0.45381  0.72863  1.0000
  O  Te28      1.0  0.89067  0.43357  0.66467  1.0000
  H   H100      1.0  0.86283  0.55088  0.85603  1.0000
  Mg  Mg14      1.0  0.91935  0.40870  0.64018  1.0000
  C   C177      1.0  0.81502  0.59437  0.76288  1.0000
  C   C178      1.0  0.80963  0.55731  0.76309  1.0000
  C  Sn29      1.0  0.79005  0.54637  0.74064  1.0000
  C  Sn30      1.0  0.77562  0.57308  0.71753  1.0000
  C   C179      1.0  0.78117  0.61009  0.71738  1.0000
  C   C180      1.0  0.80081  0.62074  0.74002  1.0000
  H   H101      1.0  0.83022  0.60262  0.78029  1.0000
  O  Te29      1.0  0.78491  0.50922  0.74125  1.0000
  O  Te30      1.0  0.75595  0.56290  0.69474  1.0000
  H   H102      1.0  0.80498  0.64944  0.73973  1.0000
  Mg  Mg15      1.0  0.75620  0.50893  0.70533  1.0000
  C   C181      1.0  0.33095  0.87724  0.73313  1.0000
  C   C182      1.0  0.32267  0.91061  0.70526  1.0000
  C  Sn31      1.0  0.30201  0.91225  0.68654  1.0000
  C  Sn32      1.0  0.28943  0.87983  0.69602  1.0000
  C   C183      1.0  0.29785  0.84658  0.72408  1.0000
  C   C184      1.0  0.31855  0.84525  0.74257  1.0000
  H   H103      1.0  0.34696  0.87621  0.74754  1.0000
  O  Te31      1.0  0.29399  0.94581  0.65870  1.0000
  O  Te32      1.0  0.26873  0.88069  0.67783  1.0000
  H   H104      1.0  0.32495  0.81941  0.76428  1.0000
  Mg  Mg16      1.0  0.26489  0.93299  0.64182  1.0000
  C   C185      1.0  0.38372  0.03537  0.86966  1.0000
  C   C186      1.0  0.37797  0.00647  0.78445  1.0000
  C  Sn33      1.0  0.39209  0.97505  0.70874  1.0000
  C  Sn34      1.0  0.41361  0.97259  0.71878  1.0000
  C   C187      1.0  0.42045  0.00164  0.80444  1.0000
  C   C188      1.0  0.40494  0.03297  0.87969  1.0000
  H   H105      1.0  0.37268  0.05960  0.92798  1.0000
  O  Te33      1.0  0.38484  0.94643  0.62403  1.0000
  O  Te34      1.0  0.42806  0.94150  0.64431  1.0000
  H   H106      1.0  0.41035  0.05533  0.94576  1.0000
  Mg  Mg17      1.0  0.41058  0.90973  0.54285  1.0000
  C   C189      1.0  0.30815  0.11199  0.78286  1.0000
  C   C190      1.0  0.28924  0.11412  0.73990  1.0000
  C  Sn35      1.0  0.27908  0.08219  0.70887  1.0000
  C  Sn36      1.0  0.28805  0.04751  0.72124  1.0000
  C   C191      1.0  0.30696  0.04567  0.76444  1.0000
  C   C192      1.0  0.31701  0.07780  0.79516  1.0000
  H   H107      1.0  0.31592  0.13685  0.80674  1.0000
  O  Te35      1.0  0.26020  0.08481  0.66601  1.0000
  O  Te36      1.0  0.27822  0.01516  0.69096  1.0000
  H   H108      1.0  0.33164  0.07614  0.82855  1.0000
  Mg  Mg18      1.0  0.25275  0.03294  0.63650  1.0000
  C   C193      1.0  0.21427  0.38655  0.74019  1.0000
  C   C194      1.0  0.20354  0.35302  0.74600  1.0000
  C  Sn37      1.0  0.18192  0.35175  0.74291  1.0000
  C  Sn38      1.0  0.17089  0.38469  0.73378  1.0000
  C   C195      1.0  0.18178  0.41809  0.72787  1.0000
  C   C196      1.0  0.20341  0.41905  0.73110  1.0000
  H   H109      1.0  0.23102  0.38729  0.74257  1.0000
  O  Te37      1.0  0.17143  0.31802  0.74889  1.0000
  O  Te38      1.0  0.14929  0.38420  0.73044  1.0000
  H   H110      1.0  0.21173  0.44501  0.72647  1.0000
  Mg  Mg19      1.0  0.14195  0.33150  0.74122  1.0000
  C   C197      1.0  0.09171  0.46354  0.77061  1.0000
  C   C198      1.0  0.08205  0.49425  0.73098  1.0000
  C  Sn39      1.0  0.09510  0.52564  0.67046  1.0000
  C  Sn40      1.0  0.11825  0.52621  0.64930  1.0000
  C   C199      1.0  0.12775  0.49533  0.68916  1.0000
  C   C200      1.0  0.11454  0.46407  0.74970  1.0000
  H   H111      1.0  0.08149  0.43934  0.81734  1.0000
  O  Te39      1.0  0.08518  0.55610  0.63155  1.0000
  O  Te40      1.0  0.13168  0.55722  0.58896  1.0000
  H   H112      1.0  0.12203  0.44029  0.78024  1.0000
  Mg  Mg20      1.0  0.11044  0.59190  0.55340  1.0000
  C   C201      1.0  0.22405  0.56411  0.78810  1.0000
  C   C202      1.0  0.22024  0.60086  0.76734  1.0000
  C  Sn41      1.0  0.20061  0.61148  0.74628  1.0000
  C  Sn42      1.0  0.18454  0.58475  0.74612  1.0000
  C   C203      1.0  0.18850  0.54806  0.76712  1.0000
  C   C204      1.0  0.20820  0.53773  0.78803  1.0000
  H   H113      1.0  0.23928  0.55611  0.80439  1.0000
  O  Te41      1.0  0.19707  0.64832  0.72563  1.0000
  O  Te42      1.0  0.16478  0.59462  0.72539  1.0000
  H   H114      1.0  0.21114  0.50927  0.80422  1.0000
  Mg  Mg21      1.0  0.16757  0.64824  0.70173  1.0000
  C   C205      1.0  0.66700  0.87571  0.77122  1.0000
  C   C206      1.0  0.67608  0.90986  0.78639  1.0000
  C  Sn43      1.0  0.69705  0.91211  0.80024  1.0000
  C  Sn44      1.0  0.70912  0.87951  0.79877  1.0000
  C   C207      1.0  0.69990  0.84548  0.78341  1.0000
  C   C208      1.0  0.67890  0.84355  0.76970  1.0000
  H   H115      1.0  0.65076  0.87422  0.76051  1.0000
  O  Te43      1.0  0.70588  0.94645  0.81537  1.0000
  O  Te44      1.0  0.73012  0.88096  0.81234  1.0000
  H   H116      1.0  0.67188  0.81711  0.75783  1.0000
  Mg  Mg22      1.0  0.73509  0.93423  0.83036  1.0000
  C   C209      1.0  0.60354  0.04148  0.65552  1.0000
  C   C210      1.0  0.58610  0.01667  0.67581  1.0000
  C  Sn45      1.0  0.58901  0.98082  0.72239  1.0000
  C  Sn46      1.0  0.60850  0.96969  0.74912  1.0000
  C   C211      1.0  0.62584  0.99472  0.72862  1.0000
  C   C212      1.0  0.62277  0.03053  0.68192  1.0000
  H   H117      1.0  0.60212  0.06919  0.61948  1.0000
  O  Te45      1.0  0.57143  0.95638  0.74206  1.0000
  O  Te46      1.0  0.61059  0.93403  0.79581  1.0000
  H   H118      1.0  0.63626  0.04974  0.66633  1.0000
  Mg  Mg23      1.0  0.58213  0.91074  0.80694  1.0000
  C   C213      1.0  0.68535  0.09276  0.72041  1.0000
  C   C214      1.0  0.69072  0.05575  0.72082  1.0000
  C  Sn47      1.0  0.71039  0.04551  0.74213  1.0000
  C  Sn48      1.0  0.72492  0.07291  0.76345  1.0000
  C   C215      1.0  0.71939  0.10986  0.76299  1.0000
  C   C216      1.0  0.69967  0.11980  0.74150  1.0000
  H   H119      1.0  0.67009  0.10045  0.70389  1.0000
  O  Te47      1.0  0.71675  0.00841  0.74215  1.0000
  O  Te48      1.0  0.74468  0.06344  0.78507  1.0000
  H   H120      1.0  0.69552  0.14846  0.74131  1.0000
  Mg  Mg24      1.0  0.74435  0.00922  0.77597  1.0000
