data_image0
_chemical_formula_structural       C12N12C24H24C12O12C12H12C12H12C24N12H12C12N12C24H24C12O12C12H12C12H12C24N12H12SnCSn2CSnTe4Mg2SnCSn2CSnTe4Mg2SnCSn2CSnTe4Mg2SnCSn2CSnTe4Mg2SnCSn2CSnTe4Mg2SnCSn2CSnTe4Mg2SnCSn2CSnTe4Mg2SnCSn2CSnTe4Mg2SnCSn2CSnTe4Mg2SnCSn2CSnTe4Mg2SnCSn2CSnTe4Mg2SnCSn2CSnTe4Mg2
_chemical_formula_sum              "C216 N48 H120 O24 Sn48 Te48 Mg24"
_cell_length_a       64.0968
_cell_length_b       36.56
_cell_length_c       7.89003
_cell_angle_alpha    93.1668
_cell_angle_beta     64.0829
_cell_angle_gamma    90.1254

_symmetry_space_group_name_H-M    'P1'
_space_group_IT_number       1

loop_
  _space_group_symop_operation_xyz
  'x, y, z'

loop_
  _atom_site_type_symbol
  _atom_site_label
  _atom_site_symmetry_multiplicity
  _atom_site_fract_x
  _atom_site_fract_y
  _atom_site_fract_z
  _atom_site_occupancy
  C   C1        1.0  0.73204  0.14014  0.25581  1.0000
  C   C2        1.0  0.56086  0.00523  0.18100  1.0000
  C   C3        1.0  0.70721  0.80895  0.29228  1.0000
  C   C4        1.0  0.22975  0.63900  0.30008  1.0000
  C   C5        1.0  0.05983  0.51787  0.19978  1.0000
  C   C6        1.0  0.21193  0.30856  0.21775  1.0000
  C   C7        1.0  0.26901  0.13889  0.24138  1.0000
  C   C8        1.0  0.44102  0.00945  0.29437  1.0000
  C   C9        1.0  0.29121  0.80714  0.20903  1.0000
  C   C10       1.0  0.76883  0.63979  0.23294  1.0000
  C   C11       1.0  0.93954  0.51143  0.32199  1.0000
  C   C12       1.0  0.79151  0.30860  0.25234  1.0000
  N   N1        1.0  0.72397  0.17318  0.27290  1.0000
  N   N2        1.0  0.54447  0.98170  0.24699  1.0000
  N   N3        1.0  0.72838  0.80344  0.26672  1.0000
  N   N4        1.0  0.22122  0.67191  0.32279  1.0000
  N   N5        1.0  0.04424  0.49282  0.24805  1.0000
  N   N6        1.0  0.23025  0.30393  0.24520  1.0000
  N   N7        1.0  0.27641  0.17205  0.23336  1.0000
  N   N8        1.0  0.45646  0.98318  0.24765  1.0000
  N   N9        1.0  0.26936  0.80320  0.25564  1.0000
  N   N10       1.0  0.77607  0.67279  0.23409  1.0000
  N   N11       1.0  0.95574  0.48621  0.26122  1.0000
  N   N12       1.0  0.77024  0.30385  0.28151  1.0000
  C   C13       1.0  0.73707  0.20332  0.27898  1.0000
  C   C14       1.0  0.52327  0.98526  0.23987  1.0000
  C   C15       1.0  0.73834  0.76941  0.26001  1.0000
  C   C16       1.0  0.23472  0.70229  0.31140  1.0000
  C   C17       1.0  0.02246  0.49576  0.25211  1.0000
  C   C18       1.0  0.24026  0.26959  0.23532  1.0000
  C   C19       1.0  0.26339  0.20238  0.23253  1.0000
  C   C20       1.0  0.47792  0.98675  0.24953  1.0000
  C   C21       1.0  0.25932  0.76905  0.26817  1.0000
  C   C22       1.0  0.76270  0.70307  0.24003  1.0000
  C   C23       1.0  0.97696  0.49123  0.26674  1.0000
  C   C24       1.0  0.76098  0.26942  0.28234  1.0000
  C   C25       1.0  0.72598  0.23285  0.41118  1.0000
  C   C26       1.0  0.51111  0.95280  0.24426  1.0000
  C   C27       1.0  0.76243  0.76509  0.14378  1.0000
  C   C28       1.0  0.22470  0.73356  0.43301  1.0000
  C   C29       1.0  0.00928  0.46362  0.29993  1.0000
  C   C30       1.0  0.26470  0.26599  0.14762  1.0000
  C   C31       1.0  0.27577  0.23340  0.14483  1.0000
  C   C32       1.0  0.48957  0.95359  0.24421  1.0000
  C   C33       1.0  0.23665  0.76584  0.41350  1.0000
  C   C34       1.0  0.77415  0.73277  0.13286  1.0000
  C   C35       1.0  0.98762  0.46092  0.30295  1.0000
  C   C36       1.0  0.73757  0.26488  0.41061  1.0000
  H   H1        1.0  0.74882  0.13430  0.25640  1.0000
  H   H2        1.0  0.55996  0.02873  0.10344  1.0000
  H   H3        1.0  0.69540  0.78649  0.29981  1.0000
  H   H4        1.0  0.24688  0.63343  0.29375  1.0000
  H   H5        1.0  0.05737  0.54491  0.15720  1.0000
  H   H6        1.0  0.20386  0.28584  0.17295  1.0000
  H   H7        1.0  0.25247  0.13225  0.23877  1.0000
  H   H8        1.0  0.44324  0.03692  0.34554  1.0000
  H   H9        1.0  0.30325  0.78364  0.17928  1.0000
  H   H10       1.0  0.75267  0.63388  0.22191  1.0000
  H   H11       1.0  0.94100  0.53748  0.39163  1.0000
  H   H12       1.0  0.80325  0.28581  0.23992  1.0000
  H   H13       1.0  0.70804  0.22978  0.51257  1.0000
  H   H14       1.0  0.51953  0.92714  0.24559  1.0000
  H   H15       1.0  0.77121  0.78806  0.06179  1.0000
  H   H16       1.0  0.20720  0.73147  0.54441  1.0000
  H   H17       1.0  0.01731  0.44063  0.33255  1.0000
  H   H18       1.0  0.27448  0.28979  0.08218  1.0000
  H   H19       1.0  0.29459  0.23081  0.07705  1.0000
  H   H20       1.0  0.48054  0.92848  0.24252  1.0000
  H   H21       1.0  0.22898  0.78966  0.50995  1.0000
  H   H22       1.0  0.79262  0.72927  0.04187  1.0000
  H   H23       1.0  0.97809  0.43566  0.33633  1.0000
  H   H24       1.0  0.72887  0.28780  0.51097  1.0000
  C   C37       1.0  0.77234  0.23983  0.15047  1.0000
  C   C38       1.0  0.98965  0.52373  0.22139  1.0000
  C   C39       1.0  0.73873  0.70725  0.36148  1.0000
  C   C40       1.0  0.26917  0.73821  0.14196  1.0000
  C   C41       1.0  0.48965  0.01954  0.25264  1.0000
  C   C42       1.0  0.23886  0.20603  0.32581  1.0000
  C   C43       1.0  0.22769  0.23896  0.32493  1.0000
  C   C44       1.0  0.01203  0.52594  0.20995  1.0000
  C   C45       1.0  0.25741  0.70515  0.16586  1.0000
  C   C46       1.0  0.72681  0.73979  0.36849  1.0000
  C   C47       1.0  0.51193  0.01863  0.24392  1.0000
  C   C48       1.0  0.76033  0.20777  0.14687  1.0000
  O   O1        1.0  0.79476  0.24263  0.01542  1.0000
  O   O2        1.0  0.98166  0.55559  0.17712  1.0000
  O   O3        1.0  0.72710  0.67968  0.47550  1.0000
  O   O4        1.0  0.29069  0.73900  0.98249  1.0000
  O   O5        1.0  0.47935  0.05356  0.26778  1.0000
  O   O6        1.0  0.22547  0.17791  0.42532  1.0000
  O   O7        1.0  0.20372  0.23915  0.42691  1.0000
  O   O8        1.0  0.02359  0.55811  0.15049  1.0000
  O   O9        1.0  0.26777  0.67582  0.04002  1.0000
  O   O10       1.0  0.70350  0.74092  0.49563  1.0000
  O   O11       1.0  0.52099  0.05304  0.24978  1.0000
  O   O12       1.0  0.77251  0.18156  0.99917  1.0000
  C   C49       1.0  0.78828  0.37614  0.23156  1.0000
  C   C50       1.0  0.91324  0.47258  0.23375  1.0000
  C   C51       1.0  0.28841  0.87512  0.19996  1.0000
  C   C52       1.0  0.30356  0.11162  0.26507  1.0000
  C   C53       1.0  0.08753  0.47571  0.24471  1.0000
  C   C54       1.0  0.71101  0.87692  0.30060  1.0000
  C   C55       1.0  0.79698  0.41097  0.22866  1.0000
  C   C56       1.0  0.89219  0.46784  0.22660  1.0000
  C   C57       1.0  0.29730  0.90965  0.20270  1.0000
  C   C58       1.0  0.31622  0.08101  0.26661  1.0000
  C   C59       1.0  0.10888  0.46877  0.24288  1.0000
  C   C60       1.0  0.70274  0.91154  0.29419  1.0000
  H   H25       1.0  0.77192  0.37177  0.22375  1.0000
  H   H26       1.0  0.92645  0.45083  0.18513  1.0000
  H   H27       1.0  0.27183  0.87164  0.19501  1.0000
  H   H28       1.0  0.30930  0.13917  0.27901  1.0000
  H   H29       1.0  0.07437  0.45491  0.28110  1.0000
  H   H30       1.0  0.72734  0.87304  0.30896  1.0000
  H   H31       1.0  0.78766  0.43489  0.21849  1.0000
  H   H32       1.0  0.88817  0.44211  0.17294  1.0000
  H   H33       1.0  0.28794  0.93411  0.19906  1.0000
  H   H34       1.0  0.33214  0.08377  0.28299  1.0000
  H   H35       1.0  0.11305  0.44234  0.27859  1.0000
  H   H36       1.0  0.71236  0.93585  0.29799  1.0000
  C   C61       1.0  0.82205  0.35046  0.25006  1.0000
  C   C62       1.0  0.90113  0.53468  0.36765  1.0000
  C   C63       1.0  0.27497  0.07202  0.23249  1.0000
  C   C64       1.0  0.32258  0.84774  0.20415  1.0000
  C   C65       1.0  0.09905  0.53750  0.15354  1.0000
  C   C66       1.0  0.67683  0.85035  0.29008  1.0000
  C   C67       1.0  0.83067  0.38542  0.24937  1.0000
  C   C68       1.0  0.88027  0.53032  0.35528  1.0000
  C   C69       1.0  0.28772  0.04131  0.23259  1.0000
  C   C70       1.0  0.33130  0.88242  0.21090  1.0000
  C   C71       1.0  0.12029  0.53086  0.15565  1.0000
  C   C72       1.0  0.66863  0.88504  0.28178  1.0000
  H   H37       1.0  0.83159  0.32676  0.26041  1.0000
  H   H38       1.0  0.90455  0.56022  0.42773  1.0000
  H   H39       1.0  0.25897  0.06872  0.21718  1.0000
  H   H40       1.0  0.33239  0.82351  0.20488  1.0000
  H   H41       1.0  0.09531  0.56401  0.11507  1.0000
  H   H42       1.0  0.66679  0.82635  0.28863  1.0000
  H   H43       1.0  0.84686  0.38977  0.25985  1.0000
  H   H44       1.0  0.86723  0.55228  0.40218  1.0000
  H   H45       1.0  0.28200  0.01378  0.21830  1.0000
  H   H46       1.0  0.34772  0.88594  0.21864  1.0000
  H   H47       1.0  0.13322  0.55197  0.12207  1.0000
  H   H48       1.0  0.65237  0.88889  0.27239  1.0000
  C   C73       1.0  0.82144  0.51524  0.25954  1.0000
  C   C74       1.0  0.82675  0.45330  0.24605  1.0000
  C   C75       1.0  0.85336  0.49142  0.27439  1.0000
  C   C76       1.0  0.32197  0.01294  0.25183  1.0000
  C   C77       1.0  0.32730  0.95079  0.22630  1.0000
  C   C78       1.0  0.35389  0.98784  0.26249  1.0000
  C   C79       1.0  0.17888  0.51380  0.23956  1.0000
  C   C80       1.0  0.17392  0.45203  0.23874  1.0000
  C   C81       1.0  0.14748  0.49003  0.21230  1.0000
  C   C82       1.0  0.67937  0.01403  0.23569  1.0000
  C   C83       1.0  0.67367  0.95262  0.26272  1.0000
  C   C84       1.0  0.64709  0.98911  0.22938  1.0000
  C   C85       1.0  0.80063  0.34539  0.24401  1.0000
  C   C86       1.0  0.91789  0.50602  0.30647  1.0000
  C   C87       1.0  0.28270  0.10761  0.24774  1.0000
  C   C88       1.0  0.30084  0.84357  0.20262  1.0000
  C   C89       1.0  0.08219  0.51022  0.20000  1.0000
  C   C90       1.0  0.69830  0.84570  0.29562  1.0000
  C   C91       1.0  0.81817  0.41607  0.23927  1.0000
  C   C92       1.0  0.87553  0.49671  0.28606  1.0000
  C   C93       1.0  0.30851  0.04544  0.24979  1.0000
  C   C94       1.0  0.31870  0.91383  0.21101  1.0000
  C   C95       1.0  0.12546  0.49641  0.20073  1.0000
  C   C96       1.0  0.68166  0.91601  0.28159  1.0000
  N   N13       1.0  0.84090  0.52157  0.28108  1.0000
  N   N14       1.0  0.81351  0.48169  0.24377  1.0000
  N   N15       1.0  0.84712  0.45675  0.25616  1.0000
  N   N16       1.0  0.34146  0.01839  0.27386  1.0000
  N   N17       1.0  0.31405  0.97967  0.22970  1.0000
  N   N18       1.0  0.34762  0.95344  0.23820  1.0000
  N   N19       1.0  0.15956  0.51997  0.21746  1.0000
  N   N20       1.0  0.18683  0.48036  0.25019  1.0000
  N   N21       1.0  0.15398  0.45535  0.22176  1.0000
  N   N22       1.0  0.65963  0.01935  0.21817  1.0000
  N   N23       1.0  0.68729  0.98121  0.25577  1.0000
  N   N24       1.0  0.65331  0.95527  0.25237  1.0000
  H   H49       1.0  0.79759  0.22051  0.93129  1.0000
  H   H50       1.0  0.97426  0.54891  0.09490  1.0000
  H   H51       1.0  0.71251  0.69040  0.57169  1.0000
  H   H52       1.0  0.28701  0.74240  0.87572  1.0000
  H   H53       1.0  0.49133  0.07132  0.25594  1.0000
  H   H54       1.0  0.20988  0.18848  0.49954  1.0000
  H   H55       1.0  0.19813  0.26461  0.44971  1.0000
  H   H56       1.0  0.01212  0.57413  0.13785  1.0000
  H   H57       1.0  0.28289  0.68433  0.95093  1.0000
  H   H58       1.0  0.69790  0.76626  0.51098  1.0000
  H   H59       1.0  0.53049  0.05174  0.31836  1.0000
  H   H60       1.0  0.76597  0.18287  0.90783  1.0000
  C   C97       1.0  0.73157  0.14069  0.75483  1.0000
  C   C98       1.0  0.55959  0.01690  0.69198  1.0000
  C   C99       1.0  0.70643  0.81025  0.79041  1.0000
  C   C100      1.0  0.23070  0.64104  0.78695  1.0000
  C   C101      1.0  0.06004  0.50592  0.68663  1.0000
  C   C102      1.0  0.20911  0.30875  0.73547  1.0000
  C   C103      1.0  0.27093  0.14411  0.72716  1.0000
  C   C104      1.0  0.43990  0.01031  0.80561  1.0000
  C   C105      1.0  0.29105  0.81135  0.72753  1.0000
  C   C106      1.0  0.76850  0.64141  0.73308  1.0000
  C   C107      1.0  0.93986  0.51396  0.80998  1.0000
  C   C108      1.0  0.79140  0.30917  0.75228  1.0000
  N   N25       1.0  0.72365  0.17382  0.77162  1.0000
  N   N26       1.0  0.54424  0.99150  0.73439  1.0000
  N   N27       1.0  0.72753  0.80527  0.76825  1.0000
  N   N28       1.0  0.22294  0.67430  0.80344  1.0000
  N   N29       1.0  0.04306  0.48388  0.76558  1.0000
  N   N30       1.0  0.23012  0.30403  0.71446  1.0000
  N   N31       1.0  0.27734  0.17706  0.74583  1.0000
  N   N32       1.0  0.45627  0.98539  0.73790  1.0000
  N   N33       1.0  0.27007  0.80628  0.74906  1.0000
  N   N34       1.0  0.77590  0.67444  0.72929  1.0000
  N   N35       1.0  0.95496  0.48733  0.76795  1.0000
  N   N36       1.0  0.77025  0.30407  0.77976  1.0000
  C   C109      1.0  0.73692  0.20368  0.77818  1.0000
  C   C110      1.0  0.52269  0.99436  0.73409  1.0000
  C   C111      1.0  0.73774  0.77136  0.76129  1.0000
  C   C112      1.0  0.23649  0.70444  0.79661  1.0000
  C   C113      1.0  0.02172  0.48789  0.76108  1.0000
  C   C114      1.0  0.23980  0.27063  0.72123  1.0000
  C   C115      1.0  0.26441  0.20695  0.73730  1.0000
  C   C116      1.0  0.47753  0.99017  0.74310  1.0000
  C   C117      1.0  0.26030  0.77170  0.76621  1.0000
  C   C118      1.0  0.76241  0.70476  0.73683  1.0000
  C   C119      1.0  0.97645  0.49050  0.77000  1.0000
  C   C120      1.0  0.76100  0.26957  0.78205  1.0000
  C   C121      1.0  0.72594  0.23319  0.91096  1.0000
  C   C122      1.0  0.50986  0.96181  0.77300  1.0000
  C   C123      1.0  0.76179  0.76700  0.64271  1.0000
  C   C124      1.0  0.22562  0.73573  0.91593  1.0000
  C   C125      1.0  0.00862  0.45601  0.77889  1.0000
  C   C126      1.0  0.26425  0.26739  0.62578  1.0000
  C   C127      1.0  0.27627  0.23658  0.63229  1.0000
  C   C128      1.0  0.48841  0.95930  0.77218  1.0000
  C   C129      1.0  0.23707  0.76835  0.90129  1.0000
  C   C130      1.0  0.77363  0.73460  0.62934  1.0000
  C   C131      1.0  0.98712  0.45729  0.77826  1.0000
  C   C132      1.0  0.73763  0.26506  0.91109  1.0000
  H   H61       1.0  0.74836  0.13462  0.75474  1.0000
  H   H62       1.0  0.55720  0.04401  0.64993  1.0000
  H   H63       1.0  0.69493  0.78741  0.79628  1.0000
  H   H64       1.0  0.24757  0.63481  0.78433  1.0000
  H   H65       1.0  0.05947  0.52807  0.60019  1.0000
  H   H66       1.0  0.19726  0.28606  0.75201  1.0000
  H   H67       1.0  0.25609  0.13869  0.69568  1.0000
  H   H68       1.0  0.44136  0.03590  0.87885  1.0000
  H   H69       1.0  0.30238  0.78897  0.72969  1.0000
  H   H70       1.0  0.75204  0.63537  0.72745  1.0000
  H   H71       1.0  0.94239  0.54165  0.85677  1.0000
  H   H72       1.0  0.80318  0.28659  0.74233  1.0000
  H   H73       1.0  0.70798  0.23023  0.01216  1.0000
  H   H74       1.0  0.51797  0.93849  0.80242  1.0000
  H   H75       1.0  0.77053  0.78985  0.55942  1.0000
  H   H76       1.0  0.20765  0.73349  0.01895  1.0000
  H   H77       1.0  0.01628  0.43037  0.79096  1.0000
  H   H78       1.0  0.27325  0.29048  0.54605  1.0000
  H   H79       1.0  0.29506  0.23441  0.55708  1.0000
  H   H80       1.0  0.47914  0.93375  0.79710  1.0000
  H   H81       1.0  0.22851  0.79233  0.99324  1.0000
  H   H82       1.0  0.79201  0.73112  0.53523  1.0000
  H   H83       1.0  0.97738  0.43256  0.78648  1.0000
  H   H84       1.0  0.72903  0.28791  0.01224  1.0000
  C   C133      1.0  0.77228  0.23993  0.65052  1.0000
  C   C134      1.0  0.98906  0.52288  0.76039  1.0000
  C   C135      1.0  0.73852  0.70908  0.86081  1.0000
  C   C136      1.0  0.27131  0.74057  0.64575  1.0000
  C   C137      1.0  0.48987  0.02309  0.70612  1.0000
  C   C138      1.0  0.24011  0.21031  0.83940  1.0000
  C   C139      1.0  0.22785  0.24107  0.82879  1.0000
  C   C140      1.0  0.01125  0.52138  0.75389  1.0000
  C   C141      1.0  0.25972  0.70737  0.65994  1.0000
  C   C142      1.0  0.72649  0.74171  0.87065  1.0000
  C   C143      1.0  0.51220  0.02500  0.69604  1.0000
  C   C144      1.0  0.76022  0.20793  0.64655  1.0000
  O   O13       1.0  0.79472  0.24256  0.51590  1.0000
  O   O14       1.0  0.97977  0.55692  0.75957  1.0000
  O   O15       1.0  0.72695  0.68157  0.97561  1.0000
  O   O16       1.0  0.29354  0.74079  0.49788  1.0000
  O   O17       1.0  0.48158  0.05544  0.66888  1.0000
  O   O18       1.0  0.22647  0.18396  0.95886  1.0000
  O   O19       1.0  0.20414  0.24257  0.93480  1.0000
  O   O20       1.0  0.02113  0.55544  0.74909  1.0000
  O   O21       1.0  0.27085  0.67839  0.53346  1.0000
  O   O22       1.0  0.70335  0.74276  0.00204  1.0000
  O   O23       1.0  0.52382  0.05742  0.64224  1.0000
  O   O24       1.0  0.77246  0.18172  0.49870  1.0000
  C   C145      1.0  0.78808  0.37673  0.72862  1.0000
  C   C146      1.0  0.91267  0.47369  0.73817  1.0000
  C   C147      1.0  0.30349  0.11588  0.77219  1.0000
  C   C148      1.0  0.21316  0.37649  0.74304  1.0000
  C   C149      1.0  0.08741  0.46975  0.76543  1.0000
  C   C150      1.0  0.19634  0.61401  0.75783  1.0000
  C   C151      1.0  0.79668  0.41166  0.72571  1.0000
  C   C152      1.0  0.89147  0.46854  0.73413  1.0000
  C   C153      1.0  0.31568  0.08501  0.77693  1.0000
  C   C154      1.0  0.20453  0.41145  0.74829  1.0000
  C   C155      1.0  0.10877  0.46610  0.76805  1.0000
  C   C156      1.0  0.18391  0.58359  0.74645  1.0000
  H   H85       1.0  0.77184  0.37220  0.71903  1.0000
  H   H86       1.0  0.92578  0.45180  0.69240  1.0000
  H   H87       1.0  0.30887  0.14328  0.79376  1.0000
  H   H88       1.0  0.22975  0.37204  0.74612  1.0000
  H   H89       1.0  0.07467  0.44831  0.81192  1.0000
  H   H90       1.0  0.19058  0.64155  0.74961  1.0000
  H   H91       1.0  0.78738  0.43544  0.71355  1.0000
  H   H92       1.0  0.88729  0.44242  0.68516  1.0000
  H   H93       1.0  0.33104  0.08725  0.80187  1.0000
  H   H94       1.0  0.21415  0.43554  0.75539  1.0000
  H   H95       1.0  0.11358  0.44145  0.81481  1.0000
  H   H96       1.0  0.16807  0.58651  0.72944  1.0000
  C   C157      1.0  0.82166  0.35148  0.75147  1.0000
  C   C158      1.0  0.90114  0.53658  0.85823  1.0000
  C   C159      1.0  0.27614  0.07698  0.71546  1.0000
  C   C160      1.0  0.22493  0.57419  0.78316  1.0000
  C   C161      1.0  0.17865  0.35069  0.73559  1.0000
  C   C162      1.0  0.09804  0.52985  0.64099  1.0000
  C   C163      1.0  0.83017  0.38652  0.75063  1.0000
  C   C164      1.0  0.88001  0.53165  0.85119  1.0000
  C   C165      1.0  0.28830  0.04599  0.72110  1.0000
  C   C166      1.0  0.21243  0.54370  0.77287  1.0000
  C   C167      1.0  0.17009  0.38576  0.73845  1.0000
  C   C168      1.0  0.11904  0.52691  0.65183  1.0000
  H   H97       1.0  0.83118  0.32794  0.76355  1.0000
  H   H98       1.0  0.90489  0.56278  0.91023  1.0000
  H   H99       1.0  0.26095  0.07416  0.68818  1.0000
  H   H100      1.0  0.24080  0.57081  0.79977  1.0000
  H   H101      1.0  0.16861  0.32689  0.73098  1.0000
  H   H102      1.0  0.09401  0.55405  0.58542  1.0000
  H   H103      1.0  0.84627  0.39108  0.76230  1.0000
  H   H104      1.0  0.86708  0.55374  0.89494  1.0000
  H   H105      1.0  0.28287  0.01861  0.70010  1.0000
  H   H106      1.0  0.21824  0.51620  0.78075  1.0000
  H   H107      1.0  0.15359  0.39011  0.73369  1.0000
  H   H108      1.0  0.13153  0.54871  0.60867  1.0000
  C   C169      1.0  0.82112  0.51635  0.75852  1.0000
  C   C170      1.0  0.82625  0.45435  0.74580  1.0000
  C   C171      1.0  0.85284  0.49228  0.77623  1.0000
  C   C172      1.0  0.32152  0.01712  0.75370  1.0000
  C   C173      1.0  0.32685  0.95509  0.72796  1.0000
  C   C174      1.0  0.35328  0.99207  0.76589  1.0000
  C   C175      1.0  0.17872  0.51561  0.73971  1.0000
  C   C176      1.0  0.17427  0.45365  0.74240  1.0000
  C   C177      1.0  0.14704  0.49073  0.72253  1.0000
  C   C178      1.0  0.67860  0.01519  0.73411  1.0000
  C   C179      1.0  0.67243  0.95383  0.75732  1.0000
  C   C180      1.0  0.64653  0.99120  0.71944  1.0000
  C   C181      1.0  0.80037  0.34612  0.74338  1.0000
  C   C182      1.0  0.91784  0.50781  0.80113  1.0000
  C   C183      1.0  0.28361  0.11222  0.74027  1.0000
  C   C184      1.0  0.21709  0.60973  0.77587  1.0000
  C   C185      1.0  0.20034  0.34553  0.73633  1.0000
  C   C186      1.0  0.08188  0.50160  0.69960  1.0000
  C   C187      1.0  0.81772  0.41705  0.73856  1.0000
  C   C188      1.0  0.87494  0.49755  0.78889  1.0000
  C   C189      1.0  0.30826  0.04973  0.75083  1.0000
  C   C190      1.0  0.19183  0.54802  0.75345  1.0000
  C   C191      1.0  0.18295  0.41654  0.74518  1.0000
  C   C192      1.0  0.12470  0.49479  0.71349  1.0000
  N   N37       1.0  0.84051  0.52250  0.78112  1.0000
  N   N38       1.0  0.81312  0.48283  0.74241  1.0000
  N   N39       1.0  0.84651  0.45767  0.75783  1.0000
  N   N40       1.0  0.34090  0.02258  0.77735  1.0000
  N   N41       1.0  0.31364  0.98392  0.73037  1.0000
  N   N42       1.0  0.34708  0.95773  0.74071  1.0000
  N   N43       1.0  0.15899  0.52119  0.72203  1.0000
  N   N44       1.0  0.18724  0.48238  0.74774  1.0000
  N   N45       1.0  0.15388  0.45652  0.73324  1.0000
  N   N46       1.0  0.65919  0.02105  0.71297  1.0000
  N   N47       1.0  0.68605  0.98214  0.75562  1.0000
  N   N48       1.0  0.65242  0.95696  0.74111  1.0000
  H   H109      1.0  0.79761  0.22005  0.43431  1.0000
  H   H110      1.0  0.99196  0.57438  0.74529  1.0000
  H   H111      1.0  0.71248  0.69249  0.07274  1.0000
  H   H112      1.0  0.29706  0.76612  0.46398  1.0000
  H   H113      1.0  0.47399  0.04950  0.58722  1.0000
  H   H114      1.0  0.23267  0.17961  0.04967  1.0000
  H   H115      1.0  0.20083  0.22075  0.00889  1.0000
  H   H116      1.0  0.03177  0.55395  0.80729  1.0000
  H   H117      1.0  0.28445  0.68845  0.43223  1.0000
  H   H118      1.0  0.69772  0.76811  0.01967  1.0000
  H   H119      1.0  0.51231  0.07434  0.63654  1.0000
  H   H120      1.0  0.76658  0.18403  0.40360  1.0000
  C  Sn1       1.0  0.81005  0.59099  0.32582  1.0000
  C   C193      1.0  0.80574  0.55397  0.30386  1.0000
  C  Sn2       1.0  0.79027  0.54353  0.22970  1.0000
  C  Sn3       1.0  0.77889  0.57065  0.17625  1.0000
  C   C194      1.0  0.78321  0.60765  0.19818  1.0000
  C  Sn4       1.0  0.79867  0.61812  0.27237  1.0000
  O  Te1       1.0  0.82558  0.60081  0.40025  1.0000
  O  Te2       1.0  0.78624  0.50634  0.20913  1.0000
  O  Te3       1.0  0.76336  0.56081  0.10177  1.0000
  O  Te4       1.0  0.80271  0.65528  0.29291  1.0000
  Mg  Mg1       1.0  0.76359  0.50666  0.10094  1.0000
  Mg  Mg2       1.0  0.82536  0.65499  0.40099  1.0000
  C  Sn5       1.0  0.58837  0.97485  0.80242  1.0000
  C   C195      1.0  0.58055  0.00682  0.75690  1.0000
  C  Sn6       1.0  0.59487  0.03403  0.66551  1.0000
  C  Sn7       1.0  0.61876  0.02918  0.61851  1.0000
  C   C196      1.0  0.62782  0.99723  0.66399  1.0000
  C  Sn8       1.0  0.61227  0.97000  0.75542  1.0000
  O  Te5       1.0  0.57250  0.94801  0.89378  1.0000
  O  Te6       1.0  0.58663  0.06576  0.62151  1.0000
  O  Te7       1.0  0.63463  0.05606  0.52708  1.0000
  O  Te8       1.0  0.62049  0.93829  0.79938  1.0000
  Mg  Mg3       1.0  0.61501  0.09446  0.49666  1.0000
  Mg  Mg4       1.0  0.59213  0.90957  0.92414  1.0000
  C  Sn9       1.0  0.69034  0.08935  0.66014  1.0000
  C   C197      1.0  0.69482  0.05286  0.68043  1.0000
  C  Sn10      1.0  0.71057  0.04427  0.75177  1.0000
  C  Sn11      1.0  0.72206  0.07275  0.80403  1.0000
  C   C198      1.0  0.71758  0.10921  0.78376  1.0000
  C  Sn12      1.0  0.70184  0.11782  0.71240  1.0000
  O  Te9       1.0  0.67453  0.09730  0.58853  1.0000
  O  Te10      1.0  0.71602  0.00759  0.77070  1.0000
  O  Te11      1.0  0.73788  0.06477  0.87568  1.0000
  O  Te12      1.0  0.69763  0.15448  0.69349  1.0000
  Mg  Mg5       1.0  0.73779  0.01062  0.87516  1.0000
  Mg  Mg6       1.0  0.67461  0.15148  0.58915  1.0000
  C  Sn13      1.0  0.33367  0.87773  0.66990  1.0000
  C   C199      1.0  0.32378  0.91119  0.66132  1.0000
  C  Sn14      1.0  0.30055  0.91347  0.69412  1.0000
  C  Sn15      1.0  0.28693  0.88164  0.73649  1.0000
  C   C200      1.0  0.29682  0.84821  0.74508  1.0000
  C  Sn16      1.0  0.32004  0.84591  0.71227  1.0000
  O  Te13      1.0  0.35692  0.87609  0.63663  1.0000
  O  Te14      1.0  0.29105  0.94722  0.68470  1.0000
  O  Te15      1.0  0.26366  0.88331  0.76976  1.0000
  O  Te16      1.0  0.32955  0.81218  0.72170  1.0000
  Mg  Mg7       1.0  0.25858  0.93553  0.74099  1.0000
  Mg  Mg8       1.0  0.36201  0.82384  0.66554  1.0000
  C  Sn17      1.0  0.41271  0.96911  0.15900  1.0000
  C   C201      1.0  0.42018  0.00054  0.22339  1.0000
  C  Sn18      1.0  0.40300  0.02815  0.33387  1.0000
  C  Sn19      1.0  0.37910  0.02426  0.38109  1.0000
  C   C202      1.0  0.37289  0.99285  0.31675  1.0000
  C  Sn20      1.0  0.38882  0.96522  0.20622  1.0000
  O  Te17      1.0  0.42895  0.94185  0.04873  1.0000
  O  Te18      1.0  0.41087  0.05933  0.39654  1.0000
  O  Te19      1.0  0.36286  0.05156  0.49145  1.0000
  O  Te20      1.0  0.38095  0.93406  0.14360  1.0000
  Mg  Mg9       1.0  0.38207  0.08891  0.54314  1.0000
  Mg  Mg10      1.0  0.35595  0.91617  0.99707  1.0000
  C  Sn21      1.0  0.69052  0.10841  0.28218  1.0000
  C   C203      1.0  0.71169  0.10937  0.29329  1.0000
  C  Sn22      1.0  0.72522  0.07741  0.25762  1.0000
  C  Sn23      1.0  0.71745  0.04381  0.20971  1.0000
  C   C204      1.0  0.69630  0.04286  0.19858  1.0000
  C  Sn24      1.0  0.68275  0.07480  0.23427  1.0000
  O  Te21      1.0  0.67727  0.14069  0.31841  1.0000
  O  Te22      1.0  0.74632  0.07905  0.26966  1.0000
  O  Te23      1.0  0.73072  0.01151  0.17348  1.0000
  O  Te24      1.0  0.66167  0.07318  0.22221  1.0000
  Mg  Mg11      1.0  0.75819  0.02772  0.20762  1.0000
  Mg  Mg12      1.0  0.64978  0.12449  0.28413  1.0000
  C  Sn25      1.0  0.70788  0.90570  0.73683  1.0000
  C   C205      1.0  0.68713  0.91493  0.72984  1.0000
  C  Sn26      1.0  0.66947  0.88953  0.77370  1.0000
  C  Sn27      1.0  0.67261  0.85418  0.82575  1.0000
  C   C206      1.0  0.69334  0.84497  0.83275  1.0000
  C  Sn28      1.0  0.71101  0.87035  0.78887  1.0000
  O  Te25      1.0  0.72529  0.93153  0.69242  1.0000
  O  Te26      1.0  0.64889  0.89939  0.76565  1.0000
  O  Te27      1.0  0.65517  0.82835  0.87016  1.0000
  O  Te28      1.0  0.73158  0.86051  0.79693  1.0000
  Mg  Mg13      1.0  0.63026  0.85472  0.83884  1.0000
  Mg  Mg14      1.0  0.75022  0.90517  0.72388  1.0000
  C  Sn29      1.0  0.60647  0.02673  0.09064  1.0000
  C   C207      1.0  0.58996  0.00145  0.13620  1.0000
  C  Sn30      1.0  0.58909  0.97218  0.24555  1.0000
  C  Sn31      1.0  0.60630  0.96811  0.31082  1.0000
  C   C208      1.0  0.62404  0.99338  0.26529  1.0000
  C  Sn32      1.0  0.62369  0.02265  0.15591  1.0000
  O  Te29      1.0  0.55322  0.06749  0.98115  1.0000
  O  Te30      1.0  0.57117  0.94726  0.28922  1.0000
  O  Te31      1.0  0.60575  0.93904  0.42039  1.0000
  O  Te32      1.0  0.64159  0.04757  0.11227  1.0000
  Mg  Mg15      1.0  0.57789  0.91223  0.44264  1.0000
  Mg  Mg16      1.0  0.58109  0.09433  0.95896  1.0000
  C  Sn33      1.0  0.20698  0.38458  0.33173  1.0000
  C   C209      1.0  0.19933  0.35070  0.29311  1.0000
  C  Sn34      1.0  0.18403  0.34882  0.21016  1.0000
  C  Sn35      1.0  0.17621  0.38148  0.16474  1.0000
  C   C210      1.0  0.18386  0.41533  0.20332  1.0000
  C  Sn36      1.0  0.19916  0.41723  0.28631  1.0000
  O  Te33      1.0  0.22228  0.38581  0.41471  1.0000
  O  Te34      1.0  0.17662  0.31464  0.17295  1.0000
  O  Te35      1.0  0.16090  0.38022  0.08170  1.0000
  O  Te36      1.0  0.20657  0.45139  0.32348  1.0000
  Mg  Mg17      1.0  0.15576  0.32715  0.05839  1.0000
  Mg  Mg18      1.0  0.22745  0.43891  0.43795  1.0000
  C  Sn37      1.0  0.77249  0.56635  0.77871  1.0000
  C   C211      1.0  0.77761  0.60335  0.78887  1.0000
  C  Sn38      1.0  0.79976  0.61363  0.76322  1.0000
  C  Sn39      1.0  0.81715  0.58636  0.72654  1.0000
  C   C212      1.0  0.81203  0.54938  0.71637  1.0000
  C  Sn40      1.0  0.78989  0.53908  0.74203  1.0000
  O  Te37      1.0  0.75024  0.55670  0.80479  1.0000
  O  Te38      1.0  0.80446  0.65079  0.77409  1.0000
  O  Te39      1.0  0.83941  0.59604  0.70047  1.0000
  O  Te40      1.0  0.78518  0.50194  0.73115  1.0000
  Mg  Mg19      1.0  0.83739  0.65022  0.72847  1.0000
  Mg  Mg20      1.0  0.75227  0.50248  0.77665  1.0000
  C  Sn41      1.0  0.18862  0.60746  0.31748  1.0000
  C   C213      1.0  0.20953  0.60801  0.33283  1.0000
  C  Sn42      1.0  0.22329  0.57616  0.29169  1.0000
  C  Sn43      1.0  0.21601  0.54308  0.23389  1.0000
  C   C214      1.0  0.19511  0.54254  0.21854  1.0000
  C  Sn44      1.0  0.18134  0.57437  0.25969  1.0000
  O  Te41      1.0  0.17514  0.63962  0.35931  1.0000
  O  Te42      1.0  0.24413  0.57739  0.30812  1.0000
  O  Te43      1.0  0.22951  0.51090  0.19207  1.0000
  O  Te44      1.0  0.16052  0.57316  0.24325  1.0000
  Mg  Mg21      1.0  0.25647  0.52641  0.23544  1.0000
  Mg  Mg22      1.0  0.14816  0.62412  0.31579  1.0000
  C  Sn45      1.0  0.41188  0.97252  0.65932  1.0000
  C   C215      1.0  0.41938  0.00316  0.72938  1.0000
  C  Sn46      1.0  0.40223  0.03036  0.84491  1.0000
  C  Sn47      1.0  0.37832  0.02686  0.89150  1.0000
  C   C216      1.0  0.37208  0.99624  0.82149  1.0000
  C  Sn48      1.0  0.38797  0.96902  0.70591  1.0000
  O  Te45      1.0  0.42808  0.94566  0.54407  1.0000
  O  Te46      1.0  0.41015  0.06074  0.91321  1.0000
  O  Te47      1.0  0.41590  0.04204  0.00685  1.0000
  O  Te48      1.0  0.38006  0.93865  0.63767  1.0000
  Mg  Mg23      1.0  0.43516  0.07832  0.06526  1.0000
  Mg  Mg24      1.0  0.40882  0.90934  0.48569  1.0000
