data_image0
_chemical_formula_structural       C12N12C24H24C12O12C8H8C8H8C20N12H12C12N12C24H24C12O12C16H16C16H16C28N12H12C2Sn2C2HTe2HMgC2Sn2C2HTe2HMgC2Sn2C2HTe2HMgC2Sn2C2HTe2HMgC2Sn2C2HTe2HMgC2Sn2C2HTe2HMgC2Sn2C2HTe2HMgC2Sn2C2HTe2HMgC2Sn2C2HTe2HMgC2Sn2C2HTe2HMgC2Sn2C2HTe2HMgC2Sn2C2HTe2HMg
_chemical_formula_sum              "C240 N48 H144 O24 Sn24 Te24 Mg12"
_cell_length_a       64.0968
_cell_length_b       36.56
_cell_length_c       7.89003
_cell_angle_alpha    93.1668
_cell_angle_beta     64.0829
_cell_angle_gamma    90.1254

_symmetry_space_group_name_H-M    'P1'
_space_group_IT_number       1

loop_
  _space_group_symop_operation_xyz
  'x, y, z'

loop_
  _atom_site_type_symbol
  _atom_site_label
  _atom_site_symmetry_multiplicity
  _atom_site_fract_x
  _atom_site_fract_y
  _atom_site_fract_z
  _atom_site_occupancy
  C   C1        1.0  0.73204  0.14014  0.25581  1.0000
  C   C2        1.0  0.56086  0.00523  0.18100  1.0000
  C   C3        1.0  0.70721  0.80895  0.29228  1.0000
  C   C4        1.0  0.22975  0.63900  0.30008  1.0000
  C   C5        1.0  0.05983  0.51787  0.19978  1.0000
  C   C6        1.0  0.21193  0.30856  0.21775  1.0000
  C   C7        1.0  0.26901  0.13889  0.24138  1.0000
  C   C8        1.0  0.44102  0.00945  0.29437  1.0000
  C   C9        1.0  0.29121  0.80714  0.20903  1.0000
  C   C10       1.0  0.76883  0.63979  0.23294  1.0000
  C   C11       1.0  0.93954  0.51143  0.32199  1.0000
  C   C12       1.0  0.79151  0.30860  0.25234  1.0000
  N   N1        1.0  0.72397  0.17318  0.27290  1.0000
  N   N2        1.0  0.54447  0.98170  0.24699  1.0000
  N   N3        1.0  0.72838  0.80344  0.26672  1.0000
  N   N4        1.0  0.22122  0.67191  0.32279  1.0000
  N   N5        1.0  0.04424  0.49282  0.24805  1.0000
  N   N6        1.0  0.23025  0.30393  0.24520  1.0000
  N   N7        1.0  0.27641  0.17205  0.23336  1.0000
  N   N8        1.0  0.45646  0.98318  0.24765  1.0000
  N   N9        1.0  0.26936  0.80320  0.25564  1.0000
  N   N10       1.0  0.77607  0.67279  0.23409  1.0000
  N   N11       1.0  0.95574  0.48621  0.26122  1.0000
  N   N12       1.0  0.77024  0.30385  0.28151  1.0000
  C   C13       1.0  0.73707  0.20332  0.27898  1.0000
  C   C14       1.0  0.52327  0.98526  0.23987  1.0000
  C   C15       1.0  0.73834  0.76941  0.26001  1.0000
  C   C16       1.0  0.23472  0.70229  0.31140  1.0000
  C   C17       1.0  0.02246  0.49576  0.25211  1.0000
  C   C18       1.0  0.24026  0.26959  0.23532  1.0000
  C   C19       1.0  0.26339  0.20238  0.23253  1.0000
  C   C20       1.0  0.47792  0.98675  0.24953  1.0000
  C   C21       1.0  0.25932  0.76905  0.26817  1.0000
  C   C22       1.0  0.76270  0.70307  0.24003  1.0000
  C   C23       1.0  0.97696  0.49123  0.26674  1.0000
  C   C24       1.0  0.76098  0.26942  0.28234  1.0000
  C   C25       1.0  0.72598  0.23285  0.41118  1.0000
  C   C26       1.0  0.51111  0.95280  0.24426  1.0000
  C   C27       1.0  0.76243  0.76509  0.14378  1.0000
  C   C28       1.0  0.22470  0.73356  0.43301  1.0000
  C   C29       1.0  0.00928  0.46362  0.29993  1.0000
  C   C30       1.0  0.26470  0.26599  0.14762  1.0000
  C   C31       1.0  0.27577  0.23340  0.14483  1.0000
  C   C32       1.0  0.48957  0.95359  0.24421  1.0000
  C   C33       1.0  0.23665  0.76584  0.41350  1.0000
  C   C34       1.0  0.77415  0.73277  0.13286  1.0000
  C   C35       1.0  0.98762  0.46092  0.30295  1.0000
  C   C36       1.0  0.73757  0.26488  0.41061  1.0000
  H   H1        1.0  0.74882  0.13430  0.25640  1.0000
  H   H2        1.0  0.55996  0.02873  0.10344  1.0000
  H   H3        1.0  0.69540  0.78649  0.29981  1.0000
  H   H4        1.0  0.24688  0.63343  0.29375  1.0000
  H   H5        1.0  0.05737  0.54491  0.15720  1.0000
  H   H6        1.0  0.20386  0.28584  0.17295  1.0000
  H   H7        1.0  0.25247  0.13225  0.23877  1.0000
  H   H8        1.0  0.44324  0.03692  0.34554  1.0000
  H   H9        1.0  0.30325  0.78364  0.17928  1.0000
  H   H10       1.0  0.75267  0.63388  0.22191  1.0000
  H   H11       1.0  0.94100  0.53748  0.39163  1.0000
  H   H12       1.0  0.80325  0.28581  0.23992  1.0000
  H   H13       1.0  0.70804  0.22978  0.51257  1.0000
  H   H14       1.0  0.51953  0.92714  0.24559  1.0000
  H   H15       1.0  0.77121  0.78806  0.06179  1.0000
  H   H16       1.0  0.20720  0.73147  0.54441  1.0000
  H   H17       1.0  0.01731  0.44063  0.33255  1.0000
  H   H18       1.0  0.27448  0.28979  0.08218  1.0000
  H   H19       1.0  0.29459  0.23081  0.07705  1.0000
  H   H20       1.0  0.48054  0.92848  0.24252  1.0000
  H   H21       1.0  0.22898  0.78966  0.50995  1.0000
  H   H22       1.0  0.79262  0.72927  0.04187  1.0000
  H   H23       1.0  0.97809  0.43566  0.33633  1.0000
  H   H24       1.0  0.72887  0.28780  0.51097  1.0000
  C   C37       1.0  0.77234  0.23983  0.15047  1.0000
  C   C38       1.0  0.98965  0.52373  0.22139  1.0000
  C   C39       1.0  0.73873  0.70725  0.36148  1.0000
  C   C40       1.0  0.26917  0.73821  0.14196  1.0000
  C   C41       1.0  0.48965  0.01954  0.25264  1.0000
  C   C42       1.0  0.23886  0.20603  0.32581  1.0000
  C   C43       1.0  0.22769  0.23896  0.32493  1.0000
  C   C44       1.0  0.01203  0.52594  0.20995  1.0000
  C   C45       1.0  0.25741  0.70515  0.16586  1.0000
  C   C46       1.0  0.72681  0.73979  0.36849  1.0000
  C   C47       1.0  0.51193  0.01863  0.24392  1.0000
  C   C48       1.0  0.76033  0.20777  0.14687  1.0000
  O   O1        1.0  0.79476  0.24263  0.01542  1.0000
  O   O2        1.0  0.98166  0.55559  0.17712  1.0000
  O   O3        1.0  0.72710  0.67968  0.47550  1.0000
  O   O4        1.0  0.29069  0.73900  0.98249  1.0000
  O   O5        1.0  0.47935  0.05356  0.26778  1.0000
  O   O6        1.0  0.22547  0.17791  0.42532  1.0000
  O   O7        1.0  0.20372  0.23915  0.42691  1.0000
  O   O8        1.0  0.02359  0.55811  0.15049  1.0000
  O   O9        1.0  0.26777  0.67582  0.04002  1.0000
  O   O10       1.0  0.70350  0.74092  0.49563  1.0000
  O   O11       1.0  0.52099  0.05304  0.24978  1.0000
  O   O12       1.0  0.77251  0.18156  0.99917  1.0000
  C   C49       1.0  0.80279  0.61312  0.26310  1.0000
  C   C50       1.0  0.41410  0.96933  0.21803  1.0000
  C   C51       1.0  0.30356  0.11162  0.26507  1.0000
  C   C52       1.0  0.58782  0.96859  0.26195  1.0000
  C   C53       1.0  0.81545  0.58291  0.26847  1.0000
  C   C54       1.0  0.39285  0.96408  0.21475  1.0000
  C   C55       1.0  0.31622  0.08101  0.26661  1.0000
  C   C56       1.0  0.60893  0.96467  0.26853  1.0000
  H   H25       1.0  0.80812  0.64089  0.27847  1.0000
  H   H26       1.0  0.42741  0.94772  0.16915  1.0000
  H   H27       1.0  0.30930  0.13917  0.27901  1.0000
  H   H28       1.0  0.57513  0.94705  0.30368  1.0000
  H   H29       1.0  0.83111  0.58605  0.28833  1.0000
  H   H30       1.0  0.38885  0.93810  0.16311  1.0000
  H   H31       1.0  0.33214  0.08377  0.28299  1.0000
  H   H32       1.0  0.61355  0.93977  0.31462  1.0000
  C   C57       1.0  0.77505  0.57277  0.22131  1.0000
  C   C58       1.0  0.27497  0.07202  0.23249  1.0000
  C   C59       1.0  0.40214  0.03168  0.34634  1.0000
  C   C60       1.0  0.59850  0.02925  0.14587  1.0000
  C   C61       1.0  0.78773  0.54241  0.22679  1.0000
  C   C62       1.0  0.28772  0.04131  0.23259  1.0000
  C   C63       1.0  0.38100  0.02670  0.33979  1.0000
  C   C64       1.0  0.61935  0.02587  0.15873  1.0000
  H   H33       1.0  0.75952  0.56916  0.19943  1.0000
  H   H34       1.0  0.25897  0.06872  0.21718  1.0000
  H   H35       1.0  0.40570  0.05770  0.40140  1.0000
  H   H36       1.0  0.59458  0.05384  0.09234  1.0000
  H   H37       1.0  0.78237  0.51472  0.21082  1.0000
  H   H38       1.0  0.28200  0.01378  0.21830  1.0000
  H   H39       1.0  0.36789  0.04858  0.38668  1.0000
  H   H40       1.0  0.63180  0.04774  0.11960  1.0000
  C   C65       1.0  0.82144  0.51524  0.25954  1.0000
  C   C66       1.0  0.82675  0.45330  0.24605  1.0000
  C   C67       1.0  0.85336  0.49142  0.27439  1.0000
  C   C68       1.0  0.32197  0.01294  0.25183  1.0000
  C   C69       1.0  0.32730  0.95079  0.22630  1.0000
  C   C70       1.0  0.35389  0.98784  0.26249  1.0000
  C   C71       1.0  0.17888  0.51380  0.23956  1.0000
  C   C72       1.0  0.17392  0.45203  0.23874  1.0000
  C   C73       1.0  0.14748  0.49003  0.21230  1.0000
  C   C74       1.0  0.67937  0.01403  0.23569  1.0000
  C   C75       1.0  0.67367  0.95262  0.26272  1.0000
  C   C76       1.0  0.64709  0.98911  0.22938  1.0000
  C   C77       1.0  0.78236  0.60844  0.24009  1.0000
  C   C78       1.0  0.28270  0.10761  0.24774  1.0000
  C   C79       1.0  0.41906  0.00320  0.28490  1.0000
  C   C80       1.0  0.58244  0.00083  0.19811  1.0000
  C   C81       1.0  0.80801  0.54719  0.25123  1.0000
  C   C82       1.0  0.30851  0.04544  0.24979  1.0000
  C   C83       1.0  0.37608  0.99281  0.27416  1.0000
  C   C84       1.0  0.62489  0.99334  0.21814  1.0000
  N   N13       1.0  0.84090  0.52157  0.28108  1.0000
  N   N14       1.0  0.81351  0.48169  0.24377  1.0000
  N   N15       1.0  0.84712  0.45675  0.25616  1.0000
  N   N16       1.0  0.34146  0.01839  0.27386  1.0000
  N   N17       1.0  0.31405  0.97967  0.22970  1.0000
  N   N18       1.0  0.34762  0.95344  0.23820  1.0000
  N   N19       1.0  0.15956  0.51997  0.21746  1.0000
  N   N20       1.0  0.18683  0.48036  0.25019  1.0000
  N   N21       1.0  0.15398  0.45535  0.22176  1.0000
  N   N22       1.0  0.65963  0.01935  0.21817  1.0000
  N   N23       1.0  0.68729  0.98121  0.25577  1.0000
  N   N24       1.0  0.65331  0.95527  0.25237  1.0000
  H   H41       1.0  0.79759  0.22051  0.93129  1.0000
  H   H42       1.0  0.97426  0.54891  0.09490  1.0000
  H   H43       1.0  0.71251  0.69040  0.57169  1.0000
  H   H44       1.0  0.28701  0.74240  0.87572  1.0000
  H   H45       1.0  0.49133  0.07132  0.25594  1.0000
  H   H46       1.0  0.20988  0.18848  0.49954  1.0000
  H   H47       1.0  0.19813  0.26461  0.44971  1.0000
  H   H48       1.0  0.01212  0.57413  0.13785  1.0000
  H   H49       1.0  0.28289  0.68433  0.95093  1.0000
  H   H50       1.0  0.69790  0.76626  0.51098  1.0000
  H   H51       1.0  0.53049  0.05174  0.31836  1.0000
  H   H52       1.0  0.76597  0.18287  0.90783  1.0000
  C   C85       1.0  0.73157  0.14069  0.75483  1.0000
  C   C86       1.0  0.55959  0.01690  0.69198  1.0000
  C   C87       1.0  0.70643  0.81025  0.79041  1.0000
  C   C88       1.0  0.23070  0.64104  0.78695  1.0000
  C   C89       1.0  0.06004  0.50592  0.68663  1.0000
  C   C90       1.0  0.20911  0.30875  0.73547  1.0000
  C   C91       1.0  0.27093  0.14411  0.72716  1.0000
  C   C92       1.0  0.43990  0.01031  0.80561  1.0000
  C   C93       1.0  0.29105  0.81135  0.72753  1.0000
  C   C94       1.0  0.76850  0.64141  0.73308  1.0000
  C   C95       1.0  0.93986  0.51396  0.80998  1.0000
  C   C96       1.0  0.79140  0.30917  0.75228  1.0000
  N   N25       1.0  0.72365  0.17382  0.77162  1.0000
  N   N26       1.0  0.54424  0.99150  0.73439  1.0000
  N   N27       1.0  0.72753  0.80527  0.76825  1.0000
  N   N28       1.0  0.22294  0.67430  0.80344  1.0000
  N   N29       1.0  0.04306  0.48388  0.76558  1.0000
  N   N30       1.0  0.23012  0.30403  0.71446  1.0000
  N   N31       1.0  0.27734  0.17706  0.74583  1.0000
  N   N32       1.0  0.45627  0.98539  0.73790  1.0000
  N   N33       1.0  0.27007  0.80628  0.74906  1.0000
  N   N34       1.0  0.77590  0.67444  0.72929  1.0000
  N   N35       1.0  0.95496  0.48733  0.76795  1.0000
  N   N36       1.0  0.77025  0.30407  0.77976  1.0000
  C   C97       1.0  0.73692  0.20368  0.77818  1.0000
  C   C98       1.0  0.52269  0.99436  0.73409  1.0000
  C   C99       1.0  0.73774  0.77136  0.76129  1.0000
  C   C100      1.0  0.23649  0.70444  0.79661  1.0000
  C   C101      1.0  0.02172  0.48789  0.76108  1.0000
  C   C102      1.0  0.23980  0.27063  0.72123  1.0000
  C   C103      1.0  0.26441  0.20695  0.73730  1.0000
  C   C104      1.0  0.47753  0.99017  0.74310  1.0000
  C   C105      1.0  0.26030  0.77170  0.76621  1.0000
  C   C106      1.0  0.76241  0.70476  0.73683  1.0000
  C   C107      1.0  0.97645  0.49050  0.77000  1.0000
  C   C108      1.0  0.76100  0.26957  0.78205  1.0000
  C   C109      1.0  0.72594  0.23319  0.91096  1.0000
  C   C110      1.0  0.50986  0.96181  0.77300  1.0000
  C   C111      1.0  0.76179  0.76700  0.64271  1.0000
  C   C112      1.0  0.22562  0.73573  0.91593  1.0000
  C   C113      1.0  0.00862  0.45601  0.77889  1.0000
  C   C114      1.0  0.26425  0.26739  0.62578  1.0000
  C   C115      1.0  0.27627  0.23658  0.63229  1.0000
  C   C116      1.0  0.48841  0.95930  0.77218  1.0000
  C   C117      1.0  0.23707  0.76835  0.90129  1.0000
  C   C118      1.0  0.77363  0.73460  0.62934  1.0000
  C   C119      1.0  0.98712  0.45729  0.77826  1.0000
  C   C120      1.0  0.73763  0.26506  0.91109  1.0000
  H   H53       1.0  0.74836  0.13462  0.75474  1.0000
  H   H54       1.0  0.55720  0.04401  0.64993  1.0000
  H   H55       1.0  0.69493  0.78741  0.79628  1.0000
  H   H56       1.0  0.24757  0.63481  0.78433  1.0000
  H   H57       1.0  0.05947  0.52807  0.60019  1.0000
  H   H58       1.0  0.19726  0.28606  0.75201  1.0000
  H   H59       1.0  0.25609  0.13869  0.69568  1.0000
  H   H60       1.0  0.44136  0.03590  0.87885  1.0000
  H   H61       1.0  0.30238  0.78897  0.72969  1.0000
  H   H62       1.0  0.75204  0.63537  0.72745  1.0000
  H   H63       1.0  0.94239  0.54165  0.85677  1.0000
  H   H64       1.0  0.80318  0.28659  0.74233  1.0000
  H   H65       1.0  0.70798  0.23023  0.01216  1.0000
  H   H66       1.0  0.51797  0.93849  0.80242  1.0000
  H   H67       1.0  0.77053  0.78985  0.55942  1.0000
  H   H68       1.0  0.20765  0.73349  0.01895  1.0000
  H   H69       1.0  0.01628  0.43037  0.79096  1.0000
  H   H70       1.0  0.27325  0.29048  0.54605  1.0000
  H   H71       1.0  0.29506  0.23441  0.55708  1.0000
  H   H72       1.0  0.47914  0.93375  0.79710  1.0000
  H   H73       1.0  0.22851  0.79233  0.99324  1.0000
  H   H74       1.0  0.79201  0.73112  0.53523  1.0000
  H   H75       1.0  0.97738  0.43256  0.78648  1.0000
  H   H76       1.0  0.72903  0.28791  0.01224  1.0000
  C   C121      1.0  0.77228  0.23993  0.65052  1.0000
  C   C122      1.0  0.98906  0.52288  0.76039  1.0000
  C   C123      1.0  0.73852  0.70908  0.86081  1.0000
  C   C124      1.0  0.27131  0.74057  0.64575  1.0000
  C   C125      1.0  0.48987  0.02309  0.70612  1.0000
  C   C126      1.0  0.24011  0.21031  0.83940  1.0000
  C   C127      1.0  0.22785  0.24107  0.82879  1.0000
  C   C128      1.0  0.01125  0.52138  0.75389  1.0000
  C   C129      1.0  0.25972  0.70737  0.65994  1.0000
  C   C130      1.0  0.72649  0.74171  0.87065  1.0000
  C   C131      1.0  0.51220  0.02500  0.69604  1.0000
  C   C132      1.0  0.76022  0.20793  0.64655  1.0000
  O   O13       1.0  0.79472  0.24256  0.51590  1.0000
  O   O14       1.0  0.97977  0.55692  0.75957  1.0000
  O   O15       1.0  0.72695  0.68157  0.97561  1.0000
  O   O16       1.0  0.29354  0.74079  0.49788  1.0000
  O   O17       1.0  0.48158  0.05544  0.66888  1.0000
  O   O18       1.0  0.22647  0.18396  0.95886  1.0000
  O   O19       1.0  0.20414  0.24257  0.93480  1.0000
  O   O20       1.0  0.02113  0.55544  0.74909  1.0000
  O   O21       1.0  0.27085  0.67839  0.53346  1.0000
  O   O22       1.0  0.70335  0.74276  0.00204  1.0000
  O   O23       1.0  0.52382  0.05742  0.64224  1.0000
  O   O24       1.0  0.77246  0.18172  0.49870  1.0000
  C   C133      1.0  0.91267  0.47369  0.73817  1.0000
  C   C134      1.0  0.80269  0.61450  0.76039  1.0000
  C   C135      1.0  0.28883  0.87873  0.69593  1.0000
  C   C136      1.0  0.08741  0.46975  0.76543  1.0000
  C   C137      1.0  0.19634  0.61401  0.75783  1.0000
  C   C138      1.0  0.70965  0.87834  0.79951  1.0000
  C   C139      1.0  0.58712  0.97533  0.74297  1.0000
  C   C140      1.0  0.69772  0.11304  0.72177  1.0000
  C   C141      1.0  0.89147  0.46854  0.73413  1.0000
  C   C142      1.0  0.81532  0.58422  0.76599  1.0000
  C   C143      1.0  0.29761  0.91340  0.69636  1.0000
  C   C144      1.0  0.10877  0.46610  0.76805  1.0000
  C   C145      1.0  0.18391  0.58359  0.74645  1.0000
  C   C146      1.0  0.70132  0.91283  0.79163  1.0000
  C   C147      1.0  0.60830  0.96903  0.74530  1.0000
  C   C148      1.0  0.68504  0.08253  0.71760  1.0000
  H   H77       1.0  0.92578  0.45180  0.69240  1.0000
  H   H78       1.0  0.80818  0.64221  0.77467  1.0000
  H   H79       1.0  0.27271  0.87470  0.68369  1.0000
  H   H80       1.0  0.07467  0.44831  0.81192  1.0000
  H   H81       1.0  0.19058  0.64155  0.74961  1.0000
  H   H82       1.0  0.72588  0.87471  0.80999  1.0000
  H   H83       1.0  0.57424  0.95413  0.77556  1.0000
  H   H84       1.0  0.69224  0.14032  0.70679  1.0000
  H   H85       1.0  0.88729  0.44242  0.68516  1.0000
  H   H86       1.0  0.83099  0.58736  0.78582  1.0000
  H   H87       1.0  0.28864  0.93759  0.68424  1.0000
  H   H88       1.0  0.11358  0.44145  0.81481  1.0000
  H   H89       1.0  0.16807  0.58651  0.72944  1.0000
  H   H90       1.0  0.71085  0.93721  0.79573  1.0000
  H   H91       1.0  0.61266  0.94267  0.78038  1.0000
  H   H92       1.0  0.66930  0.08500  0.69874  1.0000
  C   C149      1.0  0.77470  0.57428  0.72239  1.0000
  C   C150      1.0  0.90114  0.53658  0.85823  1.0000
  C   C151      1.0  0.32181  0.85244  0.72466  1.0000
  C   C152      1.0  0.22493  0.57419  0.78316  1.0000
  C   C153      1.0  0.09804  0.52985  0.64099  1.0000
  C   C154      1.0  0.72582  0.07386  0.75862  1.0000
  C   C155      1.0  0.67590  0.85127  0.78459  1.0000
  C   C156      1.0  0.59811  0.03753  0.65621  1.0000
  C   C157      1.0  0.78740  0.54387  0.72717  1.0000
  C   C158      1.0  0.88001  0.53165  0.85119  1.0000
  C   C159      1.0  0.33058  0.88720  0.72579  1.0000
  C   C160      1.0  0.21243  0.54370  0.77287  1.0000
  C   C161      1.0  0.11904  0.52691  0.65183  1.0000
  C   C162      1.0  0.71298  0.04328  0.75627  1.0000
  C   C163      1.0  0.66759  0.88588  0.77520  1.0000
  C   C164      1.0  0.61923  0.03142  0.66101  1.0000
  H   H93       1.0  0.75902  0.57059  0.70265  1.0000
  H   H94       1.0  0.90489  0.56278  0.91023  1.0000
  H   H95       1.0  0.33096  0.82862  0.73882  1.0000
  H   H96       1.0  0.24080  0.57081  0.79977  1.0000
  H   H97       1.0  0.09401  0.55405  0.58542  1.0000
  H   H98       1.0  0.74159  0.07086  0.77709  1.0000
  H   H99       1.0  0.66601  0.82717  0.78184  1.0000
  H   H100      1.0  0.59417  0.06395  0.61823  1.0000
  H   H101      1.0  0.78190  0.51618  0.71299  1.0000
  H   H102      1.0  0.86708  0.55374  0.89494  1.0000
  H   H103      1.0  0.34653  0.89133  0.74023  1.0000
  H   H104      1.0  0.21824  0.51620  0.78075  1.0000
  H   H105      1.0  0.13153  0.54871  0.60867  1.0000
  H   H106      1.0  0.71842  0.01604  0.77194  1.0000
  H   H107      1.0  0.65144  0.88941  0.76354  1.0000
  H   H108      1.0  0.63197  0.05279  0.62922  1.0000
  C   C165      1.0  0.82112  0.51635  0.75852  1.0000
  C   C166      1.0  0.82625  0.45435  0.74580  1.0000
  C   C167      1.0  0.85284  0.49228  0.77623  1.0000
  C   C168      1.0  0.32152  0.01712  0.75370  1.0000
  C   C169      1.0  0.32685  0.95509  0.72796  1.0000
  C   C170      1.0  0.35328  0.99207  0.76589  1.0000
  C   C171      1.0  0.17872  0.51561  0.73971  1.0000
  C   C172      1.0  0.17427  0.45365  0.74240  1.0000
  C   C173      1.0  0.14704  0.49073  0.72253  1.0000
  C   C174      1.0  0.67860  0.01519  0.73411  1.0000
  C   C175      1.0  0.67243  0.95383  0.75732  1.0000
  C   C176      1.0  0.64653  0.99120  0.71944  1.0000
  C   C177      1.0  0.78212  0.61000  0.73924  1.0000
  C   C178      1.0  0.91784  0.50781  0.80113  1.0000
  C   C179      1.0  0.30066  0.84782  0.71341  1.0000
  C   C180      1.0  0.21709  0.60973  0.77587  1.0000
  C   C181      1.0  0.08188  0.50160  0.69960  1.0000
  C   C182      1.0  0.71827  0.10908  0.74302  1.0000
  C   C183      1.0  0.69723  0.84686  0.79302  1.0000
  C   C184      1.0  0.58164  0.00973  0.69811  1.0000
  C   C185      1.0  0.80781  0.54849  0.74983  1.0000
  C   C186      1.0  0.87494  0.49755  0.78889  1.0000
  C   C187      1.0  0.31840  0.91807  0.71382  1.0000
  C   C188      1.0  0.19183  0.54802  0.75345  1.0000
  C   C189      1.0  0.12470  0.49479  0.71349  1.0000
  C   C190      1.0  0.69243  0.04734  0.73623  1.0000
  C   C191      1.0  0.68034  0.91709  0.77680  1.0000
  C   C192      1.0  0.62456  0.99712  0.70633  1.0000
  N   N37       1.0  0.84051  0.52250  0.78112  1.0000
  N   N38       1.0  0.81312  0.48283  0.74241  1.0000
  N   N39       1.0  0.84651  0.45767  0.75783  1.0000
  N   N40       1.0  0.34090  0.02258  0.77735  1.0000
  N   N41       1.0  0.31364  0.98392  0.73037  1.0000
  N   N42       1.0  0.34708  0.95773  0.74071  1.0000
  N   N43       1.0  0.15899  0.52119  0.72203  1.0000
  N   N44       1.0  0.18724  0.48238  0.74774  1.0000
  N   N45       1.0  0.15388  0.45652  0.73324  1.0000
  N   N46       1.0  0.65919  0.02105  0.71297  1.0000
  N   N47       1.0  0.68605  0.98214  0.75562  1.0000
  N   N48       1.0  0.65242  0.95696  0.74111  1.0000
  H   H109      1.0  0.79761  0.22005  0.43431  1.0000
  H   H110      1.0  0.99196  0.57438  0.74529  1.0000
  H   H111      1.0  0.71248  0.69249  0.07274  1.0000
  H   H112      1.0  0.29706  0.76612  0.46398  1.0000
  H   H113      1.0  0.47399  0.04950  0.58722  1.0000
  H   H114      1.0  0.23267  0.17961  0.04967  1.0000
  H   H115      1.0  0.20083  0.22075  0.00889  1.0000
  H   H116      1.0  0.03177  0.55395  0.80729  1.0000
  H   H117      1.0  0.28445  0.68845  0.43223  1.0000
  H   H118      1.0  0.69772  0.76811  0.01967  1.0000
  H   H119      1.0  0.51231  0.07434  0.63654  1.0000
  H   H120      1.0  0.76658  0.18403  0.40360  1.0000
  C   C193      1.0  0.79232  0.40561  0.71936  1.0000
  C   C194      1.0  0.81178  0.41680  0.74316  1.0000
  C  Sn1       1.0  0.82667  0.39085  0.75948  1.0000
  C  Sn2       1.0  0.82195  0.35302  0.75172  1.0000
  C   C195      1.0  0.80244  0.34211  0.72774  1.0000
  C   C196      1.0  0.78765  0.36831  0.71162  1.0000
  H   H121      1.0  0.78089  0.42588  0.70678  1.0000
  O  Te1       1.0  0.84604  0.40250  0.78327  1.0000
  O  Te2       1.0  0.83654  0.32651  0.76759  1.0000
  H   H122      1.0  0.77259  0.35964  0.69307  1.0000
  Mg  Mg1       1.0  0.86076  0.35598  0.79821  1.0000
  C   C197      1.0  0.09170  0.46878  0.24674  1.0000
  C   C198      1.0  0.08268  0.50177  0.22207  1.0000
  C  Sn3       1.0  0.09640  0.53277  0.17554  1.0000
  C  Sn4       1.0  0.11956  0.53063  0.15333  1.0000
  C   C199      1.0  0.12843  0.49750  0.17817  1.0000
  C   C200      1.0  0.11455  0.46664  0.22479  1.0000
  H   H123      1.0  0.08096  0.44490  0.28270  1.0000
  O  Te3       1.0  0.08712  0.56551  0.15148  1.0000
  O  Te4       1.0  0.13366  0.56119  0.10678  1.0000
  H   H124      1.0  0.12154  0.44111  0.24375  1.0000
  Mg  Mg2       1.0  0.11314  0.59965  0.08869  1.0000
  C   C201      1.0  0.88373  0.53600  0.37424  1.0000
  C   C202      1.0  0.87691  0.50659  0.29073  1.0000
  C  Sn5       1.0  0.89100  0.47501  0.22046  1.0000
  C  Sn6       1.0  0.91230  0.47291  0.23430  1.0000
  C   C203      1.0  0.91896  0.50248  0.31821  1.0000
  C   C204      1.0  0.90473  0.53395  0.38801  1.0000
  H   H125      1.0  0.87272  0.56035  0.42834  1.0000
  O  Te5       1.0  0.88393  0.44588  0.13740  1.0000
  O  Te6       1.0  0.92671  0.44167  0.16529  1.0000
  H   H126      1.0  0.91001  0.55671  0.45276  1.0000
  Mg  Mg3       1.0  0.90953  0.40917  0.06410  1.0000
  C   C205      1.0  0.38372  0.03537  0.86966  1.0000
  C   C206      1.0  0.37797  0.00647  0.78445  1.0000
  C  Sn7       1.0  0.39209  0.97505  0.70874  1.0000
  C  Sn8       1.0  0.41361  0.97259  0.71878  1.0000
  C   C207      1.0  0.42045  0.00164  0.80444  1.0000
  C   C208      1.0  0.40494  0.03297  0.87969  1.0000
  H   H127      1.0  0.37268  0.05960  0.92798  1.0000
  O  Te7       1.0  0.38484  0.94643  0.62403  1.0000
  O  Te8       1.0  0.42806  0.94150  0.64431  1.0000
  H   H128      1.0  0.41035  0.05533  0.94576  1.0000
  Mg  Mg4       1.0  0.41058  0.90973  0.54285  1.0000
  C   C209      1.0  0.72594  0.06306  0.25958  1.0000
  C   C210      1.0  0.72213  0.09955  0.23420  1.0000
  C  Sn9       1.0  0.70227  0.10975  0.21553  1.0000
  C  Sn10      1.0  0.68596  0.08287  0.22249  1.0000
  C   C211      1.0  0.68993  0.04644  0.24806  1.0000
  C   C212      1.0  0.70985  0.03653  0.26654  1.0000
  H   H129      1.0  0.74135  0.05539  0.27398  1.0000
  O  Te9       1.0  0.69874  0.14633  0.19020  1.0000
  O  Te10      1.0  0.66597  0.09232  0.20428  1.0000
  H   H130      1.0  0.71279  0.00828  0.28630  1.0000
  Mg  Mg5       1.0  0.66887  0.14571  0.17222  1.0000
  C   C213      1.0  0.20901  0.40556  0.75284  1.0000
  C   C214      1.0  0.18899  0.41618  0.73770  1.0000
  C  Sn11      1.0  0.17356  0.38987  0.72958  1.0000
  C  Sn12      1.0  0.17830  0.35225  0.73682  1.0000
  C   C215      1.0  0.19837  0.34190  0.75210  1.0000
  C   C216      1.0  0.21370  0.36846  0.76006  1.0000
  H   H131      1.0  0.22086  0.42610  0.75911  1.0000
  O  Te11      1.0  0.15364  0.40095  0.71439  1.0000
  O  Te12      1.0  0.16317  0.32538  0.72903  1.0000
  H   H132      1.0  0.22919  0.36023  0.77190  1.0000
  Mg  Mg6       1.0  0.13831  0.35412  0.70849  1.0000
  C   C217      1.0  0.21814  0.54500  0.27313  1.0000
  C   C218      1.0  0.19662  0.54382  0.26821  1.0000
  C  Sn13      1.0  0.18549  0.57616  0.26164  1.0000
  C  Sn14      1.0  0.19616  0.61027  0.25992  1.0000
  C   C219      1.0  0.21770  0.61116  0.26474  1.0000
  C   C220      1.0  0.22868  0.57864  0.27136  1.0000
  H   H133      1.0  0.22664  0.51984  0.27815  1.0000
  O  Te13      1.0  0.16399  0.57448  0.25687  1.0000
  O  Te14      1.0  0.18542  0.64301  0.25332  1.0000
  H   H134      1.0  0.24535  0.57957  0.27504  1.0000
  Mg  Mg7       1.0  0.15622  0.62656  0.24862  1.0000
  C   C221      1.0  0.32756  0.85340  0.20177  1.0000
  C   C222      1.0  0.30621  0.84377  0.20653  1.0000
  C  Sn15      1.0  0.29092  0.87078  0.20496  1.0000
  C  Sn16      1.0  0.29718  0.90811  0.19846  1.0000
  C   C223      1.0  0.31858  0.91746  0.19361  1.0000
  C   C224      1.0  0.33375  0.89021  0.19529  1.0000
  H   H135      1.0  0.33930  0.83232  0.20297  1.0000
  O  Te15      1.0  0.26966  0.86067  0.20984  1.0000
  O  Te16      1.0  0.28223  0.93566  0.19669  1.0000
  H   H136      1.0  0.35028  0.89768  0.19148  1.0000
  Mg  Mg8       1.0  0.25517  0.90817  0.20510  1.0000
  C   C225      1.0  0.17683  0.35450  0.20376  1.0000
  C   C226      1.0  0.19724  0.34516  0.21602  1.0000
  C  Sn17      1.0  0.21024  0.37234  0.25387  1.0000
  C  Sn18      1.0  0.20262  0.40953  0.27991  1.0000
  C   C227      1.0  0.18217  0.41858  0.26750  1.0000
  C   C228      1.0  0.16930  0.39116  0.22950  1.0000
  H   H137      1.0  0.16686  0.33329  0.17446  1.0000
  O  Te17      1.0  0.23059  0.36254  0.26558  1.0000
  O  Te18      1.0  0.21528  0.43724  0.31797  1.0000
  H   H138      1.0  0.15349  0.39840  0.22013  1.0000
  Mg  Mg9       1.0  0.24186  0.41016  0.32027  1.0000
  C   C229      1.0  0.82701  0.35628  0.24688  1.0000
  C   C230      1.0  0.80581  0.34583  0.25114  1.0000
  C  Sn19      1.0  0.79068  0.37204  0.24011  1.0000
  C  Sn20      1.0  0.79695  0.40938  0.22449  1.0000
  C   C231      1.0  0.81821  0.41955  0.22021  1.0000
  C   C232      1.0  0.83321  0.39310  0.23139  1.0000
  H   H139      1.0  0.83862  0.33582  0.25543  1.0000
  O  Te19      1.0  0.76957  0.36113  0.24464  1.0000
  O  Te20      1.0  0.78217  0.43613  0.21316  1.0000
  H   H140      1.0  0.84963  0.40120  0.22797  1.0000
  Mg  Mg10      1.0  0.75528  0.40772  0.22505  1.0000
  C   C233      1.0  0.70709  0.90583  0.30152  1.0000
  C   C234      1.0  0.68751  0.91576  0.27805  1.0000
  C  Sn21      1.0  0.67214  0.88910  0.27235  1.0000
  C  Sn22      1.0  0.67650  0.85183  0.29056  1.0000
  C   C235      1.0  0.69612  0.84218  0.31412  1.0000
  C   C236      1.0  0.71139  0.86908  0.31957  1.0000
  H   H141      1.0  0.71889  0.92664  0.30584  1.0000
  O  Te21      1.0  0.65267  0.89949  0.24874  1.0000
  O  Te22      1.0  0.66142  0.82463  0.28543  1.0000
  H   H142      1.0  0.72654  0.86139  0.33786  1.0000
  Mg  Mg11      1.0  0.63724  0.85241  0.25056  1.0000
  C   C237      1.0  0.28298  0.04985  0.71971  1.0000
  C   C238      1.0  0.30378  0.04781  0.73617  1.0000
  C  Sn23      1.0  0.31415  0.07975  0.76426  1.0000
  C  Sn24      1.0  0.30345  0.11435  0.77607  1.0000
  C   C239      1.0  0.28264  0.11610  0.75956  1.0000
  C   C240      1.0  0.27241  0.08396  0.73141  1.0000
  H   H143      1.0  0.27506  0.02499  0.69803  1.0000
  O  Te23      1.0  0.33494  0.07721  0.78034  1.0000
  O  Te24      1.0  0.31344  0.14670  0.80416  1.0000
  H   H144      1.0  0.25630  0.08555  0.71879  1.0000
  Mg  Mg12      1.0  0.34184  0.12906  0.81753  1.0000
