data_image0
_chemical_formula_structural       C12N12C24H24C12O12C12N12H12C12N12C24H24C12O12C12N12H12SnCSn2CSnTe4Mg2SnCSn2CSnTe4Mg2SnCSn2CSnTe4Mg2SnCSn2CSnTe4Mg2SnCSn2CSnTe4Mg2SnCSn2CSnTe4Mg2SnCSn2CSnTe4Mg2SnCSn2CSnTe4Mg2SnCSn2CSnTe4Mg2SnCSn2CSnTe4Mg2SnCSn2CSnTe4Mg2SnCSn2CSnTe4Mg2SnCSn2CSnTe4Mg2SnCSn2CSnTe4Mg2SnCSn2CSnTe4Mg2SnCSn2CSnTe4Mg2SnCSn2CSnTe4Mg2SnCSn2CSnTe4Mg2SnCSn2CSnTe4Mg2SnCSn2CSnTe4Mg2SnCSn2CSnTe4Mg2SnCSn2CSnTe4Mg2SnCSn2CSnTe4Mg2SnCSn2CSnTe4Mg2
_chemical_formula_sum              "C168 N48 H72 O24 Sn96 Te96 Mg48"
_cell_length_a       64.0968
_cell_length_b       36.56
_cell_length_c       7.89003
_cell_angle_alpha    93.1668
_cell_angle_beta     64.0829
_cell_angle_gamma    90.1254

_symmetry_space_group_name_H-M    'P1'
_space_group_IT_number       1

loop_
  _space_group_symop_operation_xyz
  'x, y, z'

loop_
  _atom_site_type_symbol
  _atom_site_label
  _atom_site_symmetry_multiplicity
  _atom_site_fract_x
  _atom_site_fract_y
  _atom_site_fract_z
  _atom_site_occupancy
  C   C1        1.0  0.73204  0.14014  0.25581  1.0000
  C   C2        1.0  0.56086  0.00523  0.18100  1.0000
  C   C3        1.0  0.70721  0.80895  0.29228  1.0000
  C   C4        1.0  0.22975  0.63900  0.30008  1.0000
  C   C5        1.0  0.05983  0.51787  0.19978  1.0000
  C   C6        1.0  0.21193  0.30856  0.21775  1.0000
  C   C7        1.0  0.26901  0.13889  0.24138  1.0000
  C   C8        1.0  0.44102  0.00945  0.29437  1.0000
  C   C9        1.0  0.29121  0.80714  0.20903  1.0000
  C   C10       1.0  0.76883  0.63979  0.23294  1.0000
  C   C11       1.0  0.93954  0.51143  0.32199  1.0000
  C   C12       1.0  0.79151  0.30860  0.25234  1.0000
  N   N1        1.0  0.72397  0.17318  0.27290  1.0000
  N   N2        1.0  0.54447  0.98170  0.24699  1.0000
  N   N3        1.0  0.72838  0.80344  0.26672  1.0000
  N   N4        1.0  0.22122  0.67191  0.32279  1.0000
  N   N5        1.0  0.04424  0.49282  0.24805  1.0000
  N   N6        1.0  0.23025  0.30393  0.24520  1.0000
  N   N7        1.0  0.27641  0.17205  0.23336  1.0000
  N   N8        1.0  0.45646  0.98318  0.24765  1.0000
  N   N9        1.0  0.26936  0.80320  0.25564  1.0000
  N   N10       1.0  0.77607  0.67279  0.23409  1.0000
  N   N11       1.0  0.95574  0.48621  0.26122  1.0000
  N   N12       1.0  0.77024  0.30385  0.28151  1.0000
  C   C13       1.0  0.73707  0.20332  0.27898  1.0000
  C   C14       1.0  0.52327  0.98526  0.23987  1.0000
  C   C15       1.0  0.73834  0.76941  0.26001  1.0000
  C   C16       1.0  0.23472  0.70229  0.31140  1.0000
  C   C17       1.0  0.02246  0.49576  0.25211  1.0000
  C   C18       1.0  0.24026  0.26959  0.23532  1.0000
  C   C19       1.0  0.26339  0.20238  0.23253  1.0000
  C   C20       1.0  0.47792  0.98675  0.24953  1.0000
  C   C21       1.0  0.25932  0.76905  0.26817  1.0000
  C   C22       1.0  0.76270  0.70307  0.24003  1.0000
  C   C23       1.0  0.97696  0.49123  0.26674  1.0000
  C   C24       1.0  0.76098  0.26942  0.28234  1.0000
  C   C25       1.0  0.72598  0.23285  0.41118  1.0000
  C   C26       1.0  0.51111  0.95280  0.24426  1.0000
  C   C27       1.0  0.76243  0.76509  0.14378  1.0000
  C   C28       1.0  0.22470  0.73356  0.43301  1.0000
  C   C29       1.0  0.00928  0.46362  0.29993  1.0000
  C   C30       1.0  0.26470  0.26599  0.14762  1.0000
  C   C31       1.0  0.27577  0.23340  0.14483  1.0000
  C   C32       1.0  0.48957  0.95359  0.24421  1.0000
  C   C33       1.0  0.23665  0.76584  0.41350  1.0000
  C   C34       1.0  0.77415  0.73277  0.13286  1.0000
  C   C35       1.0  0.98762  0.46092  0.30295  1.0000
  C   C36       1.0  0.73757  0.26488  0.41061  1.0000
  H   H1        1.0  0.74882  0.13430  0.25640  1.0000
  H   H2        1.0  0.55996  0.02873  0.10344  1.0000
  H   H3        1.0  0.69540  0.78649  0.29981  1.0000
  H   H4        1.0  0.24688  0.63343  0.29375  1.0000
  H   H5        1.0  0.05737  0.54491  0.15720  1.0000
  H   H6        1.0  0.20386  0.28584  0.17295  1.0000
  H   H7        1.0  0.25247  0.13225  0.23877  1.0000
  H   H8        1.0  0.44324  0.03692  0.34554  1.0000
  H   H9        1.0  0.30325  0.78364  0.17928  1.0000
  H   H10       1.0  0.75267  0.63388  0.22191  1.0000
  H   H11       1.0  0.94100  0.53748  0.39163  1.0000
  H   H12       1.0  0.80325  0.28581  0.23992  1.0000
  H   H13       1.0  0.70804  0.22978  0.51257  1.0000
  H   H14       1.0  0.51953  0.92714  0.24559  1.0000
  H   H15       1.0  0.77121  0.78806  0.06179  1.0000
  H   H16       1.0  0.20720  0.73147  0.54441  1.0000
  H   H17       1.0  0.01731  0.44063  0.33255  1.0000
  H   H18       1.0  0.27448  0.28979  0.08218  1.0000
  H   H19       1.0  0.29459  0.23081  0.07705  1.0000
  H   H20       1.0  0.48054  0.92848  0.24252  1.0000
  H   H21       1.0  0.22898  0.78966  0.50995  1.0000
  H   H22       1.0  0.79262  0.72927  0.04187  1.0000
  H   H23       1.0  0.97809  0.43566  0.33633  1.0000
  H   H24       1.0  0.72887  0.28780  0.51097  1.0000
  C   C37       1.0  0.77234  0.23983  0.15047  1.0000
  C   C38       1.0  0.98965  0.52373  0.22139  1.0000
  C   C39       1.0  0.73873  0.70725  0.36148  1.0000
  C   C40       1.0  0.26917  0.73821  0.14196  1.0000
  C   C41       1.0  0.48965  0.01954  0.25264  1.0000
  C   C42       1.0  0.23886  0.20603  0.32581  1.0000
  C   C43       1.0  0.22769  0.23896  0.32493  1.0000
  C   C44       1.0  0.01203  0.52594  0.20995  1.0000
  C   C45       1.0  0.25741  0.70515  0.16586  1.0000
  C   C46       1.0  0.72681  0.73979  0.36849  1.0000
  C   C47       1.0  0.51193  0.01863  0.24392  1.0000
  C   C48       1.0  0.76033  0.20777  0.14687  1.0000
  O   O1        1.0  0.79476  0.24263  0.01542  1.0000
  O   O2        1.0  0.98166  0.55559  0.17712  1.0000
  O   O3        1.0  0.72710  0.67968  0.47550  1.0000
  O   O4        1.0  0.29069  0.73900  0.98249  1.0000
  O   O5        1.0  0.47935  0.05356  0.26778  1.0000
  O   O6        1.0  0.22547  0.17791  0.42532  1.0000
  O   O7        1.0  0.20372  0.23915  0.42691  1.0000
  O   O8        1.0  0.02359  0.55811  0.15049  1.0000
  O   O9        1.0  0.26777  0.67582  0.04002  1.0000
  O   O10       1.0  0.70350  0.74092  0.49563  1.0000
  O   O11       1.0  0.52099  0.05304  0.24978  1.0000
  O   O12       1.0  0.77251  0.18156  0.99917  1.0000
  C   C49       1.0  0.82144  0.51524  0.25954  1.0000
  C   C50       1.0  0.82675  0.45330  0.24605  1.0000
  C   C51       1.0  0.85336  0.49142  0.27439  1.0000
  C   C52       1.0  0.32197  0.01294  0.25183  1.0000
  C   C53       1.0  0.32730  0.95079  0.22630  1.0000
  C   C54       1.0  0.35389  0.98784  0.26249  1.0000
  C   C55       1.0  0.17888  0.51380  0.23956  1.0000
  C   C56       1.0  0.17392  0.45203  0.23874  1.0000
  C   C57       1.0  0.14748  0.49003  0.21230  1.0000
  C   C58       1.0  0.67937  0.01403  0.23569  1.0000
  C   C59       1.0  0.67367  0.95262  0.26272  1.0000
  C   C60       1.0  0.64709  0.98911  0.22938  1.0000
  N   N13       1.0  0.84090  0.52157  0.28108  1.0000
  N   N14       1.0  0.81351  0.48169  0.24377  1.0000
  N   N15       1.0  0.84712  0.45675  0.25616  1.0000
  N   N16       1.0  0.34146  0.01839  0.27386  1.0000
  N   N17       1.0  0.31405  0.97967  0.22970  1.0000
  N   N18       1.0  0.34762  0.95344  0.23820  1.0000
  N   N19       1.0  0.15956  0.51997  0.21746  1.0000
  N   N20       1.0  0.18683  0.48036  0.25019  1.0000
  N   N21       1.0  0.15398  0.45535  0.22176  1.0000
  N   N22       1.0  0.65963  0.01935  0.21817  1.0000
  N   N23       1.0  0.68729  0.98121  0.25577  1.0000
  N   N24       1.0  0.65331  0.95527  0.25237  1.0000
  H   H25       1.0  0.79759  0.22051  0.93129  1.0000
  H   H26       1.0  0.97426  0.54891  0.09490  1.0000
  H   H27       1.0  0.71251  0.69040  0.57169  1.0000
  H   H28       1.0  0.28701  0.74240  0.87572  1.0000
  H   H29       1.0  0.49133  0.07132  0.25594  1.0000
  H   H30       1.0  0.20988  0.18848  0.49954  1.0000
  H   H31       1.0  0.19813  0.26461  0.44971  1.0000
  H   H32       1.0  0.01212  0.57413  0.13785  1.0000
  H   H33       1.0  0.28289  0.68433  0.95093  1.0000
  H   H34       1.0  0.69790  0.76626  0.51098  1.0000
  H   H35       1.0  0.53049  0.05174  0.31836  1.0000
  H   H36       1.0  0.76597  0.18287  0.90783  1.0000
  C   C61       1.0  0.73157  0.14069  0.75483  1.0000
  C   C62       1.0  0.55959  0.01690  0.69198  1.0000
  C   C63       1.0  0.70643  0.81025  0.79041  1.0000
  C   C64       1.0  0.23070  0.64104  0.78695  1.0000
  C   C65       1.0  0.06004  0.50592  0.68663  1.0000
  C   C66       1.0  0.20911  0.30875  0.73547  1.0000
  C   C67       1.0  0.27093  0.14411  0.72716  1.0000
  C   C68       1.0  0.43990  0.01031  0.80561  1.0000
  C   C69       1.0  0.29105  0.81135  0.72753  1.0000
  C   C70       1.0  0.76850  0.64141  0.73308  1.0000
  C   C71       1.0  0.93986  0.51396  0.80998  1.0000
  C   C72       1.0  0.79140  0.30917  0.75228  1.0000
  N   N25       1.0  0.72365  0.17382  0.77162  1.0000
  N   N26       1.0  0.54424  0.99150  0.73439  1.0000
  N   N27       1.0  0.72753  0.80527  0.76825  1.0000
  N   N28       1.0  0.22294  0.67430  0.80344  1.0000
  N   N29       1.0  0.04306  0.48388  0.76558  1.0000
  N   N30       1.0  0.23012  0.30403  0.71446  1.0000
  N   N31       1.0  0.27734  0.17706  0.74583  1.0000
  N   N32       1.0  0.45627  0.98539  0.73790  1.0000
  N   N33       1.0  0.27007  0.80628  0.74906  1.0000
  N   N34       1.0  0.77590  0.67444  0.72929  1.0000
  N   N35       1.0  0.95496  0.48733  0.76795  1.0000
  N   N36       1.0  0.77025  0.30407  0.77976  1.0000
  C   C73       1.0  0.73692  0.20368  0.77818  1.0000
  C   C74       1.0  0.52269  0.99436  0.73409  1.0000
  C   C75       1.0  0.73774  0.77136  0.76129  1.0000
  C   C76       1.0  0.23649  0.70444  0.79661  1.0000
  C   C77       1.0  0.02172  0.48789  0.76108  1.0000
  C   C78       1.0  0.23980  0.27063  0.72123  1.0000
  C   C79       1.0  0.26441  0.20695  0.73730  1.0000
  C   C80       1.0  0.47753  0.99017  0.74310  1.0000
  C   C81       1.0  0.26030  0.77170  0.76621  1.0000
  C   C82       1.0  0.76241  0.70476  0.73683  1.0000
  C   C83       1.0  0.97645  0.49050  0.77000  1.0000
  C   C84       1.0  0.76100  0.26957  0.78205  1.0000
  C   C85       1.0  0.72594  0.23319  0.91096  1.0000
  C   C86       1.0  0.50986  0.96181  0.77300  1.0000
  C   C87       1.0  0.76179  0.76700  0.64271  1.0000
  C   C88       1.0  0.22562  0.73573  0.91593  1.0000
  C   C89       1.0  0.00862  0.45601  0.77889  1.0000
  C   C90       1.0  0.26425  0.26739  0.62578  1.0000
  C   C91       1.0  0.27627  0.23658  0.63229  1.0000
  C   C92       1.0  0.48841  0.95930  0.77218  1.0000
  C   C93       1.0  0.23707  0.76835  0.90129  1.0000
  C   C94       1.0  0.77363  0.73460  0.62934  1.0000
  C   C95       1.0  0.98712  0.45729  0.77826  1.0000
  C   C96       1.0  0.73763  0.26506  0.91109  1.0000
  H   H37       1.0  0.74836  0.13462  0.75474  1.0000
  H   H38       1.0  0.55720  0.04401  0.64993  1.0000
  H   H39       1.0  0.69493  0.78741  0.79628  1.0000
  H   H40       1.0  0.24757  0.63481  0.78433  1.0000
  H   H41       1.0  0.05947  0.52807  0.60019  1.0000
  H   H42       1.0  0.19726  0.28606  0.75201  1.0000
  H   H43       1.0  0.25609  0.13869  0.69568  1.0000
  H   H44       1.0  0.44136  0.03590  0.87885  1.0000
  H   H45       1.0  0.30238  0.78897  0.72969  1.0000
  H   H46       1.0  0.75204  0.63537  0.72745  1.0000
  H   H47       1.0  0.94239  0.54165  0.85677  1.0000
  H   H48       1.0  0.80318  0.28659  0.74233  1.0000
  H   H49       1.0  0.70798  0.23023  0.01216  1.0000
  H   H50       1.0  0.51797  0.93849  0.80242  1.0000
  H   H51       1.0  0.77053  0.78985  0.55942  1.0000
  H   H52       1.0  0.20765  0.73349  0.01895  1.0000
  H   H53       1.0  0.01628  0.43037  0.79096  1.0000
  H   H54       1.0  0.27325  0.29048  0.54605  1.0000
  H   H55       1.0  0.29506  0.23441  0.55708  1.0000
  H   H56       1.0  0.47914  0.93375  0.79710  1.0000
  H   H57       1.0  0.22851  0.79233  0.99324  1.0000
  H   H58       1.0  0.79201  0.73112  0.53523  1.0000
  H   H59       1.0  0.97738  0.43256  0.78648  1.0000
  H   H60       1.0  0.72903  0.28791  0.01224  1.0000
  C   C97       1.0  0.77228  0.23993  0.65052  1.0000
  C   C98       1.0  0.98906  0.52288  0.76039  1.0000
  C   C99       1.0  0.73852  0.70908  0.86081  1.0000
  C   C100      1.0  0.27131  0.74057  0.64575  1.0000
  C   C101      1.0  0.48987  0.02309  0.70612  1.0000
  C   C102      1.0  0.24011  0.21031  0.83940  1.0000
  C   C103      1.0  0.22785  0.24107  0.82879  1.0000
  C   C104      1.0  0.01125  0.52138  0.75389  1.0000
  C   C105      1.0  0.25972  0.70737  0.65994  1.0000
  C   C106      1.0  0.72649  0.74171  0.87065  1.0000
  C   C107      1.0  0.51220  0.02500  0.69604  1.0000
  C   C108      1.0  0.76022  0.20793  0.64655  1.0000
  O   O13       1.0  0.79472  0.24256  0.51590  1.0000
  O   O14       1.0  0.97977  0.55692  0.75957  1.0000
  O   O15       1.0  0.72695  0.68157  0.97561  1.0000
  O   O16       1.0  0.29354  0.74079  0.49788  1.0000
  O   O17       1.0  0.48158  0.05544  0.66888  1.0000
  O   O18       1.0  0.22647  0.18396  0.95886  1.0000
  O   O19       1.0  0.20414  0.24257  0.93480  1.0000
  O   O20       1.0  0.02113  0.55544  0.74909  1.0000
  O   O21       1.0  0.27085  0.67839  0.53346  1.0000
  O   O22       1.0  0.70335  0.74276  0.00204  1.0000
  O   O23       1.0  0.52382  0.05742  0.64224  1.0000
  O   O24       1.0  0.77246  0.18172  0.49870  1.0000
  C   C109      1.0  0.82112  0.51635  0.75852  1.0000
  C   C110      1.0  0.82625  0.45435  0.74580  1.0000
  C   C111      1.0  0.85284  0.49228  0.77623  1.0000
  C   C112      1.0  0.32152  0.01712  0.75370  1.0000
  C   C113      1.0  0.32685  0.95509  0.72796  1.0000
  C   C114      1.0  0.35328  0.99207  0.76589  1.0000
  C   C115      1.0  0.17872  0.51561  0.73971  1.0000
  C   C116      1.0  0.17427  0.45365  0.74240  1.0000
  C   C117      1.0  0.14704  0.49073  0.72253  1.0000
  C   C118      1.0  0.67860  0.01519  0.73411  1.0000
  C   C119      1.0  0.67243  0.95383  0.75732  1.0000
  C   C120      1.0  0.64653  0.99120  0.71944  1.0000
  N   N37       1.0  0.84051  0.52250  0.78112  1.0000
  N   N38       1.0  0.81312  0.48283  0.74241  1.0000
  N   N39       1.0  0.84651  0.45767  0.75783  1.0000
  N   N40       1.0  0.34090  0.02258  0.77735  1.0000
  N   N41       1.0  0.31364  0.98392  0.73037  1.0000
  N   N42       1.0  0.34708  0.95773  0.74071  1.0000
  N   N43       1.0  0.15899  0.52119  0.72203  1.0000
  N   N44       1.0  0.18724  0.48238  0.74774  1.0000
  N   N45       1.0  0.15388  0.45652  0.73324  1.0000
  N   N46       1.0  0.65919  0.02105  0.71297  1.0000
  N   N47       1.0  0.68605  0.98214  0.75562  1.0000
  N   N48       1.0  0.65242  0.95696  0.74111  1.0000
  H   H61       1.0  0.79761  0.22005  0.43431  1.0000
  H   H62       1.0  0.99196  0.57438  0.74529  1.0000
  H   H63       1.0  0.71248  0.69249  0.07274  1.0000
  H   H64       1.0  0.29706  0.76612  0.46398  1.0000
  H   H65       1.0  0.47399  0.04950  0.58722  1.0000
  H   H66       1.0  0.23267  0.17961  0.04967  1.0000
  H   H67       1.0  0.20083  0.22075  0.00889  1.0000
  H   H68       1.0  0.03177  0.55395  0.80729  1.0000
  H   H69       1.0  0.28445  0.68845  0.43223  1.0000
  H   H70       1.0  0.69772  0.76811  0.01967  1.0000
  H   H71       1.0  0.51231  0.07434  0.63654  1.0000
  H   H72       1.0  0.76658  0.18403  0.40360  1.0000
  C  Sn1       1.0  0.82174  0.35783  0.30803  1.0000
  C   C121      1.0  0.80158  0.34772  0.29250  1.0000
  C  Sn2       1.0  0.79012  0.37238  0.23089  1.0000
  C  Sn3       1.0  0.79901  0.40787  0.18369  1.0000
  C   C122      1.0  0.81917  0.41795  0.19919  1.0000
  C  Sn4       1.0  0.83063  0.39332  0.26082  1.0000
  O  Te1       1.0  0.83291  0.33273  0.36991  1.0000
  O  Te2       1.0  0.76999  0.36165  0.21657  1.0000
  O  Te3       1.0  0.78783  0.43296  0.12177  1.0000
  O  Te4       1.0  0.85076  0.40402  0.27512  1.0000
  Mg  Mg1       1.0  0.76099  0.40554  0.12541  1.0000
  Mg  Mg2       1.0  0.85978  0.36015  0.36616  1.0000
  C  Sn5       1.0  0.89326  0.53262  0.42269  1.0000
  C   C123      1.0  0.91171  0.50733  0.36780  1.0000
  C  Sn6       1.0  0.91321  0.47653  0.24975  1.0000
  C  Sn7       1.0  0.89592  0.47089  0.18512  1.0000
  C   C124      1.0  0.87749  0.49617  0.23998  1.0000
  C  Sn8       1.0  0.87597  0.52698  0.35806  1.0000
  O  Te5       1.0  0.89211  0.56322  0.54077  1.0000
  O  Te6       1.0  0.93181  0.45162  0.19684  1.0000
  O  Te7       1.0  0.89709  0.44026  0.06695  1.0000
  O  Te8       1.0  0.85739  0.55188  0.41094  1.0000
  Mg  Mg3       1.0  0.92576  0.41415  0.03385  1.0000
  Mg  Mg4       1.0  0.86343  0.58938  0.57384  1.0000
  C  Sn9       1.0  0.81041  0.60830  0.20932  1.0000
  C   C125      1.0  0.78969  0.60856  0.19103  1.0000
  C  Sn10      1.0  0.77654  0.57700  0.21919  1.0000
  C  Sn11      1.0  0.78426  0.54450  0.26676  1.0000
  C   C126      1.0  0.80497  0.54425  0.28506  1.0000
  C  Sn12      1.0  0.81813  0.57580  0.25689  1.0000
  O  Te9       1.0  0.82327  0.64017  0.18053  1.0000
  O  Te10      1.0  0.75589  0.57792  0.20005  1.0000
  O  Te11      1.0  0.77138  0.51261  0.29554  1.0000
  O  Te12      1.0  0.83877  0.57489  0.27604  1.0000
  Mg  Mg5       1.0  0.74443  0.52753  0.25342  1.0000
  Mg  Mg6       1.0  0.85023  0.62527  0.22280  1.0000
  C  Sn13      1.0  0.33414  0.87361  0.15234  1.0000
  C   C127      1.0  0.32360  0.90746  0.15962  1.0000
  C  Sn14      1.0  0.30002  0.90981  0.20347  1.0000
  C  Sn15      1.0  0.28670  0.87766  0.24094  1.0000
  C   C128      1.0  0.29724  0.84384  0.23368  1.0000
  C  Sn16      1.0  0.32082  0.84146  0.18980  1.0000
  O  Te13      1.0  0.35774  0.87191  0.10822  1.0000
  O  Te14      1.0  0.28987  0.94395  0.20984  1.0000
  O  Te15      1.0  0.26308  0.87938  0.28507  1.0000
  O  Te16      1.0  0.33097  0.80735  0.18346  1.0000
  Mg  Mg7       1.0  0.25714  0.93219  0.27647  1.0000
  Mg  Mg8       1.0  0.36369  0.81907  0.11694  1.0000
  C  Sn17      1.0  0.41271  0.96911  0.15900  1.0000
  C   C129      1.0  0.42018  0.00054  0.22339  1.0000
  C  Sn18      1.0  0.40300  0.02815  0.33387  1.0000
  C  Sn19      1.0  0.37910  0.02426  0.38109  1.0000
  C   C130      1.0  0.37289  0.99285  0.31675  1.0000
  C  Sn20      1.0  0.38882  0.96522  0.20622  1.0000
  O  Te17      1.0  0.42895  0.94185  0.04873  1.0000
  O  Te18      1.0  0.41087  0.05933  0.39654  1.0000
  O  Te19      1.0  0.36286  0.05156  0.49145  1.0000
  O  Te20      1.0  0.38095  0.93406  0.14360  1.0000
  Mg  Mg9       1.0  0.38207  0.08891  0.54314  1.0000
  Mg  Mg10      1.0  0.35595  0.91617  0.99707  1.0000
  C  Sn21      1.0  0.27292  0.06393  0.28803  1.0000
  C   C131      1.0  0.27822  0.10082  0.29923  1.0000
  C  Sn22      1.0  0.30057  0.11075  0.26931  1.0000
  C  Sn23      1.0  0.31799  0.08325  0.22720  1.0000
  C   C132      1.0  0.31269  0.04639  0.21599  1.0000
  C  Sn24      1.0  0.29034  0.03643  0.24592  1.0000
  O  Te21      1.0  0.25046  0.05462  0.31845  1.0000
  O  Te22      1.0  0.30546  0.14781  0.28131  1.0000
  O  Te23      1.0  0.34046  0.09258  0.19678  1.0000
  O  Te24      1.0  0.28670  0.99940  0.23390  1.0000
  Mg  Mg11      1.0  0.33863  0.14674  0.22840  1.0000
  Mg  Mg12      1.0  0.25354  0.00043  0.28668  1.0000
  C  Sn25      1.0  0.16893  0.37438  0.26075  1.0000
  C   C133      1.0  0.17707  0.40832  0.29260  1.0000
  C  Sn26      1.0  0.19947  0.41117  0.27933  1.0000
  C  Sn27      1.0  0.21403  0.37943  0.23314  1.0000
  C   C134      1.0  0.20589  0.34551  0.20128  1.0000
  C  Sn28      1.0  0.18349  0.34264  0.21456  1.0000
  O  Te25      1.0  0.14648  0.37218  0.27476  1.0000
  O  Te26      1.0  0.20722  0.44540  0.31185  1.0000
  O  Te27      1.0  0.23649  0.38165  0.21914  1.0000
  O  Te28      1.0  0.17574  0.30844  0.18203  1.0000
  Mg  Mg13      1.0  0.23917  0.43439  0.27600  1.0000
  Mg  Mg14      1.0  0.14380  0.31942  0.21775  1.0000
  C  Sn29      1.0  0.10679  0.53509  0.09551  1.0000
  C   C135      1.0  0.08829  0.51133  0.13830  1.0000
  C  Sn30      1.0  0.08728  0.47978  0.23346  1.0000
  C  Sn31      1.0  0.10514  0.47183  0.28707  1.0000
  C   C136      1.0  0.12362  0.49558  0.24431  1.0000
  C  Sn32      1.0  0.12464  0.52714  0.14912  1.0000
  O  Te29      1.0  0.10743  0.56647  0.00029  1.0000
  O  Te30      1.0  0.06862  0.45643  0.27463  1.0000
  O  Te31      1.0  0.10448  0.44041  0.38236  1.0000
  O  Te32      1.0  0.14329  0.55048  0.10799  1.0000
  Mg  Mg15      1.0  0.07548  0.41708  0.40671  1.0000
  Mg  Mg16      1.0  0.08265  0.60157  0.97600  1.0000
  C  Sn33      1.0  0.18905  0.58896  0.19528  1.0000
  C   C137      1.0  0.19418  0.55211  0.20248  1.0000
  C  Sn34      1.0  0.21018  0.54245  0.26938  1.0000
  C  Sn35      1.0  0.22129  0.57021  0.33048  1.0000
  C   C138      1.0  0.21616  0.60703  0.32330  1.0000
  C  Sn36      1.0  0.20016  0.61672  0.25638  1.0000
  O  Te33      1.0  0.17299  0.59798  0.12789  1.0000
  O  Te34      1.0  0.21503  0.50542  0.27518  1.0000
  O  Te35      1.0  0.23736  0.56115  0.39790  1.0000
  O  Te36      1.0  0.19531  0.65372  0.25060  1.0000
  Mg  Mg17      1.0  0.23817  0.50692  0.37857  1.0000
  Mg  Mg18      1.0  0.17217  0.65225  0.14734  1.0000
  C  Sn37      1.0  0.67718  0.85569  0.23047  1.0000
  C   C139      1.0  0.69728  0.84638  0.24772  1.0000
  C  Sn38      1.0  0.70916  0.87315  0.30146  1.0000
  C  Sn39      1.0  0.70078  0.91000  0.33886  1.0000
  C   C140      1.0  0.68070  0.91930  0.32164  1.0000
  C  Sn40      1.0  0.66881  0.89255  0.26787  1.0000
  O  Te37      1.0  0.66558  0.82848  0.17657  1.0000
  O  Te38      1.0  0.72921  0.86318  0.31768  1.0000
  O  Te39      1.0  0.71240  0.93722  0.39279  1.0000
  O  Te40      1.0  0.64876  0.90250  0.25167  1.0000
  Mg  Mg19      1.0  0.73893  0.91009  0.39550  1.0000
  Mg  Mg20      1.0  0.63902  0.85561  0.17396  1.0000
  C  Sn41      1.0  0.58902  0.96946  0.32189  1.0000
  C   C141      1.0  0.58092  0.99941  0.26305  1.0000
  C  Sn42      1.0  0.59498  0.02606  0.16109  1.0000
  C  Sn43      1.0  0.61887  0.02270  0.11692  1.0000
  C   C142      1.0  0.62820  0.99276  0.17571  1.0000
  C  Sn44      1.0  0.61291  0.96609  0.27771  1.0000
  O  Te41      1.0  0.57341  0.94314  0.42365  1.0000
  O  Te42      1.0  0.58648  0.05577  0.10385  1.0000
  O  Te43      1.0  0.63448  0.04905  0.01507  1.0000
  O  Te44      1.0  0.62140  0.93640  0.33491  1.0000
  Mg  Mg21      1.0  0.56077  0.09621  0.96829  1.0000
  Mg  Mg22      1.0  0.59334  0.90765  0.47039  1.0000
  C  Sn45      1.0  0.69042  0.08878  0.16585  1.0000
  C   C143      1.0  0.69531  0.05218  0.18078  1.0000
  C  Sn46      1.0  0.71159  0.04335  0.24628  1.0000
  C  Sn47      1.0  0.72322  0.07169  0.29804  1.0000
  C   C144      1.0  0.71833  0.10825  0.28312  1.0000
  C  Sn48      1.0  0.70205  0.11711  0.21761  1.0000
  O  Te45      1.0  0.67408  0.09697  0.10003  1.0000
  O  Te46      1.0  0.71618  0.00657  0.25992  1.0000
  O  Te47      1.0  0.73957  0.06346  0.36389  1.0000
  O  Te48      1.0  0.69745  0.15386  0.20398  1.0000
  Mg  Mg23      1.0  0.73987  0.00926  0.35753  1.0000
  Mg  Mg24      1.0  0.67376  0.15121  0.10650  1.0000
  C  Sn49      1.0  0.79204  0.38400  0.66983  1.0000
  C   C145      1.0  0.80161  0.35110  0.68933  1.0000
  C  Sn50      1.0  0.81891  0.35135  0.75188  1.0000
  C  Sn51      1.0  0.82680  0.38519  0.79598  1.0000
  C   C146      1.0  0.81723  0.41807  0.77650  1.0000
  C  Sn52      1.0  0.79993  0.41784  0.71392  1.0000
  O  Te49      1.0  0.77476  0.38310  0.60707  1.0000
  O  Te50      1.0  0.82822  0.31810  0.77021  1.0000
  O  Te51      1.0  0.84410  0.38607  0.85877  1.0000
  O  Te52      1.0  0.79063  0.45106  0.69563  1.0000
  Mg  Mg25      1.0  0.85138  0.33357  0.86103  1.0000
  Mg  Mg26      1.0  0.76745  0.43563  0.60491  1.0000
  C  Sn53      1.0  0.89336  0.53482  0.91485  1.0000
  C   C147      1.0  0.91180  0.50958  0.86136  1.0000
  C  Sn54      1.0  0.91288  0.47787  0.75033  1.0000
  C  Sn55      1.0  0.89516  0.47127  0.69142  1.0000
  C   C148      1.0  0.87674  0.49651  0.74487  1.0000
  C  Sn56      1.0  0.87564  0.52822  0.85594  1.0000
  O  Te53      1.0  0.94643  0.55462  0.02589  1.0000
  O  Te54      1.0  0.93148  0.45302  0.69868  1.0000
  O  Te55      1.0  0.89590  0.43972  0.58030  1.0000
  O  Te56      1.0  0.85706  0.55306  0.90755  1.0000
  Mg  Mg27      1.0  0.92476  0.41409  0.54621  1.0000
  Mg  Mg28      1.0  0.91755  0.58029  0.05993  1.0000
  C  Sn57      1.0  0.77249  0.56635  0.77871  1.0000
  C   C149      1.0  0.77761  0.60335  0.78887  1.0000
  C  Sn58      1.0  0.79976  0.61363  0.76322  1.0000
  C  Sn59      1.0  0.81715  0.58636  0.72654  1.0000
  C   C150      1.0  0.81203  0.54938  0.71637  1.0000
  C  Sn60      1.0  0.78989  0.53908  0.74203  1.0000
  O  Te57      1.0  0.75024  0.55670  0.80479  1.0000
  O  Te58      1.0  0.80446  0.65079  0.77409  1.0000
  O  Te59      1.0  0.83941  0.59604  0.70047  1.0000
  O  Te60      1.0  0.78518  0.50194  0.73115  1.0000
  Mg  Mg29      1.0  0.83739  0.65022  0.72847  1.0000
  Mg  Mg30      1.0  0.75227  0.50248  0.77665  1.0000
  C  Sn61      1.0  0.33367  0.87773  0.66990  1.0000
  C   C151      1.0  0.32378  0.91119  0.66132  1.0000
  C  Sn62      1.0  0.30055  0.91347  0.69412  1.0000
  C  Sn63      1.0  0.28693  0.88164  0.73649  1.0000
  C   C152      1.0  0.29682  0.84821  0.74508  1.0000
  C  Sn64      1.0  0.32004  0.84591  0.71227  1.0000
  O  Te61      1.0  0.35692  0.87609  0.63663  1.0000
  O  Te62      1.0  0.29105  0.94722  0.68470  1.0000
  O  Te63      1.0  0.26366  0.88331  0.76976  1.0000
  O  Te64      1.0  0.32955  0.81218  0.72170  1.0000
  Mg  Mg31      1.0  0.25858  0.93553  0.74099  1.0000
  Mg  Mg32      1.0  0.36201  0.82384  0.66554  1.0000
  C  Sn65      1.0  0.39446  0.96217  0.76052  1.0000
  C   C153      1.0  0.37601  0.98757  0.81936  1.0000
  C  Sn66      1.0  0.37813  0.02459  0.85160  1.0000
  C  Sn67      1.0  0.40039  0.03648  0.82435  1.0000
  C   C154      1.0  0.41883  0.01110  0.76551  1.0000
  C  Sn68      1.0  0.41673  0.97407  0.73327  1.0000
  O  Te65      1.0  0.39071  0.92530  0.72912  1.0000
  O  Te66      1.0  0.35941  0.04946  0.91043  1.0000
  O  Te67      1.0  0.40413  0.07338  0.85581  1.0000
  O  Te68      1.0  0.43543  0.94920  0.67444  1.0000
  Mg  Mg33      1.0  0.37322  0.09680  0.93472  1.0000
  Mg  Mg34      1.0  0.42165  0.90186  0.65002  1.0000
  C  Sn69      1.0  0.31016  0.09288  0.83470  1.0000
  C   C155      1.0  0.30579  0.05617  0.80543  1.0000
  C  Sn70      1.0  0.29086  0.04699  0.72414  1.0000
  C  Sn71      1.0  0.28008  0.07506  0.67087  1.0000
  C   C156      1.0  0.28446  0.11174  0.70012  1.0000
  C  Sn72      1.0  0.29939  0.12095  0.78143  1.0000
  O  Te69      1.0  0.32515  0.10143  0.91618  1.0000
  O  Te70      1.0  0.28675  0.01010  0.69634  1.0000
  O  Te71      1.0  0.26509  0.06648  0.58934  1.0000
  O  Te72      1.0  0.30350  0.15781  0.80920  1.0000
  Mg  Mg35      1.0  0.26498  0.01227  0.58014  1.0000
  Mg  Mg36      1.0  0.32527  0.15567  0.92529  1.0000
  C  Sn73      1.0  0.20951  0.38522  0.80179  1.0000
  C   C157      1.0  0.19949  0.35189  0.78796  1.0000
  C  Sn74      1.0  0.18143  0.35066  0.73397  1.0000
  C  Sn75      1.0  0.17323  0.38343  0.69283  1.0000
  C   C158      1.0  0.18326  0.41673  0.70664  1.0000
  C  Sn76      1.0  0.20131  0.41799  0.76065  1.0000
  O  Te73      1.0  0.22755  0.38580  0.85601  1.0000
  O  Te74      1.0  0.17168  0.31701  0.72120  1.0000
  O  Te75      1.0  0.15519  0.38282  0.63859  1.0000
  O  Te76      1.0  0.21107  0.45161  0.77339  1.0000
  Mg  Mg37      1.0  0.14752  0.33032  0.64142  1.0000
  Mg  Mg38      1.0  0.23523  0.43834  0.85306  1.0000
  C  Sn77      1.0  0.11203  0.53478  0.69684  1.0000
  C   C159      1.0  0.12024  0.50535  0.75830  1.0000
  C  Sn78      1.0  0.10994  0.47121  0.77450  1.0000
  C  Sn79      1.0  0.09104  0.46636  0.72818  1.0000
  C   C160      1.0  0.08284  0.49576  0.66673  1.0000
  C  Sn80      1.0  0.09313  0.52993  0.65052  1.0000
  O  Te77      1.0  0.12259  0.56867  0.68169  1.0000
  O  Te78      1.0  0.11845  0.44220  0.83632  1.0000
  O  Te79      1.0  0.08048  0.43243  0.74339  1.0000
  O  Te80      1.0  0.08463  0.55891  0.58871  1.0000
  Mg  Mg39      1.0  0.09829  0.40128  0.83385  1.0000
  Mg  Mg40      1.0  0.10478  0.59984  0.59103  1.0000
  C  Sn81      1.0  0.18884  0.60991  0.81120  1.0000
  C   C161      1.0  0.20977  0.61050  0.82624  1.0000
  C  Sn82      1.0  0.22334  0.57852  0.78820  1.0000
  C  Sn83      1.0  0.21585  0.54527  0.73389  1.0000
  C   C162      1.0  0.19494  0.54470  0.71884  1.0000
  C  Sn84      1.0  0.18135  0.57667  0.75688  1.0000
  O  Te81      1.0  0.17555  0.64221  0.84989  1.0000
  O  Te82      1.0  0.24420  0.57978  0.80426  1.0000
  O  Te83      1.0  0.22916  0.51296  0.69520  1.0000
  O  Te84      1.0  0.16050  0.57542  0.74082  1.0000
  Mg  Mg41      1.0  0.25625  0.52858  0.73667  1.0000
  Mg  Mg42      1.0  0.14845  0.62660  0.80828  1.0000
  C  Sn85      1.0  0.70788  0.90570  0.73683  1.0000
  C   C163      1.0  0.68713  0.91493  0.72984  1.0000
  C  Sn86      1.0  0.66947  0.88953  0.77370  1.0000
  C  Sn87      1.0  0.67261  0.85418  0.82575  1.0000
  C   C164      1.0  0.69334  0.84497  0.83275  1.0000
  C  Sn88      1.0  0.71101  0.87035  0.78887  1.0000
  O  Te85      1.0  0.72529  0.93153  0.69242  1.0000
  O  Te86      1.0  0.64889  0.89939  0.76565  1.0000
  O  Te87      1.0  0.65517  0.82835  0.87016  1.0000
  O  Te88      1.0  0.73158  0.86051  0.79693  1.0000
  Mg  Mg43      1.0  0.63026  0.85472  0.83884  1.0000
  Mg  Mg44      1.0  0.75022  0.90517  0.72388  1.0000
  C  Sn89      1.0  0.60613  0.96436  0.69307  1.0000
  C   C165      1.0  0.62404  0.98896  0.65924  1.0000
  C  Sn90      1.0  0.61878  0.02652  0.65980  1.0000
  C  Sn91      1.0  0.59638  0.03976  0.69502  1.0000
  C   C166      1.0  0.57848  0.01516  0.72886  1.0000
  C  Sn92      1.0  0.58373  0.97760  0.72830  1.0000
  O  Te89      1.0  0.61054  0.92693  0.69185  1.0000
  O  Te90      1.0  0.63696  0.05058  0.62555  1.0000
  O  Te91      1.0  0.59198  0.07722  0.69621  1.0000
  O  Te92      1.0  0.56556  0.95354  0.76256  1.0000
  Mg  Mg45      1.0  0.62235  0.09914  0.64205  1.0000
  Mg  Mg46      1.0  0.58015  0.90499  0.74618  1.0000
  C  Sn93      1.0  0.71314  0.04946  0.81531  1.0000
  C   C167      1.0  0.69285  0.04832  0.79046  1.0000
  C  Sn94      1.0  0.68605  0.07819  0.72170  1.0000
  C  Sn95      1.0  0.69981  0.10985  0.67673  1.0000
  C   C168      1.0  0.72009  0.11097  0.70155  1.0000
  C  Sn96      1.0  0.72691  0.08112  0.77033  1.0000
  O  Te93      1.0  0.71961  0.01928  0.88422  1.0000
  O  Te94      1.0  0.66569  0.07641  0.69811  1.0000
  O  Te95      1.0  0.69332  0.14004  0.60778  1.0000
  O  Te96      1.0  0.74725  0.08288  0.79390  1.0000
  Mg  Mg47      1.0  0.66415  0.12450  0.59985  1.0000
  Mg  Mg48      1.0  0.74882  0.03481  0.89205  1.0000
