data_image0
_chemical_formula_structural       CNCNCNH3C6H6C6H6C7N3C5N3CNCNCNH3C6H6C6H6C7N3C5N3C2Sn2C2HTe2HMgC2Sn2C2HTe2HMgC2Sn2C2HTe2HMgC2Sn2C2HTe2HMgC2Sn2C2HTe2HMgC2Sn2C2HTe2HMg
_chemical_formula_sum              "C78 N18 H42 Sn12 Te12 Mg6"
_cell_length_a       25.5587
_cell_length_b       25.7147
_cell_length_c       8.06489
_cell_angle_alpha    116.694
_cell_angle_beta     64.7065
_cell_angle_gamma    120.073

_symmetry_space_group_name_H-M    'P1'
_space_group_IT_number       1

loop_
  _space_group_symop_operation_xyz
  'x, y, z'

loop_
  _atom_site_type_symbol
  _atom_site_label
  _atom_site_symmetry_multiplicity
  _atom_site_fract_x
  _atom_site_fract_y
  _atom_site_fract_z
  _atom_site_occupancy
  C   C1        1.0  0.01659  0.54256  0.23990  1.0000
  N   N1        1.0  0.97930  0.48723  0.25978  1.0000
  C   C2        1.0  0.45403  0.47619  0.26077  1.0000
  N   N2        1.0  0.51240  0.49676  0.25345  1.0000
  C   C3        1.0  0.52155  0.98440  0.26992  1.0000
  N   N3        1.0  0.50662  0.01491  0.21647  1.0000
  H   H1        1.0  0.00255  0.57180  0.21513  1.0000
  H   H2        1.0  0.42044  0.42827  0.26576  1.0000
  H   H3        1.0  0.56225  0.00581  0.32666  1.0000
  C   C4        1.0  0.12161  0.62915  0.22605  1.0000
  C   C5        1.0  0.18411  0.65407  0.22547  1.0000
  C   C6        1.0  0.36618  0.49241  0.26094  1.0000
  C   C7        1.0  0.34197  0.53023  0.26110  1.0000
  C   C8        1.0  0.51237  0.10781  0.20527  1.0000
  C   C9        1.0  0.54160  0.17092  0.21344  1.0000
  H   H4        1.0  0.10370  0.65560  0.20526  1.0000
  H   H5        1.0  0.21539  0.70043  0.20785  1.0000
  H   H6        1.0  0.33624  0.44401  0.26242  1.0000
  H   H7        1.0  0.29361  0.51235  0.25984  1.0000
  H   H8        1.0  0.46592  0.07901  0.18146  1.0000
  H   H9        1.0  0.51906  0.19331  0.19425  1.0000
  C   C10       1.0  0.60346  0.11362  0.24945  1.0000
  C   C11       1.0  0.63275  0.17675  0.25644  1.0000
  C   C12       1.0  0.10550  0.53382  0.26565  1.0000
  C   C13       1.0  0.16786  0.55816  0.26269  1.0000
  C   C14       1.0  0.46722  0.57946  0.26395  1.0000
  C   C15       1.0  0.44292  0.61724  0.26544  1.0000
  H   H10       1.0  0.62789  0.09216  0.26501  1.0000
  H   H11       1.0  0.67968  0.20468  0.27687  1.0000
  H   H12       1.0  0.07377  0.48760  0.28422  1.0000
  H   H13       1.0  0.18705  0.53187  0.27902  1.0000
  H   H14       1.0  0.51553  0.59731  0.26653  1.0000
  H   H15       1.0  0.47166  0.66594  0.26811  1.0000
  C   C16       1.0  0.36896  0.72619  0.24757  1.0000
  C   C17       1.0  0.27393  0.64478  0.24657  1.0000
  C   C18       1.0  0.35474  0.63291  0.25913  1.0000
  C   C19       1.0  0.08132  0.56878  0.24609  1.0000
  C   C20       1.0  0.42913  0.51637  0.26160  1.0000
  C   C21       1.0  0.20806  0.61876  0.24334  1.0000
  C   C22       1.0  0.38009  0.59302  0.26252  1.0000
  N   N4        1.0  0.39371  0.69252  0.25772  1.0000
  N   N5        1.0  0.30955  0.70432  0.24008  1.0000
  N   N6        1.0  0.29428  0.60729  0.25655  1.0000
  C   C23       1.0  0.63469  0.27288  0.24439  1.0000
  C   C24       1.0  0.72307  0.36220  0.25176  1.0000
  C   C25       1.0  0.63480  0.36116  0.24180  1.0000
  C   C26       1.0  0.54208  0.07822  0.22561  1.0000
  C   C27       1.0  0.60218  0.20632  0.24019  1.0000
  N   N7        1.0  0.60275  0.30017  0.23717  1.0000
  N   N8        1.0  0.69461  0.30196  0.25451  1.0000
  N   N9        1.0  0.69529  0.39373  0.24556  1.0000
  C   C28       1.0  0.02223  0.54939  0.72956  1.0000
  N   N10       1.0  0.98306  0.49591  0.76085  1.0000
  C   C29       1.0  0.44967  0.46657  0.74333  1.0000
  N   N11       1.0  0.50536  0.48897  0.76192  1.0000
  C   C30       1.0  0.53243  0.98387  0.76767  1.0000
  N   N12       1.0  0.51547  0.01507  0.72423  1.0000
  H   H16       1.0  0.01044  0.57739  0.69063  1.0000
  H   H17       1.0  0.41867  0.41629  0.71844  1.0000
  H   H18       1.0  0.57581  0.00419  0.80967  1.0000
  C   C31       1.0  0.12840  0.63517  0.72018  1.0000
  C   C32       1.0  0.19039  0.65875  0.72309  1.0000
  C   C33       1.0  0.36315  0.48578  0.74476  1.0000
  C   C34       1.0  0.34042  0.52573  0.75075  1.0000
  C   C35       1.0  0.52038  0.10667  0.70603  1.0000
  C   C36       1.0  0.54865  0.16958  0.71326  1.0000
  H   H19       1.0  0.11232  0.66264  0.69652  1.0000
  H   H20       1.0  0.22316  0.70473  0.70451  1.0000
  H   H21       1.0  0.33324  0.43640  0.73415  1.0000
  H   H22       1.0  0.29283  0.50867  0.74414  1.0000
  H   H23       1.0  0.47420  0.07726  0.68102  1.0000
  H   H24       1.0  0.52528  0.19111  0.69338  1.0000
  C   C37       1.0  0.61175  0.11490  0.75370  1.0000
  C   C38       1.0  0.64033  0.17776  0.75951  1.0000
  C   C39       1.0  0.10858  0.53947  0.76635  1.0000
  C   C40       1.0  0.17033  0.56269  0.76799  1.0000
  C   C41       1.0  0.46369  0.57249  0.76785  1.0000
  C   C42       1.0  0.44101  0.61185  0.77130  1.0000
  H   H25       1.0  0.63651  0.09460  0.77273  1.0000
  H   H26       1.0  0.68719  0.20633  0.78046  1.0000
  H   H27       1.0  0.07583  0.49353  0.78512  1.0000
  H   H28       1.0  0.18751  0.53589  0.79004  1.0000
  H   H29       1.0  0.51138  0.58930  0.77481  1.0000
  H   H30       1.0  0.47009  0.66105  0.78083  1.0000
  C   C43       1.0  0.37440  0.72566  0.74711  1.0000
  C   C44       1.0  0.27772  0.64673  0.74888  1.0000
  C   C45       1.0  0.35646  0.63117  0.75911  1.0000
  C   C46       1.0  0.08653  0.57513  0.74113  1.0000
  C   C47       1.0  0.42511  0.50848  0.75264  1.0000
  C   C48       1.0  0.21221  0.62259  0.74563  1.0000
  C   C49       1.0  0.37925  0.58914  0.76182  1.0000
  N   N13       1.0  0.39747  0.69007  0.75486  1.0000
  N   N14       1.0  0.31516  0.70597  0.74169  1.0000
  N   N15       1.0  0.29612  0.60777  0.75905  1.0000
  C   C50       1.0  0.63990  0.27292  0.74447  1.0000
  C   C51       1.0  0.72660  0.36464  0.74869  1.0000
  C   C52       1.0  0.63563  0.35906  0.74215  1.0000
  C   C53       1.0  0.55061  0.07817  0.72922  1.0000
  C   C54       1.0  0.60909  0.20630  0.74117  1.0000
  N   N16       1.0  0.60550  0.29824  0.74019  1.0000
  N   N17       1.0  0.70029  0.30428  0.75067  1.0000
  N   N18       1.0  0.69637  0.39395  0.74355  1.0000
  C   C55       1.0  0.61534  0.49158  0.26578  1.0000
  C   C56       1.0  0.55563  0.46716  0.24078  1.0000
  C  Sn1       1.0  0.51703  0.40382  0.22470  1.0000
  C  Sn2       1.0  0.53874  0.36432  0.23392  1.0000
  C   C57       1.0  0.59854  0.38921  0.25910  1.0000
  C   C58       1.0  0.63678  0.45266  0.27497  1.0000
  H   H31       1.0  0.64492  0.54067  0.27817  1.0000
  O  Te1       1.0  0.45751  0.38018  0.19970  1.0000
  O  Te2       1.0  0.50112  0.30085  0.21832  1.0000
  H   H32       1.0  0.68300  0.47156  0.29445  1.0000
  Mg  Mg1       1.0  0.42362  0.29056  0.18568  1.0000
  C   C59       1.0  0.83889  0.47734  0.73802  1.0000
  C   C60       1.0  0.80096  0.41501  0.73826  1.0000
  C  Sn3       1.0  0.82375  0.37899  0.75634  1.0000
  C  Sn4       1.0  0.88566  0.40603  0.77454  1.0000
  C   C61       1.0  0.92321  0.46844  0.77428  1.0000
  C   C62       1.0  0.89995  0.50405  0.75605  1.0000
  H   H33       1.0  0.82089  0.50490  0.72403  1.0000
  O  Te3       1.0  0.78524  0.31678  0.75623  1.0000
  O  Te4       1.0  0.90960  0.37110  0.79289  1.0000
  H   H34       1.0  0.92931  0.55232  0.75599  1.0000
  Mg  Mg2       1.0  0.83907  0.28824  0.78497  1.0000
  C   C63       1.0  0.48444  0.83369  0.27854  1.0000
  C   C64       1.0  0.42365  0.79759  0.25596  1.0000
  C  Sn5       1.0  0.39269  0.82314  0.22538  1.0000
  C  Sn6       1.0  0.42328  0.88600  0.21727  1.0000
  C   C65       1.0  0.48411  0.92171  0.23989  1.0000
  C   C66       1.0  0.51465  0.89568  0.27049  1.0000
  H   H35       1.0  0.50808  0.81354  0.30210  1.0000
  O  Te5       1.0  0.33196  0.78643  0.20319  1.0000
  O  Te6       1.0  0.39344  0.91270  0.18681  1.0000
  H   H36       1.0  0.56173  0.92363  0.28784  1.0000
  Mg  Mg3       1.0  0.31076  0.84384  0.16486  1.0000
  C   C67       1.0  0.49329  0.83031  0.76504  1.0000
  C   C68       1.0  0.43071  0.79723  0.75846  1.0000
  C  Sn7       1.0  0.39926  0.82587  0.74410  1.0000
  C  Sn8       1.0  0.43117  0.88879  0.73615  1.0000
  C   C69       1.0  0.49378  0.92147  0.74269  1.0000
  C   C70       1.0  0.52481  0.89236  0.75713  1.0000
  H   H37       1.0  0.51731  0.80778  0.77611  1.0000
  O  Te7       1.0  0.33673  0.79216  0.73777  1.0000
  O  Te8       1.0  0.40086  0.91855  0.72170  1.0000
  H   H38       1.0  0.57327  0.91797  0.76209  1.0000
  Mg  Mg4       1.0  0.31555  0.85309  0.71787  1.0000
  C   C71       1.0  0.52125  0.35681  0.74449  1.0000
  C   C72       1.0  0.58485  0.37995  0.73224  1.0000
  C  Sn9       1.0  0.62281  0.44290  0.74005  1.0000
  C  Sn10      1.0  0.59645  0.48331  0.76056  1.0000
  C   C73       1.0  0.53276  0.45972  0.77283  1.0000
  C   C74       1.0  0.49521  0.39665  0.76480  1.0000
  H   H39       1.0  0.49218  0.30802  0.73839  1.0000
  O  Te9       1.0  0.68627  0.46524  0.72753  1.0000
  O  Te10      1.0  0.63331  0.54643  0.76882  1.0000
  H   H40       1.0  0.44595  0.37875  0.77441  1.0000
  Mg  Mg5       1.0  0.71732  0.55484  0.74569  1.0000
  C   C75       1.0  0.83439  0.36706  0.27522  1.0000
  C   C76       1.0  0.79473  0.38757  0.26549  1.0000
  C  Sn11      1.0  0.81828  0.44630  0.23957  1.0000
  C  Sn12      1.0  0.88276  0.48511  0.22309  1.0000
  C   C77       1.0  0.92206  0.46414  0.23287  1.0000
  C   C78       1.0  0.89800  0.40530  0.25890  1.0000
  H   H41       1.0  0.81579  0.32151  0.29525  1.0000
  O  Te11      1.0  0.77800  0.46607  0.23023  1.0000
  O  Te12      1.0  0.90753  0.54401  0.19703  1.0000
  H   H42       1.0  0.92873  0.38941  0.26631  1.0000
  Mg  Mg6       1.0  0.83387  0.55016  0.19338  1.0000
