data_image0
_chemical_formula_structural       H30C54N18SnCSn2CSnTe4Mg2SnCSn2CSnTe4Mg2SnCSn2CSnTe4Mg2SnCSn2CSnTe4Mg2SnCSn2CSnTe4Mg2SnCSn2CSnTe4Mg2
_chemical_formula_sum              "H30 C66 N18 Sn24 Te24 Mg12"
_cell_length_a       25.6588
_cell_length_b       25.7711
_cell_length_c       7.80169
_cell_angle_alpha    82.1371
_cell_angle_beta     68.6412
_cell_angle_gamma    120.204

_symmetry_space_group_name_H-M    'P1'
_space_group_IT_number       1

loop_
  _space_group_symop_operation_xyz
  'x, y, z'

loop_
  _atom_site_type_symbol
  _atom_site_label
  _atom_site_symmetry_multiplicity
  _atom_site_fract_x
  _atom_site_fract_y
  _atom_site_fract_z
  _atom_site_occupancy
  H   H1        1.0  0.66609  0.09342  0.79480  1.0000
  H   H2        1.0  0.71402  0.20609  0.78769  1.0000
  H   H3        1.0  0.62761  0.52184  0.77654  1.0000
  H   H4        1.0  0.68988  0.47210  0.78246  1.0000
  H   H5        1.0  0.47186  0.44450  0.70132  1.0000
  H   H6        1.0  0.50988  0.08679  0.69094  1.0000
  H   H7        1.0  0.55756  0.19972  0.68784  1.0000
  H   H8        1.0  0.58660  0.99934  0.77179  1.0000
  H   H9        1.0  0.12475  0.46024  0.70613  1.0000
  H   H10       1.0  0.92075  0.54486  0.78751  1.0000
  H   H11       1.0  0.80729  0.47985  0.79310  1.0000
  H   H12       1.0  0.23798  0.52020  0.70683  1.0000
  H   H13       1.0  0.21968  0.67402  0.76849  1.0000
  H   H14       1.0  0.10727  0.61462  0.77332  1.0000
  H   H15       1.0  0.47953  0.35654  0.71249  1.0000
  H   H16       1.0  0.53969  0.30577  0.72999  1.0000
  H   H17       1.0  0.95021  0.39804  0.71053  1.0000
  H   H18       1.0  0.83587  0.33275  0.71612  1.0000
  H   H19       1.0  0.02469  0.56347  0.74220  1.0000
  H   H20       1.0  0.33450  0.90762  0.20501  1.0000
  H   H21       1.0  0.28681  0.79525  0.20978  1.0000
  H   H22       1.0  0.36483  0.47334  0.24996  1.0000
  H   H23       1.0  0.30694  0.52684  0.22801  1.0000
  H   H24       1.0  0.51653  0.54747  0.34479  1.0000
  H   H25       1.0  0.49426  0.91594  0.29125  1.0000
  H   H26       1.0  0.44610  0.80314  0.29588  1.0000
  H   H27       1.0  0.41243  0.00049  0.23313  1.0000
  H   H28       1.0  0.51186  0.63615  0.32381  1.0000
  H   H29       1.0  0.45622  0.69063  0.29033  1.0000
  H   H30       1.0  0.98442  0.44228  0.20715  1.0000
  C   C1        1.0  0.65569  0.35707  0.75617  1.0000
  C   C2        1.0  0.61824  0.38572  0.75705  1.0000
  C   C3        1.0  0.64328  0.44704  0.77000  1.0000
  C   C4        1.0  0.60907  0.47475  0.76576  1.0000
  C   C5        1.0  0.54919  0.44219  0.74730  1.0000
  C   C6        1.0  0.52472  0.38126  0.73213  1.0000
  C   C7        1.0  0.55825  0.35291  0.74029  1.0000
  C   C8        1.0  0.51249  0.47029  0.74069  1.0000
  C   C9        1.0  0.38963  0.63891  0.75945  1.0000
  C   C10       1.0  0.66585  0.27474  0.74208  1.0000
  C   C11       1.0  0.63849  0.20937  0.73814  1.0000
  C   C12       1.0  0.58050  0.17564  0.71165  1.0000
  C   C13       1.0  0.55421  0.11349  0.71271  1.0000
  C   C14       1.0  0.58471  0.08303  0.74395  1.0000
  C   C15       1.0  0.64286  0.11705  0.76906  1.0000
  C   C16       1.0  0.66960  0.17955  0.76616  1.0000
  C   C17       1.0  0.55724  0.01714  0.75276  1.0000
  C   C18       1.0  0.38589  0.72570  0.75375  1.0000
  C   C19       1.0  0.10806  0.53255  0.73986  1.0000
  C   C20       1.0  0.13554  0.59359  0.75647  1.0000
  C   C21       1.0  0.19840  0.62719  0.75452  1.0000
  C   C22       1.0  0.23552  0.60070  0.73922  1.0000
  C   C23       1.0  0.20866  0.54006  0.72143  1.0000
  C   C24       1.0  0.14614  0.50682  0.72172  1.0000
  C   C25       1.0  0.30087  0.63563  0.74517  1.0000
  C   C26       1.0  0.74845  0.36520  0.75560  1.0000
  C   C27       1.0  0.81507  0.40276  0.75398  1.0000
  C   C28       1.0  0.85530  0.37921  0.73199  1.0000
  C   C29       1.0  0.91822  0.41511  0.72841  1.0000
  C   C30       1.0  0.94259  0.47549  0.74789  1.0000
  C   C31       1.0  0.90244  0.49875  0.76948  1.0000
  C   C32       1.0  0.83921  0.46272  0.77393  1.0000
  C   C33       1.0  0.00853  0.51489  0.74386  1.0000
  C   C34       1.0  0.34352  0.64274  0.24722  1.0000
  C   C35       1.0  0.37842  0.61213  0.25689  1.0000
  C   C36       1.0  0.35227  0.55032  0.24661  1.0000
  C   C37       1.0  0.38388  0.52058  0.26034  1.0000
  C   C38       1.0  0.44199  0.55148  0.28718  1.0000
  C   C39       1.0  0.46753  0.61278  0.29998  1.0000
  C   C40       1.0  0.43674  0.64322  0.28174  1.0000
  C   C41       1.0  0.47721  0.52240  0.30072  1.0000
  C   C42       1.0  0.60859  0.36074  0.25268  1.0000
  C   C43       1.0  0.33529  0.72654  0.25166  1.0000
  C   C44       1.0  0.36347  0.79237  0.25289  1.0000
  C   C45       1.0  0.42246  0.82672  0.27484  1.0000
  C   C46       1.0  0.44906  0.88898  0.27322  1.0000
  C   C47       1.0  0.41737  0.91877  0.24821  1.0000
  C   C48       1.0  0.35851  0.88438  0.22640  1.0000
  C   C49       1.0  0.33192  0.82201  0.22802  1.0000
  C   C50       1.0  0.44391  0.98424  0.24272  1.0000
  C   C51       1.0  0.61486  0.27586  0.24344  1.0000
  C   C52       1.0  0.69989  0.36577  0.25269  1.0000
  C   C53       1.0  0.25183  0.63548  0.24230  1.0000
  C   C54       1.0  0.99556  0.48661  0.23368  1.0000
  N   N1        1.0  0.71445  0.39201  0.76503  1.0000
  N   N2        1.0  0.52745  0.52208  0.77677  1.0000
  N   N3        1.0  0.33010  0.60483  0.75367  1.0000
  N   N4        1.0  0.62928  0.29829  0.74363  1.0000
  N   N5        1.0  0.50201  0.98245  0.73959  1.0000
  N   N6        1.0  0.41988  0.69957  0.75844  1.0000
  N   N7        1.0  0.04465  0.49351  0.74380  1.0000
  N   N8        1.0  0.32652  0.69582  0.74605  1.0000
  N   N9        1.0  0.72600  0.30664  0.74495  1.0000
  N   N10       1.0  0.28498  0.60804  0.23748  1.0000
  N   N11       1.0  0.46346  0.47122  0.26211  1.0000
  N   N12       1.0  0.66897  0.39541  0.25388  1.0000
  N   N13       1.0  0.37116  0.70241  0.25369  1.0000
  N   N14       1.0  0.50054  0.02021  0.24829  1.0000
  N   N15       1.0  0.57917  0.30071  0.24880  1.0000
  N   N16       1.0  0.95572  0.50490  0.25592  1.0000
  N   N17       1.0  0.67510  0.30630  0.24624  1.0000
  N   N18       1.0  0.27510  0.69471  0.24861  1.0000
  C  Sn1       1.0  0.58717  0.48680  0.20431  1.0000
  C   C55       1.0  0.52464  0.46076  0.20322  1.0000
  C  Sn2       1.0  0.47973  0.39403  0.24888  1.0000
  C  Sn3       1.0  0.49767  0.35246  0.29676  1.0000
  C   C56       1.0  0.56016  0.37850  0.29787  1.0000
  C  Sn4       1.0  0.60511  0.44522  0.25219  1.0000
  O  Te1       1.0  0.63127  0.55365  0.15820  1.0000
  O  Te2       1.0  0.41751  0.36914  0.24675  1.0000
  O  Te3       1.0  0.45350  0.28556  0.34288  1.0000
  O  Te4       1.0  0.66729  0.47012  0.25434  1.0000
  Mg  Mg1       1.0  0.37459  0.27477  0.32011  1.0000
  Mg  Mg2       1.0  0.71023  0.56447  0.18111  1.0000
  C  Sn5       1.0  0.50832  0.64551  0.70872  1.0000
  C   C57       1.0  0.44465  0.61937  0.71472  1.0000
  C  Sn6       1.0  0.39754  0.55208  0.77254  1.0000
  C  Sn7       1.0  0.41440  0.51004  0.82559  1.0000
  C   C58       1.0  0.47803  0.53618  0.81961  1.0000
  C  Sn8       1.0  0.52517  0.60347  0.76177  1.0000
  O  Te5       1.0  0.55461  0.71293  0.65048  1.0000
  O  Te6       1.0  0.33423  0.52709  0.77732  1.0000
  O  Te7       1.0  0.36804  0.44258  0.88386  1.0000
  O  Te8       1.0  0.58845  0.62846  0.75702  1.0000
  Mg  Mg3       1.0  0.28833  0.43188  0.86679  1.0000
  Mg  Mg4       1.0  0.63437  0.72366  0.66767  1.0000
  C  Sn9       1.0  0.46999  0.82767  0.84656  1.0000
  C   C59       1.0  0.41479  0.79145  0.81298  1.0000
  C  Sn10      1.0  0.39285  0.82193  0.72769  1.0000
  C  Sn11      1.0  0.42682  0.89004  0.67475  1.0000
  C   C60       1.0  0.97670  0.92623  0.70830  1.0000
  C  Sn12      1.0  0.50396  0.89579  0.79361  1.0000
  O  Te9       1.0  0.49105  0.79619  0.93199  1.0000
  O  Te10      1.0  0.33753  0.78469  0.69563  1.0000
  O  Te11      1.0  0.40570  0.92151  0.58926  1.0000
  O  Te12      1.0  0.05396  0.93300  0.82564  1.0000
  Mg  Mg5       1.0  0.32789  0.84983  0.57504  1.0000
  Mg  Mg6       1.0  0.56895  0.86791  0.94612  1.0000
  C  Sn13      1.0  0.10293  0.49642  0.28074  1.0000
  C   C61       1.0  0.05800  0.51297  0.29122  1.0000
  C  Sn14      1.0  0.08007  0.57696  0.26062  1.0000
  C  Sn15      1.0  0.14849  0.62543  0.21854  1.0000
  C   C62       1.0  0.19338  0.60888  0.20804  1.0000
  C  Sn16      1.0  0.17135  0.54489  0.23866  1.0000
  O  Te13      1.0  0.07976  0.43215  0.31182  1.0000
  O  Te14      1.0  0.03421  0.59233  0.27193  1.0000
  O  Te15      1.0  0.17164  0.68975  0.18745  1.0000
  O  Te16      1.0  0.21717  0.52952  0.22733  1.0000
  Mg  Mg7       1.0  0.08996  0.68669  0.21825  1.0000
  Mg  Mg8       1.0  0.16149  0.43519  0.28088  1.0000
  C  Sn17      1.0  0.51316  0.13820  0.15016  1.0000
  C   C63       1.0  0.53405  0.09841  0.17550  1.0000
  C  Sn18      1.0  0.57918  0.11257  0.25098  1.0000
  C  Sn19      1.0  0.60392  0.16763  0.30233  1.0000
  C   C64       1.0  0.58302  0.20738  0.27702  1.0000
  C  Sn20      1.0  0.53790  0.19327  0.20151  1.0000
  O  Te17      1.0  0.46800  0.12312  0.07446  1.0000
  O  Te18      1.0  0.59935  0.07208  0.27492  1.0000
  O  Te19      1.0  0.64911  0.18269  0.37807  1.0000
  O  Te20      1.0  0.51772  0.23371  0.17759  1.0000
  Mg  Mg9       1.0  0.66164  0.11283  0.38367  1.0000
  Mg  Mg10      1.0  0.45541  0.19299  0.06896  1.0000
  C  Sn21      1.0  0.80554  0.36758  0.29747  1.0000
  C   C65       1.0  0.76359  0.38802  0.31021  1.0000
  C  Sn22      1.0  0.78989  0.45306  0.27818  1.0000
  C  Sn23      1.0  0.85960  0.49862  0.23232  1.0000
  C   C66       1.0  0.90151  0.47818  0.21957  1.0000
  C  Sn24      1.0  0.87524  0.41315  0.25162  1.0000
  O  Te21      1.0  0.77815  0.30233  0.33005  1.0000
  O  Te22      1.0  0.74695  0.47234  0.29179  1.0000
  O  Te23      1.0  0.88696  0.56392  0.19974  1.0000
  O  Te24      1.0  0.91815  0.39387  0.23799  1.0000
  Mg  Mg11      1.0  0.80807  0.56657  0.23480  1.0000
  Mg  Mg12      1.0  0.85709  0.29965  0.29485  1.0000
