data_image0
_chemical_formula_structural       CNCNCNH3C6H6C6H6C5N3C7N3CNCNCNH3C6H6C6H6C7N3C5N3SnCSn2CSnTe4Mg2SnCSn2CSnTe4Mg2SnCSn2CSnTe4Mg2SnCSn2CSnTe4Mg2SnCSn2CSnTe4Mg2SnCSn2CSnTe4Mg2
_chemical_formula_sum              "C66 N18 H30 Sn24 Te24 Mg12"
_cell_length_a       25.5587
_cell_length_b       25.7147
_cell_length_c       8.06489
_cell_angle_alpha    116.694
_cell_angle_beta     64.7065
_cell_angle_gamma    120.073

_symmetry_space_group_name_H-M    'P1'
_space_group_IT_number       1

loop_
  _space_group_symop_operation_xyz
  'x, y, z'

loop_
  _atom_site_type_symbol
  _atom_site_label
  _atom_site_symmetry_multiplicity
  _atom_site_fract_x
  _atom_site_fract_y
  _atom_site_fract_z
  _atom_site_occupancy
  C   C1        1.0  0.01659  0.54256  0.23990  1.0000
  N   N1        1.0  0.97930  0.48723  0.25978  1.0000
  C   C2        1.0  0.45403  0.47619  0.26077  1.0000
  N   N2        1.0  0.51240  0.49676  0.25345  1.0000
  C   C3        1.0  0.52155  0.98440  0.26992  1.0000
  N   N3        1.0  0.50662  0.01491  0.21647  1.0000
  H   H1        1.0  0.00255  0.57180  0.21513  1.0000
  H   H2        1.0  0.42044  0.42827  0.26576  1.0000
  H   H3        1.0  0.56225  0.00581  0.32666  1.0000
  C   C4        1.0  0.12161  0.62915  0.22605  1.0000
  C   C5        1.0  0.18411  0.65407  0.22547  1.0000
  C   C6        1.0  0.88261  0.39949  0.27604  1.0000
  C   C7        1.0  0.81988  0.36744  0.27567  1.0000
  C   C8        1.0  0.60119  0.49052  0.25903  1.0000
  C   C9        1.0  0.63274  0.45897  0.25519  1.0000
  H   H4        1.0  0.10370  0.65560  0.20526  1.0000
  H   H5        1.0  0.21539  0.70043  0.20785  1.0000
  H   H6        1.0  0.90677  0.37955  0.29884  1.0000
  H   H7        1.0  0.79340  0.32096  0.29589  1.0000
  H   H8        1.0  0.62425  0.53992  0.26585  1.0000
  H   H9        1.0  0.68120  0.48298  0.26254  1.0000
  C   C10       1.0  0.10550  0.53382  0.26565  1.0000
  C   C11       1.0  0.16786  0.55816  0.26269  1.0000
  C   C12       1.0  0.88608  0.48798  0.22959  1.0000
  C   C13       1.0  0.82326  0.45628  0.23089  1.0000
  C   C14       1.0  0.50812  0.39464  0.23477  1.0000
  C   C15       1.0  0.53950  0.36291  0.23102  1.0000
  H   H10       1.0  0.07377  0.48760  0.28422  1.0000
  H   H11       1.0  0.18705  0.53187  0.27902  1.0000
  H   H12       1.0  0.91113  0.53394  0.20608  1.0000
  H   H13       1.0  0.79912  0.47667  0.20955  1.0000
  H   H14       1.0  0.46030  0.36869  0.22162  1.0000
  H   H15       1.0  0.51707  0.31291  0.21760  1.0000
  C   C16       1.0  0.36896  0.72619  0.24757  1.0000
  C   C17       1.0  0.27393  0.64478  0.24657  1.0000
  C   C18       1.0  0.35474  0.63291  0.25913  1.0000
  C   C19       1.0  0.08132  0.56878  0.24609  1.0000
  C   C20       1.0  0.20806  0.61876  0.24334  1.0000
  N   N4        1.0  0.39371  0.69252  0.25772  1.0000
  N   N5        1.0  0.30955  0.70432  0.24008  1.0000
  N   N6        1.0  0.29428  0.60729  0.25655  1.0000
  C   C21       1.0  0.63469  0.27288  0.24439  1.0000
  C   C22       1.0  0.72307  0.36220  0.25176  1.0000
  C   C23       1.0  0.63480  0.36116  0.24180  1.0000
  C   C24       1.0  0.91691  0.46019  0.25346  1.0000
  C   C25       1.0  0.53832  0.45944  0.24995  1.0000
  C   C26       1.0  0.78929  0.39569  0.25439  1.0000
  C   C27       1.0  0.60198  0.39474  0.24287  1.0000
  N   N7        1.0  0.60275  0.30017  0.23717  1.0000
  N   N8        1.0  0.69461  0.30196  0.25451  1.0000
  N   N9        1.0  0.69529  0.39373  0.24556  1.0000
  C   C28       1.0  0.02223  0.54939  0.72956  1.0000
  N   N10       1.0  0.98306  0.49591  0.76085  1.0000
  C   C29       1.0  0.44967  0.46657  0.74333  1.0000
  N   N11       1.0  0.50536  0.48897  0.76192  1.0000
  C   C30       1.0  0.53243  0.98387  0.76767  1.0000
  N   N12       1.0  0.51547  0.01507  0.72423  1.0000
  H   H16       1.0  0.01044  0.57739  0.69063  1.0000
  H   H17       1.0  0.41867  0.41629  0.71844  1.0000
  H   H18       1.0  0.57581  0.00419  0.80967  1.0000
  C   C31       1.0  0.12840  0.63517  0.72018  1.0000
  C   C32       1.0  0.19039  0.65875  0.72309  1.0000
  C   C33       1.0  0.51488  0.88028  0.77422  1.0000
  C   C34       1.0  0.47737  0.81742  0.76528  1.0000
  C   C35       1.0  0.52038  0.10667  0.70603  1.0000
  C   C36       1.0  0.54865  0.16958  0.71326  1.0000
  H   H19       1.0  0.11232  0.66264  0.69652  1.0000
  H   H20       1.0  0.22316  0.70473  0.70451  1.0000
  H   H21       1.0  0.56165  0.90068  0.79368  1.0000
  H   H22       1.0  0.49387  0.78825  0.77816  1.0000
  H   H23       1.0  0.47420  0.07726  0.68102  1.0000
  H   H24       1.0  0.52528  0.19111  0.69338  1.0000
  C   C37       1.0  0.43157  0.89171  0.74202  1.0000
  C   C38       1.0  0.39395  0.82946  0.73629  1.0000
  C   C39       1.0  0.61175  0.11490  0.75370  1.0000
  C   C40       1.0  0.64033  0.17776  0.75951  1.0000
  C   C41       1.0  0.10858  0.53947  0.76635  1.0000
  C   C42       1.0  0.17033  0.56269  0.76799  1.0000
  H   H25       1.0  0.41519  0.92142  0.73088  1.0000
  H   H26       1.0  0.34664  0.80905  0.72205  1.0000
  H   H27       1.0  0.63651  0.09460  0.77273  1.0000
  H   H28       1.0  0.68719  0.20633  0.78046  1.0000
  H   H29       1.0  0.07583  0.49353  0.78512  1.0000
  H   H30       1.0  0.18751  0.53589  0.79004  1.0000
  C   C43       1.0  0.37440  0.72566  0.74711  1.0000
  C   C44       1.0  0.27772  0.64673  0.74888  1.0000
  C   C45       1.0  0.35646  0.63117  0.75911  1.0000
  C   C46       1.0  0.49280  0.91834  0.76199  1.0000
  C   C47       1.0  0.08653  0.57513  0.74113  1.0000
  C   C48       1.0  0.41617  0.79117  0.74696  1.0000
  C   C49       1.0  0.21221  0.62259  0.74563  1.0000
  N   N13       1.0  0.39747  0.69007  0.75486  1.0000
  N   N14       1.0  0.31516  0.70597  0.74169  1.0000
  N   N15       1.0  0.29612  0.60777  0.75905  1.0000
  C   C50       1.0  0.63990  0.27292  0.74447  1.0000
  C   C51       1.0  0.72660  0.36464  0.74869  1.0000
  C   C52       1.0  0.63563  0.35906  0.74215  1.0000
  C   C53       1.0  0.55061  0.07817  0.72922  1.0000
  C   C54       1.0  0.60909  0.20630  0.74117  1.0000
  N   N16       1.0  0.60550  0.29824  0.74019  1.0000
  N   N17       1.0  0.70029  0.30428  0.75067  1.0000
  N   N18       1.0  0.69637  0.39395  0.74355  1.0000
  C  Sn1       1.0  0.86940  0.49897  0.79234  1.0000
  C   C55       1.0  0.90906  0.47887  0.80400  1.0000
  C  Sn2       1.0  0.89219  0.41503  0.77161  1.0000
  C  Sn3       1.0  0.83451  0.37032  0.72648  1.0000
  C   C56       1.0  0.79490  0.39042  0.71480  1.0000
  C  Sn4       1.0  0.81172  0.45426  0.74721  1.0000
  O  Te1       1.0  0.88721  0.56303  0.82526  1.0000
  O  Te2       1.0  0.93260  0.39607  0.78414  1.0000
  O  Te3       1.0  0.81672  0.30621  0.69355  1.0000
  O  Te4       1.0  0.77135  0.47322  0.73466  1.0000
  Mg  Mg1       1.0  0.88760  0.30357  0.72707  1.0000
  Mg  Mg2       1.0  0.81632  0.56570  0.79161  1.0000
  C  Sn5       1.0  0.40495  0.88221  0.27819  1.0000
  C   C57       1.0  0.46589  0.91713  0.29987  1.0000
  C  Sn6       1.0  0.50194  0.88695  0.27948  1.0000
  C  Sn7       1.0  0.47657  0.82047  0.23641  1.0000
  C   C58       1.0  0.41567  0.78558  0.21472  1.0000
  C  Sn8       1.0  0.37957  0.81573  0.23512  1.0000
  O  Te5       1.0  0.36975  0.91338  0.29919  1.0000
  O  Te6       1.0  0.56275  0.92286  0.30187  1.0000
  O  Te7       1.0  0.51182  0.78932  0.21542  1.0000
  O  Te8       1.0  0.31881  0.77985  0.21272  1.0000
  Mg  Mg3       1.0  0.59228  0.85879  0.25935  1.0000
  Mg  Mg4       1.0  0.28925  0.84387  0.25511  1.0000
  C  Sn9       1.0  0.62066  0.46949  0.81314  1.0000
  C   C59       1.0  0.59990  0.40634  0.79890  1.0000
  C  Sn10      1.0  0.54496  0.36194  0.74291  1.0000
  C  Sn11      1.0  0.51005  0.38106  0.70015  1.0000
  C   C60       1.0  0.53081  0.44417  0.71437  1.0000
  C  Sn12      1.0  0.58575  0.48861  0.77038  1.0000
  O  Te9       1.0  0.67572  0.51307  0.86938  1.0000
  O  Te10      1.0  0.52514  0.29908  0.72976  1.0000
  O  Te11      1.0  0.45494  0.33742  0.64389  1.0000
  O  Te12      1.0  0.60558  0.55143  0.78351  1.0000
  Mg  Mg5       1.0  0.44714  0.25727  0.64698  1.0000
  Mg  Mg6       1.0  0.68358  0.59327  0.86618  1.0000
  C  Sn13      1.0  0.45717  0.60710  0.20707  1.0000
  C   C61       1.0  0.39586  0.59162  0.21174  1.0000
  C  Sn14      1.0  0.34732  0.53801  0.26059  1.0000
  C  Sn15      1.0  0.36031  0.49906  0.30585  1.0000
  C   C62       1.0  0.42158  0.51455  0.30120  1.0000
  C  Sn16      1.0  0.47016  0.56815  0.25233  1.0000
  O  Te13      1.0  0.50496  0.66092  0.15785  1.0000
  O  Te14      1.0  0.28641  0.52349  0.26421  1.0000
  O  Te15      1.0  0.31245  0.44521  0.35509  1.0000
  O  Te16      1.0  0.53103  0.58268  0.24873  1.0000
  Mg  Mg7       1.0  0.23716  0.44520  0.34001  1.0000
  Mg  Mg8       1.0  0.58031  0.66097  0.17305  1.0000
  C  Sn17      1.0  0.52429  0.16224  0.26774  1.0000
  C   C63       1.0  0.58454  0.20398  0.28839  1.0000
  C  Sn18      1.0  0.62816  0.18134  0.26055  1.0000
  C  Sn19      1.0  0.61122  0.11560  0.21092  1.0000
  C   C64       1.0  0.55101  0.07390  0.19027  1.0000
  C  Sn20      1.0  0.50735  0.09651  0.21812  1.0000
  O  Te17      1.0  0.48145  0.18592  0.29624  1.0000
  O  Te18      1.0  0.68810  0.22398  0.28206  1.0000
  O  Te19      1.0  0.65413  0.09194  0.18243  1.0000
  O  Te20      1.0  0.44745  0.05390  0.19660  1.0000
  Mg  Mg9       1.0  0.73000  0.16880  0.22814  1.0000
  Mg  Mg10      1.0  0.40553  0.10902  0.25038  1.0000
  C  Sn21      1.0  0.36004  0.48617  0.68693  1.0000
  C   C65       1.0  0.41934  0.50123  0.69817  1.0000
  C  Sn22      1.0  0.45869  0.56408  0.76118  1.0000
  C  Sn23      1.0  0.43833  0.61289  0.81417  1.0000
  C   C66       1.0  0.37906  0.59782  0.80295  1.0000
  C  Sn24      1.0  0.33968  0.53498  0.73992  1.0000
  O  Te21      1.0  0.32148  0.42302  0.62355  1.0000
  O  Te22      1.0  0.51778  0.57798  0.77115  1.0000
  O  Te23      1.0  0.47694  0.67608  0.87758  1.0000
  O  Te24      1.0  0.28062  0.52108  0.72997  1.0000
  Mg  Mg11      1.0  0.55328  0.67118  0.86648  1.0000
  Mg  Mg12      1.0  0.24507  0.42789  0.63476  1.0000
