data_image0
_chemical_formula_structural       H6C18N18C2Sn2C2HTe2HMgC2Sn2C2HTe2HMgC2Sn2C2HTe2HMgC2Sn2C2HTe2HMgC2Sn2C2HTe2HMgC2Sn2C2HTe2HMgC2Sn2C2HTe2HMgC2Sn2C2HTe2HMgC2Sn2C2HTe2HMgC2Sn2C2HTe2HMgC2Sn2C2HTe2HMgC2Sn2C2HTe2HMg
_chemical_formula_sum              "H30 C66 N18 Sn24 Te24 Mg12"
_cell_length_a       25.6588
_cell_length_b       25.7711
_cell_length_c       7.80169
_cell_angle_alpha    82.1371
_cell_angle_beta     68.6412
_cell_angle_gamma    120.204

_symmetry_space_group_name_H-M    'P1'
_space_group_IT_number       1

loop_
  _space_group_symop_operation_xyz
  'x, y, z'

loop_
  _atom_site_type_symbol
  _atom_site_label
  _atom_site_symmetry_multiplicity
  _atom_site_fract_x
  _atom_site_fract_y
  _atom_site_fract_z
  _atom_site_occupancy
  H   H1        1.0  0.47186  0.44450  0.70132  1.0000
  H   H2        1.0  0.58660  0.99934  0.77179  1.0000
  H   H3        1.0  0.02469  0.56347  0.74220  1.0000
  H   H4        1.0  0.51653  0.54747  0.34479  1.0000
  H   H5        1.0  0.41243  0.00049  0.23313  1.0000
  H   H6        1.0  0.98442  0.44228  0.20715  1.0000
  C   C1        1.0  0.65569  0.35707  0.75617  1.0000
  C   C2        1.0  0.51249  0.47029  0.74069  1.0000
  C   C3        1.0  0.38963  0.63891  0.75945  1.0000
  C   C4        1.0  0.66585  0.27474  0.74208  1.0000
  C   C5        1.0  0.55724  0.01714  0.75276  1.0000
  C   C6        1.0  0.38589  0.72570  0.75375  1.0000
  C   C7        1.0  0.30087  0.63563  0.74517  1.0000
  C   C8        1.0  0.74845  0.36520  0.75560  1.0000
  C   C9        1.0  0.00853  0.51489  0.74386  1.0000
  C   C10       1.0  0.34352  0.64274  0.24722  1.0000
  C   C11       1.0  0.47721  0.52240  0.30072  1.0000
  C   C12       1.0  0.60859  0.36074  0.25268  1.0000
  C   C13       1.0  0.33529  0.72654  0.25166  1.0000
  C   C14       1.0  0.44391  0.98424  0.24272  1.0000
  C   C15       1.0  0.61486  0.27586  0.24344  1.0000
  C   C16       1.0  0.69989  0.36577  0.25269  1.0000
  C   C17       1.0  0.25183  0.63548  0.24230  1.0000
  C   C18       1.0  0.99556  0.48661  0.23368  1.0000
  N   N1        1.0  0.71445  0.39201  0.76503  1.0000
  N   N2        1.0  0.52745  0.52208  0.77677  1.0000
  N   N3        1.0  0.33010  0.60483  0.75367  1.0000
  N   N4        1.0  0.62928  0.29829  0.74363  1.0000
  N   N5        1.0  0.50201  0.98245  0.73959  1.0000
  N   N6        1.0  0.41988  0.69957  0.75844  1.0000
  N   N7        1.0  0.04465  0.49351  0.74380  1.0000
  N   N8        1.0  0.32652  0.69582  0.74605  1.0000
  N   N9        1.0  0.72600  0.30664  0.74495  1.0000
  N   N10       1.0  0.28498  0.60804  0.23748  1.0000
  N   N11       1.0  0.46346  0.47122  0.26211  1.0000
  N   N12       1.0  0.66897  0.39541  0.25388  1.0000
  N   N13       1.0  0.37116  0.70241  0.25369  1.0000
  N   N14       1.0  0.50054  0.02021  0.24829  1.0000
  N   N15       1.0  0.57917  0.30071  0.24880  1.0000
  N   N16       1.0  0.95572  0.50490  0.25592  1.0000
  N   N17       1.0  0.67510  0.30630  0.24624  1.0000
  N   N18       1.0  0.27510  0.69471  0.24861  1.0000
  C   C19       1.0  0.62278  0.47534  0.77424  1.0000
  C   C20       1.0  0.56610  0.45291  0.74349  1.0000
  C  Sn1       1.0  0.53304  0.39274  0.72690  1.0000
  C  Sn2       1.0  0.55727  0.35443  0.74149  1.0000
  C   C21       1.0  0.61398  0.37728  0.77241  1.0000
  C   C22       1.0  0.64670  0.43757  0.78873  1.0000
  H   H7        1.0  0.64807  0.52197  0.78698  1.0000
  O  Te1       1.0  0.47650  0.37107  0.69612  1.0000
  O  Te2       1.0  0.52517  0.29410  0.72553  1.0000
  H   H8        1.0  0.69055  0.45491  0.81267  1.0000
  Mg  Mg1       1.0  0.45001  0.28557  0.68396  1.0000
  C   C23       1.0  0.39440  0.52966  0.77003  1.0000
  C   C24       1.0  0.41390  0.59038  0.77639  1.0000
  C  Sn3       1.0  0.47551  0.63169  0.77751  1.0000
  C  Sn4       1.0  0.51830  0.61171  0.77211  1.0000
  C   C25       1.0  0.49836  0.55089  0.76563  1.0000
  C   C26       1.0  0.43659  0.50993  0.76463  1.0000
  H   H9        1.0  0.34663  0.49798  0.76914  1.0000
  O  Te3       1.0  0.49420  0.69218  0.78397  1.0000
  O  Te4       1.0  0.58016  0.65205  0.77302  1.0000
  H   H10       1.0  0.42153  0.46294  0.75957  1.0000
  Mg  Mg2       1.0  0.58337  0.72992  0.78277  1.0000
  C   C27       1.0  0.55182  0.12667  0.71299  1.0000
  C   C28       1.0  0.57825  0.09112  0.72409  1.0000
  C  Sn5       1.0  0.63565  0.11560  0.75208  1.0000
  C  Sn6       1.0  0.66705  0.17680  0.76928  1.0000
  C   C29       1.0  0.64019  0.21197  0.75812  1.0000
  C   C30       1.0  0.58274  0.18703  0.73002  1.0000
  H   H11       1.0  0.50735  0.10736  0.69136  1.0000
  O  Te5       1.0  0.66142  0.07946  0.76276  1.0000
  O  Te6       1.0  0.72446  0.20240  0.79740  1.0000
  H   H12       1.0  0.56226  0.21455  0.72156  1.0000
  Mg  Mg3       1.0  0.74064  0.13489  0.80228  1.0000
  C   C31       1.0  0.48838  0.83701  0.78402  1.0000
  C   C32       1.0  0.42887  0.79722  0.77151  1.0000
  C  Sn7       1.0  0.39363  0.82116  0.73854  1.0000
  C  Sn8       1.0  0.41855  0.88616  0.71771  1.0000
  C   C33       1.0  0.97288  0.92558  0.73032  1.0000
  C   C34       1.0  0.00773  0.90113  0.76342  1.0000
  H   H13       1.0  0.51538  0.81810  0.80952  1.0000
  O  Te7       1.0  0.33424  0.78075  0.72651  1.0000
  O  Te8       1.0  0.87906  0.91133  0.68459  1.0000
  H   H14       1.0  0.05383  0.93196  0.77297  1.0000
  Mg  Mg4       1.0  0.30561  0.83729  0.67971  1.0000
  C   C35       1.0  0.14823  0.60750  0.76400  1.0000
  C   C36       1.0  0.11534  0.54968  0.73473  1.0000
  C  Sn9       1.0  0.14324  0.51476  0.71323  1.0000
  C  Sn10      1.0  0.20520  0.53828  0.72131  1.0000
  C   C37       1.0  0.23768  0.59615  0.75080  1.0000
  C   C38       1.0  0.20933  0.63072  0.77207  1.0000
  H   H15       1.0  0.12628  0.63422  0.78057  1.0000
  O  Te9       1.0  0.10973  0.45710  0.68401  1.0000
  O  Te10      1.0  0.23419  0.50434  0.70034  1.0000
  H   H16       1.0  0.23478  0.67546  0.79486  1.0000
  Mg  Mg5       1.0  0.16938  0.42820  0.66335  1.0000
  C   C39       1.0  0.87186  0.38149  0.72246  1.0000
  C   C40       1.0  0.82231  0.39357  0.75917  1.0000
  C  Sn11      1.0  0.83570  0.45095  0.78329  1.0000
  C  Sn12      1.0  0.89995  0.49700  0.77028  1.0000
  C   C41       1.0  0.94920  0.48448  0.73336  1.0000
  C   C42       1.0  0.93525  0.42690  0.70953  1.0000
  H   H17       1.0  0.86109  0.33695  0.70391  1.0000
  O  Te11      1.0  0.78561  0.46224  0.81996  1.0000
  O  Te12      1.0  0.91470  0.55476  0.79371  1.0000
  H   H18       1.0  0.97365  0.41758  0.68098  1.0000
  Mg  Mg6       1.0  0.82988  0.54808  0.84135  1.0000
  C   C43       1.0  0.46850  0.62797  0.29332  1.0000
  C   C44       1.0  0.44690  0.56523  0.30460  1.0000
  C  Sn13      1.0  0.39005  0.52583  0.28078  1.0000
  C  Sn14      1.0  0.35429  0.54983  0.24497  1.0000
  C   C45       1.0  0.37634  0.61268  0.23381  1.0000
  C   C46       1.0  0.43327  0.65168  0.25793  1.0000
  H   H19       1.0  0.51258  0.65817  0.31187  1.0000
  O  Te13      1.0  0.36914  0.46326  0.29257  1.0000
  O  Te14      1.0  0.29733  0.51149  0.22053  1.0000
  H   H20       1.0  0.45002  0.70027  0.24906  1.0000
  Mg  Mg7       1.0  0.28857  0.42951  0.24934  1.0000
  C   C47       1.0  0.59961  0.46715  0.25907  1.0000
  C   C48       1.0  0.57754  0.40430  0.27050  1.0000
  C  Sn15      1.0  0.51652  0.36281  0.26681  1.0000
  C  Sn16      1.0  0.47699  0.38479  0.25132  1.0000
  C   C49       1.0  0.49954  0.44777  0.23983  1.0000
  C   C50       1.0  0.56066  0.48888  0.24372  1.0000
  H   H21       1.0  0.64692  0.49897  0.26196  1.0000
  O  Te15      1.0  0.49521  0.30015  0.27844  1.0000
  O  Te16      1.0  0.41583  0.34434  0.24724  1.0000
  H   H22       1.0  0.57776  0.53755  0.23473  1.0000
  Mg  Mg8       1.0  0.40821  0.26312  0.26723  1.0000
  C   C51       1.0  0.44922  0.87444  0.28307  1.0000
  C   C52       1.0  0.42891  0.91378  0.24432  1.0000
  C  Sn17      1.0  0.37132  0.88936  0.21726  1.0000
  C  Sn18      1.0  0.33345  0.82433  0.22935  1.0000
  C   C53       1.0  0.35416  0.78535  0.26832  1.0000
  C   C54       1.0  0.41188  0.81029  0.29510  1.0000
  H   H23       1.0  0.49385  0.89371  0.30389  1.0000
  O  Te17      1.0  0.35176  0.92933  0.17859  1.0000
  O  Te18      1.0  0.27568  0.79868  0.20299  1.0000
  H   H24       1.0  0.42756  0.77980  0.32522  1.0000
  Mg  Mg9       1.0  0.26938  0.87222  0.15344  1.0000
  C   C55       1.0  0.60088  0.13103  0.25635  1.0000
  C   C56       1.0  0.53928  0.08987  0.25488  1.0000
  C  Sn19      1.0  0.50207  0.11259  0.23089  1.0000
  C  Sn20      1.0  0.52714  0.17776  0.20792  1.0000
  C   C57       1.0  0.58884  0.21856  0.20946  1.0000
  C   C58       1.0  0.62565  0.19532  0.23363  1.0000
  H   H25       1.0  0.62938  0.11306  0.27494  1.0000
  O  Te19      1.0  0.44061  0.07081  0.22984  1.0000
  O  Te20      1.0  0.49100  0.20173  0.18362  1.0000
  H   H26       1.0  0.67336  0.22721  0.23463  1.0000
  Mg  Mg10      1.0  0.40983  0.12606  0.19225  1.0000
  C   C59       1.0  0.80564  0.47475  0.28382  1.0000
  C   C60       1.0  0.77283  0.41774  0.25063  1.0000
  C  Sn21      1.0  0.80015  0.38234  0.22793  1.0000
  C  Sn22      1.0  0.86144  0.40454  0.23879  1.0000
  C   C61       1.0  0.89385  0.46161  0.27219  1.0000
  C   C62       1.0  0.86609  0.49667  0.29463  1.0000
  H   H27       1.0  0.78414  0.50186  0.30130  1.0000
  O  Te21      1.0  0.76672  0.32549  0.19479  1.0000
  O  Te22      1.0  0.88984  0.37009  0.21671  1.0000
  H   H28       1.0  0.89148  0.54079  0.32046  1.0000
  Mg  Mg11      1.0  0.82542  0.29545  0.17403  1.0000
  C   C63       1.0  0.11631  0.50407  0.21345  1.0000
  C   C64       1.0  0.06698  0.51617  0.24432  1.0000
  C  Sn23      1.0  0.07948  0.57332  0.26848  1.0000
  C  Sn24      1.0  0.14259  0.61911  0.26149  1.0000
  C   C65       1.0  0.19163  0.60657  0.23039  1.0000
  C   C66       1.0  0.17858  0.54923  0.20646  1.0000
  H   H29       1.0  0.10623  0.45972  0.19482  1.0000
  O  Te23      1.0  0.02962  0.58463  0.29926  1.0000
  O  Te24      1.0  0.15642  0.67663  0.28511  1.0000
  H   H30       1.0  0.21680  0.53989  0.18243  1.0000
  Mg  Mg12      1.0  0.07237  0.67009  0.32343  1.0000
