data_image0
_chemical_formula_structural       CNCNCNH3C3N3C3N3CNCNCNH3C3N3C3N3C2Sn2C2HTe2HMgC2Sn2C2HTe2HMgC2Sn2C2HTe2HMgC2Sn2C2HTe2HMgC2Sn2C2HTe2HMgC2Sn2C2HTe2HMgC2Sn2C2HTe2HMgC2Sn2C2HTe2HMgC2Sn2C2HTe2HMgC2Sn2C2HTe2HMgC2Sn2C2HTe2HMgC2Sn2C2HTe2HMg
_chemical_formula_sum              "C66 N18 H30 Sn24 Te24 Mg12"
_cell_length_a       25.5587
_cell_length_b       25.7147
_cell_length_c       8.06489
_cell_angle_alpha    116.694
_cell_angle_beta     64.7065
_cell_angle_gamma    120.073

_symmetry_space_group_name_H-M    'P1'
_space_group_IT_number       1

loop_
  _space_group_symop_operation_xyz
  'x, y, z'

loop_
  _atom_site_type_symbol
  _atom_site_label
  _atom_site_symmetry_multiplicity
  _atom_site_fract_x
  _atom_site_fract_y
  _atom_site_fract_z
  _atom_site_occupancy
  C   C1        1.0  0.01659  0.54256  0.23990  1.0000
  N   N1        1.0  0.97930  0.48723  0.25978  1.0000
  C   C2        1.0  0.45403  0.47619  0.26077  1.0000
  N   N2        1.0  0.51240  0.49676  0.25345  1.0000
  C   C3        1.0  0.52155  0.98440  0.26992  1.0000
  N   N3        1.0  0.50662  0.01491  0.21647  1.0000
  H   H1        1.0  0.00255  0.57180  0.21513  1.0000
  H   H2        1.0  0.42044  0.42827  0.26576  1.0000
  H   H3        1.0  0.56225  0.00581  0.32666  1.0000
  C   C4        1.0  0.36896  0.72619  0.24757  1.0000
  C   C5        1.0  0.27393  0.64478  0.24657  1.0000
  C   C6        1.0  0.35474  0.63291  0.25913  1.0000
  N   N4        1.0  0.39371  0.69252  0.25772  1.0000
  N   N5        1.0  0.30955  0.70432  0.24008  1.0000
  N   N6        1.0  0.29428  0.60729  0.25655  1.0000
  C   C7        1.0  0.63469  0.27288  0.24439  1.0000
  C   C8        1.0  0.72307  0.36220  0.25176  1.0000
  C   C9        1.0  0.63480  0.36116  0.24180  1.0000
  N   N7        1.0  0.60275  0.30017  0.23717  1.0000
  N   N8        1.0  0.69461  0.30196  0.25451  1.0000
  N   N9        1.0  0.69529  0.39373  0.24556  1.0000
  C   C10       1.0  0.02223  0.54939  0.72956  1.0000
  N   N10       1.0  0.98306  0.49591  0.76085  1.0000
  C   C11       1.0  0.44967  0.46657  0.74333  1.0000
  N   N11       1.0  0.50536  0.48897  0.76192  1.0000
  C   C12       1.0  0.53243  0.98387  0.76767  1.0000
  N   N12       1.0  0.51547  0.01507  0.72423  1.0000
  H   H4        1.0  0.01044  0.57739  0.69063  1.0000
  H   H5        1.0  0.41867  0.41629  0.71844  1.0000
  H   H6        1.0  0.57581  0.00419  0.80967  1.0000
  C   C13       1.0  0.37440  0.72566  0.74711  1.0000
  C   C14       1.0  0.27772  0.64673  0.74888  1.0000
  C   C15       1.0  0.35646  0.63117  0.75911  1.0000
  N   N13       1.0  0.39747  0.69007  0.75486  1.0000
  N   N14       1.0  0.31516  0.70597  0.74169  1.0000
  N   N15       1.0  0.29612  0.60777  0.75905  1.0000
  C   C16       1.0  0.63990  0.27292  0.74447  1.0000
  C   C17       1.0  0.72660  0.36464  0.74869  1.0000
  C   C18       1.0  0.63563  0.35906  0.74215  1.0000
  N   N16       1.0  0.60550  0.29824  0.74019  1.0000
  N   N17       1.0  0.70029  0.30428  0.75067  1.0000
  N   N18       1.0  0.69637  0.39395  0.74355  1.0000
  C   C19       1.0  0.11883  0.53094  0.26319  1.0000
  C   C20       1.0  0.08548  0.56020  0.26170  1.0000
  C  Sn1       1.0  0.11637  0.62052  0.24070  1.0000
  C  Sn2       1.0  0.18188  0.65200  0.22081  1.0000
  C   C21       1.0  0.21483  0.62230  0.22235  1.0000
  C   C22       1.0  0.18345  0.56195  0.24351  1.0000
  H   H7        1.0  0.09456  0.48423  0.27946  1.0000
  O  Te1       1.0  0.08233  0.64907  0.23958  1.0000
  O  Te2       1.0  0.21393  0.71229  0.19954  1.0000
  H   H8        1.0  0.20930  0.53929  0.24454  1.0000
  Mg  Mg1       1.0  0.14699  0.73164  0.20677  1.0000
  C   C23       1.0  0.87234  0.48711  0.22097  1.0000
  C   C24       1.0  0.90981  0.47013  0.25632  1.0000
  C  Sn3       1.0  0.88603  0.41178  0.28498  1.0000
  C  Sn4       1.0  0.82356  0.36974  0.27798  1.0000
  C   C25       1.0  0.78647  0.38714  0.24239  1.0000
  C   C26       1.0  0.81074  0.44566  0.21398  1.0000
  H   H9        1.0  0.89112  0.53237  0.19888  1.0000
  O  Te3       1.0  0.92409  0.39557  0.32020  1.0000
  O  Te4       1.0  0.79862  0.31111  0.30605  1.0000
  H   H10       1.0  0.78173  0.45878  0.18649  1.0000
  Mg  Mg2       1.0  0.86887  0.31044  0.34947  1.0000
  C   C27       1.0  0.35209  0.49446  0.26535  1.0000
  C   C28       1.0  0.41358  0.50803  0.25353  1.0000
  C  Sn5       1.0  0.45960  0.56819  0.25383  1.0000
  C  Sn6       1.0  0.44363  0.61554  0.26625  1.0000
  C   C29       1.0  0.38198  0.60151  0.27815  1.0000
  C   C30       1.0  0.33629  0.54115  0.27768  1.0000
  H   H11       1.0  0.31673  0.44778  0.26509  1.0000
  O  Te5       1.0  0.52081  0.58094  0.24186  1.0000
  O  Te6       1.0  0.48871  0.67606  0.26690  1.0000
  H   H12       1.0  0.28868  0.53067  0.28696  1.0000
  Mg  Mg3       1.0  0.56571  0.67051  0.24784  1.0000
  C   C31       1.0  0.63362  0.47356  0.25253  1.0000
  C   C32       1.0  0.61052  0.41176  0.25501  1.0000
  C  Sn7       1.0  0.54920  0.37105  0.24392  1.0000
  C  Sn8       1.0  0.51039  0.39274  0.23004  1.0000
  C   C33       1.0  0.53395  0.45464  0.22753  1.0000
  C   C34       1.0  0.59538  0.49499  0.23877  1.0000
  H   H13       1.0  0.68116  0.50478  0.26111  1.0000
  O  Te7       1.0  0.52686  0.30945  0.24665  1.0000
  O  Te8       1.0  0.44892  0.35304  0.21869  1.0000
  H   H14       1.0  0.61326  0.54283  0.23672  1.0000
  Mg  Mg4       1.0  0.43983  0.27317  0.22778  1.0000
  C   C35       1.0  0.48444  0.83369  0.27854  1.0000
  C   C36       1.0  0.42365  0.79759  0.25596  1.0000
  C  Sn9       1.0  0.39269  0.82314  0.22538  1.0000
  C  Sn10      1.0  0.42328  0.88600  0.21727  1.0000
  C   C37       1.0  0.48411  0.92171  0.23989  1.0000
  C   C38       1.0  0.51465  0.89568  0.27049  1.0000
  H   H15       1.0  0.50808  0.81354  0.30210  1.0000
  O  Te9       1.0  0.33196  0.78643  0.20319  1.0000
  O  Te10      1.0  0.39344  0.91270  0.18681  1.0000
  H   H16       1.0  0.56173  0.92363  0.28784  1.0000
  Mg  Mg5       1.0  0.31076  0.84384  0.16486  1.0000
  C   C39       1.0  0.51102  0.12205  0.20815  1.0000
  C   C40       1.0  0.53511  0.08412  0.20993  1.0000
  C  Sn11      1.0  0.59493  0.11017  0.23599  1.0000
  C  Sn12      1.0  0.63118  0.17543  0.26075  1.0000
  C   C41       1.0  0.60664  0.21299  0.25889  1.0000
  C   C42       1.0  0.54673  0.18642  0.23264  1.0000
  H   H17       1.0  0.46466  0.10151  0.18795  1.0000
  O  Te11      1.0  0.61829  0.07159  0.23732  1.0000
  O  Te12      1.0  0.69109  0.20269  0.28714  1.0000
  H   H18       1.0  0.52808  0.21582  0.23139  1.0000
  Mg  Mg6       1.0  0.70245  0.13065  0.27808  1.0000
  C   C43       1.0  0.12146  0.53633  0.76585  1.0000
  C   C44       1.0  0.09024  0.56636  0.75712  1.0000
  C  Sn13      1.0  0.12301  0.62641  0.73373  1.0000
  C  Sn14      1.0  0.18826  0.65683  0.71880  1.0000
  C   C45       1.0  0.21908  0.62637  0.72757  1.0000
  C   C46       1.0  0.18582  0.56629  0.75106  1.0000
  H   H19       1.0  0.09574  0.48983  0.78393  1.0000
  O  Te13      1.0  0.09109  0.65575  0.72535  1.0000
  O  Te14      1.0  0.22217  0.71683  0.69528  1.0000
  H   H20       1.0  0.21002  0.54303  0.75770  1.0000
  Mg  Mg7       1.0  0.15776  0.73753  0.69208  1.0000
  C   C47       1.0  0.84059  0.37289  0.76464  1.0000
  C   C48       1.0  0.79928  0.39292  0.76209  1.0000
  C  Sn15      1.0  0.82079  0.45258  0.74531  1.0000
  C  Sn16      1.0  0.88487  0.49283  0.73079  1.0000
  C   C49       1.0  0.92582  0.47233  0.73334  1.0000
  C   C50       1.0  0.90380  0.41255  0.75025  1.0000
  H   H21       1.0  0.82356  0.32662  0.77761  1.0000
  O  Te15      1.0  0.77889  0.47185  0.74307  1.0000
  O  Te16      1.0  0.90762  0.55268  0.71381  1.0000
  H   H22       1.0  0.93580  0.39704  0.75210  1.0000
  Mg  Mg8       1.0  0.83227  0.55765  0.71746  1.0000
  C   C51       1.0  0.45378  0.61022  0.77750  1.0000
  C   C52       1.0  0.39620  0.59545  0.75458  1.0000
  C  Sn17      1.0  0.35033  0.53455  0.73929  1.0000
  C  Sn18      1.0  0.36246  0.48768  0.74721  1.0000
  C   C53       1.0  0.42019  0.50295  0.77032  1.0000
  C   C54       1.0  0.46576  0.56403  0.78540  1.0000
  H   H23       1.0  0.48903  0.65749  0.78928  1.0000
  O  Te17      1.0  0.29308  0.52059  0.71637  1.0000
  O  Te18      1.0  0.31743  0.42645  0.73237  1.0000
  H   H24       1.0  0.51032  0.57546  0.80328  1.0000
  Mg  Mg9       1.0  0.24661  0.43039  0.70267  1.0000
  C   C55       1.0  0.52125  0.35681  0.74449  1.0000
  C   C56       1.0  0.58485  0.37995  0.73224  1.0000
  C  Sn19      1.0  0.62281  0.44290  0.74005  1.0000
  C  Sn20      1.0  0.59645  0.48331  0.76056  1.0000
  C   C57       1.0  0.53276  0.45972  0.77283  1.0000
  C   C58       1.0  0.49521  0.39665  0.76480  1.0000
  H   H25       1.0  0.49218  0.30802  0.73839  1.0000
  O  Te19      1.0  0.68627  0.46524  0.72753  1.0000
  O  Te20      1.0  0.63331  0.54643  0.76882  1.0000
  H   H26       1.0  0.44595  0.37875  0.77441  1.0000
  Mg  Mg10      1.0  0.71732  0.55484  0.74569  1.0000
  C   C59       1.0  0.49329  0.83031  0.76504  1.0000
  C   C60       1.0  0.43071  0.79723  0.75846  1.0000
  C  Sn21      1.0  0.39926  0.82587  0.74410  1.0000
  C  Sn22      1.0  0.43117  0.88879  0.73615  1.0000
  C   C61       1.0  0.49378  0.92147  0.74269  1.0000
  C   C62       1.0  0.52481  0.89236  0.75713  1.0000
  H   H27       1.0  0.51731  0.80778  0.77611  1.0000
  O  Te21      1.0  0.33673  0.79216  0.73777  1.0000
  O  Te22      1.0  0.40086  0.91855  0.72170  1.0000
  H   H28       1.0  0.57327  0.91797  0.76209  1.0000
  Mg  Mg11      1.0  0.31555  0.85309  0.71787  1.0000
  C   C63       1.0  0.62637  0.12952  0.75364  1.0000
  C   C64       1.0  0.56537  0.08701  0.74350  1.0000
  C  Sn23      1.0  0.52578  0.10442  0.72020  1.0000
  C  Sn24      1.0  0.54780  0.16555  0.70679  1.0000
  C   C65       1.0  0.60892  0.20771  0.71696  1.0000
  C   C66       1.0  0.64814  0.18981  0.74035  1.0000
  H   H29       1.0  0.65673  0.11566  0.77163  1.0000
  O  Te23      1.0  0.96912  0.06138  0.71041  1.0000
  O  Te24      1.0  0.50922  0.18416  0.68339  1.0000
  H   H30       1.0  0.69538  0.22271  0.74807  1.0000
  Mg  Mg12      1.0  0.43009  0.10878  0.67792  1.0000
