data_image0
_chemical_formula_structural       CNCNCNH3C3N3C3N3CNCNCNH3C3N3C3N3SnCSn2CSnTe4Mg2SnCSn2CSnTe4Mg2SnCSn2CSnTe4Mg2SnCSn2CSnTe4Mg2SnCSn2CSnTe4Mg2SnCSn2CSnTe4Mg2SnCSn2CSnTe4Mg2SnCSn2CSnTe4Mg2SnCSn2CSnTe4Mg2SnCSn2CSnTe4Mg2SnCSn2CSnTe4Mg2SnCSn2CSnTe4Mg2
_chemical_formula_sum              "C42 N18 H6 Sn48 Te48 Mg24"
_cell_length_a       25.5587
_cell_length_b       25.7147
_cell_length_c       8.06489
_cell_angle_alpha    116.694
_cell_angle_beta     64.7065
_cell_angle_gamma    120.073

_symmetry_space_group_name_H-M    'P1'
_space_group_IT_number       1

loop_
  _space_group_symop_operation_xyz
  'x, y, z'

loop_
  _atom_site_type_symbol
  _atom_site_label
  _atom_site_symmetry_multiplicity
  _atom_site_fract_x
  _atom_site_fract_y
  _atom_site_fract_z
  _atom_site_occupancy
  C   C1        1.0  0.01659  0.54256  0.23990  1.0000
  N   N1        1.0  0.97930  0.48723  0.25978  1.0000
  C   C2        1.0  0.45403  0.47619  0.26077  1.0000
  N   N2        1.0  0.51240  0.49676  0.25345  1.0000
  C   C3        1.0  0.52155  0.98440  0.26992  1.0000
  N   N3        1.0  0.50662  0.01491  0.21647  1.0000
  H   H1        1.0  0.00255  0.57180  0.21513  1.0000
  H   H2        1.0  0.42044  0.42827  0.26576  1.0000
  H   H3        1.0  0.56225  0.00581  0.32666  1.0000
  C   C4        1.0  0.36896  0.72619  0.24757  1.0000
  C   C5        1.0  0.27393  0.64478  0.24657  1.0000
  C   C6        1.0  0.35474  0.63291  0.25913  1.0000
  N   N4        1.0  0.39371  0.69252  0.25772  1.0000
  N   N5        1.0  0.30955  0.70432  0.24008  1.0000
  N   N6        1.0  0.29428  0.60729  0.25655  1.0000
  C   C7        1.0  0.63469  0.27288  0.24439  1.0000
  C   C8        1.0  0.72307  0.36220  0.25176  1.0000
  C   C9        1.0  0.63480  0.36116  0.24180  1.0000
  N   N7        1.0  0.60275  0.30017  0.23717  1.0000
  N   N8        1.0  0.69461  0.30196  0.25451  1.0000
  N   N9        1.0  0.69529  0.39373  0.24556  1.0000
  C   C10       1.0  0.02223  0.54939  0.72956  1.0000
  N   N10       1.0  0.98306  0.49591  0.76085  1.0000
  C   C11       1.0  0.44967  0.46657  0.74333  1.0000
  N   N11       1.0  0.50536  0.48897  0.76192  1.0000
  C   C12       1.0  0.53243  0.98387  0.76767  1.0000
  N   N12       1.0  0.51547  0.01507  0.72423  1.0000
  H   H4        1.0  0.01044  0.57739  0.69063  1.0000
  H   H5        1.0  0.41867  0.41629  0.71844  1.0000
  H   H6        1.0  0.57581  0.00419  0.80967  1.0000
  C   C13       1.0  0.37440  0.72566  0.74711  1.0000
  C   C14       1.0  0.27772  0.64673  0.74888  1.0000
  C   C15       1.0  0.35646  0.63117  0.75911  1.0000
  N   N13       1.0  0.39747  0.69007  0.75486  1.0000
  N   N14       1.0  0.31516  0.70597  0.74169  1.0000
  N   N15       1.0  0.29612  0.60777  0.75905  1.0000
  C   C16       1.0  0.63990  0.27292  0.74447  1.0000
  C   C17       1.0  0.72660  0.36464  0.74869  1.0000
  C   C18       1.0  0.63563  0.35906  0.74215  1.0000
  N   N16       1.0  0.60550  0.29824  0.74019  1.0000
  N   N17       1.0  0.70029  0.30428  0.75067  1.0000
  N   N18       1.0  0.69637  0.39395  0.74355  1.0000
  C  Sn1       1.0  0.15831  0.54123  0.20730  1.0000
  C   C19       1.0  0.20409  0.60009  0.19041  1.0000
  C  Sn2       1.0  0.18701  0.64778  0.21812  1.0000
  C  Sn3       1.0  0.12283  0.63641  0.26380  1.0000
  C   C20       1.0  0.07709  0.57758  0.28071  1.0000
  C  Sn4       1.0  0.09413  0.52986  0.25298  1.0000
  O  Te1       1.0  0.17646  0.49424  0.17900  1.0000
  O  Te2       1.0  0.23362  0.70624  0.20040  1.0000
  O  Te3       1.0  0.10471  0.68346  0.29210  1.0000
  O  Te4       1.0  0.04756  0.47143  0.27071  1.0000
  Mg  Mg1       1.0  0.18545  0.75526  0.25241  1.0000
  Mg  Mg2       1.0  0.09568  0.42239  0.21883  1.0000
  C  Sn5       1.0  0.82795  0.37872  0.33575  1.0000
  C   C21       1.0  0.79092  0.39764  0.30584  1.0000
  C  Sn6       1.0  0.81862  0.44748  0.22938  1.0000
  C  Sn7       1.0  0.88471  0.47904  0.18170  1.0000
  C   C22       1.0  0.92171  0.46010  0.21158  1.0000
  C  Sn8       1.0  0.89405  0.41028  0.28807  1.0000
  O  Te5       1.0  0.79926  0.32878  0.41234  1.0000
  O  Te6       1.0  0.78062  0.46556  0.20084  1.0000
  O  Te7       1.0  0.91339  0.52901  0.10506  1.0000
  O  Te8       1.0  0.93201  0.39219  0.31658  1.0000
  Mg  Mg3       1.0  0.84170  0.53625  0.09263  1.0000
  Mg  Mg4       1.0  0.87099  0.32149  0.42468  1.0000
  C  Sn9       1.0  0.46107  0.59656  0.32260  1.0000
  C   C23       1.0  0.43040  0.53303  0.31474  1.0000
  C  Sn10      1.0  0.37393  0.49643  0.26225  1.0000
  C  Sn11      1.0  0.34756  0.52389  0.21653  1.0000
  C   C24       1.0  0.37822  0.58737  0.22437  1.0000
  C  Sn12      1.0  0.43470  0.62401  0.27688  1.0000
  O  Te9       1.0  0.51748  0.63225  0.37543  1.0000
  O  Te10      1.0  0.34413  0.43303  0.25549  1.0000
  O  Te11      1.0  0.29110  0.48814  0.16368  1.0000
  O  Te12      1.0  0.46449  0.68737  0.28362  1.0000
  Mg  Mg5       1.0  0.26823  0.40382  0.17535  1.0000
  Mg  Mg6       1.0  0.54041  0.71662  0.36365  1.0000
  C  Sn13      1.0  0.61763  0.48327  0.20155  1.0000
  C   C25       1.0  0.55554  0.45919  0.19627  1.0000
  C  Sn14      1.0  0.51309  0.40183  0.23262  1.0000
  C  Sn15      1.0  0.53310  0.36785  0.27525  1.0000
  C   C26       1.0  0.59516  0.39194  0.28055  1.0000
  C  Sn16      1.0  0.63765  0.44929  0.24419  1.0000
  O  Te13      1.0  0.65926  0.54070  0.16477  1.0000
  O  Te14      1.0  0.45126  0.37870  0.22645  1.0000
  O  Te15      1.0  0.49141  0.31038  0.31205  1.0000
  O  Te16      1.0  0.69944  0.47243  0.25037  1.0000
  Mg  Mg7       1.0  0.41206  0.29839  0.28689  1.0000
  Mg  Mg8       1.0  0.73866  0.55275  0.19006  1.0000
  C  Sn17      1.0  0.39923  0.83450  0.16028  1.0000
  C   C27       1.0  0.41223  0.79415  0.19512  1.0000
  C  Sn18      1.0  0.46051  0.81814  0.27998  1.0000
  C  Sn19      1.0  0.49654  0.88384  0.33121  1.0000
  C   C28       1.0  0.48353  0.92415  0.29640  1.0000
  C  Sn20      1.0  0.43526  0.90020  0.21151  1.0000
  O  Te17      1.0  0.35074  0.80949  0.07531  1.0000
  O  Te18      1.0  0.47264  0.77687  0.31333  1.0000
  O  Te19      1.0  0.54506  0.90884  0.41624  1.0000
  O  Te20      1.0  0.42312  0.94144  0.17820  1.0000
  Mg  Mg9       1.0  0.54357  0.83356  0.43266  1.0000
  Mg  Mg10      1.0  0.35218  0.88480  0.05897  1.0000
  C  Sn21      1.0  0.52229  0.11592  0.14716  1.0000
  C   C29       1.0  0.54498  0.08061  0.16922  1.0000
  C  Sn22      1.0  0.59633  0.11062  0.24596  1.0000
  C  Sn23      1.0  0.62560  0.17731  0.30194  1.0000
  C   C30       1.0  0.60291  0.21257  0.27990  1.0000
  C  Sn24      1.0  0.55156  0.18261  0.20314  1.0000
  O  Te21      1.0  0.47089  0.08493  0.07013  1.0000
  O  Te22      1.0  0.61818  0.07431  0.26657  1.0000
  O  Te23      1.0  0.67704  0.20828  0.37901  1.0000
  O  Te24      1.0  0.52971  0.21887  0.18256  1.0000
  Mg  Mg11      1.0  0.68957  0.13828  0.37882  1.0000
  Mg  Mg12      1.0  0.45831  0.15497  0.07042  1.0000
  C  Sn25      1.0  0.17320  0.66559  0.77779  1.0000
  C   C31       1.0  0.20249  0.63602  0.79814  1.0000
  C  Sn26      1.0  0.17454  0.57127  0.77280  1.0000
  C  Sn27      1.0  0.11611  0.53531  0.72602  1.0000
  C   C32       1.0  0.08686  0.56487  0.70566  1.0000
  C  Sn28      1.0  0.11477  0.62963  0.73101  1.0000
  O  Te25      1.0  0.20200  0.73037  0.80376  1.0000
  O  Te26      1.0  0.20471  0.54277  0.79396  1.0000
  O  Te27      1.0  0.08732  0.47048  0.70006  1.0000
  O  Te28      1.0  0.08464  0.65812  0.70984  1.0000
  Mg  Mg13      1.0  0.14679  0.45316  0.74415  1.0000
  Mg  Mg14      1.0  0.14252  0.74771  0.75952  1.0000
  C  Sn29      1.0  0.84351  0.46537  0.67639  1.0000
  C   C33       1.0  0.80469  0.40526  0.69683  1.0000
  C  Sn30      1.0  0.82249  0.37714  0.76605  1.0000
  C  Sn31      1.0  0.88030  0.40980  0.81600  1.0000
  C   C34       1.0  0.91909  0.46987  0.79558  1.0000
  C  Sn32      1.0  0.90132  0.49803  0.72634  1.0000
  O  Te29      1.0  0.82477  0.49257  0.60692  1.0000
  O  Te30      1.0  0.78290  0.31700  0.78518  1.0000
  O  Te31      1.0  0.89903  0.38254  0.88551  1.0000
  O  Te32      1.0  0.94087  0.55814  0.70724  1.0000
  Mg  Mg15      1.0  0.82903  0.29975  0.88619  1.0000
  Mg  Mg16      1.0  0.89478  0.57544  0.60634  1.0000
  C  Sn33      1.0  0.45583  0.60233  0.71338  1.0000
  C   C35       1.0  0.39572  0.58790  0.71017  1.0000
  C  Sn34      1.0  0.34624  0.53295  0.74730  1.0000
  C  Sn35      1.0  0.35706  0.49158  0.78862  1.0000
  C   C36       1.0  0.41714  0.50602  0.79183  1.0000
  C  Sn36      1.0  0.46665  0.56096  0.75469  1.0000
  O  Te33      1.0  0.50460  0.65753  0.67584  1.0000
  O  Te34      1.0  0.28655  0.51952  0.74322  1.0000
  O  Te35      1.0  0.30823  0.43635  0.82616  1.0000
  O  Te36      1.0  0.52630  0.57440  0.75879  1.0000
  Mg  Mg17      1.0  0.23526  0.43862  0.80396  1.0000
  Mg  Mg18      1.0  0.57762  0.65530  0.69818  1.0000
  C  Sn37      1.0  0.61220  0.47714  0.70065  1.0000
  C   C37       1.0  0.54931  0.45189  0.70169  1.0000
  C  Sn38      1.0  0.50836  0.39494  0.74253  1.0000
  C  Sn39      1.0  0.53073  0.36256  0.78331  1.0000
  C   C38       1.0  0.59358  0.38781  0.78229  1.0000
  C  Sn40      1.0  0.63457  0.44476  0.74143  1.0000
  O  Te37      1.0  0.65231  0.53414  0.65944  1.0000
  O  Te38      1.0  0.44569  0.37062  0.74266  1.0000
  O  Te39      1.0  0.49056  0.30552  0.82453  1.0000
  O  Te40      1.0  0.69720  0.46908  0.74132  1.0000
  Mg  Mg19      1.0  0.40925  0.29148  0.80737  1.0000
  Mg  Mg20      1.0  0.73367  0.54822  0.67673  1.0000
  C  Sn41      1.0  0.51699  0.86136  0.71569  1.0000
  C   C39       1.0  0.50182  0.90592  0.71174  1.0000
  C  Sn42      1.0  0.43945  0.89466  0.74231  1.0000
  C  Sn43      1.0  0.39124  0.83770  0.77769  1.0000
  C   C40       1.0  0.40642  0.79318  0.78167  1.0000
  C  Sn44      1.0  0.46878  0.80440  0.75108  1.0000
  O  Te41      1.0  0.57966  0.87361  0.68476  1.0000
  O  Te42      1.0  0.42544  0.93990  0.73761  1.0000
  O  Te43      1.0  0.32854  0.82548  0.80863  1.0000
  O  Te44      1.0  0.48280  0.75920  0.75580  1.0000
  Mg  Mg21      1.0  0.33304  0.90159  0.78824  1.0000
  Mg  Mg22      1.0  0.57517  0.79748  0.70529  1.0000
  C  Sn45      1.0  0.61414  0.13375  0.81431  1.0000
  C   C41       1.0  0.55533  0.09026  0.78404  1.0000
  C  Sn46      1.0  0.52388  0.10286  0.71007  1.0000
  C  Sn47      1.0  0.55181  0.16011  0.66530  1.0000
  C   C42       1.0  0.61058  0.20357  0.69554  1.0000
  C  Sn48      1.0  0.64206  0.19101  0.76954  1.0000
  O  Te45      1.0  0.64473  0.12017  0.88838  1.0000
  O  Te46      1.0  0.96929  0.05866  0.68111  1.0000
  O  Te47      1.0  0.52116  0.17367  0.59118  1.0000
  O  Te48      1.0  0.70079  0.23517  0.79847  1.0000
  Mg  Mg23      1.0  0.44198  0.09863  0.57702  1.0000
  Mg  Mg24      1.0  0.72399  0.19523  0.90245  1.0000
