data_image0
_chemical_formula_structural       H6C18N18SnCSn2CSnTe4Mg2SnCSn2CSnTe4Mg2SnCSn2CSnTe4Mg2SnCSn2CSnTe4Mg2SnCSn2CSnTe4Mg2SnCSn2CSnTe4Mg2SnCSn2CSnTe4Mg2SnCSn2CSnTe4Mg2SnCSn2CSnTe4Mg2SnCSn2CSnTe4Mg2SnCSn2CSnTe4Mg2SnCSn2CSnTe4Mg2
_chemical_formula_sum              "H6 C42 N18 Sn48 Te48 Mg24"
_cell_length_a       25.6588
_cell_length_b       25.7711
_cell_length_c       7.80169
_cell_angle_alpha    82.1371
_cell_angle_beta     68.6412
_cell_angle_gamma    120.204

_symmetry_space_group_name_H-M    'P1'
_space_group_IT_number       1

loop_
  _space_group_symop_operation_xyz
  'x, y, z'

loop_
  _atom_site_type_symbol
  _atom_site_label
  _atom_site_symmetry_multiplicity
  _atom_site_fract_x
  _atom_site_fract_y
  _atom_site_fract_z
  _atom_site_occupancy
  H   H1        1.0  0.47186  0.44450  0.70132  1.0000
  H   H2        1.0  0.58660  0.99934  0.77179  1.0000
  H   H3        1.0  0.02469  0.56347  0.74220  1.0000
  H   H4        1.0  0.51653  0.54747  0.34479  1.0000
  H   H5        1.0  0.41243  0.00049  0.23313  1.0000
  H   H6        1.0  0.98442  0.44228  0.20715  1.0000
  C   C1        1.0  0.65569  0.35707  0.75617  1.0000
  C   C2        1.0  0.51249  0.47029  0.74069  1.0000
  C   C3        1.0  0.38963  0.63891  0.75945  1.0000
  C   C4        1.0  0.66585  0.27474  0.74208  1.0000
  C   C5        1.0  0.55724  0.01714  0.75276  1.0000
  C   C6        1.0  0.38589  0.72570  0.75375  1.0000
  C   C7        1.0  0.30087  0.63563  0.74517  1.0000
  C   C8        1.0  0.74845  0.36520  0.75560  1.0000
  C   C9        1.0  0.00853  0.51489  0.74386  1.0000
  C   C10       1.0  0.34352  0.64274  0.24722  1.0000
  C   C11       1.0  0.47721  0.52240  0.30072  1.0000
  C   C12       1.0  0.60859  0.36074  0.25268  1.0000
  C   C13       1.0  0.33529  0.72654  0.25166  1.0000
  C   C14       1.0  0.44391  0.98424  0.24272  1.0000
  C   C15       1.0  0.61486  0.27586  0.24344  1.0000
  C   C16       1.0  0.69989  0.36577  0.25269  1.0000
  C   C17       1.0  0.25183  0.63548  0.24230  1.0000
  C   C18       1.0  0.99556  0.48661  0.23368  1.0000
  N   N1        1.0  0.71445  0.39201  0.76503  1.0000
  N   N2        1.0  0.52745  0.52208  0.77677  1.0000
  N   N3        1.0  0.33010  0.60483  0.75367  1.0000
  N   N4        1.0  0.62928  0.29829  0.74363  1.0000
  N   N5        1.0  0.50201  0.98245  0.73959  1.0000
  N   N6        1.0  0.41988  0.69957  0.75844  1.0000
  N   N7        1.0  0.04465  0.49351  0.74380  1.0000
  N   N8        1.0  0.32652  0.69582  0.74605  1.0000
  N   N9        1.0  0.72600  0.30664  0.74495  1.0000
  N   N10       1.0  0.28498  0.60804  0.23748  1.0000
  N   N11       1.0  0.46346  0.47122  0.26211  1.0000
  N   N12       1.0  0.66897  0.39541  0.25388  1.0000
  N   N13       1.0  0.37116  0.70241  0.25369  1.0000
  N   N14       1.0  0.50054  0.02021  0.24829  1.0000
  N   N15       1.0  0.57917  0.30071  0.24880  1.0000
  N   N16       1.0  0.95572  0.50490  0.25592  1.0000
  N   N17       1.0  0.67510  0.30630  0.24624  1.0000
  N   N18       1.0  0.27510  0.69471  0.24861  1.0000
  C  Sn1       1.0  0.63192  0.48182  0.70708  1.0000
  C   C19       1.0  0.57089  0.45515  0.69693  1.0000
  C  Sn2       1.0  0.52840  0.38878  0.73502  1.0000
  C  Sn3       1.0  0.54727  0.34820  0.78442  1.0000
  C   C20       1.0  0.60826  0.37487  0.79459  1.0000
  C  Sn4       1.0  0.65079  0.44125  0.75648  1.0000
  O  Te1       1.0  0.67361  0.54831  0.66843  1.0000
  O  Te2       1.0  0.46765  0.36323  0.72389  1.0000
  O  Te3       1.0  0.50552  0.28167  0.82307  1.0000
  O  Te4       1.0  0.71150  0.46679  0.76762  1.0000
  Mg  Mg1       1.0  0.42789  0.26971  0.78935  1.0000
  Mg  Mg2       1.0  0.75127  0.56029  0.70230  1.0000
  C  Sn5       1.0  0.50832  0.64551  0.70872  1.0000
  C   C21       1.0  0.44465  0.61937  0.71472  1.0000
  C  Sn6       1.0  0.39754  0.55208  0.77254  1.0000
  C  Sn7       1.0  0.41440  0.51004  0.82559  1.0000
  C   C22       1.0  0.47803  0.53618  0.81961  1.0000
  C  Sn8       1.0  0.52517  0.60347  0.76177  1.0000
  O  Te5       1.0  0.55461  0.71293  0.65048  1.0000
  O  Te6       1.0  0.33423  0.52709  0.77732  1.0000
  O  Te7       1.0  0.36804  0.44258  0.88386  1.0000
  O  Te8       1.0  0.58845  0.62846  0.75702  1.0000
  Mg  Mg3       1.0  0.28833  0.43188  0.86679  1.0000
  Mg  Mg4       1.0  0.63437  0.72366  0.66767  1.0000
  C  Sn9       1.0  0.68065  0.17417  0.70939  1.0000
  C   C23       1.0  0.65583  0.21047  0.68561  1.0000
  C  Sn10      1.0  0.58935  0.18002  0.70834  1.0000
  C  Sn11      1.0  0.54678  0.11187  0.75597  1.0000
  C   C24       1.0  0.57160  0.07561  0.77975  1.0000
  C  Sn12      1.0  0.63807  0.10602  0.75701  1.0000
  O  Te9       1.0  0.74727  0.20562  0.68598  1.0000
  O  Te10      1.0  0.56568  0.21734  0.68377  1.0000
  O  Te11      1.0  0.48011  0.08043  0.77936  1.0000
  O  Te12      1.0  0.66174  0.06874  0.78159  1.0000
  Mg  Mg5       1.0  0.47115  0.15221  0.73101  1.0000
  Mg  Mg6       1.0  0.75625  0.13380  0.73449  1.0000
  C  Sn13      1.0  0.40400  0.84531  0.66384  1.0000
  C   C25       1.0  0.42199  0.80385  0.70215  1.0000
  C  Sn14      1.0  0.46509  0.81754  0.78472  1.0000
  C  Sn15      1.0  0.49072  0.87383  0.83006  1.0000
  C   C26       1.0  0.96744  0.91524  0.79179  1.0000
  C  Sn16      1.0  0.42963  0.90159  0.70919  1.0000
  O  Te13      1.0  0.36083  0.83066  0.58125  1.0000
  O  Te14      1.0  0.48238  0.77538  0.82162  1.0000
  O  Te15      1.0  0.02864  0.88845  0.91271  1.0000
  O  Te16      1.0  0.90705  0.94371  0.67233  1.0000
  Mg  Mg7       1.0  0.54276  0.81616  0.93572  1.0000
  Mg  Mg8       1.0  0.35193  0.90296  0.55834  1.0000
  C  Sn17      1.0  0.14916  0.50098  0.78091  1.0000
  C   C27       1.0  0.10697  0.52097  0.79113  1.0000
  C  Sn18      1.0  0.13286  0.58602  0.75711  1.0000
  C  Sn19      1.0  0.20239  0.63206  0.71181  1.0000
  C   C28       1.0  0.24454  0.61207  0.70157  1.0000
  C  Sn20      1.0  0.21869  0.54703  0.73560  1.0000
  O  Te17      1.0  0.12218  0.43570  0.81544  1.0000
  O  Te18      1.0  0.08968  0.60484  0.76823  1.0000
  O  Te19      1.0  0.22934  0.69738  0.67727  1.0000
  O  Te20      1.0  0.26182  0.52820  0.72448  1.0000
  Mg  Mg9       1.0  0.15027  0.69931  0.70923  1.0000
  Mg  Mg10      1.0  0.20131  0.43376  0.78334  1.0000
  C  Sn21      1.0  0.87824  0.48503  0.83226  1.0000
  C   C29       1.0  0.92539  0.47024  0.80514  1.0000
  C  Sn22      1.0  0.92057  0.42251  0.73142  1.0000
  C  Sn23      1.0  0.86755  0.38889  0.68368  1.0000
  C   C30       1.0  0.82045  0.40369  0.71076  1.0000
  C  Sn24      1.0  0.82522  0.45141  0.78452  1.0000
  O  Te21      1.0  0.88404  0.53292  0.90615  1.0000
  O  Te22      1.0  0.96829  0.40856  0.70564  1.0000
  O  Te23      1.0  0.86179  0.34096  0.60974  1.0000
  O  Te24      1.0  0.77755  0.46537  0.81026  1.0000
  Mg  Mg11      1.0  0.93905  0.33934  0.60050  1.0000
  Mg  Mg12      1.0  0.80676  0.53460  0.91529  1.0000
  C  Sn25      1.0  0.34276  0.53116  0.30780  1.0000
  C   C31       1.0  0.36183  0.59182  0.31386  1.0000
  C  Sn26      1.0  0.42751  0.63723  0.28773  1.0000
  C  Sn27      1.0  0.47515  0.62169  0.25472  1.0000
  C   C32       1.0  0.45607  0.56107  0.24863  1.0000
  C  Sn28      1.0  0.39039  0.51563  0.27478  1.0000
  O  Te25      1.0  0.27682  0.48652  0.33429  1.0000
  O  Te26      1.0  0.44539  0.69755  0.29448  1.0000
  O  Te27      1.0  0.54112  0.66640  0.22822  1.0000
  O  Te28      1.0  0.37251  0.45535  0.26801  1.0000
  Mg  Mg13      1.0  0.54130  0.74210  0.24994  1.0000
  Mg  Mg14      1.0  0.27664  0.41077  0.31243  1.0000
  C  Sn29      1.0  0.46736  0.36654  0.31476  1.0000
  C   C33       1.0  0.48804  0.42787  0.31740  1.0000
  C  Sn30      1.0  0.55636  0.47486  0.27084  1.0000
  C  Sn31      1.0  0.60504  0.46026  0.22048  1.0000
  C   C34       1.0  0.58435  0.39897  0.21782  1.0000
  C  Sn32      1.0  0.51603  0.35195  0.26439  1.0000
  O  Te29      1.0  0.39879  0.32032  0.36180  1.0000
  O  Te30      1.0  0.57581  0.53582  0.27456  1.0000
  O  Te31      1.0  0.67365  0.50656  0.17342  1.0000
  O  Te32      1.0  0.49658  0.29102  0.26066  1.0000
  Mg  Mg15      1.0  0.67518  0.58260  0.19907  1.0000
  Mg  Mg16      1.0  0.39725  0.24422  0.33602  1.0000
  C  Sn33      1.0  0.41898  0.83230  0.33649  1.0000
  C   C35       1.0  0.36279  0.79243  0.31063  1.0000
  C  Sn34      1.0  0.33621  0.81870  0.23231  1.0000
  C  Sn35      1.0  0.36645  0.88623  0.17859  1.0000
  C   C36       1.0  0.42261  0.92606  0.20442  1.0000
  C  Sn36      1.0  0.44921  0.89984  0.28277  1.0000
  O  Te33      1.0  0.44470  0.80500  0.41505  1.0000
  O  Te34      1.0  0.27999  0.77786  0.20790  1.0000
  O  Te35      1.0  0.34067  0.91351  0.09999  1.0000
  O  Te36      1.0  0.50540  0.94064  0.30716  1.0000
  Mg  Mg17      1.0  0.26342  0.83796  0.09486  1.0000
  Mg  Mg18      1.0  0.52204  0.88060  0.42008  1.0000
  C  Sn37      1.0  0.51316  0.13820  0.15016  1.0000
  C   C37       1.0  0.53405  0.09841  0.17550  1.0000
  C  Sn38      1.0  0.57918  0.11257  0.25098  1.0000
  C  Sn39      1.0  0.60392  0.16763  0.30233  1.0000
  C   C38       1.0  0.58302  0.20738  0.27702  1.0000
  C  Sn40      1.0  0.53790  0.19327  0.20151  1.0000
  O  Te37      1.0  0.46800  0.12312  0.07446  1.0000
  O  Te38      1.0  0.59935  0.07208  0.27492  1.0000
  O  Te39      1.0  0.64911  0.18269  0.37807  1.0000
  O  Te40      1.0  0.51772  0.23371  0.17759  1.0000
  Mg  Mg19      1.0  0.66164  0.11283  0.38367  1.0000
  Mg  Mg20      1.0  0.45541  0.19299  0.06896  1.0000
  C  Sn41      1.0  0.83129  0.48066  0.33704  1.0000
  C   C39       1.0  0.87493  0.46172  0.31471  1.0000
  C  Sn42      1.0  0.86694  0.41306  0.24244  1.0000
  C  Sn43      1.0  0.81428  0.38273  0.19129  1.0000
  C   C40       1.0  0.77069  0.40168  0.21359  1.0000
  C  Sn44      1.0  0.77863  0.45032  0.28589  1.0000
  O  Te41      1.0  0.84021  0.52941  0.40955  1.0000
  O  Te42      1.0  0.91118  0.39494  0.22147  1.0000
  O  Te43      1.0  0.80539  0.33394  0.11874  1.0000
  O  Te44      1.0  0.73444  0.46845  0.30683  1.0000
  Mg  Mg21      1.0  0.87852  0.32614  0.11645  1.0000
  Mg  Mg22      1.0  0.76708  0.53727  0.41173  1.0000
  C  Sn45      1.0  0.12066  0.60686  0.32404  1.0000
  C   C41       1.0  0.16804  0.59254  0.29954  1.0000
  C  Sn46      1.0  0.16442  0.54522  0.22518  1.0000
  C  Sn47      1.0  0.11237  0.51153  0.17411  1.0000
  C   C42       1.0  0.06503  0.52587  0.19857  1.0000
  C  Sn48      1.0  0.06861  0.57318  0.27296  1.0000
  O  Te45      1.0  0.12526  0.65436  0.39862  1.0000
  O  Te46      1.0  0.21236  0.53172  0.20207  1.0000
  O  Te47      1.0  0.10781  0.46401  0.09948  1.0000
  O  Te48      1.0  0.02072  0.58669  0.29605  1.0000
  Mg  Mg23      1.0  0.18491  0.46294  0.09471  1.0000
  Mg  Mg24      1.0  0.04814  0.65549  0.40329  1.0000
