data_image0
_chemical_formula_structural       H30C54N18C2Sn2C2HTe2HMgC2Sn2C2HTe2HMgC2Sn2C2HTe2HMgC2Sn2C2HTe2HMgC2Sn2C2HTe2HMgC2Sn2C2HTe2HMg
_chemical_formula_sum              "H42 C78 N18 Sn12 Te12 Mg6"
_cell_length_a       25.6588
_cell_length_b       25.7711
_cell_length_c       7.80169
_cell_angle_alpha    82.1371
_cell_angle_beta     68.6412
_cell_angle_gamma    120.204

_symmetry_space_group_name_H-M    'P1'
_space_group_IT_number       1

loop_
  _space_group_symop_operation_xyz
  'x, y, z'

loop_
  _atom_site_type_symbol
  _atom_site_label
  _atom_site_symmetry_multiplicity
  _atom_site_fract_x
  _atom_site_fract_y
  _atom_site_fract_z
  _atom_site_occupancy
  H   H1        1.0  0.66609  0.09342  0.79480  1.0000
  H   H2        1.0  0.71402  0.20609  0.78769  1.0000
  H   H3        1.0  0.39818  0.91442  0.69644  1.0000
  H   H4        1.0  0.62761  0.52184  0.77654  1.0000
  H   H5        1.0  0.68988  0.47210  0.78246  1.0000
  H   H6        1.0  0.47186  0.44450  0.70132  1.0000
  H   H7        1.0  0.50988  0.08679  0.69094  1.0000
  H   H8        1.0  0.55756  0.19972  0.68784  1.0000
  H   H9        1.0  0.58660  0.99934  0.77179  1.0000
  H   H10       1.0  0.34264  0.80006  0.70841  1.0000
  H   H11       1.0  0.49384  0.79566  0.81105  1.0000
  H   H12       1.0  0.54680  0.90688  0.80946  1.0000
  H   H13       1.0  0.92075  0.54486  0.78751  1.0000
  H   H14       1.0  0.80729  0.47985  0.79310  1.0000
  H   H15       1.0  0.47953  0.35654  0.71249  1.0000
  H   H16       1.0  0.53969  0.30577  0.72999  1.0000
  H   H17       1.0  0.95021  0.39804  0.71053  1.0000
  H   H18       1.0  0.83587  0.33275  0.71612  1.0000
  H   H19       1.0  0.02469  0.56347  0.74220  1.0000
  H   H20       1.0  0.33450  0.90762  0.20501  1.0000
  H   H21       1.0  0.28681  0.79525  0.20978  1.0000
  H   H22       1.0  0.60709  0.08999  0.27907  1.0000
  H   H23       1.0  0.51653  0.54747  0.34479  1.0000
  H   H24       1.0  0.49426  0.91594  0.29125  1.0000
  H   H25       1.0  0.44610  0.80314  0.29588  1.0000
  H   H26       1.0  0.41243  0.00049  0.23313  1.0000
  H   H27       1.0  0.66180  0.20397  0.27024  1.0000
  H   H28       1.0  0.50538  0.20504  0.19148  1.0000
  H   H29       1.0  0.45316  0.09424  0.19057  1.0000
  H   H30       1.0  0.98442  0.44228  0.20715  1.0000
  C   C1        1.0  0.65569  0.35707  0.75617  1.0000
  C   C2        1.0  0.61824  0.38572  0.75705  1.0000
  C   C3        1.0  0.64328  0.44704  0.77000  1.0000
  C   C4        1.0  0.60907  0.47475  0.76576  1.0000
  C   C5        1.0  0.54919  0.44219  0.74730  1.0000
  C   C6        1.0  0.52472  0.38126  0.73213  1.0000
  C   C7        1.0  0.55825  0.35291  0.74029  1.0000
  C   C8        1.0  0.51249  0.47029  0.74069  1.0000
  C   C9        1.0  0.38963  0.63891  0.75945  1.0000
  C   C10       1.0  0.66585  0.27474  0.74208  1.0000
  C   C11       1.0  0.63849  0.20937  0.73814  1.0000
  C   C12       1.0  0.58050  0.17564  0.71165  1.0000
  C   C13       1.0  0.55421  0.11349  0.71271  1.0000
  C   C14       1.0  0.58471  0.08303  0.74395  1.0000
  C   C15       1.0  0.64286  0.11705  0.76906  1.0000
  C   C16       1.0  0.66960  0.17955  0.76616  1.0000
  C   C17       1.0  0.55724  0.01714  0.75276  1.0000
  C   C18       1.0  0.47633  0.91898  0.74862  1.0000
  C   C19       1.0  0.50305  0.88480  0.78330  1.0000
  C   C20       1.0  0.47369  0.82238  0.78437  1.0000
  C   C21       1.0  0.41603  0.79148  0.75558  1.0000
  C   C22       1.0  0.38777  0.82445  0.72763  1.0000
  C   C23       1.0  0.41792  0.88731  0.72323  1.0000
  C   C24       1.0  0.38589  0.72570  0.75375  1.0000
  C   C25       1.0  0.30087  0.63563  0.74517  1.0000
  C   C26       1.0  0.74845  0.36520  0.75560  1.0000
  C   C27       1.0  0.81507  0.40276  0.75398  1.0000
  C   C28       1.0  0.85530  0.37921  0.73199  1.0000
  C   C29       1.0  0.91822  0.41511  0.72841  1.0000
  C   C30       1.0  0.94259  0.47549  0.74789  1.0000
  C   C31       1.0  0.90244  0.49875  0.76948  1.0000
  C   C32       1.0  0.83921  0.46272  0.77393  1.0000
  C   C33       1.0  0.00853  0.51489  0.74386  1.0000
  C   C34       1.0  0.34352  0.64274  0.24722  1.0000
  C   C35       1.0  0.47721  0.52240  0.30072  1.0000
  C   C36       1.0  0.60859  0.36074  0.25268  1.0000
  C   C37       1.0  0.33529  0.72654  0.25166  1.0000
  C   C38       1.0  0.36347  0.79237  0.25289  1.0000
  C   C39       1.0  0.42246  0.82672  0.27484  1.0000
  C   C40       1.0  0.44906  0.88898  0.27322  1.0000
  C   C41       1.0  0.41737  0.91877  0.24821  1.0000
  C   C42       1.0  0.35851  0.88438  0.22640  1.0000
  C   C43       1.0  0.33192  0.82201  0.22802  1.0000
  C   C44       1.0  0.44391  0.98424  0.24272  1.0000
  C   C45       1.0  0.52590  0.08353  0.24057  1.0000
  C   C46       1.0  0.49790  0.11699  0.21220  1.0000
  C   C47       1.0  0.52700  0.17926  0.21228  1.0000
  C   C48       1.0  0.58574  0.21082  0.23606  1.0000
  C   C49       1.0  0.61560  0.17880  0.25611  1.0000
  C   C50       1.0  0.58576  0.11611  0.25915  1.0000
  C   C51       1.0  0.61486  0.27586  0.24344  1.0000
  C   C52       1.0  0.69989  0.36577  0.25269  1.0000
  C   C53       1.0  0.25183  0.63548  0.24230  1.0000
  C   C54       1.0  0.99556  0.48661  0.23368  1.0000
  N   N1        1.0  0.71445  0.39201  0.76503  1.0000
  N   N2        1.0  0.52745  0.52208  0.77677  1.0000
  N   N3        1.0  0.33010  0.60483  0.75367  1.0000
  N   N4        1.0  0.62928  0.29829  0.74363  1.0000
  N   N5        1.0  0.50201  0.98245  0.73959  1.0000
  N   N6        1.0  0.41988  0.69957  0.75844  1.0000
  N   N7        1.0  0.04465  0.49351  0.74380  1.0000
  N   N8        1.0  0.32652  0.69582  0.74605  1.0000
  N   N9        1.0  0.72600  0.30664  0.74495  1.0000
  N   N10       1.0  0.28498  0.60804  0.23748  1.0000
  N   N11       1.0  0.46346  0.47122  0.26211  1.0000
  N   N12       1.0  0.66897  0.39541  0.25388  1.0000
  N   N13       1.0  0.37116  0.70241  0.25369  1.0000
  N   N14       1.0  0.50054  0.02021  0.24829  1.0000
  N   N15       1.0  0.57917  0.30071  0.24880  1.0000
  N   N16       1.0  0.95572  0.50490  0.25592  1.0000
  N   N17       1.0  0.67510  0.30630  0.24624  1.0000
  N   N18       1.0  0.27510  0.69471  0.24861  1.0000
  C   C55       1.0  0.81840  0.37487  0.23012  1.0000
  C   C56       1.0  0.77204  0.39092  0.26330  1.0000
  C  Sn1       1.0  0.78910  0.44927  0.28601  1.0000
  C  Sn2       1.0  0.85381  0.49228  0.27518  1.0000
  C   C57       1.0  0.89986  0.47580  0.24179  1.0000
  C   C58       1.0  0.88226  0.41727  0.21934  1.0000
  H   H31       1.0  0.80481  0.32960  0.21264  1.0000
  O  Te1       1.0  0.74216  0.46454  0.31914  1.0000
  O  Te2       1.0  0.87218  0.55093  0.29728  1.0000
  H   H32       1.0  0.91818  0.40489  0.19352  1.0000
  Mg  Mg1       1.0  0.79078  0.55011  0.33993  1.0000
  C   C59       1.0  0.57905  0.48099  0.27096  1.0000
  C   C60       1.0  0.52067  0.45901  0.24912  1.0000
  C  Sn3       1.0  0.48439  0.39792  0.24023  1.0000
  C  Sn4       1.0  0.50711  0.35821  0.25355  1.0000
  C   C61       1.0  0.56556  0.38063  0.27552  1.0000
  C   C62       1.0  0.60148  0.44184  0.28419  1.0000
  H   H33       1.0  0.60683  0.52834  0.27777  1.0000
  O  Te3       1.0  0.42618  0.37671  0.21830  1.0000
  O  Te4       1.0  0.47181  0.29694  0.24516  1.0000
  H   H34       1.0  0.64666  0.45883  0.30123  1.0000
  Mg  Mg2       1.0  0.39538  0.28954  0.21429  1.0000
  C   C63       1.0  0.50113  0.64094  0.77460  1.0000
  C   C64       1.0  0.44142  0.61851  0.75963  1.0000
  C  Sn5       1.0  0.40223  0.55586  0.76329  1.0000
  C  Sn6       1.0  0.42333  0.51500  0.78236  1.0000
  C   C65       1.0  0.48312  0.53788  0.79739  1.0000
  C   C66       1.0  0.52196  0.60067  0.79350  1.0000
  H   H35       1.0  0.53117  0.68951  0.77171  1.0000
  O  Te5       1.0  0.34273  0.53423  0.74809  1.0000
  O  Te6       1.0  0.38511  0.45216  0.78650  1.0000
  H   H36       1.0  0.56816  0.61800  0.80523  1.0000
  Mg  Mg3       1.0  0.30789  0.44477  0.76090  1.0000
  C   C67       1.0  0.36858  0.51895  0.26000  1.0000
  C   C68       1.0  0.42984  0.54416  0.26809  1.0000
  C  Sn7       1.0  0.46422  0.60482  0.28094  1.0000
  C  Sn8       1.0  0.43661  0.64079  0.28581  1.0000
  C   C69       1.0  0.37527  0.61513  0.27778  1.0000
  C   C70       1.0  0.34130  0.55439  0.26488  1.0000
  H   H37       1.0  0.34227  0.47194  0.25012  1.0000
  O  Te7       1.0  0.52538  0.62929  0.28882  1.0000
  O  Te8       1.0  0.46990  0.70154  0.29869  1.0000
  H   H38       1.0  0.29385  0.53487  0.25875  1.0000
  Mg  Mg4       1.0  0.55181  0.71429  0.30561  1.0000
  C   C71       1.0  0.11631  0.50407  0.21345  1.0000
  C   C72       1.0  0.06698  0.51617  0.24432  1.0000
  C  Sn9       1.0  0.07948  0.57332  0.26848  1.0000
  C  Sn10      1.0  0.14259  0.61911  0.26149  1.0000
  C   C73       1.0  0.19163  0.60657  0.23039  1.0000
  C   C74       1.0  0.17858  0.54923  0.20646  1.0000
  H   H39       1.0  0.10623  0.45972  0.19482  1.0000
  O  Te9       1.0  0.02962  0.58463  0.29926  1.0000
  O  Te10      1.0  0.15642  0.67663  0.28511  1.0000
  H   H40       1.0  0.21680  0.53989  0.18243  1.0000
  Mg  Mg5       1.0  0.07237  0.67009  0.32343  1.0000
  C   C75       1.0  0.14823  0.60750  0.76400  1.0000
  C   C76       1.0  0.11534  0.54968  0.73473  1.0000
  C  Sn11      1.0  0.14324  0.51476  0.71323  1.0000
  C  Sn12      1.0  0.20520  0.53828  0.72131  1.0000
  C   C77       1.0  0.23768  0.59615  0.75080  1.0000
  C   C78       1.0  0.20933  0.63072  0.77207  1.0000
  H   H41       1.0  0.12628  0.63422  0.78057  1.0000
  O  Te11      1.0  0.10973  0.45710  0.68401  1.0000
  O  Te12      1.0  0.23419  0.50434  0.70034  1.0000
  H   H42       1.0  0.23478  0.67546  0.79486  1.0000
  Mg  Mg6       1.0  0.16938  0.42820  0.66335  1.0000
