data_image0
_chemical_formula_structural       NHNHNHNHNHNHNHNHNHNHNHNHC18H12P3N3P3N4HNHNHNHNHNHNHNHNHNHNHNHC18H12P3N3P3N3C2Sn2C2HTe2HMgC2Sn2C2HTe2HMgC2Sn2C2HTe2HMgC2Sn2C2HTe2HMgC2Sn2C2HTe2HMgC2Sn2C2HTe2HMg
_chemical_formula_sum              "N36 H60 C60 P12 Sn12 Te12 Mg6"
_cell_length_a       17.5509
_cell_length_b       17.5208
_cell_length_c       13.8566
_cell_angle_alpha    84.8979
_cell_angle_beta     90.9167
_cell_angle_gamma    119.897

_symmetry_space_group_name_H-M    'P1'
_space_group_IT_number       1

loop_
  _space_group_symop_operation_xyz
  'x, y, z'

loop_
  _atom_site_type_symbol
  _atom_site_label
  _atom_site_symmetry_multiplicity
  _atom_site_fract_x
  _atom_site_fract_y
  _atom_site_fract_z
  _atom_site_occupancy
  N   N1        1.0  0.63336  0.17804  0.14312  1.0000
  H   H1        1.0  0.69169  0.18684  0.11774  1.0000
  N   N2        1.0  0.82436  0.48256  0.14386  1.0000
  H   H2        1.0  0.81703  0.53703  0.14061  1.0000
  N   N3        1.0  0.52921  0.36693  0.16929  1.0000
  H   H3        1.0  0.47833  0.30898  0.14998  1.0000
  N   N4        1.0  0.35240  0.82617  0.15181  1.0000
  H   H4        1.0  0.29086  0.81813  0.14472  1.0000
  N   N5        1.0  0.17316  0.54871  0.16152  1.0000
  H   H5        1.0  0.17983  0.49785  0.14073  1.0000
  N   N6        1.0  0.45720  0.64721  0.13686  1.0000
  H   H6        1.0  0.50485  0.70997  0.11368  1.0000
  N   N7        1.0  0.36801  0.82527  0.35291  1.0000
  H   H7        1.0  0.30967  0.81742  0.37688  1.0000
  N   N8        1.0  0.17477  0.52449  0.36429  1.0000
  H   H8        1.0  0.18599  0.47281  0.37806  1.0000
  N   N9        1.0  0.46559  0.62943  0.33848  1.0000
  H   H9        1.0  0.51598  0.68738  0.35839  1.0000
  N   N10       1.0  0.65229  0.17486  0.34420  1.0000
  H   H10       1.0  0.71372  0.18248  0.35016  1.0000
  N   N11       1.0  0.82254  0.44760  0.34518  1.0000
  H   H11       1.0  0.81178  0.49393  0.37191  1.0000
  N   N12       1.0  0.53216  0.34500  0.36532  1.0000
  H   H12       1.0  0.56309  0.33379  0.42356  1.0000
  C   C1        1.0  0.56078  0.09214  0.13283  1.0000
  C   C2        1.0  0.51771  0.44095  0.14658  1.0000
  C   C3        1.0  0.42039  0.91714  0.13465  1.0000
  C   C4        1.0  0.48172  0.58109  0.12714  1.0000
  C   C5        1.0  0.08355  0.49929  0.37465  1.0000
  C   C6        1.0  0.90807  0.46109  0.36263  1.0000
  C   C7        1.0  0.57381  0.02553  0.10073  1.0000
  C   C8        1.0  0.43717  0.42813  0.11103  1.0000
  C   C9        1.0  0.40584  0.98509  0.15742  1.0000
  C   C10       1.0  0.56506  0.59570  0.15301  1.0000
  C   C11       1.0  0.01757  0.41684  0.34967  1.0000
  C   C12       1.0  0.97275  0.54019  0.39727  1.0000
  C   C13       1.0  0.50420  0.93895  0.10091  1.0000
  C   C14       1.0  0.41944  0.49759  0.10097  1.0000
  C   C15       1.0  0.47472  0.07201  0.15530  1.0000
  C   C16       1.0  0.58395  0.52711  0.16130  1.0000
  C   C17       1.0  0.93026  0.39695  0.34495  1.0000
  C   C18       1.0  0.05966  0.55919  0.40366  1.0000
  H   H13       1.0  0.63944  0.04107  0.07796  1.0000
  H   H14       1.0  0.38649  0.36210  0.09589  1.0000
  H   H15       1.0  0.34044  0.96903  0.18204  1.0000
  H   H16       1.0  0.61411  0.66087  0.17232  1.0000
  H   H17       1.0  0.03578  0.36968  0.32813  1.0000
  H   H18       1.0  0.95488  0.58834  0.41608  1.0000
  H   H19       1.0  0.51460  0.88694  0.07833  1.0000
  H   H20       1.0  0.35572  0.48671  0.07730  1.0000
  H   H21       1.0  0.46380  0.12360  0.17807  1.0000
  H   H22       1.0  0.64735  0.53805  0.18600  1.0000
  H   H23       1.0  0.88015  0.33470  0.32035  1.0000
  H   H24       1.0  0.10999  0.62182  0.42731  1.0000
  P   P1        1.0  0.35159  0.76578  0.25566  1.0000
  P   P2        1.0  0.23307  0.58666  0.26254  1.0000
  P   P3        1.0  0.41164  0.64761  0.24384  1.0000
  N   N13       1.0  0.43175  0.74694  0.24831  1.0000
  N   N14       1.0  0.25274  0.68568  0.27028  1.0000
  N   N15       1.0  0.31213  0.56723  0.25202  1.0000
  P   P4        1.0  0.65058  0.23572  0.24217  1.0000
  P   P5        1.0  0.76487  0.41388  0.24221  1.0000
  P   P6        1.0  0.58426  0.34873  0.26137  1.0000
  N   N16       1.0  0.56921  0.25162  0.25431  1.0000
  N   N17       1.0  0.74866  0.31729  0.22666  1.0000
  N   N18       1.0  0.68401  0.43007  0.25593  1.0000
  N   N19       1.0  0.64188  0.17463  0.66102  1.0000
  H   H25       1.0  0.70181  0.18700  0.63692  1.0000
  N   N20       1.0  0.82525  0.47118  0.63742  1.0000
  H   H26       1.0  0.82031  0.52677  0.62342  1.0000
  N   N21       1.0  0.53093  0.36646  0.65864  1.0000
  H   H27       1.0  0.47965  0.30678  0.64388  1.0000
  N   N22       1.0  0.36020  0.82890  0.63573  1.0000
  H   H28       1.0  0.35607  0.79494  0.57752  1.0000
  N   N23       1.0  0.16802  0.52607  0.67763  1.0000
  H   H29       1.0  0.17607  0.47433  0.66402  1.0000
  N   N24       1.0  0.45072  0.64138  0.63738  1.0000
  H   H30       1.0  0.49823  0.70375  0.61244  1.0000
  N   N25       1.0  0.36023  0.82637  0.83202  1.0000
  H   H31       1.0  0.30008  0.81605  0.85236  1.0000
  N   N26       1.0  0.17634  0.53503  0.87287  1.0000
  H   H32       1.0  0.21313  0.57029  0.92791  1.0000
  N   N27       1.0  0.47472  0.63514  0.83792  1.0000
  H   H33       1.0  0.52828  0.69469  0.84842  1.0000
  N   N28       1.0  0.64336  0.17099  0.85756  1.0000
  H   H34       1.0  0.64634  0.20492  0.91541  1.0000
  N   N29       1.0  0.82563  0.46183  0.84009  1.0000
  H   H35       1.0  0.81219  0.50760  0.86307  1.0000
  N   N30       1.0  0.54339  0.35276  0.86117  1.0000
  H   H36       1.0  0.49227  0.29066  0.88034  1.0000
  C   C19       1.0  0.56996  0.09244  0.63982  1.0000
  C   C20       1.0  0.91485  0.49023  0.63036  1.0000
  C   C21       1.0  0.43092  0.91938  0.62522  1.0000
  C   C22       1.0  0.08610  0.51792  0.65123  1.0000
  C   C23       1.0  0.48819  0.56216  0.85894  1.0000
  C   C24       1.0  0.52221  0.42079  0.87336  1.0000
  C   C25       1.0  0.58483  0.03009  0.59933  1.0000
  C   C26       1.0  0.98383  0.57228  0.65212  1.0000
  C   C27       1.0  0.41489  0.98443  0.65451  1.0000
  C   C28       1.0  0.01912  0.43892  0.61859  1.0000
  C   C29       1.0  0.57138  0.57551  0.88505  1.0000
  C   C30       1.0  0.43710  0.40603  0.85801  1.0000
  C   C31       1.0  0.51607  0.94403  0.59316  1.0000
  C   C32       1.0  0.06911  0.58715  0.66079  1.0000
  C   C33       1.0  0.48322  0.07031  0.66168  1.0000
  C   C34       1.0  0.93415  0.42525  0.60799  1.0000
  C   C35       1.0  0.58812  0.50530  0.89273  1.0000
  C   C36       1.0  0.41940  0.47530  0.85251  1.0000
  H   H37       1.0  0.65136  0.04783  0.57746  1.0000
  H   H38       1.0  0.96958  0.62366  0.66828  1.0000
  H   H39       1.0  0.34815  0.96575  0.67629  1.0000
  H   H40       1.0  0.03282  0.38658  0.60510  1.0000
  H   H41       1.0  0.62436  0.64208  0.89465  1.0000
  H   H42       1.0  0.38491  0.33986  0.84552  1.0000
  H   H43       1.0  0.52883  0.89486  0.56646  1.0000
  H   H44       1.0  0.12168  0.64957  0.68229  1.0000
  H   H45       1.0  0.47100  0.11906  0.69012  1.0000
  H   H46       1.0  0.88147  0.36300  0.58624  1.0000
  H   H47       1.0  0.65351  0.51614  0.90831  1.0000
  H   H48       1.0  0.35392  0.46408  0.83718  1.0000
  P   P7        1.0  0.35215  0.76581  0.74003  1.0000
  P   P8        1.0  0.23388  0.58296  0.76610  1.0000
  P   P9        1.0  0.41286  0.64648  0.74776  1.0000
  N   N31       1.0  0.43259  0.74601  0.74596  1.0000
  N   N32       1.0  0.25450  0.68361  0.74799  1.0000
  N   N33       1.0  0.31483  0.56529  0.76746  1.0000
  P   P10       1.0  0.65091  0.23450  0.75373  1.0000
  P   P11       1.0  0.76630  0.41586  0.74182  1.0000
  P   P12       1.0  0.58803  0.35259  0.75297  1.0000
  N   N34       1.0  0.57033  0.25421  0.75049  1.0000
  N   N35       1.0  0.74852  0.31680  0.74576  1.0000
  N   N36       1.0  0.68635  0.43516  0.74311  1.0000
  C   C37       1.0  0.94063  0.00106  0.40202  1.0000
  C   C38       1.0  0.43545  0.92644  0.36968  1.0000
  C  Sn1       1.0  0.51244  0.93057  0.33702  1.0000
  C  Sn2       1.0  0.09602  0.01099  0.33684  1.0000
  C   C39       1.0  0.09810  0.08526  0.36940  1.0000
  C   C40       1.0  0.02066  0.08040  0.40191  1.0000
  H   H49       1.0  0.88073  0.99729  0.42722  1.0000
  O  Te1       1.0  0.50850  0.85540  0.30492  1.0000
  O  Te2       1.0  0.17396  0.01695  0.30461  1.0000
  H   H50       1.0  0.02283  0.13817  0.42700  1.0000
  Mg  Mg1       1.0  0.63245  0.89650  0.26785  1.0000
  C   C41       1.0  0.58305  0.52161  0.40544  1.0000
  C   C42       1.0  0.52682  0.43271  0.39147  1.0000
  C  Sn3       1.0  0.44188  0.40462  0.35912  1.0000
  C  Sn4       1.0  0.41289  0.46684  0.34045  1.0000
  C   C43       1.0  0.46967  0.55565  0.35458  1.0000
  C   C44       1.0  0.55453  0.58304  0.38700  1.0000
  H   H51       1.0  0.64872  0.54282  0.43047  1.0000
  O  Te3       1.0  0.38654  0.31554  0.34558  1.0000
  O  Te4       1.0  0.32834  0.44057  0.30803  1.0000
  H   H52       1.0  0.59807  0.65189  0.39776  1.0000
  Mg  Mg2       1.0  0.27722  0.31190  0.30047  1.0000
  C   C45       1.0  0.04508  0.94625  0.82641  1.0000
  C   C46       1.0  0.45477  0.90888  0.85700  1.0000
  C  Sn5       1.0  0.92699  0.96128  0.89328  1.0000
  C  Sn6       1.0  0.98604  0.05277  0.89892  1.0000
  C   C47       1.0  0.07383  0.08953  0.86808  1.0000
  C   C48       1.0  0.10336  0.03648  0.83192  1.0000
  H   H53       1.0  0.56551  0.90522  0.79839  1.0000
  O  Te5       1.0  0.83897  0.92288  0.92355  1.0000
  O  Te6       1.0  0.95760  0.10667  0.93485  1.0000
  H   H54       1.0  0.17140  0.06544  0.80819  1.0000
  Mg  Mg3       1.0  0.83151  0.02366  0.96719  1.0000
  C   C49       1.0  0.95163  0.43539  0.10001  1.0000
  C   C50       1.0  0.91737  0.48764  0.12673  1.0000
  C  Sn7       1.0  0.97308  0.57120  0.15749  1.0000
  C  Sn8       1.0  0.06478  0.60288  0.16147  1.0000
  C   C51       1.0  0.09842  0.55013  0.13452  1.0000
  C   C52       1.0  0.04207  0.46660  0.10388  1.0000
  H   H55       1.0  0.90805  0.37078  0.07625  1.0000
  O  Te7       1.0  0.93775  0.62253  0.18396  1.0000
  O  Te8       1.0  0.12196  0.68616  0.19190  1.0000
  H   H56       1.0  0.06862  0.42618  0.08313  1.0000
  Mg  Mg4       1.0  0.04239  0.73153  0.22059  1.0000
  C   C53       1.0  0.41358  0.42886  0.61058  1.0000
  C   C54       1.0  0.49424  0.43265  0.62587  1.0000
  C  Sn9       1.0  0.56860  0.51229  0.64422  1.0000
  C  Sn10      1.0  0.56187  0.58945  0.64731  1.0000
  C   C55       1.0  0.48086  0.58495  0.63199  1.0000
  C   C56       1.0  0.40687  0.50492  0.61365  1.0000
  H   H57       1.0  0.35632  0.36693  0.59644  1.0000
  O  Te9       1.0  0.64870  0.51491  0.65930  1.0000
  O  Te10      1.0  0.63514  0.66989  0.66554  1.0000
  H   H58       1.0  0.34441  0.50200  0.60188  1.0000
  Mg  Mg5       1.0  0.72986  0.64005  0.68150  1.0000
  C   C57       1.0  0.99770  0.57205  0.90192  1.0000
  C   C58       1.0  0.92569  0.49744  0.86913  1.0000
  C  Sn11      1.0  0.93414  0.42582  0.84646  1.0000
  C  Sn12      1.0  0.01627  0.42916  0.85690  1.0000
  C   C59       1.0  0.08789  0.50409  0.88982  1.0000
  C   C60       1.0  0.07872  0.57538  0.91228  1.0000
  H   H59       1.0  0.99059  0.62720  0.91934  1.0000
  O  Te11      1.0  0.86154  0.35180  0.81376  1.0000
  O  Te12      1.0  0.02653  0.35850  0.83479  1.0000
  H   H60       1.0  0.13447  0.63312  0.93772  1.0000
  Mg  Mg6       1.0  0.90830  0.27220  0.79282  1.0000
