data_image0
_chemical_formula_structural       C6N6C6N3C3H3N3C3H3C6N6C6N3C3H3N3C3H3C2Sn2C2HTe2HMgC2Sn2C2HTe2HMgC2Sn2C2HTe2HMgC2Sn2C2HTe2HMgC2Sn2C2HTe2HMgC2Sn2C2HTe2HMgC2Sn2C2HTe2HMgC2Sn2C2HTe2HMgC2Sn2C2HTe2HMgC2Sn2C2HTe2HMgC2Sn2C2HTe2HMgC2Sn2C2HTe2HMgC2Sn2C2HTe2HMgC2Sn2C2HTe2HMgC2Sn2C2HTe2HMgC2Sn2C2HTe2HMgC2Sn2C2HTe2HMgC2Sn2C2HTe2HMg
_chemical_formula_sum              "C108 N24 H48 Sn36 Te36 Mg18"
_cell_length_a       25.4639
_cell_length_b       25.4672
_cell_length_c       8.13978
_cell_angle_alpha    90.2895
_cell_angle_beta     91.1886
_cell_angle_gamma    119.972

_symmetry_space_group_name_H-M    'P1'
_space_group_IT_number       1

loop_
  _space_group_symop_operation_xyz
  'x, y, z'

loop_
  _atom_site_type_symbol
  _atom_site_label
  _atom_site_symmetry_multiplicity
  _atom_site_fract_x
  _atom_site_fract_y
  _atom_site_fract_z
  _atom_site_occupancy
  C   C1        1.0  0.38814  0.66637  0.97367  1.0000
  C   C2        1.0  0.32746  0.71858  0.96909  1.0000
  C   C3        1.0  0.27521  0.60599  0.96638  1.0000
  C   C4        1.0  0.38569  0.72070  0.97408  1.0000
  C   C5        1.0  0.27300  0.66209  0.96520  1.0000
  C   C6        1.0  0.33186  0.60801  0.97145  1.0000
  N   N1        1.0  0.33417  0.55656  0.97742  1.0000
  N   N2        1.0  0.43667  0.77488  0.98238  1.0000
  N   N3        1.0  0.21913  0.65965  0.96624  1.0000
  N   N4        1.0  0.22321  0.55269  0.97090  1.0000
  N   N5        1.0  0.44189  0.66833  0.98174  1.0000
  N   N6        1.0  0.32618  0.77062  0.97476  1.0000
  C   C7        1.0  0.28275  0.50293  0.98430  1.0000
  C   C8        1.0  0.49052  0.77766  0.99162  1.0000
  C   C9        1.0  0.21701  0.71112  0.97419  1.0000
  C   C10       1.0  0.22514  0.50131  0.98326  1.0000
  C   C11       1.0  0.49312  0.72219  0.99235  1.0000
  C   C12       1.0  0.27279  0.76883  0.97988  1.0000
  N   N7        1.0  0.34215  0.31408  0.98880  1.0000
  N   N8        1.0  0.67887  0.02562  0.00613  1.0000
  N   N9        1.0  0.97044  0.65540  0.99084  1.0000
  C   C13       1.0  0.30498  0.26051  0.04014  1.0000
  C   C14       1.0  0.73388  0.04024  0.04612  1.0000
  C   C15       1.0  0.95727  0.69587  0.03709  1.0000
  H   H1        1.0  0.26303  0.25105  0.10149  1.0000
  H   H2        1.0  0.74452  0.00617  0.09436  1.0000
  H   H3        1.0  0.99253  0.73989  0.08893  1.0000
  N   N10       1.0  0.99363  0.28927  0.04820  1.0000
  N   N11       1.0  0.70885  0.70695  0.05438  1.0000
  N   N12       1.0  0.29847  0.00368  0.04895  1.0000
  C   C16       1.0  0.94335  0.27562  0.97131  1.0000
  C   C17       1.0  0.72182  0.67220  0.96897  1.0000
  C   C18       1.0  0.32719  0.04888  0.95232  1.0000
  H   H4        1.0  0.93821  0.30613  0.88567  1.0000
  H   H5        1.0  0.69081  0.63932  0.87580  1.0000
  H   H6        1.0  0.35223  0.04746  0.84551  1.0000
  C   C19       1.0  0.39519  0.67433  0.48134  1.0000
  C   C20       1.0  0.33339  0.72535  0.47694  1.0000
  C   C21       1.0  0.28279  0.61260  0.48573  1.0000
  C   C22       1.0  0.39232  0.72847  0.47773  1.0000
  C   C23       1.0  0.27952  0.66819  0.48109  1.0000
  C   C24       1.0  0.33979  0.61563  0.48632  1.0000
  N   N13       1.0  0.34357  0.56491  0.49451  1.0000
  N   N14       1.0  0.44358  0.78256  0.47938  1.0000
  N   N15       1.0  0.22506  0.66442  0.48311  1.0000
  N   N16       1.0  0.23152  0.55890  0.49410  1.0000
  N   N17       1.0  0.44891  0.67647  0.48672  1.0000
  N   N18       1.0  0.33045  0.77659  0.47940  1.0000
  C   C25       1.0  0.29275  0.51100  0.50176  1.0000
  C   C26       1.0  0.49773  0.78554  0.48735  1.0000
  C   C27       1.0  0.22130  0.71508  0.48485  1.0000
  C   C28       1.0  0.23447  0.50788  0.50263  1.0000
  C   C29       1.0  0.50040  0.73008  0.49139  1.0000
  C   C30       1.0  0.27638  0.77347  0.48623  1.0000
  N   N19       1.0  0.35036  0.32099  0.51837  1.0000
  N   N20       1.0  0.68693  0.03393  0.49544  1.0000
  N   N21       1.0  0.97202  0.65247  0.48293  1.0000
  C   C31       1.0  0.30785  0.26616  0.54367  1.0000
  C   C32       1.0  0.74116  0.04901  0.54559  1.0000
  C   C33       1.0  0.95722  0.69140  0.53271  1.0000
  H   H7        1.0  0.26260  0.25648  0.58124  1.0000
  H   H8        1.0  0.75069  0.01553  0.60354  1.0000
  H   H9        1.0  0.99143  0.73467  0.59041  1.0000
  N   N22       1.0  0.00149  0.29632  0.55552  1.0000
  N   N23       1.0  0.70867  0.70143  0.55695  1.0000
  N   N24       1.0  0.29602  0.00637  0.54660  1.0000
  C   C34       1.0  0.95399  0.28142  0.46332  1.0000
  C   C35       1.0  0.72198  0.66895  0.46268  1.0000
  C   C36       1.0  0.32879  0.05345  0.45922  1.0000
  H   H10       1.0  0.95315  0.30892  0.36051  1.0000
  H   H11       1.0  0.69240  0.64037  0.36034  1.0000
  H   H12       1.0  0.35932  0.05457  0.36404  1.0000
  C   C37       1.0  0.80289  0.62725  0.90690  1.0000
  C   C38       1.0  0.78155  0.66318  0.97601  1.0000
  C  Sn1       1.0  0.81071  0.70829  0.06956  1.0000
  C  Sn2       1.0  0.87227  0.72419  0.09413  1.0000
  C   C39       1.0  0.89319  0.68798  0.02438  1.0000
  C   C40       1.0  0.86361  0.64292  0.93102  1.0000
  H   H13       1.0  0.77235  0.58733  0.83459  1.0000
  O  Te1       1.0  0.78864  0.74366  0.13777  1.0000
  O  Te2       1.0  0.91231  0.77561  0.18705  1.0000
  H   H14       1.0  0.88016  0.61514  0.87744  1.0000
  Mg  Mg1       1.0  0.86077  0.80940  0.25484  1.0000
  C   C41       1.0  0.36958  0.20395  0.90916  1.0000
  C   C42       1.0  0.32580  0.21039  0.99339  1.0000
  C  Sn3       1.0  0.27118  0.15516  0.07923  1.0000
  C  Sn4       1.0  0.27042  0.09908  0.08059  1.0000
  C   C43       1.0  0.32436  0.09967  0.99603  1.0000
  C   C44       1.0  0.36887  0.14865  0.91048  1.0000
  H   H15       1.0  0.40404  0.24185  0.84304  1.0000
  O  Te3       1.0  0.22777  0.16237  0.16268  1.0000
  O  Te4       1.0  0.22627  0.04971  0.16544  1.0000
  H   H16       1.0  0.40279  0.14367  0.84537  1.0000
  Mg  Mg2       1.0  0.17680  0.08186  0.26054  1.0000
  C   C45       1.0  0.88679  0.15505  0.09746  1.0000
  C   C46       1.0  0.89240  0.20481  0.01108  1.0000
  C  Sn5       1.0  0.85124  0.20943  0.93782  1.0000
  C  Sn6       1.0  0.79355  0.15664  0.95154  1.0000
  C   C47       1.0  0.77850  0.10055  0.03832  1.0000
  C   C48       1.0  0.82990  0.10297  0.11110  1.0000
  H   H17       1.0  0.92655  0.15693  0.15385  1.0000
  O  Te5       1.0  0.85766  0.25954  0.85192  1.0000
  O  Te6       1.0  0.74177  0.15349  0.87957  1.0000
  H   H18       1.0  0.82554  0.06445  0.17806  1.0000
  Mg  Mg3       1.0  0.77370  0.23343  0.77518  1.0000
  C   C49       1.0  0.36051  0.45630  0.07329  1.0000
  C   C50       1.0  0.30990  0.45560  0.00101  1.0000
  C  Sn7       1.0  0.27336  0.40902  0.92750  1.0000
  C  Sn8       1.0  0.27777  0.35564  0.92657  1.0000
  C   C51       1.0  0.32856  0.35679  0.99932  1.0000
  C   C52       1.0  0.36488  0.40366  0.07249  1.0000
  H   H19       1.0  0.39626  0.49763  0.12999  1.0000
  O  Te7       1.0  0.22312  0.40913  0.85578  1.0000
  O  Te8       1.0  0.23199  0.30190  0.85401  1.0000
  H   H20       1.0  0.40404  0.40417  0.12854  1.0000
  Mg  Mg4       1.0  0.17250  0.32476  0.77213  1.0000
  C   C53       1.0  0.63850  0.90384  0.91805  1.0000
  C   C54       1.0  0.63657  0.95441  0.97746  1.0000
  C  Sn9       1.0  0.57589  0.94050  0.05989  1.0000
  C  Sn10      1.0  0.52621  0.88137  0.08313  1.0000
  C   C55       1.0  0.52860  0.83107  0.02334  1.0000
  C   C56       1.0  0.58953  0.84550  0.94098  1.0000
  H   H21       1.0  0.67798  0.90992  0.85440  1.0000
  O  Te9       1.0  0.57471  0.99152  0.11840  1.0000
  O  Te10      1.0  0.47492  0.87273  0.16514  1.0000
  H   H22       1.0  0.59103  0.80634  0.89509  1.0000
  Mg  Mg5       1.0  0.49471  0.95643  0.22231  1.0000
  C   C57       1.0  0.06168  0.62807  0.06981  1.0000
  C   C58       1.0  0.03514  0.66165  0.01540  1.0000
  C  Sn11      1.0  0.07927  0.72212  0.93127  1.0000
  C  Sn12      1.0  0.14119  0.74267  0.90120  1.0000
  C   C59       1.0  0.16732  0.70874  0.95603  1.0000
  C   C60       1.0  0.12275  0.64830  0.04014  1.0000
  H   H23       1.0  0.03486  0.58638  0.13481  1.0000
  O  Te11      1.0  0.05204  0.75512  0.87782  1.0000
  O  Te12      1.0  0.17643  0.79638  0.81736  1.0000
  H   H24       1.0  0.14331  0.62230  0.08216  1.0000
  Mg  Mg6       1.0  0.11884  0.82548  0.76890  1.0000
  C   C61       1.0  0.06598  0.40874  0.91411  1.0000
  C   C62       1.0  0.04894  0.35458  0.99547  1.0000
  C  Sn13      1.0  0.08139  0.34165  0.09229  1.0000
  C  Sn14      1.0  0.14191  0.39050  0.10774  1.0000
  C   C63       1.0  0.15850  0.44452  0.02594  1.0000
  C   C64       1.0  0.12565  0.45696  0.92934  1.0000
  H   H25       1.0  0.03290  0.41331  0.83944  1.0000
  O  Te13      1.0  0.06361  0.28721  0.17269  1.0000
  O  Te14      1.0  0.18516  0.38537  0.20376  1.0000
  H   H26       1.0  0.13885  0.49892  0.86644  1.0000
  Mg  Mg7       1.0  0.13900  0.30213  0.28935  1.0000
  C   C65       1.0  0.64442  0.76404  0.12005  1.0000
  C   C66       1.0  0.65269  0.71673  0.06442  1.0000
  C  Sn15      1.0  0.61711  0.67552  0.97053  1.0000
  C  Sn16      1.0  0.56239  0.67523  0.93176  1.0000
  C   C67       1.0  0.55457  0.72280  0.98789  1.0000
  C   C68       1.0  0.59047  0.76380  0.08181  1.0000
  H   H27       1.0  0.67987  0.80086  0.19264  1.0000
  O  Te15      1.0  0.62611  0.62860  0.91599  1.0000
  O  Te16      1.0  0.51619  0.62805  0.83807  1.0000
  H   H28       1.0  0.58407  0.80045  0.12477  1.0000
  Mg  Mg8       1.0  0.54981  0.57436  0.79208  1.0000
  C   C69       1.0  0.34479  0.92814  0.93101  1.0000
  C   C70       1.0  0.30670  0.94691  0.99841  1.0000
  C  Sn17      1.0  0.24383  0.89871  0.07571  1.0000
  C  Sn18      1.0  0.22885  0.83717  0.08557  1.0000
  C   C71       1.0  0.26728  0.81886  0.01786  1.0000
  C   C72       1.0  0.33006  0.86746  0.94074  1.0000
  H   H29       1.0  0.38571  0.96066  0.87141  1.0000
  O  Te17      1.0  0.20627  0.91822  0.14234  1.0000
  O  Te18      1.0  0.17621  0.79462  0.16219  1.0000
  H   H30       1.0  0.35956  0.85292  0.88866  1.0000
  Mg  Mg9       1.0  0.13951  0.84321  0.23437  1.0000
  C   C73       1.0  0.80294  0.62345  0.39795  1.0000
  C   C74       1.0  0.78117  0.65847  0.47043  1.0000
  C  Sn19      1.0  0.81982  0.70927  0.56748  1.0000
  C  Sn20      1.0  0.88139  0.72521  0.59219  1.0000
  C   C75       1.0  0.90274  0.68991  0.51905  1.0000
  C   C76       1.0  0.86366  0.63915  0.42220  1.0000
  H   H31       1.0  0.77273  0.58419  0.32295  1.0000
  O  Te19      1.0  0.79732  0.74375  0.63903  1.0000
  O  Te20      1.0  0.92100  0.77577  0.68857  1.0000
  H   H32       1.0  0.88054  0.61207  0.36602  1.0000
  Mg  Mg10      1.0  0.86898  0.80852  0.76012  1.0000
  C   C77       1.0  0.26607  0.11243  0.57816  1.0000
  C   C78       1.0  0.31050  0.10598  0.49758  1.0000
  C  Sn21      1.0  0.36054  0.15655  0.43319  1.0000
  C  Sn22      1.0  0.36608  0.21460  0.45002  1.0000
  C   C79       1.0  0.32141  0.22059  0.53095  1.0000
  C   C80       1.0  0.27151  0.16967  0.59487  1.0000
  H   H33       1.0  0.22748  0.07304  0.62770  1.0000
  O  Te21      1.0  0.40451  0.14930  0.35299  1.0000
  O  Te22      1.0  0.41564  0.26591  0.38688  1.0000
  H   H34       1.0  0.23713  0.17469  0.65735  1.0000
  Mg  Mg11      1.0  0.46370  0.23287  0.28770  1.0000
  C   C81       1.0  0.82665  0.19949  0.40075  1.0000
  C   C82       1.0  0.88439  0.22283  0.47355  1.0000
  C  Sn23      1.0  0.89748  0.18671  0.57578  1.0000
  C  Sn24      1.0  0.85184  0.12613  0.60540  1.0000
  C   C83       1.0  0.79424  0.10320  0.53190  1.0000
  C   C84       1.0  0.78162  0.13973  0.42986  1.0000
  H   H35       1.0  0.81689  0.22775  0.32173  1.0000
  O  Te23      1.0  0.95539  0.21075  0.64757  1.0000
  O  Te24      1.0  0.86371  0.08904  0.70700  1.0000
  H   H36       1.0  0.73693  0.12164  0.37342  1.0000
  Mg  Mg12      1.0  0.94956  0.14241  0.77675  1.0000
  C   C85       1.0  0.27387  0.36445  0.40957  1.0000
  C   C86       1.0  0.32390  0.36486  0.48485  1.0000
  C  Sn25      1.0  0.36432  0.41392  0.58479  1.0000
  C  Sn26      1.0  0.35434  0.46340  0.60961  1.0000
  C   C87       1.0  0.30412  0.46253  0.53384  1.0000
  C   C88       1.0  0.26397  0.41322  0.43404  1.0000
  H   H37       1.0  0.24278  0.32628  0.33242  1.0000
  O  Te25      1.0  0.41409  0.41361  0.65902  1.0000
  O  Te26      1.0  0.39401  0.51299  0.70894  1.0000
  H   H38       1.0  0.22521  0.41289  0.37586  1.0000
  Mg  Mg13      1.0  0.45534  0.49157  0.78347  1.0000
  C   C89       1.0  0.64687  0.91149  0.41657  1.0000
  C   C90       1.0  0.64472  0.96244  0.47149  1.0000
  C  Sn27      1.0  0.59330  0.95570  0.54893  1.0000
  C  Sn28      1.0  0.54318  0.89680  0.57169  1.0000
  C   C91       1.0  0.54579  0.84611  0.51641  1.0000
  C   C92       1.0  0.59746  0.85337  0.43902  1.0000
  H   H39       1.0  0.68685  0.91710  0.35677  1.0000
  O  Te27      1.0  0.09225  0.00710  0.60300  1.0000
  O  Te28      1.0  0.49123  0.88876  0.64876  1.0000
  H   H40       1.0  0.59913  0.81391  0.39661  1.0000
  Mg  Mg14      1.0  0.51096  0.97279  0.70104  1.0000
  C   C93       1.0  0.12527  0.74160  0.39414  1.0000
  C   C94       1.0  0.15435  0.71424  0.47361  1.0000
  C  Sn29      1.0  0.12063  0.66013  0.55735  1.0000
  C  Sn30      1.0  0.05661  0.63302  0.56135  1.0000
  C   C95       1.0  0.02794  0.66074  0.48136  1.0000
  C   C96       1.0  0.06213  0.71488  0.39798  1.0000
  H   H41       1.0  0.15171  0.78348  0.32955  1.0000
  O  Te29      1.0  0.15042  0.63341  0.63613  1.0000
  O  Te30      1.0  0.02181  0.57895  0.64408  1.0000
  H   H42       1.0  0.03959  0.73604  0.33637  1.0000
  Mg  Mg15      1.0  0.08323  0.55985  0.73276  1.0000
  C   C97       1.0  0.07462  0.41953  0.45192  1.0000
  C   C98       1.0  0.05750  0.36154  0.50816  1.0000
  C  Sn31      1.0  0.10070  0.34944  0.57902  1.0000
  C  Sn32      1.0  0.16215  0.39637  0.59371  1.0000
  C   C99       1.0  0.17880  0.45425  0.53717  1.0000
  C   C100      1.0  0.13521  0.46585  0.46642  1.0000
  H   H43       1.0  0.04088  0.42852  0.39726  1.0000
  O  Te31      1.0  0.08283  0.29124  0.63451  1.0000
  O  Te32      1.0  0.20625  0.38554  0.66408  1.0000
  H   H44       1.0  0.14847  0.51077  0.42298  1.0000
  Mg  Mg16      1.0  0.15959  0.29879  0.72144  1.0000
  C   C101      1.0  0.55985  0.66216  0.42545  1.0000
  C   C102      1.0  0.55202  0.70760  0.49769  1.0000
  C  Sn33      1.0  0.59940  0.75461  0.58900  1.0000
  C  Sn34      1.0  0.65562  0.75605  0.60808  1.0000
  C   C103      1.0  0.66301  0.71040  0.53522  1.0000
  C   C104      1.0  0.61529  0.66356  0.44415  1.0000
  H   H45       1.0  0.52294  0.62594  0.35491  1.0000
  O  Te33      1.0  0.59080  0.79962  0.66041  1.0000
  O  Te34      1.0  0.70374  0.80252  0.69865  1.0000
  H   H46       1.0  0.62138  0.62841  0.38814  1.0000
  Mg  Mg17      1.0  0.66992  0.85352  0.77244  1.0000
  C   C105      1.0  0.33824  0.90015  0.41390  1.0000
  C   C106      1.0  0.29668  0.84689  0.49077  1.0000
  C  Sn35      1.0  0.25135  0.84599  0.58658  1.0000
  C  Sn36      1.0  0.24767  0.89946  0.60552  1.0000
  C   C107      1.0  0.28944  0.95250  0.52802  1.0000
  C   C108      1.0  0.33463  0.95291  0.43247  1.0000
  H   H47       1.0  0.37319  0.90046  0.33989  1.0000
  O  Te35      1.0  0.21021  0.79240  0.66257  1.0000
  O  Te36      1.0  0.20280  0.89982  0.70054  1.0000
  H   H48       1.0  0.36677  0.99414  0.37288  1.0000
  Mg  Mg18      1.0  0.15720  0.81559  0.77965  1.0000
