data_image0
_chemical_formula_structural       C6N6C8H6C4H2C12H4C12H8N3C3H3N3C3H3C6N6C4H3C2HC18H8C6H4N3C3H3N3C3H3C2Sn2C2HTe2HMgC2Sn2C2HTe2HMgC2Sn2C2HTe2HMgC2Sn2C2HTe2HMgC2Sn2C2HTe2HMgC2Sn2C2HTe2HMgC2Sn2C2HTe2HMgC2Sn2C2HTe2HMgC2Sn2C2HTe2HMg
_chemical_formula_sum              "C126 N24 H66 Sn18 Te18 Mg9"
_cell_length_a       25.4639
_cell_length_b       25.4672
_cell_length_c       8.13978
_cell_angle_alpha    90.2895
_cell_angle_beta     91.1886
_cell_angle_gamma    119.972

_symmetry_space_group_name_H-M    'P1'
_space_group_IT_number       1

loop_
  _space_group_symop_operation_xyz
  'x, y, z'

loop_
  _atom_site_type_symbol
  _atom_site_label
  _atom_site_symmetry_multiplicity
  _atom_site_fract_x
  _atom_site_fract_y
  _atom_site_fract_z
  _atom_site_occupancy
  C   C1        1.0  0.38814  0.66637  0.97367  1.0000
  C   C2        1.0  0.32746  0.71858  0.96909  1.0000
  C   C3        1.0  0.27521  0.60599  0.96638  1.0000
  C   C4        1.0  0.38569  0.72070  0.97408  1.0000
  C   C5        1.0  0.27300  0.66209  0.96520  1.0000
  C   C6        1.0  0.33186  0.60801  0.97145  1.0000
  N   N1        1.0  0.33417  0.55656  0.97742  1.0000
  N   N2        1.0  0.43667  0.77488  0.98238  1.0000
  N   N3        1.0  0.21913  0.65965  0.96624  1.0000
  N   N4        1.0  0.22321  0.55269  0.97090  1.0000
  N   N5        1.0  0.44189  0.66833  0.98174  1.0000
  N   N6        1.0  0.32618  0.77062  0.97476  1.0000
  C   C7        1.0  0.78086  0.67641  0.99110  1.0000
  C   C8        1.0  0.32433  0.10427  0.97892  1.0000
  C   C9        1.0  0.84896  0.63748  0.93690  1.0000
  C   C10       1.0  0.36065  0.21078  0.92552  1.0000
  C   C11       1.0  0.82793  0.72541  0.08051  1.0000
  C   C12       1.0  0.27913  0.10289  0.07851  1.0000
  C   C13       1.0  0.79237  0.63280  0.91898  1.0000
  C   C14       1.0  0.36491  0.15888  0.90253  1.0000
  H   H1        1.0  0.85838  0.60425  0.88088  1.0000
  H   H2        1.0  0.39152  0.25300  0.86619  1.0000
  H   H3        1.0  0.81848  0.75866  0.13582  1.0000
  H   H4        1.0  0.24837  0.06055  0.13723  1.0000
  H   H5        1.0  0.75663  0.59554  0.84651  1.0000
  H   H6        1.0  0.39937  0.16000  0.82330  1.0000
  C   C15       1.0  0.31446  0.20882  0.02194  1.0000
  C   C16       1.0  0.89619  0.68710  0.02378  1.0000
  C   C17       1.0  0.27395  0.15420  0.09816  1.0000
  C   C18       1.0  0.88482  0.73092  0.09470  1.0000
  H   H7        1.0  0.92134  0.76933  0.16193  1.0000
  H   H8        1.0  0.23848  0.15265  0.17400  1.0000
  C   C19       1.0  0.28275  0.50293  0.98430  1.0000
  C   C20       1.0  0.49052  0.77766  0.99162  1.0000
  C   C21       1.0  0.21701  0.71112  0.97419  1.0000
  C   C22       1.0  0.22514  0.50131  0.98326  1.0000
  C   C23       1.0  0.49312  0.72219  0.99235  1.0000
  C   C24       1.0  0.27279  0.76883  0.97988  1.0000
  C   C25       1.0  0.15419  0.70039  0.97987  1.0000
  C   C26       1.0  0.11054  0.64775  0.05838  1.0000
  C   C27       1.0  0.05019  0.63294  0.06238  1.0000
  C   C28       1.0  0.03149  0.67113  0.98974  1.0000
  C   C29       1.0  0.07470  0.72357  0.91056  1.0000
  C   C30       1.0  0.13484  0.73752  0.90522  1.0000
  H   H9        1.0  0.12523  0.61870  0.11634  1.0000
  H   H10       1.0  0.01720  0.59307  0.12670  1.0000
  H   H11       1.0  0.06026  0.75212  0.84839  1.0000
  H   H12       1.0  0.16719  0.77805  0.84289  1.0000
  C   C31       1.0  0.16449  0.44686  0.99943  1.0000
  C   C32       1.0  0.54895  0.71793  0.00710  1.0000
  C   C33       1.0  0.15505  0.39944  0.10308  1.0000
  C   C34       1.0  0.60010  0.75994  0.09933  1.0000
  C   C35       1.0  0.09794  0.34892  0.11771  1.0000
  C   C36       1.0  0.65146  0.75437  0.11322  1.0000
  C   C37       1.0  0.04779  0.34395  0.02786  1.0000
  C   C38       1.0  0.65380  0.70636  0.03425  1.0000
  C   C39       1.0  0.05655  0.39282  0.92850  1.0000
  C   C40       1.0  0.60172  0.66276  0.94573  1.0000
  C   C41       1.0  0.11384  0.44362  0.91566  1.0000
  C   C42       1.0  0.55025  0.66839  0.93306  1.0000
  H   H13       1.0  0.19339  0.40271  0.17211  1.0000
  H   H14       1.0  0.59911  0.79722  0.16068  1.0000
  H   H15       1.0  0.09045  0.31208  0.19844  1.0000
  H   H16       1.0  0.69103  0.78679  0.18553  1.0000
  H   H17       1.0  0.01875  0.39064  0.85802  1.0000
  H   H18       1.0  0.60153  0.62445  0.88554  1.0000
  H   H19       1.0  0.12077  0.48131  0.83891  1.0000
  H   H20       1.0  0.51006  0.63481  0.86497  1.0000
  N   N7        1.0  0.34215  0.31408  0.98880  1.0000
  N   N8        1.0  0.67887  0.02562  0.00613  1.0000
  N   N9        1.0  0.97044  0.65540  0.99084  1.0000
  C   C43       1.0  0.30498  0.26051  0.04014  1.0000
  C   C44       1.0  0.73388  0.04024  0.04612  1.0000
  C   C45       1.0  0.95727  0.69587  0.03709  1.0000
  H   H21       1.0  0.26303  0.25105  0.10149  1.0000
  H   H22       1.0  0.74452  0.00617  0.09436  1.0000
  H   H23       1.0  0.99253  0.73989  0.08893  1.0000
  N   N10       1.0  0.99363  0.28927  0.04820  1.0000
  N   N11       1.0  0.70885  0.70695  0.05438  1.0000
  N   N12       1.0  0.29847  0.00368  0.04895  1.0000
  C   C46       1.0  0.94335  0.27562  0.97131  1.0000
  C   C47       1.0  0.72182  0.67220  0.96897  1.0000
  C   C48       1.0  0.32719  0.04888  0.95232  1.0000
  H   H24       1.0  0.93821  0.30613  0.88567  1.0000
  H   H25       1.0  0.69081  0.63932  0.87580  1.0000
  H   H26       1.0  0.35223  0.04746  0.84551  1.0000
  C   C49       1.0  0.39519  0.67433  0.48134  1.0000
  C   C50       1.0  0.33339  0.72535  0.47694  1.0000
  C   C51       1.0  0.28279  0.61260  0.48573  1.0000
  C   C52       1.0  0.39232  0.72847  0.47773  1.0000
  C   C53       1.0  0.27952  0.66819  0.48109  1.0000
  C   C54       1.0  0.33979  0.61563  0.48632  1.0000
  N   N13       1.0  0.34357  0.56491  0.49451  1.0000
  N   N14       1.0  0.44358  0.78256  0.47938  1.0000
  N   N15       1.0  0.22506  0.66442  0.48311  1.0000
  N   N16       1.0  0.23152  0.55890  0.49410  1.0000
  N   N17       1.0  0.44891  0.67647  0.48672  1.0000
  N   N18       1.0  0.33045  0.77659  0.47940  1.0000
  C   C55       1.0  0.32485  0.10841  0.48257  1.0000
  C   C56       1.0  0.36641  0.21692  0.44958  1.0000
  C   C57       1.0  0.27438  0.10529  0.55960  1.0000
  C   C58       1.0  0.37045  0.16494  0.42624  1.0000
  H   H27       1.0  0.40145  0.26073  0.40690  1.0000
  H   H28       1.0  0.23950  0.06154  0.60262  1.0000
  H   H29       1.0  0.40918  0.16780  0.36377  1.0000
  C   C59       1.0  0.31551  0.21343  0.52460  1.0000
  C   C60       1.0  0.26939  0.15677  0.57796  1.0000
  H   H30       1.0  0.22977  0.15372  0.63575  1.0000
  C   C61       1.0  0.29275  0.51100  0.50176  1.0000
  C   C62       1.0  0.49773  0.78554  0.48735  1.0000
  C   C63       1.0  0.22130  0.71508  0.48485  1.0000
  C   C64       1.0  0.23447  0.50788  0.50263  1.0000
  C   C65       1.0  0.50040  0.73008  0.49139  1.0000
  C   C66       1.0  0.27638  0.77347  0.48623  1.0000
  C   C67       1.0  0.54945  0.84884  0.49289  1.0000
  C   C68       1.0  0.15772  0.70260  0.48652  1.0000
  C   C69       1.0  0.54058  0.89411  0.56613  1.0000
  C   C70       1.0  0.11405  0.64887  0.56128  1.0000
  C   C71       1.0  0.58554  0.95482  0.56659  1.0000
  C   C72       1.0  0.05308  0.63219  0.55969  1.0000
  C   C73       1.0  0.64211  0.97258  0.49758  1.0000
  C   C74       1.0  0.03360  0.66969  0.48633  1.0000
  C   C75       1.0  0.65134  0.92769  0.42482  1.0000
  C   C76       1.0  0.07682  0.72322  0.41127  1.0000
  C   C77       1.0  0.60555  0.86722  0.42150  1.0000
  C   C78       1.0  0.13757  0.73890  0.41038  1.0000
  H   H31       1.0  0.49735  0.88047  0.62239  1.0000
  H   H32       1.0  0.12932  0.62059  0.62125  1.0000
  H   H33       1.0  0.57815  0.98905  0.62451  1.0000
  H   H34       1.0  0.02015  0.59124  0.62028  1.0000
  H   H35       1.0  0.69388  0.94104  0.36491  1.0000
  H   H36       1.0  0.06182  0.75125  0.34865  1.0000
  H   H37       1.0  0.61389  0.83387  0.36296  1.0000
  H   H38       1.0  0.16961  0.78011  0.34988  1.0000
  C   C79       1.0  0.28083  0.83372  0.49922  1.0000
  C   C80       1.0  0.24031  0.84392  0.58914  1.0000
  C   C81       1.0  0.24797  0.90164  0.60517  1.0000
  C   C82       1.0  0.29560  0.95143  0.52761  1.0000
  C   C83       1.0  0.33764  0.94183  0.44127  1.0000
  C   C84       1.0  0.33035  0.88410  0.42810  1.0000
  H   H39       1.0  0.20266  0.80608  0.64742  1.0000
  H   H40       1.0  0.21749  0.90970  0.67883  1.0000
  H   H41       1.0  0.37573  0.97937  0.38233  1.0000
  H   H42       1.0  0.36255  0.87661  0.36089  1.0000
  N   N19       1.0  0.35036  0.32099  0.51837  1.0000
  N   N20       1.0  0.68693  0.03393  0.49544  1.0000
  N   N21       1.0  0.97202  0.65247  0.48293  1.0000
  C   C85       1.0  0.30785  0.26616  0.54367  1.0000
  C   C86       1.0  0.74116  0.04901  0.54559  1.0000
  C   C87       1.0  0.95722  0.69140  0.53271  1.0000
  H   H43       1.0  0.26260  0.25648  0.58124  1.0000
  H   H44       1.0  0.75069  0.01553  0.60354  1.0000
  H   H45       1.0  0.99143  0.73467  0.59041  1.0000
  N   N22       1.0  0.00149  0.29632  0.55552  1.0000
  N   N23       1.0  0.70867  0.70143  0.55695  1.0000
  N   N24       1.0  0.29602  0.00637  0.54660  1.0000
  C   C88       1.0  0.95399  0.28142  0.46332  1.0000
  C   C89       1.0  0.72198  0.66895  0.46268  1.0000
  C   C90       1.0  0.32879  0.05345  0.45922  1.0000
  H   H46       1.0  0.95315  0.30892  0.36051  1.0000
  H   H47       1.0  0.69240  0.64037  0.36034  1.0000
  H   H48       1.0  0.35932  0.05457  0.36404  1.0000
  C   C91       1.0  0.23639  0.88165  0.10386  1.0000
  C   C92       1.0  0.28564  0.93662  0.05638  1.0000
  C  Sn1       1.0  0.34230  0.94380  0.96800  1.0000
  C  Sn2       1.0  0.33957  0.88829  0.92652  1.0000
  C   C93       1.0  0.29008  0.83354  0.97449  1.0000
  C   C94       1.0  0.23365  0.82688  0.06295  1.0000
  H   H49       1.0  0.20038  0.88157  0.17222  1.0000
  O  Te1       1.0  0.39119  0.99912  0.92159  1.0000
  O  Te2       1.0  0.38566  0.88760  0.83821  1.0000
  H   H50       1.0  0.19550  0.78432  0.09960  1.0000
  Mg  Mg1       1.0  0.44289  0.97468  0.80268  1.0000
  C   C95       1.0  0.79760  0.17032  0.41878  1.0000
  C   C96       1.0  0.79174  0.11983  0.50169  1.0000
  C  Sn3       1.0  0.84137  0.12309  0.58772  1.0000
  C  Sn4       1.0  0.89785  0.17800  0.59062  1.0000
  C   C97       1.0  0.90323  0.22828  0.50738  1.0000
  C   C98       1.0  0.85328  0.22451  0.42163  1.0000
  H   H51       1.0  0.75895  0.16742  0.35251  1.0000
  O  Te3       1.0  0.83474  0.07221  0.66984  1.0000
  O  Te4       1.0  0.94818  0.18253  0.67570  1.0000
  H   H52       1.0  0.85782  0.26362  0.35754  1.0000
  Mg  Mg2       1.0  0.91652  0.10078  0.76861  1.0000
  C   C99       1.0  0.62324  0.76958  0.61289  1.0000
  C   C100      1.0  0.56925  0.73659  0.52096  1.0000
  C  Sn5       1.0  0.55626  0.68266  0.44060  1.0000
  C  Sn6       1.0  0.59820  0.66147  0.45277  1.0000
  C   C101      1.0  0.65207  0.69478  0.54513  1.0000
  C   C102      1.0  0.66461  0.74870  0.62500  1.0000
  H   H53       1.0  0.63294  0.81128  0.67476  1.0000
  O  Te5       1.0  0.50212  0.65027  0.34922  1.0000
  O  Te6       1.0  0.58635  0.60769  0.37375  1.0000
  H   H54       1.0  0.70640  0.77421  0.69626  1.0000
  Mg  Mg3       1.0  0.50640  0.57959  0.26374  1.0000
  C   C103      1.0  0.87431  0.73206  0.59998  1.0000
  C   C104      1.0  0.89388  0.69285  0.54434  1.0000
  C  Sn7       1.0  0.85501  0.64162  0.44898  1.0000
  C  Sn8       1.0  0.79547  0.62955  0.40875  1.0000
  C   C105      1.0  0.77633  0.66908  0.46491  1.0000
  C   C106      1.0  0.81559  0.72020  0.56030  1.0000
  H   H55       1.0  0.90469  0.77163  0.67370  1.0000
  O  Te7       1.0  0.87529  0.60290  0.39446  1.0000
  O  Te8       1.0  0.75569  0.57868  0.31359  1.0000
  H   H56       1.0  0.80044  0.75057  0.60327  1.0000
  Mg  Mg4       1.0  0.80431  0.53942  0.26822  1.0000
  C   C107      1.0  0.25006  0.37730  0.91258  1.0000
  C   C108      1.0  0.28093  0.43520  0.98494  1.0000
  C  Sn9       1.0  0.32838  0.45016  0.05843  1.0000
  C  Sn10      1.0  0.35521  0.41293  0.05925  1.0000
  C   C109      1.0  0.33389  0.36166  0.98643  1.0000
  C   C110      1.0  0.27650  0.34056  0.91329  1.0000
  H   H57       1.0  0.20567  0.36099  0.85590  1.0000
  O  Te9       1.0  0.35859  0.50811  0.13022  1.0000
  O  Te10      1.0  0.41250  0.43332  0.13179  1.0000
  H   H58       1.0  0.25263  0.29575  0.85718  1.0000
  Mg  Mg5       1.0  0.43571  0.51563  0.21380  1.0000
  C   C111      1.0  0.07462  0.41953  0.45192  1.0000
  C   C112      1.0  0.05750  0.36154  0.50816  1.0000
  C  Sn11      1.0  0.10070  0.34944  0.57902  1.0000
  C  Sn12      1.0  0.16215  0.39637  0.59371  1.0000
  C   C113      1.0  0.17880  0.45425  0.53717  1.0000
  C   C114      1.0  0.13521  0.46585  0.46642  1.0000
  H   H59       1.0  0.04088  0.42852  0.39726  1.0000
  O  Te11      1.0  0.08283  0.29124  0.63451  1.0000
  O  Te12      1.0  0.20625  0.38554  0.66408  1.0000
  H   H60       1.0  0.14847  0.51077  0.42298  1.0000
  Mg  Mg6       1.0  0.15959  0.29879  0.72144  1.0000
  C   C115      1.0  0.56228  0.93467  0.08829  1.0000
  C   C116      1.0  0.62140  0.96084  0.03162  1.0000
  C  Sn13      1.0  0.65024  0.93204  0.94765  1.0000
  C  Sn14      1.0  0.60911  0.86933  0.92006  1.0000
  C   C117      1.0  0.55005  0.84359  0.97715  1.0000
  C   C118      1.0  0.52167  0.87283  0.06108  1.0000
  H   H61       1.0  0.54798  0.96238  0.15315  1.0000
  O  Te13      1.0  0.70948  0.95890  0.89192  1.0000
  O  Te14      1.0  0.62684  0.83294  0.83644  1.0000
  H   H62       1.0  0.47588  0.85257  0.10485  1.0000
  Mg  Mg7       1.0  0.71229  0.89045  0.78430  1.0000
  C   C119      1.0  0.27387  0.36445  0.40957  1.0000
  C   C120      1.0  0.32390  0.36486  0.48485  1.0000
  C  Sn15      1.0  0.36432  0.41392  0.58479  1.0000
  C  Sn16      1.0  0.35434  0.46340  0.60961  1.0000
  C   C121      1.0  0.30412  0.46253  0.53384  1.0000
  C   C122      1.0  0.26397  0.41322  0.43404  1.0000
  H   H63       1.0  0.24278  0.32628  0.33242  1.0000
  O  Te15      1.0  0.41409  0.41361  0.65902  1.0000
  O  Te16      1.0  0.39401  0.51299  0.70894  1.0000
  H   H64       1.0  0.22521  0.41289  0.37586  1.0000
  Mg  Mg8       1.0  0.45534  0.49157  0.78347  1.0000
  C   C123      1.0  0.85955  0.12348  0.09888  1.0000
  C   C124      1.0  0.79912  0.10378  0.05472  1.0000
  C  Sn17      1.0  0.79377  0.14866  0.97007  1.0000
  C  Sn18      1.0  0.83998  0.20776  0.92900  1.0000
  C   C125      1.0  0.90031  0.22701  0.97363  1.0000
  C   C126      1.0  0.90515  0.18175  0.05837  1.0000
  H   H65       1.0  0.87098  0.09353  0.16437  1.0000
  O  Te17      1.0  0.73317  0.12827  0.92694  1.0000
  O  Te18      1.0  0.82600  0.24697  0.84439  1.0000
  H   H66       1.0  0.95195  0.19699  0.09245  1.0000
  Mg  Mg9       1.0  0.73682  0.19842  0.81245  1.0000
