data_image0
_chemical_formula_structural       C6N6C4H3C2HC18H8C6H4N3C3H3N3C3H3C6N6C4H3C2HC18H8C12H8N3C3H3N3C3H3SnCSn2CSnTe4Mg2SnCSn2CSnTe4Mg2SnCSn2CSnTe4Mg2SnCSn2CSnTe4Mg2SnCSn2CSnTe4Mg2SnCSn2CSnTe4Mg2SnCSn2CSnTe4Mg2SnCSn2CSnTe4Mg2SnCSn2CSnTe4Mg2
_chemical_formula_sum              "C108 N24 H48 Sn36 Te36 Mg18"
_cell_length_a       25.4639
_cell_length_b       25.4672
_cell_length_c       8.13978
_cell_angle_alpha    90.2895
_cell_angle_beta     91.1886
_cell_angle_gamma    119.972

_symmetry_space_group_name_H-M    'P1'
_space_group_IT_number       1

loop_
  _space_group_symop_operation_xyz
  'x, y, z'

loop_
  _atom_site_type_symbol
  _atom_site_label
  _atom_site_symmetry_multiplicity
  _atom_site_fract_x
  _atom_site_fract_y
  _atom_site_fract_z
  _atom_site_occupancy
  C   C1        1.0  0.38814  0.66637  0.97367  1.0000
  C   C2        1.0  0.32746  0.71858  0.96909  1.0000
  C   C3        1.0  0.27521  0.60599  0.96638  1.0000
  C   C4        1.0  0.38569  0.72070  0.97408  1.0000
  C   C5        1.0  0.27300  0.66209  0.96520  1.0000
  C   C6        1.0  0.33186  0.60801  0.97145  1.0000
  N   N1        1.0  0.33417  0.55656  0.97742  1.0000
  N   N2        1.0  0.43667  0.77488  0.98238  1.0000
  N   N3        1.0  0.21913  0.65965  0.96624  1.0000
  N   N4        1.0  0.22321  0.55269  0.97090  1.0000
  N   N5        1.0  0.44189  0.66833  0.98174  1.0000
  N   N6        1.0  0.32618  0.77062  0.97476  1.0000
  C   C7        1.0  0.78086  0.67641  0.99110  1.0000
  C   C8        1.0  0.84896  0.63748  0.93690  1.0000
  C   C9        1.0  0.82793  0.72541  0.08051  1.0000
  C   C10       1.0  0.79237  0.63280  0.91898  1.0000
  H   H1        1.0  0.85838  0.60425  0.88088  1.0000
  H   H2        1.0  0.81848  0.75866  0.13582  1.0000
  H   H3        1.0  0.75663  0.59554  0.84651  1.0000
  C   C11       1.0  0.89619  0.68710  0.02378  1.0000
  C   C12       1.0  0.88482  0.73092  0.09470  1.0000
  H   H4        1.0  0.92134  0.76933  0.16193  1.0000
  C   C13       1.0  0.28275  0.50293  0.98430  1.0000
  C   C14       1.0  0.49052  0.77766  0.99162  1.0000
  C   C15       1.0  0.21701  0.71112  0.97419  1.0000
  C   C16       1.0  0.22514  0.50131  0.98326  1.0000
  C   C17       1.0  0.49312  0.72219  0.99235  1.0000
  C   C18       1.0  0.27279  0.76883  0.97988  1.0000
  C   C19       1.0  0.29368  0.45085  0.99170  1.0000
  C   C20       1.0  0.54206  0.84088  0.99958  1.0000
  C   C21       1.0  0.34994  0.46155  0.05818  1.0000
  C   C22       1.0  0.53348  0.88548  0.07804  1.0000
  C   C23       1.0  0.36561  0.41657  0.05855  1.0000
  C   C24       1.0  0.57842  0.94618  0.08016  1.0000
  C   C25       1.0  0.32499  0.35836  0.99417  1.0000
  C   C26       1.0  0.63428  0.96423  0.00644  1.0000
  C   C27       1.0  0.26866  0.34715  0.92873  1.0000
  C   C28       1.0  0.64297  0.91999  0.92717  1.0000
  C   C29       1.0  0.25352  0.39264  0.92772  1.0000
  C   C30       1.0  0.59738  0.85952  0.92367  1.0000
  H   H5        1.0  0.38127  0.50639  0.10881  1.0000
  H   H6        1.0  0.49052  0.87126  0.13660  1.0000
  H   H7        1.0  0.40879  0.42528  0.11196  1.0000
  H   H8        1.0  0.57194  0.98029  0.14261  1.0000
  H   H9        1.0  0.23783  0.30301  0.87309  1.0000
  H   H10       1.0  0.68480  0.93391  0.86285  1.0000
  H   H11       1.0  0.20980  0.38243  0.87617  1.0000
  H   H12       1.0  0.60475  0.82621  0.86097  1.0000
  C   C31       1.0  0.27884  0.82963  0.99492  1.0000
  C   C32       1.0  0.23810  0.84030  0.08218  1.0000
  C   C33       1.0  0.24675  0.89833  0.09897  1.0000
  C   C34       1.0  0.29611  0.94804  0.02643  1.0000
  C   C35       1.0  0.33845  0.93803  0.94308  1.0000
  C   C36       1.0  0.32992  0.87982  0.92845  1.0000
  H   H13       1.0  0.19968  0.80261  0.13836  1.0000
  H   H14       1.0  0.21578  0.90679  0.16917  1.0000
  H   H15       1.0  0.37801  0.97583  0.88955  1.0000
  H   H16       1.0  0.36239  0.87176  0.86450  1.0000
  N   N7        1.0  0.34215  0.31408  0.98880  1.0000
  N   N8        1.0  0.67887  0.02562  0.00613  1.0000
  N   N9        1.0  0.97044  0.65540  0.99084  1.0000
  C   C37       1.0  0.30498  0.26051  0.04014  1.0000
  C   C38       1.0  0.73388  0.04024  0.04612  1.0000
  C   C39       1.0  0.95727  0.69587  0.03709  1.0000
  H   H17       1.0  0.26303  0.25105  0.10149  1.0000
  H   H18       1.0  0.74452  0.00617  0.09436  1.0000
  H   H19       1.0  0.99253  0.73989  0.08893  1.0000
  N   N10       1.0  0.99363  0.28927  0.04820  1.0000
  N   N11       1.0  0.70885  0.70695  0.05438  1.0000
  N   N12       1.0  0.29847  0.00368  0.04895  1.0000
  C   C40       1.0  0.94335  0.27562  0.97131  1.0000
  C   C41       1.0  0.72182  0.67220  0.96897  1.0000
  C   C42       1.0  0.32719  0.04888  0.95232  1.0000
  H   H20       1.0  0.93821  0.30613  0.88567  1.0000
  H   H21       1.0  0.69081  0.63932  0.87580  1.0000
  H   H22       1.0  0.35223  0.04746  0.84551  1.0000
  C   C43       1.0  0.39519  0.67433  0.48134  1.0000
  C   C44       1.0  0.33339  0.72535  0.47694  1.0000
  C   C45       1.0  0.28279  0.61260  0.48573  1.0000
  C   C46       1.0  0.39232  0.72847  0.47773  1.0000
  C   C47       1.0  0.27952  0.66819  0.48109  1.0000
  C   C48       1.0  0.33979  0.61563  0.48632  1.0000
  N   N13       1.0  0.34357  0.56491  0.49451  1.0000
  N   N14       1.0  0.44358  0.78256  0.47938  1.0000
  N   N15       1.0  0.22506  0.66442  0.48311  1.0000
  N   N16       1.0  0.23152  0.55890  0.49410  1.0000
  N   N17       1.0  0.44891  0.67647  0.48672  1.0000
  N   N18       1.0  0.33045  0.77659  0.47940  1.0000
  C   C49       1.0  0.32485  0.10841  0.48257  1.0000
  C   C50       1.0  0.36641  0.21692  0.44958  1.0000
  C   C51       1.0  0.27438  0.10529  0.55960  1.0000
  C   C52       1.0  0.37045  0.16494  0.42624  1.0000
  H   H23       1.0  0.40145  0.26073  0.40690  1.0000
  H   H24       1.0  0.23950  0.06154  0.60262  1.0000
  H   H25       1.0  0.40918  0.16780  0.36377  1.0000
  C   C53       1.0  0.31551  0.21343  0.52460  1.0000
  C   C54       1.0  0.26939  0.15677  0.57796  1.0000
  H   H26       1.0  0.22977  0.15372  0.63575  1.0000
  C   C55       1.0  0.29275  0.51100  0.50176  1.0000
  C   C56       1.0  0.49773  0.78554  0.48735  1.0000
  C   C57       1.0  0.22130  0.71508  0.48485  1.0000
  C   C58       1.0  0.23447  0.50788  0.50263  1.0000
  C   C59       1.0  0.50040  0.73008  0.49139  1.0000
  C   C60       1.0  0.27638  0.77347  0.48623  1.0000
  C   C61       1.0  0.30449  0.45944  0.50928  1.0000
  C   C62       1.0  0.15772  0.70260  0.48652  1.0000
  C   C63       1.0  0.35465  0.46635  0.60385  1.0000
  C   C64       1.0  0.11405  0.64887  0.56128  1.0000
  C   C65       1.0  0.36992  0.42097  0.60756  1.0000
  C   C66       1.0  0.05308  0.63219  0.55969  1.0000
  C   C67       1.0  0.33475  0.36651  0.51793  1.0000
  C   C68       1.0  0.03360  0.66969  0.48633  1.0000
  C   C69       1.0  0.28512  0.35970  0.42179  1.0000
  C   C70       1.0  0.07682  0.72322  0.41127  1.0000
  C   C71       1.0  0.27074  0.40560  0.41756  1.0000
  C   C72       1.0  0.13757  0.73890  0.41038  1.0000
  H   H27       1.0  0.38138  0.50803  0.67522  1.0000
  H   H28       1.0  0.12932  0.62059  0.62125  1.0000
  H   H29       1.0  0.40797  0.42635  0.68351  1.0000
  H   H30       1.0  0.02015  0.59124  0.62028  1.0000
  H   H31       1.0  0.25953  0.31928  0.34484  1.0000
  H   H32       1.0  0.06182  0.75125  0.34865  1.0000
  H   H33       1.0  0.23247  0.39903  0.34151  1.0000
  H   H34       1.0  0.16961  0.78011  0.34988  1.0000
  C   C73       1.0  0.17437  0.45235  0.51392  1.0000
  C   C74       1.0  0.28083  0.83372  0.49922  1.0000
  C   C75       1.0  0.16560  0.39942  0.59042  1.0000
  C   C76       1.0  0.24031  0.84392  0.58914  1.0000
  C   C77       1.0  0.10801  0.34941  0.60314  1.0000
  C   C78       1.0  0.24797  0.90164  0.60517  1.0000
  C   C79       1.0  0.05678  0.34963  0.53579  1.0000
  C   C80       1.0  0.29560  0.95143  0.52761  1.0000
  C   C81       1.0  0.06506  0.40305  0.46123  1.0000
  C   C82       1.0  0.33764  0.94183  0.44127  1.0000
  C   C83       1.0  0.12271  0.45346  0.45192  1.0000
  C   C84       1.0  0.33035  0.88410  0.42810  1.0000
  H   H35       1.0  0.20428  0.39783  0.64219  1.0000
  H   H36       1.0  0.20266  0.80608  0.64742  1.0000
  H   H37       1.0  0.10097  0.30903  0.66679  1.0000
  H   H38       1.0  0.21749  0.90970  0.67883  1.0000
  H   H39       1.0  0.02622  0.40507  0.41072  1.0000
  H   H40       1.0  0.37573  0.97937  0.38233  1.0000
  H   H41       1.0  0.12930  0.49496  0.39593  1.0000
  H   H42       1.0  0.36255  0.87661  0.36089  1.0000
  N   N19       1.0  0.35036  0.32099  0.51837  1.0000
  N   N20       1.0  0.68693  0.03393  0.49544  1.0000
  N   N21       1.0  0.97202  0.65247  0.48293  1.0000
  C   C85       1.0  0.30785  0.26616  0.54367  1.0000
  C   C86       1.0  0.74116  0.04901  0.54559  1.0000
  C   C87       1.0  0.95722  0.69140  0.53271  1.0000
  H   H43       1.0  0.26260  0.25648  0.58124  1.0000
  H   H44       1.0  0.75069  0.01553  0.60354  1.0000
  H   H45       1.0  0.99143  0.73467  0.59041  1.0000
  N   N22       1.0  0.00149  0.29632  0.55552  1.0000
  N   N23       1.0  0.70867  0.70143  0.55695  1.0000
  N   N24       1.0  0.29602  0.00637  0.54660  1.0000
  C   C88       1.0  0.95399  0.28142  0.46332  1.0000
  C   C89       1.0  0.72198  0.66895  0.46268  1.0000
  C   C90       1.0  0.32879  0.05345  0.45922  1.0000
  H   H46       1.0  0.95315  0.30892  0.36051  1.0000
  H   H47       1.0  0.69240  0.64037  0.36034  1.0000
  H   H48       1.0  0.35932  0.05457  0.36404  1.0000
  C  Sn1       1.0  0.14779  0.37875  0.07585  1.0000
  C   C91       1.0  0.17454  0.43722  0.98349  1.0000
  C  Sn2       1.0  0.13057  0.44983  0.92120  1.0000
  C  Sn3       1.0  0.06846  0.40975  0.95194  1.0000
  C   C92       1.0  0.04174  0.35133  0.04428  1.0000
  C  Sn4       1.0  0.08568  0.33868  0.10660  1.0000
  O  Te1       1.0  0.19251  0.36705  0.13693  1.0000
  O  Te2       1.0  0.14851  0.50198  0.82915  1.0000
  O  Te3       1.0  0.02373  0.42150  0.89077  1.0000
  O  Te4       1.0  0.06776  0.28656  0.19862  1.0000
  Mg  Mg1       1.0  0.07076  0.49832  0.77232  1.0000
  Mg  Mg2       1.0  0.14547  0.29019  0.25558  1.0000
  C  Sn5       1.0  0.54090  0.91031  0.52881  1.0000
  C   C93       1.0  0.54311  0.86034  0.46568  1.0000
  C  Sn6       1.0  0.59862  0.86534  0.42718  1.0000
  C  Sn7       1.0  0.65306  0.92144  0.45240  1.0000
  C   C94       1.0  0.65084  0.97137  0.51552  1.0000
  C  Sn8       1.0  0.59535  0.96642  0.55403  1.0000
  O  Te5       1.0  0.48491  0.90428  0.56644  1.0000
  O  Te6       1.0  0.59968  0.81475  0.36416  1.0000
  O  Te7       1.0  0.70908  0.92744  0.41470  1.0000
  O  Te8       1.0  0.09463  0.01696  0.61704  1.0000
  Mg  Mg3       1.0  0.68709  0.84558  0.33185  1.0000
  Mg  Mg4       1.0  0.50690  0.98617  0.64947  1.0000
  C  Sn9       1.0  0.79745  0.61610  0.44905  1.0000
  C   C95       1.0  0.77863  0.65539  0.50901  1.0000
  C  Sn10      1.0  0.82123  0.71349  0.56619  1.0000
  C  Sn11      1.0  0.88396  0.73275  0.56329  1.0000
  C   C96       1.0  0.90276  0.69348  0.50334  1.0000
  C  Sn12      1.0  0.86019  0.63536  0.44615  1.0000
  O  Te9       1.0  0.75407  0.55821  0.39250  1.0000
  O  Te10      1.0  0.80131  0.75195  0.62561  1.0000
  O  Te11      1.0  0.92734  0.79069  0.61991  1.0000
  O  Te12      1.0  0.88008  0.59692  0.38674  1.0000
  Mg  Mg5       1.0  0.87779  0.82653  0.68913  1.0000
  Mg  Mg6       1.0  0.80364  0.52235  0.32311  1.0000
  C  Sn13      1.0  0.88888  0.15140  0.04425  1.0000
  C   C97       1.0  0.90202  0.20909  0.97179  1.0000
  C  Sn14      1.0  0.84929  0.21174  0.93978  1.0000
  C  Sn15      1.0  0.79213  0.16226  0.98114  1.0000
  C   C98       1.0  0.77901  0.10460  0.05357  1.0000
  C  Sn16      1.0  0.83172  0.10192  0.08561  1.0000
  O  Te13      1.0  0.94218  0.14974  0.07514  1.0000
  O  Te14      1.0  0.85366  0.26333  0.86720  1.0000
  O  Te15      1.0  0.73881  0.16395  0.95017  1.0000
  O  Te16      1.0  0.82737  0.05037  0.15817  1.0000
  Mg  Mg7       1.0  0.76819  0.24414  0.84949  1.0000
  Mg  Mg8       1.0  0.91280  0.06952  0.17601  1.0000
  C  Sn17      1.0  0.82559  0.20652  0.45099  1.0000
  C   C99       1.0  0.88443  0.22652  0.51173  1.0000
  C  Sn18      1.0  0.90025  0.18523  0.57480  1.0000
  C  Sn19      1.0  0.85634  0.12264  0.57714  1.0000
  C   C100      1.0  0.79755  0.10267  0.51640  1.0000
  C  Sn20      1.0  0.78169  0.14393  0.45332  1.0000
  O  Te17      1.0  0.81079  0.24860  0.38850  1.0000
  O  Te18      1.0  0.95935  0.20631  0.63489  1.0000
  O  Te19      1.0  0.87120  0.08056  0.63970  1.0000
  O  Te20      1.0  0.72263  0.12288  0.39324  1.0000
  Mg  Mg9       1.0  0.95761  0.13138  0.70744  1.0000
  Mg  Mg10      1.0  0.72433  0.19776  0.32058  1.0000
  C  Sn21      1.0  0.28320  0.14624  0.14056  1.0000
  C   C101      1.0  0.31746  0.20293  0.06926  1.0000
  C  Sn22      1.0  0.36371  0.21640  0.93565  1.0000
  C  Sn23      1.0  0.36583  0.16558  0.87188  1.0000
  C   C102      1.0  0.33158  0.10894  0.94314  1.0000
  C  Sn24      1.0  0.28532  0.09542  0.07679  1.0000
  O  Te21      1.0  0.24718  0.14039  0.27404  1.0000
  O  Te22      1.0  0.39757  0.27353  0.86647  1.0000
  O  Te23      1.0  0.40189  0.17148  0.73829  1.0000
  O  Te24      1.0  0.25147  0.03834  0.14593  1.0000
  Mg  Mg11      1.0  0.43974  0.25856  0.68622  1.0000
  Mg  Mg12      1.0  0.20926  0.05324  0.32613  1.0000
  C  Sn25      1.0  0.12642  0.74772  0.94198  1.0000
  C   C103      1.0  0.14289  0.70884  0.00730  1.0000
  C  Sn26      1.0  0.10662  0.64864  0.05361  1.0000
  C  Sn27      1.0  0.04266  0.62012  0.03415  1.0000
  C   C104      1.0  0.02623  0.65899  0.96884  1.0000
  C  Sn28      1.0  0.06246  0.71921  0.92252  1.0000
  O  Te25      1.0  0.16355  0.80787  0.89651  1.0000
  O  Te26      1.0  0.13403  0.61726  0.11867  1.0000
  O  Te27      1.0  0.00553  0.55993  0.07969  1.0000
  O  Te28      1.0  0.03508  0.75057  0.85747  1.0000
  Mg  Mg13      1.0  0.06419  0.53615  0.16243  1.0000
  Mg  Mg14      1.0  0.10487  0.83167  0.81359  1.0000
  C  Sn29      1.0  0.64218  0.75247  0.65409  1.0000
  C   C105      1.0  0.64721  0.70407  0.59103  1.0000
  C  Sn30      1.0  0.60680  0.66604  0.46801  1.0000
  C  Sn31      1.0  0.56042  0.67661  0.40667  1.0000
  C   C106      1.0  0.55541  0.72498  0.46970  1.0000
  C  Sn32      1.0  0.59579  0.76304  0.59275  1.0000
  O  Te29      1.0  0.68308  0.78992  0.77703  1.0000
  O  Te30      1.0  0.61273  0.61793  0.40693  1.0000
  O  Te31      1.0  0.51951  0.63911  0.28363  1.0000
  O  Te32      1.0  0.58989  0.81112  0.65380  1.0000
  Mg  Mg15      1.0  0.54608  0.57953  0.23979  1.0000
  Mg  Mg16      1.0  0.65653  0.84957  0.82087  1.0000
  C  Sn33      1.0  0.61962  0.77234  0.06812  1.0000
  C   C107      1.0  0.57439  0.74027  0.98675  1.0000
  C  Sn34      1.0  0.56016  0.68180  0.93858  1.0000
  C  Sn35      1.0  0.60191  0.66151  0.97253  1.0000
  C   C108      1.0  0.64710  0.69356  0.05387  1.0000
  C  Sn36      1.0  0.66137  0.75205  0.10207  1.0000
  O  Te33      1.0  0.63290  0.83060  0.11515  1.0000
  O  Te34      1.0  0.50476  0.64401  0.85734  1.0000
  O  Te35      1.0  0.58859  0.60319  0.92541  1.0000
  O  Te36      1.0  0.71673  0.78982  0.18328  1.0000
  Mg  Mg17      1.0  0.50733  0.56856  0.81797  1.0000
  Mg  Mg18      1.0  0.71419  0.86527  0.22278  1.0000
