data_image0
_chemical_formula_structural       C6N6C6N3C3H3N3C3H3C6N6C6N3C3H3N3C3H3SnCSn2CSnTe4Mg2SnCSn2CSnTe4Mg2SnCSn2CSnTe4Mg2SnCSn2CSnTe4Mg2SnCSn2CSnTe4Mg2SnCSn2CSnTe4Mg2SnCSn2CSnTe4Mg2SnCSn2CSnTe4Mg2SnCSn2CSnTe4Mg2SnCSn2CSnTe4Mg2SnCSn2CSnTe4Mg2SnCSn2CSnTe4Mg2SnCSn2CSnTe4Mg2SnCSn2CSnTe4Mg2SnCSn2CSnTe4Mg2SnCSn2CSnTe4Mg2SnCSn2CSnTe4Mg2SnCSn2CSnTe4Mg2
_chemical_formula_sum              "C72 N24 H12 Sn72 Te72 Mg36"
_cell_length_a       25.4639
_cell_length_b       25.4672
_cell_length_c       8.13978
_cell_angle_alpha    90.2895
_cell_angle_beta     91.1886
_cell_angle_gamma    119.972

_symmetry_space_group_name_H-M    'P1'
_space_group_IT_number       1

loop_
  _space_group_symop_operation_xyz
  'x, y, z'

loop_
  _atom_site_type_symbol
  _atom_site_label
  _atom_site_symmetry_multiplicity
  _atom_site_fract_x
  _atom_site_fract_y
  _atom_site_fract_z
  _atom_site_occupancy
  C   C1        1.0  0.38814  0.66637  0.97367  1.0000
  C   C2        1.0  0.32746  0.71858  0.96909  1.0000
  C   C3        1.0  0.27521  0.60599  0.96638  1.0000
  C   C4        1.0  0.38569  0.72070  0.97408  1.0000
  C   C5        1.0  0.27300  0.66209  0.96520  1.0000
  C   C6        1.0  0.33186  0.60801  0.97145  1.0000
  N   N1        1.0  0.33417  0.55656  0.97742  1.0000
  N   N2        1.0  0.43667  0.77488  0.98238  1.0000
  N   N3        1.0  0.21913  0.65965  0.96624  1.0000
  N   N4        1.0  0.22321  0.55269  0.97090  1.0000
  N   N5        1.0  0.44189  0.66833  0.98174  1.0000
  N   N6        1.0  0.32618  0.77062  0.97476  1.0000
  C   C7        1.0  0.28275  0.50293  0.98430  1.0000
  C   C8        1.0  0.49052  0.77766  0.99162  1.0000
  C   C9        1.0  0.21701  0.71112  0.97419  1.0000
  C   C10       1.0  0.22514  0.50131  0.98326  1.0000
  C   C11       1.0  0.49312  0.72219  0.99235  1.0000
  C   C12       1.0  0.27279  0.76883  0.97988  1.0000
  N   N7        1.0  0.34215  0.31408  0.98880  1.0000
  N   N8        1.0  0.67887  0.02562  0.00613  1.0000
  N   N9        1.0  0.97044  0.65540  0.99084  1.0000
  C   C13       1.0  0.30498  0.26051  0.04014  1.0000
  C   C14       1.0  0.73388  0.04024  0.04612  1.0000
  C   C15       1.0  0.95727  0.69587  0.03709  1.0000
  H   H1        1.0  0.26303  0.25105  0.10149  1.0000
  H   H2        1.0  0.74452  0.00617  0.09436  1.0000
  H   H3        1.0  0.99253  0.73989  0.08893  1.0000
  N   N10       1.0  0.99363  0.28927  0.04820  1.0000
  N   N11       1.0  0.70885  0.70695  0.05438  1.0000
  N   N12       1.0  0.29847  0.00368  0.04895  1.0000
  C   C16       1.0  0.94335  0.27562  0.97131  1.0000
  C   C17       1.0  0.72182  0.67220  0.96897  1.0000
  C   C18       1.0  0.32719  0.04888  0.95232  1.0000
  H   H4        1.0  0.93821  0.30613  0.88567  1.0000
  H   H5        1.0  0.69081  0.63932  0.87580  1.0000
  H   H6        1.0  0.35223  0.04746  0.84551  1.0000
  C   C19       1.0  0.39519  0.67433  0.48134  1.0000
  C   C20       1.0  0.33339  0.72535  0.47694  1.0000
  C   C21       1.0  0.28279  0.61260  0.48573  1.0000
  C   C22       1.0  0.39232  0.72847  0.47773  1.0000
  C   C23       1.0  0.27952  0.66819  0.48109  1.0000
  C   C24       1.0  0.33979  0.61563  0.48632  1.0000
  N   N13       1.0  0.34357  0.56491  0.49451  1.0000
  N   N14       1.0  0.44358  0.78256  0.47938  1.0000
  N   N15       1.0  0.22506  0.66442  0.48311  1.0000
  N   N16       1.0  0.23152  0.55890  0.49410  1.0000
  N   N17       1.0  0.44891  0.67647  0.48672  1.0000
  N   N18       1.0  0.33045  0.77659  0.47940  1.0000
  C   C25       1.0  0.29275  0.51100  0.50176  1.0000
  C   C26       1.0  0.49773  0.78554  0.48735  1.0000
  C   C27       1.0  0.22130  0.71508  0.48485  1.0000
  C   C28       1.0  0.23447  0.50788  0.50263  1.0000
  C   C29       1.0  0.50040  0.73008  0.49139  1.0000
  C   C30       1.0  0.27638  0.77347  0.48623  1.0000
  N   N19       1.0  0.35036  0.32099  0.51837  1.0000
  N   N20       1.0  0.68693  0.03393  0.49544  1.0000
  N   N21       1.0  0.97202  0.65247  0.48293  1.0000
  C   C31       1.0  0.30785  0.26616  0.54367  1.0000
  C   C32       1.0  0.74116  0.04901  0.54559  1.0000
  C   C33       1.0  0.95722  0.69140  0.53271  1.0000
  H   H7        1.0  0.26260  0.25648  0.58124  1.0000
  H   H8        1.0  0.75069  0.01553  0.60354  1.0000
  H   H9        1.0  0.99143  0.73467  0.59041  1.0000
  N   N22       1.0  0.00149  0.29632  0.55552  1.0000
  N   N23       1.0  0.70867  0.70143  0.55695  1.0000
  N   N24       1.0  0.29602  0.00637  0.54660  1.0000
  C   C34       1.0  0.95399  0.28142  0.46332  1.0000
  C   C35       1.0  0.72198  0.66895  0.46268  1.0000
  C   C36       1.0  0.32879  0.05345  0.45922  1.0000
  H   H10       1.0  0.95315  0.30892  0.36051  1.0000
  H   H11       1.0  0.69240  0.64037  0.36034  1.0000
  H   H12       1.0  0.35932  0.05457  0.36404  1.0000
  C  Sn1       1.0  0.84106  0.64268  0.88493  1.0000
  C   C37       1.0  0.89150  0.68664  0.97467  1.0000
  C  Sn2       1.0  0.87531  0.71765  0.08860  1.0000
  C  Sn3       1.0  0.81738  0.71111  0.11344  1.0000
  C   C38       1.0  0.76698  0.66716  0.02376  1.0000
  C  Sn4       1.0  0.78313  0.63615  0.90977  1.0000
  O  Te1       1.0  0.84840  0.60562  0.77168  1.0000
  O  Te2       1.0  0.92641  0.76128  0.17682  1.0000
  O  Te3       1.0  0.81008  0.74822  0.22680  1.0000
  O  Te4       1.0  0.73207  0.59252  0.82161  1.0000
  Mg  Mg1       1.0  0.89328  0.80097  0.31729  1.0000
  Mg  Mg2       1.0  0.76514  0.55280  0.68118  1.0000
  C  Sn5       1.0  0.28320  0.14624  0.14056  1.0000
  C   C39       1.0  0.31746  0.20293  0.06926  1.0000
  C  Sn6       1.0  0.36371  0.21640  0.93565  1.0000
  C  Sn7       1.0  0.36583  0.16558  0.87188  1.0000
  C   C40       1.0  0.33158  0.10894  0.94314  1.0000
  C  Sn8       1.0  0.28532  0.09542  0.07679  1.0000
  O  Te5       1.0  0.24718  0.14039  0.27404  1.0000
  O  Te6       1.0  0.39757  0.27353  0.86647  1.0000
  O  Te7       1.0  0.40189  0.17148  0.73829  1.0000
  O  Te8       1.0  0.25147  0.03834  0.14593  1.0000
  Mg  Mg3       1.0  0.43974  0.25856  0.68622  1.0000
  Mg  Mg4       1.0  0.20926  0.05324  0.32613  1.0000
  C  Sn9       1.0  0.88888  0.15140  0.04425  1.0000
  C   C41       1.0  0.90202  0.20909  0.97179  1.0000
  C  Sn10      1.0  0.84929  0.21174  0.93978  1.0000
  C  Sn11      1.0  0.79213  0.16226  0.98114  1.0000
  C   C42       1.0  0.77901  0.10460  0.05357  1.0000
  C  Sn12      1.0  0.83172  0.10192  0.08561  1.0000
  O  Te9       1.0  0.94218  0.14974  0.07514  1.0000
  O  Te10      1.0  0.85366  0.26333  0.86720  1.0000
  O  Te11      1.0  0.73881  0.16395  0.95017  1.0000
  O  Te12      1.0  0.82737  0.05037  0.15817  1.0000
  Mg  Mg5       1.0  0.76819  0.24414  0.84949  1.0000
  Mg  Mg6       1.0  0.91280  0.06952  0.17601  1.0000
  C  Sn13      1.0  0.36468  0.46006  0.01947  1.0000
  C   C43       1.0  0.32079  0.46292  0.96137  1.0000
  C  Sn14      1.0  0.26919  0.40651  0.93006  1.0000
  C  Sn15      1.0  0.27139  0.35269  0.95748  1.0000
  C   C44       1.0  0.31526  0.34984  0.01557  1.0000
  C  Sn16      1.0  0.36688  0.40623  0.04690  1.0000
  O  Te13      1.0  0.41571  0.51693  0.04995  1.0000
  O  Te14      1.0  0.21592  0.40396  0.87197  1.0000
  O  Te15      1.0  0.22030  0.29579  0.92695  1.0000
  O  Te16      1.0  0.42012  0.40880  0.10498  1.0000
  Mg  Mg7       1.0  0.15836  0.31581  0.84880  1.0000
  Mg  Mg8       1.0  0.47770  0.49691  0.12826  1.0000
  C  Sn17      1.0  0.57312  0.93172  0.12819  1.0000
  C   C45       1.0  0.62977  0.95776  0.05565  1.0000
  C  Sn18      1.0  0.65152  0.93215  0.93665  1.0000
  C  Sn19      1.0  0.60577  0.87272  0.88908  1.0000
  C   C46       1.0  0.54915  0.84672  0.96158  1.0000
  C  Sn20      1.0  0.52736  0.87229  0.08061  1.0000
  O  Te17      1.0  0.56228  0.96472  0.24689  1.0000
  O  Te18      1.0  0.70852  0.95913  0.86592  1.0000
  O  Te19      1.0  0.61665  0.83973  0.77028  1.0000
  O  Te20      1.0  0.47041  0.84534  0.15131  1.0000
  Mg  Mg9       1.0  0.70142  0.89598  0.70951  1.0000
  Mg  Mg10      1.0  0.47745  0.90847  0.30765  1.0000
  C  Sn21      1.0  0.12642  0.74772  0.94198  1.0000
  C   C47       1.0  0.14289  0.70884  0.00730  1.0000
  C  Sn22      1.0  0.10662  0.64864  0.05361  1.0000
  C  Sn23      1.0  0.04266  0.62012  0.03415  1.0000
  C   C48       1.0  0.02623  0.65899  0.96884  1.0000
  C  Sn24      1.0  0.06246  0.71921  0.92252  1.0000
  O  Te21      1.0  0.16355  0.80787  0.89651  1.0000
  O  Te22      1.0  0.13403  0.61726  0.11867  1.0000
  O  Te23      1.0  0.00553  0.55993  0.07969  1.0000
  O  Te24      1.0  0.03508  0.75057  0.85747  1.0000
  Mg  Mg11      1.0  0.06419  0.53615  0.16243  1.0000
  Mg  Mg12      1.0  0.10487  0.83167  0.81359  1.0000
  C  Sn25      1.0  0.07062  0.39762  0.88017  1.0000
  C   C49       1.0  0.05345  0.34646  0.97608  1.0000
  C  Sn26      1.0  0.08162  0.34105  0.10379  1.0000
  C  Sn27      1.0  0.13802  0.39445  0.13640  1.0000
  C   C50       1.0  0.15516  0.44556  0.04055  1.0000
  C  Sn28      1.0  0.12702  0.45102  0.91278  1.0000
  O  Te25      1.0  0.03183  0.39545  0.75313  1.0000
  O  Te26      1.0  0.06349  0.28934  0.19796  1.0000
  O  Te27      1.0  0.17681  0.39658  0.26357  1.0000
  O  Te28      1.0  0.14512  0.50269  0.81867  1.0000
  Mg  Mg13      1.0  0.13199  0.31461  0.35754  1.0000
  Mg  Mg14      1.0  0.07665  0.47749  0.65913  1.0000
  C  Sn29      1.0  0.61962  0.77234  0.06812  1.0000
  C   C51       1.0  0.57439  0.74027  0.98675  1.0000
  C  Sn30      1.0  0.56016  0.68180  0.93858  1.0000
  C  Sn31      1.0  0.60191  0.66151  0.97253  1.0000
  C   C52       1.0  0.64710  0.69356  0.05387  1.0000
  C  Sn32      1.0  0.66137  0.75205  0.10207  1.0000
  O  Te29      1.0  0.63290  0.83060  0.11515  1.0000
  O  Te30      1.0  0.50476  0.64401  0.85734  1.0000
  O  Te31      1.0  0.58859  0.60319  0.92541  1.0000
  O  Te32      1.0  0.71673  0.78982  0.18328  1.0000
  Mg  Mg15      1.0  0.50733  0.56856  0.81797  1.0000
  Mg  Mg16      1.0  0.71419  0.86527  0.22278  1.0000
  C  Sn33      1.0  0.22651  0.84866  0.05012  1.0000
  C   C53       1.0  0.27311  0.83692  0.97182  1.0000
  C  Sn34      1.0  0.33244  0.87951  0.93188  1.0000
  C  Sn35      1.0  0.35560  0.94170  0.97110  1.0000
  C   C54       1.0  0.30902  0.95341  0.04938  1.0000
  C  Sn36      1.0  0.24968  0.91085  0.08935  1.0000
  O  Te33      1.0  0.16734  0.80530  0.08891  1.0000
  O  Te34      1.0  0.36825  0.86012  0.85356  1.0000
  O  Te35      1.0  0.41483  0.98506  0.93223  1.0000
  O  Te36      1.0  0.21389  0.93021  0.16764  1.0000
  Mg  Mg17      1.0  0.44596  0.93635  0.82589  1.0000
  Mg  Mg18      1.0  0.13618  0.85403  0.19544  1.0000
  C  Sn37      1.0  0.79745  0.61610  0.44905  1.0000
  C   C55       1.0  0.77863  0.65539  0.50901  1.0000
  C  Sn38      1.0  0.82123  0.71349  0.56619  1.0000
  C  Sn39      1.0  0.88396  0.73275  0.56329  1.0000
  C   C56       1.0  0.90276  0.69348  0.50334  1.0000
  C  Sn40      1.0  0.86019  0.63536  0.44615  1.0000
  O  Te37      1.0  0.75407  0.55821  0.39250  1.0000
  O  Te38      1.0  0.80131  0.75195  0.62561  1.0000
  O  Te39      1.0  0.92734  0.79069  0.61991  1.0000
  O  Te40      1.0  0.88008  0.59692  0.38674  1.0000
  Mg  Mg19      1.0  0.87779  0.82653  0.68913  1.0000
  Mg  Mg20      1.0  0.80364  0.52235  0.32311  1.0000
  C  Sn41      1.0  0.26076  0.11032  0.52414  1.0000
  C   C57       1.0  0.30884  0.10623  0.45807  1.0000
  C  Sn42      1.0  0.36478  0.15846  0.43581  1.0000
  C  Sn43      1.0  0.37285  0.21598  0.48060  1.0000
  C   C58       1.0  0.32480  0.22005  0.54665  1.0000
  C  Sn44      1.0  0.26883  0.16784  0.56893  1.0000
  O  Te41      1.0  0.20523  0.05751  0.54532  1.0000
  O  Te42      1.0  0.41217  0.15323  0.36948  1.0000
  O  Te43      1.0  0.42844  0.26881  0.45936  1.0000
  O  Te44      1.0  0.22147  0.17305  0.63524  1.0000
  Mg  Mg21      1.0  0.47927  0.23829  0.36437  1.0000
  Mg  Mg22      1.0  0.15436  0.08801  0.64048  1.0000
  C  Sn45      1.0  0.85775  0.14051  0.64933  1.0000
  C   C59       1.0  0.80010  0.11865  0.57730  1.0000
  C  Sn46      1.0  0.79164  0.14842  0.44451  1.0000
  C  Sn47      1.0  0.84186  0.20112  0.38234  1.0000
  C   C60       1.0  0.89947  0.22295  0.45433  1.0000
  C  Sn48      1.0  0.90797  0.19322  0.58716  1.0000
  O  Te45      1.0  0.86515  0.11002  0.78196  1.0000
  O  Te46      1.0  0.73358  0.12572  0.37457  1.0000
  O  Te47      1.0  0.83441  0.23161  0.24959  1.0000
  O  Te48      1.0  0.96599  0.21589  0.65706  1.0000
  Mg  Mg23      1.0  0.74651  0.18313  0.19597  1.0000
  Mg  Mg24      1.0  0.95311  0.15850  0.83560  1.0000
  C  Sn49      1.0  0.28942  0.37458  0.37528  1.0000
  C   C61       1.0  0.33617  0.37345  0.46529  1.0000
  C  Sn50      1.0  0.36535  0.41423  0.59623  1.0000
  C  Sn51      1.0  0.34741  0.45700  0.63815  1.0000
  C   C62       1.0  0.30068  0.45810  0.54818  1.0000
  C  Sn52      1.0  0.27148  0.41735  0.41720  1.0000
  O  Te49      1.0  0.26088  0.33339  0.24487  1.0000
  O  Te50      1.0  0.41198  0.41224  0.68438  1.0000
  O  Te51      1.0  0.37599  0.49820  0.76868  1.0000
  O  Te52      1.0  0.22486  0.41931  0.32910  1.0000
  Mg  Mg25      1.0  0.43703  0.47768  0.85179  1.0000
  Mg  Mg26      1.0  0.19977  0.35388  0.16173  1.0000
  C  Sn53      1.0  0.54090  0.91031  0.52881  1.0000
  C   C63       1.0  0.54311  0.86034  0.46568  1.0000
  C  Sn54      1.0  0.59862  0.86534  0.42718  1.0000
  C  Sn55      1.0  0.65306  0.92144  0.45240  1.0000
  C   C64       1.0  0.65084  0.97137  0.51552  1.0000
  C  Sn56      1.0  0.59535  0.96642  0.55403  1.0000
  O  Te53      1.0  0.48491  0.90428  0.56644  1.0000
  O  Te54      1.0  0.59968  0.81475  0.36416  1.0000
  O  Te55      1.0  0.70908  0.92744  0.41470  1.0000
  O  Te56      1.0  0.09463  0.01696  0.61704  1.0000
  Mg  Mg27      1.0  0.68709  0.84558  0.33185  1.0000
  Mg  Mg28      1.0  0.50690  0.98617  0.64947  1.0000
  C  Sn57      1.0  0.06788  0.64144  0.60867  1.0000
  C   C65       1.0  0.04028  0.67131  0.53507  1.0000
  C  Sn58      1.0  0.07089  0.71582  0.41850  1.0000
  C  Sn59      1.0  0.13031  0.73076  0.37449  1.0000
  C   C66       1.0  0.15788  0.70089  0.44804  1.0000
  C  Sn60      1.0  0.12731  0.65638  0.56465  1.0000
  O  Te57      1.0  0.03644  0.59710  0.72489  1.0000
  O  Te58      1.0  0.04236  0.74507  0.34665  1.0000
  O  Te59      1.0  0.16175  0.77514  0.25816  1.0000
  O  Te60      1.0  0.15580  0.62713  0.63646  1.0000
  Mg  Mg29      1.0  0.10374  0.80225  0.19460  1.0000
  Mg  Mg30      1.0  0.09446  0.56992  0.78846  1.0000
  C  Sn61      1.0  0.10642  0.45117  0.49146  1.0000
  C   C67       1.0  0.16148  0.45734  0.54775  1.0000
  C  Sn62      1.0  0.16554  0.40624  0.58839  1.0000
  C  Sn63      1.0  0.11348  0.34773  0.57234  1.0000
  C   C68       1.0  0.05846  0.34158  0.51606  1.0000
  C  Sn64      1.0  0.05436  0.39267  0.47542  1.0000
  O  Te61      1.0  0.10341  0.50289  0.45154  1.0000
  O  Te62      1.0  0.22108  0.41355  0.64445  1.0000
  O  Te63      1.0  0.11653  0.29600  0.61233  1.0000
  O  Te64      1.0  0.99887  0.38537  0.41936  1.0000
  Mg  Mg31      1.0  0.20233  0.32932  0.68331  1.0000
  Mg  Mg32      1.0  0.01757  0.46957  0.38039  1.0000
  C  Sn65      1.0  0.55407  0.65614  0.47738  1.0000
  C   C69       1.0  0.54965  0.70535  0.53665  1.0000
  C  Sn66      1.0  0.60168  0.75888  0.58736  1.0000
  C  Sn67      1.0  0.65934  0.76334  0.57857  1.0000
  C   C70       1.0  0.66374  0.71416  0.51930  1.0000
  C  Sn68      1.0  0.61173  0.66060  0.46858  1.0000
  O  Te65      1.0  0.50145  0.60306  0.42734  1.0000
  O  Te66      1.0  0.59611  0.80746  0.64622  1.0000
  O  Te67      1.0  0.71197  0.81647  0.62867  1.0000
  O  Te68      1.0  0.61728  0.61204  0.40973  1.0000
  Mg  Mg33      1.0  0.68102  0.87021  0.69976  1.0000
  Mg  Mg34      1.0  0.53241  0.54929  0.35608  1.0000
  C  Sn69      1.0  0.25275  0.89040  0.64943  1.0000
  C   C71       1.0  0.29803  0.94419  0.58308  1.0000
  C  Sn70      1.0  0.33349  0.94256  0.45667  1.0000
  C  Sn71      1.0  0.32346  0.88597  0.39521  1.0000
  C   C72       1.0  0.27819  0.83222  0.46153  1.0000
  C  Sn72      1.0  0.24272  0.83381  0.58797  1.0000
  O  Te69      1.0  0.21784  0.89311  0.77573  1.0000
  O  Te70      1.0  0.37850  0.99694  0.39234  1.0000
  O  Te71      1.0  0.35841  0.88330  0.26881  1.0000
  O  Te72      1.0  0.19772  0.77947  0.65226  1.0000
  Mg  Mg35      1.0  0.41422  0.96970  0.22130  1.0000
  Mg  Mg36      1.0  0.16196  0.80665  0.82324  1.0000
