data_image0
_chemical_formula_structural       C9NC3H7OHC5NC3H5OHC4NC3H3OHC9NC3H7OHCNC3HOHC8NC3H7OHC5NC3H5OHNC3HOHC6NC3H5OHCNC3HOHNC3HOHC6NC3H5OHSnCSn2CSnTe4Mg2SnCSn2CSnTe4Mg2SnCSn2CSnTe4Mg2SnCSn2CSnTe4Mg2SnCSn2CSnTe4Mg2SnCSn2CSnTe4Mg2SnCSn2CSnTe4Mg2SnCSn2CSnTe4Mg2SnCSn2CSnTe4Mg2
_chemical_formula_sum              "C108 N12 H60 O12 Sn36 Te36 Mg18"
_cell_length_a       37.4508
_cell_length_b       37.6329
_cell_length_c       8.17716
_cell_angle_alpha    86.9845
_cell_angle_beta     120.145
_cell_angle_gamma    119.952

_symmetry_space_group_name_H-M    'P1'
_space_group_IT_number       1

loop_
  _space_group_symop_operation_xyz
  'x, y, z'

loop_
  _atom_site_type_symbol
  _atom_site_label
  _atom_site_symmetry_multiplicity
  _atom_site_fract_x
  _atom_site_fract_y
  _atom_site_fract_z
  _atom_site_occupancy
  C   C1        1.0  0.98288  0.45829  0.04249  1.0000
  C   C2        1.0  0.02693  0.47835  0.05180  1.0000
  C   C3        1.0  0.04689  0.51860  0.01603  1.0000
  C   C4        1.0  0.90919  0.45628  0.98707  1.0000
  C   C5        1.0  0.11325  0.51746  0.01282  1.0000
  C   C6        1.0  0.15645  0.53748  0.01607  1.0000
  C   C7        1.0  0.18152  0.58112  0.02808  1.0000
  C   C8        1.0  0.16283  0.60429  0.04279  1.0000
  C   C9        1.0  0.11973  0.58387  0.04070  1.0000
  N   N1        1.0  0.77794  0.39990  0.97967  1.0000
  C   C10       1.0  0.75015  0.36059  0.98630  1.0000
  C   C11       1.0  0.70948  0.34776  0.99558  1.0000
  C   C12       1.0  0.69527  0.37711  0.00048  1.0000
  H   H1        1.0  0.96997  0.42780  0.07717  1.0000
  H   H2        1.0  0.04691  0.46279  0.09290  1.0000
  H   H3        1.0  0.09401  0.48339  0.99715  1.0000
  H   H4        1.0  0.17080  0.51934  0.00533  1.0000
  H   H5        1.0  0.18203  0.63830  0.05735  1.0000
  H   H6        1.0  0.10691  0.60291  0.05715  1.0000
  H   H7        1.0  0.75929  0.33739  0.98441  1.0000
  O   O1        1.0  0.72021  0.41563  0.00125  1.0000
  H   H8        1.0  0.76535  0.41887  0.98655  1.0000
  C   C13       1.0  0.47833  0.59139  0.95316  1.0000
  C   C14       1.0  0.45923  0.61485  0.95476  1.0000
  C   C15       1.0  0.42155  0.59844  0.98980  1.0000
  C   C16       1.0  0.40416  0.55825  0.02713  1.0000
  C   C17       1.0  0.42381  0.53526  0.02640  1.0000
  N   N2        1.0  0.59875  0.37847  0.01194  1.0000
  C   C18       1.0  0.63821  0.38944  0.00770  1.0000
  C   C19       1.0  0.65145  0.36104  0.00536  1.0000
  C   C20       1.0  0.62268  0.31734  0.00800  1.0000
  H   H9        1.0  0.50614  0.60442  0.91822  1.0000
  H   H10       1.0  0.47250  0.64579  0.92399  1.0000
  H   H11       1.0  0.37681  0.54561  0.06446  1.0000
  H   H12       1.0  0.41135  0.50519  0.06499  1.0000
  H   H13       1.0  0.66118  0.42184  0.00684  1.0000
  O   O2        1.0  0.58469  0.30381  0.01275  1.0000
  H   H14       1.0  0.58101  0.34671  0.01784  1.0000
  C   C21       1.0  0.47351  0.01951  0.93783  1.0000
  C   C22       1.0  0.45055  0.97701  0.93904  1.0000
  C   C23       1.0  0.47468  0.95535  0.98451  1.0000
  C   C24       1.0  0.54698  0.08838  0.98576  1.0000
  N   N3        1.0  0.62249  0.21919  0.00805  1.0000
  C   C25       1.0  0.61118  0.24773  0.01014  1.0000
  C   C26       1.0  0.63895  0.28930  0.00640  1.0000
  C   C27       1.0  0.68239  0.30393  0.00211  1.0000
  H   H15       1.0  0.45283  0.03440  0.89829  1.0000
  H   H16       1.0  0.41276  0.96007  0.90072  1.0000
  H   H17       1.0  0.57904  0.23842  0.01392  1.0000
  O   O3        1.0  0.69667  0.27938  0.00402  1.0000
  H   H18       1.0  0.65475  0.23306  0.00756  1.0000
  C   C28       1.0  0.01972  0.53739  0.96967  1.0000
  C   C29       1.0  0.97587  0.51747  0.96132  1.0000
  C   C30       1.0  0.95583  0.47720  0.99677  1.0000
  C   C31       1.0  0.09329  0.53990  0.02364  1.0000
  C   C32       1.0  0.89034  0.47966  0.99950  1.0000
  C   C33       1.0  0.84686  0.46049  0.99335  1.0000
  C   C34       1.0  0.82020  0.41675  0.97610  1.0000
  C   C35       1.0  0.83753  0.39254  0.95842  1.0000
  C   C36       1.0  0.88115  0.41217  0.96428  1.0000
  N   N4        1.0  0.22366  0.59910  0.02262  1.0000
  C   C37       1.0  0.25151  0.63893  0.02091  1.0000
  C   C38       1.0  0.29217  0.65241  0.01009  1.0000
  C   C39       1.0  0.30638  0.62327  0.00112  1.0000
  H   H19       1.0  0.03220  0.56762  0.93252  1.0000
  H   H20       1.0  0.95596  0.53309  0.92073  1.0000
  H   H21       1.0  0.91083  0.51386  0.02022  1.0000
  H   H22       1.0  0.83359  0.47937  0.00717  1.0000
  H   H23       1.0  0.81697  0.35838  0.93892  1.0000
  H   H24       1.0  0.89303  0.39240  0.94608  1.0000
  H   H25       1.0  0.24268  0.66204  0.02916  1.0000
  O   O4        1.0  0.28132  0.58444  0.99669  1.0000
  H   H26       1.0  0.23649  0.58064  0.01161  1.0000
  C   C40       1.0  0.46096  0.55079  0.98792  1.0000
  N   N5        1.0  0.40372  0.62341  0.98990  1.0000
  C   C41       1.0  0.36395  0.61168  0.99314  1.0000
  C   C42       1.0  0.35043  0.63981  0.99754  1.0000
  C   C43       1.0  0.37922  0.68375  0.99788  1.0000
  H   H27       1.0  0.34099  0.57899  0.99120  1.0000
  O   O5        1.0  0.41739  0.69779  0.99379  1.0000
  H   H28       1.0  0.42121  0.65541  0.98611  1.0000
  C   C44       1.0  0.52290  0.97865  0.02571  1.0000
  C   C45       1.0  0.54587  0.02118  0.02489  1.0000
  C   C46       1.0  0.52203  0.04305  0.98230  1.0000
  C   C47       1.0  0.58950  0.10877  0.97965  1.0000
  C   C48       1.0  0.61423  0.15184  0.99026  1.0000
  C   C49       1.0  0.59687  0.17639  0.00428  1.0000
  C   C50       1.0  0.55424  0.15662  0.00846  1.0000
  C   C51       1.0  0.53028  0.11359  0.00083  1.0000
  N   N6        1.0  0.37875  0.78152  0.99972  1.0000
  C   C52       1.0  0.39000  0.75303  0.99597  1.0000
  C   C53       1.0  0.36271  0.71149  0.00115  1.0000
  C   C54       1.0  0.31936  0.69654  0.00673  1.0000
  H   H29       1.0  0.54331  0.96353  0.06328  1.0000
  H   H30       1.0  0.58342  0.03787  0.06071  1.0000
  H   H31       1.0  0.60287  0.09048  0.96072  1.0000
  H   H32       1.0  0.64638  0.16664  0.98098  1.0000
  H   H33       1.0  0.54028  0.17484  0.02222  1.0000
  H   H34       1.0  0.49858  0.09965  0.01267  1.0000
  H   H35       1.0  0.42171  0.76235  0.98902  1.0000
  O   O6        1.0  0.30532  0.72108  0.00816  1.0000
  H   H36       1.0  0.34716  0.76776  0.00509  1.0000
  C   C55       1.0  0.11124  0.52040  0.51365  1.0000
  C   C56       1.0  0.15449  0.53942  0.51787  1.0000
  C   C57       1.0  0.18023  0.58293  0.52829  1.0000
  C   C58       1.0  0.16207  0.60691  0.53972  1.0000
  C   C59       1.0  0.11889  0.58739  0.53697  1.0000
  N   N7        1.0  0.77688  0.40224  0.47990  1.0000
  C   C60       1.0  0.74930  0.36246  0.48296  1.0000
  C   C61       1.0  0.70864  0.34881  0.49374  1.0000
  C   C62       1.0  0.69395  0.37760  0.50165  1.0000
  H   H37       1.0  0.09130  0.48642  0.49903  1.0000
  H   H38       1.0  0.16812  0.52054  0.50752  1.0000
  H   H39       1.0  0.18158  0.64080  0.55152  1.0000
  H   H40       1.0  0.10628  0.60695  0.54976  1.0000
  H   H41       1.0  0.75870  0.33964  0.47750  1.0000
  O   O7        1.0  0.71821  0.41630  0.50317  1.0000
  H   H42       1.0  0.76402  0.42077  0.48863  1.0000
  N   N8        1.0  0.59695  0.37686  0.51808  1.0000
  C   C63       1.0  0.63655  0.38859  0.51325  1.0000
  C   C64       1.0  0.65022  0.36068  0.50844  1.0000
  C   C65       1.0  0.62173  0.31664  0.50838  1.0000
  H   H43       1.0  0.65876  0.42108  0.51088  1.0000
  O   O8        1.0  0.58341  0.30228  0.51172  1.0000
  H   H44       1.0  0.57914  0.34470  0.51892  1.0000
  C   C66       1.0  0.54816  0.08849  0.48723  1.0000
  C   C67       1.0  0.40868  0.89063  0.50263  1.0000
  C   C68       1.0  0.38480  0.84797  0.50024  1.0000
  C   C69       1.0  0.40237  0.82329  0.49028  1.0000
  C   C70       1.0  0.44417  0.84245  0.48054  1.0000
  C   C71       1.0  0.46723  0.88500  0.47998  1.0000
  N   N9        1.0  0.62305  0.21931  0.50462  1.0000
  C   C72       1.0  0.61144  0.24755  0.50830  1.0000
  C   C73       1.0  0.63868  0.28929  0.50515  1.0000
  C   C74       1.0  0.68211  0.30477  0.49944  1.0000
  H   H45       1.0  0.39492  0.90892  0.51773  1.0000
  H   H46       1.0  0.35325  0.83366  0.51333  1.0000
  H   H47       1.0  0.45810  0.82405  0.46836  1.0000
  H   H48       1.0  0.49832  0.89820  0.46459  1.0000
  H   H49       1.0  0.57924  0.23779  0.51233  1.0000
  O   O9        1.0  0.69666  0.28061  0.49870  1.0000
  H   H50       1.0  0.65494  0.23352  0.50142  1.0000
  C   C75       1.0  0.09184  0.54359  0.52200  1.0000
  N   N10       1.0  0.22241  0.60000  0.52392  1.0000
  C   C76       1.0  0.25049  0.63958  0.52056  1.0000
  C   C77       1.0  0.29092  0.65250  0.50923  1.0000
  C   C78       1.0  0.30443  0.62293  0.49903  1.0000
  H   H51       1.0  0.24190  0.66293  0.52754  1.0000
  O   O10       1.0  0.27893  0.58417  0.49400  1.0000
  H   H52       1.0  0.23481  0.58106  0.51443  1.0000
  N   N11       1.0  0.40014  0.62143  0.48080  1.0000
  C   C79       1.0  0.36082  0.61041  0.48650  1.0000
  C   C80       1.0  0.34823  0.63903  0.49374  1.0000
  C   C81       1.0  0.37778  0.68303  0.49651  1.0000
  H   H53       1.0  0.33778  0.57801  0.48715  1.0000
  O   O11       1.0  0.41607  0.69668  0.49375  1.0000
  H   H54       1.0  0.41877  0.65367  0.48221  1.0000
  C   C82       1.0  0.45053  0.91050  0.49180  1.0000
  C   C83       1.0  0.58929  0.10844  0.47168  1.0000
  C   C84       1.0  0.61386  0.15146  0.48041  1.0000
  C   C85       1.0  0.59783  0.17652  0.50233  1.0000
  C   C86       1.0  0.55680  0.15727  0.51722  1.0000
  C   C87       1.0  0.53297  0.11435  0.51101  1.0000
  N   N12       1.0  0.37788  0.78104  0.49575  1.0000
  C   C88       1.0  0.38920  0.75251  0.49399  1.0000
  C   C89       1.0  0.36179  0.71112  0.50031  1.0000
  C   C90       1.0  0.31853  0.69653  0.50597  1.0000
  H   H55       1.0  0.60165  0.08988  0.44606  1.0000
  H   H56       1.0  0.64494  0.16584  0.46431  1.0000
  H   H57       1.0  0.54405  0.17586  0.53880  1.0000
  H   H58       1.0  0.50276  0.10112  0.53195  1.0000
  H   H59       1.0  0.42087  0.76154  0.48725  1.0000
  O   O12       1.0  0.30487  0.72138  0.50759  1.0000
  H   H60       1.0  0.34618  0.76730  0.50039  1.0000
  C  Sn1       1.0  0.48893  0.60281  0.56997  1.0000
  C   C91       1.0  0.46911  0.55945  0.55644  1.0000
  C  Sn2       1.0  0.41913  0.53155  0.48503  1.0000
  C  Sn3       1.0  0.38831  0.54732  0.42578  1.0000
  C   C92       1.0  0.40812  0.59066  0.43929  1.0000
  C  Sn4       1.0  0.45811  0.61858  0.51072  1.0000
  O  Te1       1.0  0.53900  0.63012  0.64178  1.0000
  O  Te2       1.0  0.40017  0.48834  0.47293  1.0000
  O  Te3       1.0  0.33820  0.51997  0.35393  1.0000
  O  Te4       1.0  0.47707  0.66177  0.52279  1.0000
  Mg  Mg1       1.0  0.32962  0.46376  0.36526  1.0000
  Mg  Mg2       1.0  0.54760  0.68637  0.63034  1.0000
  C  Sn5       1.0  0.99867  0.47077  0.60450  1.0000
  C   C93       1.0  0.96704  0.48470  0.55367  1.0000
  C  Sn6       1.0  0.97116  0.51722  0.45911  1.0000
  C  Sn7       1.0  0.00764  0.53620  0.41431  1.0000
  C   C94       1.0  0.03924  0.52228  0.46510  1.0000
  C  Sn8       1.0  0.03515  0.48976  0.55970  1.0000
  O  Te5       1.0  0.99389  0.43821  0.69896  1.0000
  O  Te6       1.0  0.93913  0.53061  0.40980  1.0000
  O  Te7       1.0  0.01241  0.56879  0.31978  1.0000
  O  Te8       1.0  0.06715  0.47636  0.60896  1.0000
  Mg  Mg3       1.0  0.96016  0.57602  0.28234  1.0000
  Mg  Mg4       1.0  0.04614  0.43095  0.73633  1.0000
  C  Sn9       1.0  0.32159  0.79724  0.02908  1.0000
  C   C95       1.0  0.28159  0.77357  0.04844  1.0000
  C  Sn10      1.0  0.25194  0.78842  0.02083  1.0000
  C  Sn11      1.0  0.40088  0.88508  0.97274  1.0000
  C   C96       1.0  0.44085  0.90873  0.95337  1.0000
  C  Sn12      1.0  0.47053  0.89390  0.98099  1.0000
  O  Te9       1.0  0.35074  0.78178  0.05733  1.0000
  O  Te10      1.0  0.21217  0.76420  0.04104  1.0000
  O  Te11      1.0  0.37169  0.90054  0.94450  1.0000
  O  Te12      1.0  0.51027  0.91810  0.96077  1.0000
  Mg  Mg5       1.0  0.32165  0.85603  0.98807  1.0000
  Mg  Mg6       1.0  0.40080  0.82629  0.01362  1.0000
  C  Sn13      1.0  0.86305  0.40796  0.40049  1.0000
  C   C97       1.0  0.89471  0.45122  0.42740  1.0000
  C  Sn14      1.0  0.89127  0.48145  0.49945  1.0000
  C  Sn15      1.0  0.85546  0.46817  0.54569  1.0000
  C   C98       1.0  0.82383  0.42493  0.51881  1.0000
  C  Sn16      1.0  0.82723  0.39468  0.44673  1.0000
  O  Te13      1.0  0.86714  0.37829  0.32829  1.0000
  O  Te14      1.0  0.92332  0.52452  0.52506  1.0000
  O  Te15      1.0  0.85138  0.49789  0.61794  1.0000
  O  Te16      1.0  0.79522  0.35163  0.42115  1.0000
  Mg  Mg7       1.0  0.90336  0.55287  0.62763  1.0000
  Mg  Mg8       1.0  0.81516  0.32326  0.31870  1.0000
  C  Sn17      1.0  0.53672  0.40971  0.10356  1.0000
  C   C99       1.0  0.54928  0.44965  0.06771  1.0000
  C  Sn18      1.0  0.71403  0.52377  0.97871  1.0000
  C  Sn19      1.0  0.72808  0.50012  0.92428  1.0000
  C   C100      1.0  0.71551  0.46019  0.96010  1.0000
  C  Sn20      1.0  0.55077  0.38605  0.04914  1.0000
  O  Te17      1.0  0.51039  0.39356  0.19271  1.0000
  O  Te18      1.0  0.72618  0.56378  0.94443  1.0000
  O  Te19      1.0  0.75443  0.51630  0.83508  1.0000
  O  Te20      1.0  0.53862  0.34607  0.08339  1.0000
  Mg  Mg9       1.0  0.76234  0.57219  0.81895  1.0000
  Mg  Mg10      1.0  0.50244  0.33761  0.20875  1.0000
  C  Sn21      1.0  0.60852  0.45536  0.57887  1.0000
  C   C101      1.0  0.58928  0.41215  0.56822  1.0000
  C  Sn22      1.0  0.53970  0.38413  0.50259  1.0000
  C  Sn23      1.0  0.50868  0.39962  0.44631  1.0000
  C   C102      1.0  0.52792  0.44281  0.45694  1.0000
  C  Sn24      1.0  0.57750  0.47085  0.52260  1.0000
  O  Te21      1.0  0.65819  0.48279  0.64492  1.0000
  O  Te22      1.0  0.52131  0.34107  0.49327  1.0000
  O  Te23      1.0  0.45897  0.37215  0.38024  1.0000
  O  Te24      1.0  0.59589  0.51389  0.53189  1.0000
  Mg  Mg11      1.0  0.45114  0.31623  0.39348  1.0000
  Mg  Mg12      1.0  0.66605  0.53875  0.63156  1.0000
  C  Sn25      1.0  0.03673  0.00696  0.45016  1.0000
  C   C103      1.0  0.51954  0.03470  0.43292  1.0000
  C  Sn26      1.0  0.98355  0.02444  0.46002  1.0000
  C  Sn27      1.0  0.96089  0.98565  0.50543  1.0000
  C   C104      1.0  0.97638  0.95794  0.52269  1.0000
  C  Sn28      1.0  0.01406  0.96817  0.49557  1.0000
  O  Te25      1.0  0.07447  0.01788  0.42246  1.0000
  O  Te26      1.0  0.46699  0.05267  0.44197  1.0000
  O  Te27      1.0  0.92311  0.97475  0.53312  1.0000
  O  Te28      1.0  0.02893  0.93997  0.51364  1.0000
  Mg  Mg13      1.0  0.91577  0.02363  0.49317  1.0000
  Mg  Mg14      1.0  0.08186  0.96899  0.46257  1.0000
  C  Sn29      1.0  0.54198  0.52660  0.50465  1.0000
  C   C105      1.0  0.52941  0.48670  0.54107  1.0000
  C  Sn30      1.0  0.48707  0.46162  0.54436  1.0000
  C  Sn31      1.0  0.45664  0.47673  0.51041  1.0000
  C   C106      1.0  0.46921  0.51660  0.47399  1.0000
  C  Sn32      1.0  0.51154  0.54171  0.47071  1.0000
  O  Te29      1.0  0.58447  0.55113  0.50204  1.0000
  O  Te30      1.0  0.47528  0.42184  0.58115  1.0000
  O  Te31      1.0  0.41412  0.45216  0.51305  1.0000
  O  Te32      1.0  0.52334  0.58146  0.43391  1.0000
  Mg  Mg15      1.0  0.41358  0.40016  0.56957  1.0000
  Mg  Mg16      1.0  0.58501  0.60316  0.44535  1.0000
  C  Sn33      1.0  0.46227  0.45874  0.91446  1.0000
  C   C107      1.0  0.50855  0.47314  0.95024  1.0000
  C  Sn34      1.0  0.40737  0.45907  0.02727  1.0000
  C  Sn35      1.0  0.39818  0.48856  0.06954  1.0000
  C   C108      1.0  0.35192  0.47416  0.03379  1.0000
  C  Sn36      1.0  0.45307  0.48824  0.95672  1.0000
  O  Te33      1.0  0.42558  0.41534  0.83740  1.0000
  O  Te34      1.0  0.45334  0.47270  0.06174  1.0000
  O  Te35      1.0  0.43491  0.53199  0.14665  1.0000
  O  Te36      1.0  0.40713  0.47460  0.92229  1.0000
  Mg  Mg17      1.0  0.49148  0.53503  0.16817  1.0000
  Mg  Mg18      1.0  0.36898  0.41228  0.81596  1.0000
