data_image0
_chemical_formula_structural       C4NC3H3OHC3NC3H3OHC9NC3H7OHC8NC3H7OHC3NC3H3OHC9NC3H7OHC3NC3H3OHC3NC3H3OHC3NC3H3OHC3NC3H3OHC3NC3H3OHC3NC3H3OHC2Sn2C2HTe2HMgC2Sn2C2HTe2HMgC2Sn2C2HTe2HMgC2Sn2C2HTe2HMgC2Sn2C2HTe2HMgC2Sn2C2HTe2HMgC2Sn2C2HTe2HMgC2Sn2C2HTe2HMgC2Sn2C2HTe2HMg
_chemical_formula_sum              "C126 N12 H78 O12 Sn18 Te18 Mg9"
_cell_length_a       37.4508
_cell_length_b       37.6329
_cell_length_c       8.17716
_cell_angle_alpha    86.9845
_cell_angle_beta     120.145
_cell_angle_gamma    119.952

_symmetry_space_group_name_H-M    'P1'
_space_group_IT_number       1

loop_
  _space_group_symop_operation_xyz
  'x, y, z'

loop_
  _atom_site_type_symbol
  _atom_site_label
  _atom_site_symmetry_multiplicity
  _atom_site_fract_x
  _atom_site_fract_y
  _atom_site_fract_z
  _atom_site_occupancy
  C   C1        1.0  0.98288  0.45829  0.04249  1.0000
  C   C2        1.0  0.02693  0.47835  0.05180  1.0000
  C   C3        1.0  0.04689  0.51860  0.01603  1.0000
  C   C4        1.0  0.90919  0.45628  0.98707  1.0000
  N   N1        1.0  0.77794  0.39990  0.97967  1.0000
  C   C5        1.0  0.75015  0.36059  0.98630  1.0000
  C   C6        1.0  0.70948  0.34776  0.99558  1.0000
  C   C7        1.0  0.69527  0.37711  0.00048  1.0000
  H   H1        1.0  0.96997  0.42780  0.07717  1.0000
  H   H2        1.0  0.04691  0.46279  0.09290  1.0000
  H   H3        1.0  0.75929  0.33739  0.98441  1.0000
  O   O1        1.0  0.72021  0.41563  0.00125  1.0000
  H   H4        1.0  0.76535  0.41887  0.98655  1.0000
  C   C8        1.0  0.54833  0.52175  0.03000  1.0000
  C   C9        1.0  0.52832  0.54516  0.02020  1.0000
  C   C10       1.0  0.48135  0.52586  0.98929  1.0000
  N   N2        1.0  0.59875  0.37847  0.01194  1.0000
  C   C11       1.0  0.63821  0.38944  0.00770  1.0000
  C   C12       1.0  0.65145  0.36104  0.00536  1.0000
  C   C13       1.0  0.62268  0.31734  0.00800  1.0000
  H   H5        1.0  0.58499  0.53827  0.05644  1.0000
  H   H6        1.0  0.55008  0.57927  0.04030  1.0000
  H   H7        1.0  0.66118  0.42184  0.00684  1.0000
  O   O2        1.0  0.58469  0.30381  0.01275  1.0000
  H   H8        1.0  0.58101  0.34671  0.01784  1.0000
  C   C14       1.0  0.47351  0.01951  0.93783  1.0000
  C   C15       1.0  0.45055  0.97701  0.93904  1.0000
  C   C16       1.0  0.47468  0.95535  0.98451  1.0000
  C   C17       1.0  0.54698  0.08838  0.98576  1.0000
  C   C18       1.0  0.41007  0.89131  0.00901  1.0000
  C   C19       1.0  0.38660  0.84886  0.01021  1.0000
  C   C20       1.0  0.40305  0.82375  0.99308  1.0000
  C   C21       1.0  0.44331  0.84228  0.97312  1.0000
  C   C22       1.0  0.46617  0.88472  0.97047  1.0000
  N   N3        1.0  0.62249  0.21919  0.00805  1.0000
  C   C23       1.0  0.61118  0.24773  0.01014  1.0000
  C   C24       1.0  0.63895  0.28930  0.00640  1.0000
  C   C25       1.0  0.68239  0.30393  0.00211  1.0000
  H   H9        1.0  0.45283  0.03440  0.89829  1.0000
  H   H10       1.0  0.41276  0.96007  0.90072  1.0000
  H   H11       1.0  0.39769  0.91028  0.03061  1.0000
  H   H12       1.0  0.35620  0.83505  0.03053  1.0000
  H   H13       1.0  0.45621  0.82353  0.95443  1.0000
  H   H14       1.0  0.49579  0.89764  0.94590  1.0000
  H   H15       1.0  0.57904  0.23842  0.01392  1.0000
  O   O3        1.0  0.69667  0.27938  0.00402  1.0000
  H   H16       1.0  0.65475  0.23306  0.00756  1.0000
  C   C26       1.0  0.01972  0.53739  0.96967  1.0000
  C   C27       1.0  0.97587  0.51747  0.96132  1.0000
  C   C28       1.0  0.95583  0.47720  0.99677  1.0000
  C   C29       1.0  0.89034  0.47966  0.99950  1.0000
  C   C30       1.0  0.84686  0.46049  0.99335  1.0000
  C   C31       1.0  0.82020  0.41675  0.97610  1.0000
  C   C32       1.0  0.83753  0.39254  0.95842  1.0000
  C   C33       1.0  0.88115  0.41217  0.96428  1.0000
  N   N4        1.0  0.22366  0.59910  0.02262  1.0000
  C   C34       1.0  0.25151  0.63893  0.02091  1.0000
  C   C35       1.0  0.29217  0.65241  0.01009  1.0000
  C   C36       1.0  0.30638  0.62327  0.00112  1.0000
  H   H17       1.0  0.03220  0.56762  0.93252  1.0000
  H   H18       1.0  0.95596  0.53309  0.92073  1.0000
  H   H19       1.0  0.91083  0.51386  0.02022  1.0000
  H   H20       1.0  0.83359  0.47937  0.00717  1.0000
  H   H21       1.0  0.81697  0.35838  0.93892  1.0000
  H   H22       1.0  0.89303  0.39240  0.94608  1.0000
  H   H23       1.0  0.24268  0.66204  0.02916  1.0000
  O   O4        1.0  0.28132  0.58444  0.99669  1.0000
  H   H24       1.0  0.23649  0.58064  0.01161  1.0000
  C   C37       1.0  0.45550  0.48167  0.96756  1.0000
  C   C38       1.0  0.47549  0.45829  0.97710  1.0000
  C   C39       1.0  0.52248  0.47757  0.00833  1.0000
  N   N5        1.0  0.40372  0.62341  0.98990  1.0000
  C   C40       1.0  0.36395  0.61168  0.99314  1.0000
  C   C41       1.0  0.35043  0.63981  0.99754  1.0000
  C   C42       1.0  0.37922  0.68375  0.99788  1.0000
  H   H25       1.0  0.41882  0.46510  0.94097  1.0000
  H   H26       1.0  0.45365  0.42415  0.95607  1.0000
  H   H27       1.0  0.34099  0.57899  0.99120  1.0000
  O   O5        1.0  0.41739  0.69779  0.99379  1.0000
  H   H28       1.0  0.42121  0.65541  0.98611  1.0000
  C   C43       1.0  0.52290  0.97865  0.02571  1.0000
  C   C44       1.0  0.54587  0.02118  0.02489  1.0000
  C   C45       1.0  0.52203  0.04305  0.98230  1.0000
  C   C46       1.0  0.45047  0.91052  0.98906  1.0000
  C   C47       1.0  0.58950  0.10877  0.97965  1.0000
  C   C48       1.0  0.61423  0.15184  0.99026  1.0000
  C   C49       1.0  0.59687  0.17639  0.00428  1.0000
  C   C50       1.0  0.55424  0.15662  0.00846  1.0000
  C   C51       1.0  0.53028  0.11359  0.00083  1.0000
  N   N6        1.0  0.37875  0.78152  0.99972  1.0000
  C   C52       1.0  0.39000  0.75303  0.99597  1.0000
  C   C53       1.0  0.36271  0.71149  0.00115  1.0000
  C   C54       1.0  0.31936  0.69654  0.00673  1.0000
  H   H29       1.0  0.54331  0.96353  0.06328  1.0000
  H   H30       1.0  0.58342  0.03787  0.06071  1.0000
  H   H31       1.0  0.60287  0.09048  0.96072  1.0000
  H   H32       1.0  0.64638  0.16664  0.98098  1.0000
  H   H33       1.0  0.54028  0.17484  0.02222  1.0000
  H   H34       1.0  0.49858  0.09965  0.01267  1.0000
  H   H35       1.0  0.42171  0.76235  0.98902  1.0000
  O   O6        1.0  0.30532  0.72108  0.00816  1.0000
  H   H36       1.0  0.34716  0.76776  0.00509  1.0000
  C   C55       1.0  0.98138  0.46299  0.54192  1.0000
  C   C56       1.0  0.02529  0.48270  0.55070  1.0000
  C   C57       1.0  0.04538  0.52285  0.51399  1.0000
  N   N7        1.0  0.77688  0.40224  0.47990  1.0000
  C   C58       1.0  0.74930  0.36246  0.48296  1.0000
  C   C59       1.0  0.70864  0.34881  0.49374  1.0000
  C   C60       1.0  0.69395  0.37760  0.50165  1.0000
  H   H37       1.0  0.96845  0.43272  0.57870  1.0000
  H   H38       1.0  0.04506  0.46695  0.59211  1.0000
  H   H39       1.0  0.75870  0.33964  0.47750  1.0000
  O   O7        1.0  0.71821  0.41630  0.50317  1.0000
  H   H40       1.0  0.76402  0.42077  0.48863  1.0000
  C   C61       1.0  0.53273  0.51339  0.45046  1.0000
  C   C62       1.0  0.51469  0.53767  0.45440  1.0000
  C   C63       1.0  0.47907  0.52360  0.50053  1.0000
  N   N8        1.0  0.59695  0.37686  0.51808  1.0000
  C   C64       1.0  0.63655  0.38859  0.51325  1.0000
  C   C65       1.0  0.65022  0.36068  0.50844  1.0000
  C   C66       1.0  0.62173  0.31664  0.50838  1.0000
  H   H41       1.0  0.55858  0.52498  0.40555  1.0000
  H   H42       1.0  0.52715  0.56735  0.41260  1.0000
  H   H43       1.0  0.65876  0.42108  0.51088  1.0000
  O   O8        1.0  0.58341  0.30228  0.51172  1.0000
  H   H44       1.0  0.57914  0.34470  0.51892  1.0000
  C   C67       1.0  0.47674  0.02127  0.46231  1.0000
  C   C68       1.0  0.45355  0.97885  0.46433  1.0000
  C   C69       1.0  0.47498  0.95544  0.48842  1.0000
  N   N9        1.0  0.62305  0.21931  0.50462  1.0000
  C   C70       1.0  0.61144  0.24755  0.50830  1.0000
  C   C71       1.0  0.63868  0.28929  0.50515  1.0000
  C   C72       1.0  0.68211  0.30477  0.49944  1.0000
  H   H45       1.0  0.45807  0.03745  0.44111  1.0000
  H   H46       1.0  0.41784  0.96370  0.44577  1.0000
  H   H47       1.0  0.57924  0.23779  0.51233  1.0000
  O   O9        1.0  0.69666  0.28061  0.49870  1.0000
  H   H48       1.0  0.65494  0.23352  0.50142  1.0000
  C   C73       1.0  0.01853  0.54198  0.46750  1.0000
  C   C74       1.0  0.97452  0.52222  0.45823  1.0000
  C   C75       1.0  0.95452  0.48209  0.49493  1.0000
  N   N10       1.0  0.22241  0.60000  0.52392  1.0000
  C   C76       1.0  0.25049  0.63958  0.52056  1.0000
  C   C77       1.0  0.29092  0.65250  0.50923  1.0000
  C   C78       1.0  0.30443  0.62293  0.49903  1.0000
  H   H49       1.0  0.03146  0.57226  0.43094  1.0000
  H   H50       1.0  0.95448  0.53777  0.41576  1.0000
  H   H51       1.0  0.24190  0.66293  0.52754  1.0000
  O   O10       1.0  0.27893  0.58417  0.49400  1.0000
  H   H52       1.0  0.23481  0.58106  0.51443  1.0000
  C   C79       1.0  0.46254  0.48371  0.54230  1.0000
  C   C80       1.0  0.48080  0.45955  0.53949  1.0000
  C   C81       1.0  0.51646  0.47362  0.49366  1.0000
  N   N11       1.0  0.40014  0.62143  0.48080  1.0000
  C   C82       1.0  0.36082  0.61041  0.48650  1.0000
  C   C83       1.0  0.34823  0.63903  0.49374  1.0000
  C   C84       1.0  0.37778  0.68303  0.49651  1.0000
  H   H53       1.0  0.43660  0.47208  0.58668  1.0000
  H   H54       1.0  0.46830  0.42988  0.58123  1.0000
  H   H55       1.0  0.33778  0.57801  0.48715  1.0000
  O   O11       1.0  0.41607  0.69668  0.49375  1.0000
  H   H56       1.0  0.41877  0.65367  0.48221  1.0000
  C   C85       1.0  0.52095  0.97725  0.50862  1.0000
  C   C86       1.0  0.54419  0.01967  0.50678  1.0000
  C   C87       1.0  0.52296  0.04318  0.48456  1.0000
  N   N12       1.0  0.37788  0.78104  0.49575  1.0000
  C   C88       1.0  0.38920  0.75251  0.49399  1.0000
  C   C89       1.0  0.36179  0.71112  0.50031  1.0000
  C   C90       1.0  0.31853  0.69653  0.50597  1.0000
  H   H57       1.0  0.53955  0.96106  0.52914  1.0000
  H   H58       1.0  0.57989  0.03479  0.52521  1.0000
  H   H59       1.0  0.42087  0.76154  0.48725  1.0000
  O   O12       1.0  0.30487  0.72138  0.50759  1.0000
  H   H60       1.0  0.34618  0.76730  0.50039  1.0000
  C   C91       1.0  0.40346  0.53016  0.47998  1.0000
  C   C92       1.0  0.44599  0.54291  0.48415  1.0000
  C  Sn1       1.0  0.47724  0.58528  0.49725  1.0000
  C  Sn2       1.0  0.46559  0.61537  0.50638  1.0000
  C   C93       1.0  0.42297  0.60231  0.50225  1.0000
  C   C94       1.0  0.39195  0.55983  0.48905  1.0000
  H   H61       1.0  0.37947  0.49730  0.46988  1.0000
  O  Te1       1.0  0.51957  0.59747  0.50118  1.0000
  O  Te2       1.0  0.49619  0.65792  0.51961  1.0000
  H   H62       1.0  0.35904  0.54997  0.48596  1.0000
  Mg  Mg1       1.0  0.54969  0.65908  0.52018  1.0000
  C   C95       1.0  0.51172  0.39444  0.48526  1.0000
  C   C96       1.0  0.53090  0.43781  0.50198  1.0000
  C  Sn3       1.0  0.57573  0.46435  0.51797  1.0000
  C  Sn4       1.0  0.60174  0.44706  0.51712  1.0000
  C   C97       1.0  0.58223  0.40363  0.50020  1.0000
  C   C98       1.0  0.53735  0.37735  0.48434  1.0000
  H   H63       1.0  0.47698  0.37410  0.47288  1.0000
  O  Te3       1.0  0.59437  0.50762  0.53463  1.0000
  O  Te4       1.0  0.64661  0.47287  0.53283  1.0000
  H   H64       1.0  0.52249  0.34377  0.47127  1.0000
  Mg  Mg2       1.0  0.65692  0.52985  0.55234  1.0000
  C   C99       1.0  0.53472  0.12490  0.52042  1.0000
  C   C100      1.0  0.54226  0.09414  0.48437  1.0000
  C  Sn5       1.0  0.58083  0.10560  0.46125  1.0000
  C  Sn6       1.0  0.61238  0.14869  0.47459  1.0000
  C   C101      1.0  0.60455  0.17923  0.51084  1.0000
  C   C102      1.0  0.56583  0.16741  0.53368  1.0000
  H   H65       1.0  0.50478  0.11577  0.53820  1.0000
  O  Te5       1.0  0.58783  0.07446  0.42523  1.0000
  O  Te6       1.0  0.65122  0.16102  0.45214  1.0000
  H   H66       1.0  0.56002  0.19124  0.56172  1.0000
  Mg  Mg3       1.0  0.64581  0.10695  0.40511  1.0000
  C   C103      1.0  0.53554  0.38927  0.05415  1.0000
  C   C104      1.0  0.56894  0.39737  0.00360  1.0000
  C  Sn7       1.0  0.73033  0.49312  0.96143  1.0000
  C  Sn8       1.0  0.71961  0.52393  0.97021  1.0000
  C   C105      1.0  0.54775  0.45819  0.02106  1.0000
  C   C106      1.0  0.52496  0.41964  0.06292  1.0000
  H   H67       1.0  0.51793  0.35946  0.08664  1.0000
  O  Te7       1.0  0.76358  0.50070  0.91111  1.0000
  O  Te8       1.0  0.74205  0.56259  0.92884  1.0000
  H   H68       1.0  0.49913  0.41339  0.10218  1.0000
  Mg  Mg4       1.0  0.78475  0.55815  0.86735  1.0000
  C   C107      1.0  0.87055  0.40700  0.46286  1.0000
  C   C108      1.0  0.90002  0.44932  0.46923  1.0000
  C  Sn9       1.0  0.88946  0.47895  0.48933  1.0000
  C  Sn10      1.0  0.84862  0.46589  0.50333  1.0000
  C   C109      1.0  0.81938  0.42348  0.49695  1.0000
  C   C110      1.0  0.83027  0.39409  0.47674  1.0000
  H   H69       1.0  0.87898  0.38426  0.44733  1.0000
  O  Te9       1.0  0.91928  0.52110  0.49537  1.0000
  O  Te10      1.0  0.83725  0.49485  0.52358  1.0000
  H   H70       1.0  0.80746  0.36133  0.47194  1.0000
  Mg  Mg5       1.0  0.88883  0.54875  0.52450  1.0000
  C   C111      1.0  0.47735  0.60077  0.94250  1.0000
  C   C112      1.0  0.46830  0.56224  0.99022  1.0000
  C  Sn11      1.0  0.29448  0.48267  0.03580  1.0000
  C  Sn12      1.0  0.26770  0.49941  0.03340  1.0000
  C   C113      1.0  0.41542  0.59532  0.98533  1.0000
  C   C114      1.0  0.45093  0.61730  0.94002  1.0000
  H   H71       1.0  0.50480  0.61777  0.90733  1.0000
  O  Te11      1.0  0.28592  0.44421  0.08322  1.0000
  O  Te12      1.0  0.23211  0.47784  0.07829  1.0000
  H   H72       1.0  0.45791  0.64712  0.90295  1.0000
  Mg  Mg6       1.0  0.23370  0.42662  0.13374  1.0000
  C   C115      1.0  0.13005  0.59741  0.54437  1.0000
  C   C116      1.0  0.09716  0.55451  0.51771  1.0000
  C  Sn13      1.0  0.10756  0.52441  0.50290  1.0000
  C  Sn14      1.0  0.15174  0.53759  0.51511  1.0000
  C   C117      1.0  0.18442  0.58059  0.54192  1.0000
  C   C118      1.0  0.17364  0.61045  0.55650  1.0000
  H   H73       1.0  0.12173  0.62052  0.55576  1.0000
  O  Te13      1.0  0.07429  0.48167  0.47622  1.0000
  O  Te14      1.0  0.16305  0.50818  0.50084  1.0000
  H   H74       1.0  0.19913  0.64367  0.57727  1.0000
  Mg  Mg7       1.0  0.10607  0.45355  0.46499  1.0000
  C   C119      1.0  0.38642  0.85851  0.50837  1.0000
  C   C120      1.0  0.39464  0.82778  0.47855  1.0000
  C  Sn15      1.0  0.43407  0.83919  0.46148  1.0000
  C  Sn16      1.0  0.46581  0.88220  0.47461  1.0000
  C   C121      1.0  0.45729  0.91272  0.50459  1.0000
  C   C122      1.0  0.41771  0.90095  0.52142  1.0000
  H   H75       1.0  0.35582  0.84941  0.52150  1.0000
  O  Te15      1.0  0.44175  0.80808  0.43165  1.0000
  O  Te16      1.0  0.50550  0.89449  0.45812  1.0000
  H   H76       1.0  0.41138  0.92476  0.54463  1.0000
  Mg  Mg8       1.0  0.50078  0.84049  0.41828  1.0000
  C   C123      1.0  0.15286  0.60483  0.04027  1.0000
  C   C124      1.0  0.17918  0.58851  0.04040  1.0000
  C  Sn17      1.0  0.16083  0.54527  0.02383  1.0000
  C  Sn18      1.0  0.11526  0.51793  0.00678  1.0000
  C   C125      1.0  0.08919  0.53457  0.00666  1.0000
  C   C126      1.0  0.10790  0.57789  0.02339  1.0000
  H   H77       1.0  0.16731  0.63835  0.05310  1.0000
  O  Te17      1.0  0.18762  0.52949  0.02428  1.0000
  O  Te18      1.0  0.23448  0.53193  0.98994  1.0000
  H   H78       1.0  0.08749  0.59051  0.02315  1.0000
  Mg  Mg9       1.0  0.28461  0.52547  0.99777  1.0000
