data_image0
_chemical_formula_structural       C2NCHCHC3NCHCHC3NH2C3NCHCHC3H2CHCHC4HC5HC3HCHC2HCHN2C4HC5HC3HCHC2HCHCHCHN2C2NCHCHC3NCHCHC3NH2C3NCHCHC3H2CHCHCHN4CHC2NCHCHC3NCHCHC3NH2C3NCHCHC3H2CHCHC4HC5HC3HCHC2HCHN2C4HC5HC3HCHC2HCHCHCHN2C2NCHCHC3NCHCHC3NH2C3NCHCHC3H2CHCHCHN4CHC2Sn2C2HTe2HMgC2Sn2C2HTe2HMgC2Sn2C2HTe2HMgC2Sn2C2HTe2HMgC2Sn2C2HTe2HMgC2Sn2C2HTe2HMgC2Sn2C2HTe2HMgC2Sn2C2HTe2HMgC2Sn2C2HTe2HMgC2Sn2C2HTe2HMgC2Sn2C2HTe2HMgC2Sn2C2HTe2HMgC2Sn2C2HTe2HMgC2Sn2C2HTe2HMgC2Sn2C2HTe2HMgC2Sn2C2HTe2HMgC2Sn2C2HTe2HMgC2Sn2C2HTe2HMgC2Sn2C2HTe2HMgC2Sn2C2HTe2HMgC2Sn2C2HTe2HMgC2Sn2C2HTe2HMgC2Sn2C2HTe2HMgC2Sn2C2HTe2HMgC2Sn2C2HTe2HMgC2Sn2C2HTe2HMgC2Sn2C2HTe2HMgC2Sn2C2HTe2HMgC2Sn2C2HTe2HMgC2Sn2C2HTe2HMgC2Sn2C2HTe2HMgC2Sn2C2HTe2HMg
_chemical_formula_sum              "C288 N32 H144 Sn64 Te64 Mg32"
_cell_length_a       36.8687
_cell_length_b       36.7539
_cell_length_c       8.54894
_cell_angle_alpha    90.1928
_cell_angle_beta     91.006
_cell_angle_gamma    89.6311

_symmetry_space_group_name_H-M    'P1'
_space_group_IT_number       1

loop_
  _space_group_symop_operation_xyz
  'x, y, z'

loop_
  _atom_site_type_symbol
  _atom_site_label
  _atom_site_symmetry_multiplicity
  _atom_site_fract_x
  _atom_site_fract_y
  _atom_site_fract_z
  _atom_site_occupancy
  C   C1        1.0  0.27222  0.88271  0.99609  1.0000
  C   C2        1.0  0.24140  0.90781  0.99148  1.0000
  N   N1        1.0  0.26059  0.84759  0.01751  1.0000
  C   C3        1.0  0.21156  0.88786  0.02310  1.0000
  H   H1        1.0  0.24218  0.93669  0.96900  1.0000
  C   C4        1.0  0.22348  0.85003  0.03165  1.0000
  H   H2        1.0  0.18433  0.89809  0.03842  1.0000
  C   C5        1.0  0.19932  0.82027  0.04297  1.0000
  C   C6        1.0  0.21054  0.78329  0.03541  1.0000
  C   C7        1.0  0.18782  0.75176  0.03209  1.0000
  N   N2        1.0  0.24585  0.77034  0.03229  1.0000
  C   C8        1.0  0.20956  0.72134  0.03747  1.0000
  H   H3        1.0  0.15856  0.75216  0.02527  1.0000
  C   C9        1.0  0.24659  0.73265  0.03328  1.0000
  H   H4        1.0  0.20061  0.69347  0.04271  1.0000
  C   C10       1.0  0.37488  0.71659  0.02121  1.0000
  C   C11       1.0  0.34436  0.69645  0.00335  1.0000
  C   C12       1.0  0.31375  0.72155  0.01766  1.0000
  N   N3        1.0  0.32575  0.75678  0.02975  1.0000
  H   H5        1.0  0.40248  0.70658  0.02443  1.0000
  H   H6        1.0  0.34290  0.66750  0.98241  1.0000
  C   C13       1.0  0.38720  0.78431  0.03636  1.0000
  C   C14       1.0  0.37588  0.82111  0.02673  1.0000
  C   C15       1.0  0.39855  0.85258  0.02347  1.0000
  N   N4        1.0  0.34048  0.83379  0.01546  1.0000
  C   C16       1.0  0.37666  0.88288  0.01550  1.0000
  H   H7        1.0  0.42784  0.85219  0.02722  1.0000
  C   C17       1.0  0.33960  0.87135  0.00573  1.0000
  H   H8        1.0  0.38552  0.91082  0.01679  1.0000
  C   C18       1.0  0.30879  0.89432  0.98898  1.0000
  C   C19       1.0  0.27732  0.70957  0.02569  1.0000
  C   C20       1.0  0.36307  0.75443  0.03153  1.0000
  H   H9        1.0  0.26800  0.78694  0.03201  1.0000
  H   H10       1.0  0.31841  0.81707  0.01380  1.0000
  C   C21       1.0  0.55914  0.79273  0.00115  1.0000
  H   H11       1.0  0.54422  0.81645  0.95384  1.0000
  C   C22       1.0  0.28722  0.53439  0.98538  1.0000
  H   H12       1.0  0.31266  0.54629  0.94409  1.0000
  C   C23       1.0  0.27624  0.37775  0.98867  1.0000
  C   C24       1.0  0.24060  0.36504  0.97771  1.0000
  C   C25       1.0  0.30504  0.35188  0.00183  1.0000
  C   C26       1.0  0.23160  0.32818  0.97755  1.0000
  H   H13       1.0  0.21864  0.38487  0.97049  1.0000
  C   C27       1.0  0.29698  0.31369  0.99691  1.0000
  C   C28       1.0  0.34201  0.36237  0.02126  1.0000
  C   C29       1.0  0.26003  0.30188  0.98336  1.0000
  C   C30       1.0  0.32586  0.28725  0.00665  1.0000
  C   C31       1.0  0.36945  0.33725  0.03099  1.0000
  H   H14       1.0  0.34851  0.39108  0.02893  1.0000
  C   C32       1.0  0.25312  0.26378  0.97627  1.0000
  C   C33       1.0  0.31778  0.24914  0.99369  1.0000
  C   C34       1.0  0.36268  0.29904  0.02930  1.0000
  H   H15       1.0  0.39722  0.34666  0.04027  1.0000
  C   C35       1.0  0.28059  0.23869  0.98322  1.0000
  H   H16       1.0  0.22529  0.25455  0.96544  1.0000
  C   C36       1.0  0.34685  0.22328  0.99471  1.0000
  C   C37       1.0  0.39083  0.27248  0.04798  1.0000
  H   H17       1.0  0.27395  0.20998  0.98175  1.0000
  C   C38       1.0  0.38191  0.23578  0.02744  1.0000
  H   H18       1.0  0.40359  0.21570  0.03656  1.0000
  N   N5        1.0  0.26006  0.55457  0.02435  1.0000
  N   N6        1.0  0.54190  0.76514  0.05432  1.0000
  C   C39       1.0  0.83281  0.71855  0.95062  1.0000
  C   C40       1.0  0.86790  0.73243  0.96410  1.0000
  C   C41       1.0  0.80290  0.74299  0.96527  1.0000
  C   C42       1.0  0.87579  0.76946  0.98167  1.0000
  H   H19       1.0  0.89039  0.71323  0.95954  1.0000
  C   C43       1.0  0.80956  0.78126  0.98252  1.0000
  C   C44       1.0  0.76626  0.73074  0.96628  1.0000
  C   C45       1.0  0.84617  0.79464  0.98663  1.0000
  C   C46       1.0  0.77945  0.80619  0.99394  1.0000
  C   C47       1.0  0.73767  0.75441  0.97603  1.0000
  H   H20       1.0  0.76104  0.70175  0.95914  1.0000
  C   C48       1.0  0.85117  0.83302  0.99662  1.0000
  C   C49       1.0  0.78592  0.84462  0.00626  1.0000
  C   C50       1.0  0.74293  0.79265  0.99154  1.0000
  H   H21       1.0  0.71023  0.74387  0.97234  1.0000
  C   C51       1.0  0.82264  0.85660  0.01129  1.0000
  H   H22       1.0  0.87836  0.84399  0.99267  1.0000
  C   C52       1.0  0.75592  0.86926  0.01156  1.0000
  C   C53       1.0  0.71341  0.81764  0.00226  1.0000
  H   H23       1.0  0.82827  0.88531  0.02655  1.0000
  C   C54       1.0  0.72096  0.85480  0.01167  1.0000
  H   H24       1.0  0.69815  0.87359  0.01761  1.0000
  C   C55       1.0  0.54261  0.30621  0.14955  1.0000
  H   H25       1.0  0.54939  0.33306  0.19859  1.0000
  C   C56       1.0  0.02908  0.80197  0.01128  1.0000
  H   H26       1.0  0.04567  0.78051  0.95738  1.0000
  N   N7        1.0  0.04420  0.83033  0.07276  1.0000
  N   N8        1.0  0.56708  0.28304  0.10862  1.0000
  C   C57       1.0  0.78270  0.37039  0.94533  1.0000
  C   C58       1.0  0.74900  0.39130  0.94183  1.0000
  N   N9        1.0  0.77582  0.33419  0.97304  1.0000
  C   C59       1.0  0.72228  0.36801  0.98226  1.0000
  H   H27       1.0  0.74613  0.41982  0.91355  1.0000
  C   C60       1.0  0.73896  0.33204  0.99457  1.0000
  H   H28       1.0  0.69415  0.37491  0.00001  1.0000
  C   C61       1.0  0.71903  0.29951  0.01583  1.0000
  C   C62       1.0  0.73389  0.26400  0.00110  1.0000
  C   C63       1.0  0.71385  0.23065  0.99605  1.0000
  N   N10       1.0  0.77000  0.25415  0.99162  1.0000
  C   C64       1.0  0.73800  0.20213  0.99486  1.0000
  H   H29       1.0  0.68466  0.22864  0.99256  1.0000
  C   C65       1.0  0.77385  0.21669  0.98873  1.0000
  H   H30       1.0  0.73145  0.17355  0.99688  1.0000
  C   C66       1.0  0.90262  0.21626  0.98641  1.0000
  C   C67       1.0  0.87514  0.19209  0.96726  1.0000
  C   C68       1.0  0.84150  0.21306  0.97489  1.0000
  N   N11       1.0  0.84867  0.24968  0.98522  1.0000
  H   H31       1.0  0.93128  0.21004  0.99326  1.0000
  H   H32       1.0  0.87751  0.16301  0.95017  1.0000
  C   C69       1.0  0.90582  0.28504  0.00288  1.0000
  C   C70       1.0  0.89079  0.32035  0.98686  1.0000
  C   C71       1.0  0.91062  0.35374  0.98196  1.0000
  N   N12       1.0  0.85461  0.32976  0.96813  1.0000
  C   C72       1.0  0.88629  0.38193  0.96552  1.0000
  H   H33       1.0  0.93979  0.35589  0.98997  1.0000
  C   C73       1.0  0.85052  0.36703  0.95394  1.0000
  H   H34       1.0  0.89261  0.41056  0.96202  1.0000
  C   C74       1.0  0.81747  0.38651  0.93596  1.0000
  C   C75       1.0  0.80673  0.19693  0.98074  1.0000
  C   C76       1.0  0.88586  0.25228  0.99293  1.0000
  H   H35       1.0  0.79138  0.27172  0.99326  1.0000
  H   H36       1.0  0.83349  0.31188  0.96774  1.0000
  C   C77       1.0  0.07776  0.30055  0.97101  1.0000
  H   H37       1.0  0.06368  0.30579  0.85848  1.0000
  C   C78       1.0  0.76820  0.02571  0.03384  1.0000
  H   H38       1.0  0.74425  0.04115  0.07225  1.0000
  C   C79       1.0  0.32266  0.06966  0.90054  1.0000
  H   H39       1.0  0.29503  0.06275  0.85986  1.0000
  N   N13       1.0  0.79826  0.04169  0.00313  1.0000
  N   N14       1.0  0.34628  0.04473  0.93381  1.0000
  N   N15       1.0  0.05997  0.29219  0.09438  1.0000
  N   N16       1.0  0.84090  0.54027  0.89773  1.0000
  C   C80       1.0  0.81643  0.56379  0.85755  1.0000
  H   H40       1.0  0.79008  0.55536  0.80720  1.0000
  C   C81       1.0  0.27009  0.87990  0.48349  1.0000
  C   C82       1.0  0.23910  0.90466  0.46770  1.0000
  N   N17       1.0  0.25849  0.84500  0.50967  1.0000
  C   C83       1.0  0.20901  0.88483  0.49761  1.0000
  H   H41       1.0  0.24009  0.93315  0.43725  1.0000
  C   C84       1.0  0.22129  0.84741  0.51882  1.0000
  H   H42       1.0  0.18130  0.89458  0.50147  1.0000
  C   C85       1.0  0.19767  0.81758  0.53916  1.0000
  C   C86       1.0  0.20912  0.78077  0.53162  1.0000
  C   C87       1.0  0.18639  0.74925  0.53098  1.0000
  N   N18       1.0  0.24435  0.76802  0.52150  1.0000
  C   C88       1.0  0.20817  0.71888  0.52765  1.0000
  H   H43       1.0  0.15712  0.74989  0.53319  1.0000
  C   C89       1.0  0.24514  0.73039  0.51894  1.0000
  H   H44       1.0  0.19936  0.69091  0.53097  1.0000
  C   C90       1.0  0.37359  0.71436  0.52170  1.0000
  C   C91       1.0  0.34320  0.69399  0.50360  1.0000
  C   C92       1.0  0.31248  0.71923  0.50735  1.0000
  N   N19       1.0  0.32442  0.75456  0.51556  1.0000
  H   H45       1.0  0.40114  0.70438  0.53245  1.0000
  H   H46       1.0  0.34193  0.66477  0.49035  1.0000
  C   C93       1.0  0.38587  0.78217  0.52630  1.0000
  C   C94       1.0  0.37433  0.81892  0.51609  1.0000
  C   C95       1.0  0.39671  0.85058  0.51415  1.0000
  N   N20       1.0  0.33884  0.83132  0.50559  1.0000
  C   C96       1.0  0.37456  0.88073  0.50879  1.0000
  H   H47       1.0  0.42599  0.85030  0.51715  1.0000
  C   C97       1.0  0.33760  0.86892  0.49854  1.0000
  H   H48       1.0  0.38309  0.90877  0.51182  1.0000
  C   C98       1.0  0.30665  0.89172  0.48195  1.0000
  C   C99       1.0  0.27592  0.70747  0.51089  1.0000
  C   C100      1.0  0.36174  0.75227  0.52280  1.0000
  H   H49       1.0  0.26645  0.78467  0.52084  1.0000
  H   H50       1.0  0.31703  0.81426  0.50386  1.0000
  C   C101      1.0  0.55828  0.79031  0.50963  1.0000
  H   H51       1.0  0.54377  0.81448  0.46424  1.0000
  C   C102      1.0  0.28156  0.53288  0.48590  1.0000
  H   H52       1.0  0.30767  0.54462  0.45205  1.0000
  C   C103      1.0  0.27226  0.37631  0.50356  1.0000
  C   C104      1.0  0.23672  0.36356  0.48999  1.0000
  C   C105      1.0  0.30114  0.35044  0.51337  1.0000
  C   C106      1.0  0.22767  0.32673  0.48121  1.0000
  H   H53       1.0  0.21484  0.38351  0.48660  1.0000
  C   C107      1.0  0.29319  0.31235  0.49844  1.0000
  C   C108      1.0  0.33798  0.36086  0.53933  1.0000
  C   C109      1.0  0.25629  0.30052  0.48008  1.0000
  C   C110      1.0  0.32225  0.28605  0.50244  1.0000
  C   C111      1.0  0.36557  0.33584  0.54470  1.0000
  H   H54       1.0  0.34418  0.38946  0.55593  1.0000
  C   C112      1.0  0.24980  0.26254  0.46193  1.0000
  C   C113      1.0  0.31449  0.24805  0.48117  1.0000
  C   C114      1.0  0.35894  0.29777  0.52883  1.0000
  H   H55       1.0  0.39330  0.34504  0.56108  1.0000
  C   C115      1.0  0.27740  0.23759  0.46584  1.0000
  H   H56       1.0  0.22219  0.25317  0.44448  1.0000
  C   C116      1.0  0.34362  0.22231  0.47758  1.0000
  C   C117      1.0  0.38731  0.27130  0.53652  1.0000
  H   H57       1.0  0.27081  0.20895  0.45748  1.0000
  C   C118      1.0  0.37884  0.23484  0.50732  1.0000
  H   H58       1.0  0.40099  0.21518  0.50854  1.0000
  N   N21       1.0  0.25368  0.55332  0.51149  1.0000
  N   N22       1.0  0.54050  0.76226  0.55479  1.0000
  C   C119      1.0  0.83188  0.71471  0.44641  1.0000
  C   C120      1.0  0.86700  0.72878  0.45607  1.0000
  C   C121      1.0  0.80198  0.73906  0.46510  1.0000
  C   C122      1.0  0.87462  0.76574  0.47625  1.0000
  H   H59       1.0  0.88969  0.70990  0.44698  1.0000
  C   C123      1.0  0.80857  0.77738  0.48126  1.0000
  C   C124      1.0  0.76537  0.72683  0.47181  1.0000
  C   C125      1.0  0.84509  0.79081  0.48404  1.0000
  C   C126      1.0  0.77859  0.80238  0.49387  1.0000
  C   C127      1.0  0.73683  0.75055  0.48338  1.0000
  H   H60       1.0  0.76013  0.69782  0.46798  1.0000
  C   C128      1.0  0.85040  0.82917  0.49355  1.0000
  C   C129      1.0  0.78526  0.84081  0.50410  1.0000
  C   C130      1.0  0.74209  0.78888  0.49491  1.0000
  H   H61       1.0  0.70942  0.73998  0.48408  1.0000
  C   C131      1.0  0.82196  0.85287  0.50764  1.0000
  H   H62       1.0  0.87775  0.83981  0.48939  1.0000
  C   C132      1.0  0.75537  0.86546  0.50984  1.0000
  C   C133      1.0  0.71268  0.81396  0.50604  1.0000
  H   H63       1.0  0.82742  0.88167  0.52147  1.0000
  C   C134      1.0  0.72039  0.85113  0.51231  1.0000
  H   H64       1.0  0.69773  0.87008  0.51786  1.0000
  C   C135      1.0  0.53866  0.30312  0.65673  1.0000
  H   H65       1.0  0.54861  0.30760  0.77754  1.0000
  C   C136      1.0  0.02698  0.80144  0.50078  1.0000
  H   H66       1.0  0.04163  0.79346  0.39477  1.0000
  N   N23       1.0  0.04395  0.81494  0.62057  1.0000
  N   N24       1.0  0.55961  0.30419  0.53751  1.0000
  C   C137      1.0  0.78134  0.36875  0.44943  1.0000
  C   C138      1.0  0.74850  0.39106  0.44648  1.0000
  N   N25       1.0  0.77304  0.33288  0.47754  1.0000
  C   C139      1.0  0.72091  0.36891  0.48704  1.0000
  H   H67       1.0  0.74660  0.41966  0.41852  1.0000
  C   C140      1.0  0.73610  0.33227  0.49860  1.0000
  H   H68       1.0  0.69311  0.37682  0.50679  1.0000
  C   C141      1.0  0.71450  0.30085  0.51909  1.0000
  C   C142      1.0  0.72789  0.26464  0.51363  1.0000
  C   C143      1.0  0.70715  0.23176  0.51611  1.0000
  N   N26       1.0  0.76372  0.25395  0.49913  1.0000
  C   C144      1.0  0.73069  0.20270  0.50814  1.0000
  H   H69       1.0  0.67793  0.23050  0.52157  1.0000
  C   C145      1.0  0.76675  0.21641  0.49471  1.0000
  H   H70       1.0  0.72370  0.17421  0.51089  1.0000
  C   C146      1.0  0.89557  0.21109  0.49749  1.0000
  C   C147      1.0  0.86723  0.18808  0.47672  1.0000
  C   C148      1.0  0.83440  0.21049  0.47816  1.0000
  N   N27       1.0  0.84312  0.24682  0.48593  1.0000
  H   H71       1.0  0.92379  0.20363  0.51235  1.0000
  H   H72       1.0  0.86869  0.15886  0.46452  1.0000
  C   C149      1.0  0.90214  0.27950  0.49617  1.0000
  C   C150      1.0  0.88840  0.31534  0.47939  1.0000
  C   C151      1.0  0.90905  0.34814  0.46908  1.0000
  N   N28       1.0  0.85236  0.32581  0.46806  1.0000
  C   C152      1.0  0.88540  0.37703  0.45798  1.0000
  H   H73       1.0  0.93828  0.34959  0.47073  1.0000
  C   C153      1.0  0.84916  0.36314  0.45316  1.0000
  H   H74       1.0  0.89253  0.40546  0.45406  1.0000
  C   C154      1.0  0.81664  0.38355  0.43746  1.0000
  C   C155      1.0  0.79901  0.19566  0.48188  1.0000
  C   C156      1.0  0.88041  0.24781  0.49563  1.0000
  H   H75       1.0  0.78503  0.27151  0.49297  1.0000
  H   H76       1.0  0.83096  0.30831  0.47225  1.0000
  C   C157      1.0  0.07350  0.30133  0.47714  1.0000
  H   H77       1.0  0.05785  0.32388  0.42464  1.0000
  C   C158      1.0  0.76370  0.02231  0.52575  1.0000
  H   H78       1.0  0.74187  0.03631  0.58899  1.0000
  C   C159      1.0  0.31940  0.06794  0.40380  1.0000
  H   H79       1.0  0.29263  0.06085  0.35374  1.0000
  N   N29       1.0  0.78989  0.04000  0.46489  1.0000
  N   N30       1.0  0.34203  0.04325  0.45028  1.0000
  N   N31       1.0  0.05753  0.27325  0.53329  1.0000
  N   N32       1.0  0.84155  0.53676  0.38569  1.0000
  C   C160      1.0  0.81585  0.55986  0.35648  1.0000
  H   H80       1.0  0.78858  0.55091  0.31920  1.0000
  C   C161      1.0  0.13136  0.80039  0.17833  1.0000
  C   C162      1.0  0.15507  0.82117  0.09004  1.0000
  C  Sn1       1.0  0.14568  0.84926  0.99138  1.0000
  C  Sn2       1.0  0.10775  0.85587  0.98120  1.0000
  C   C163      1.0  0.08018  0.83420  0.07009  1.0000
  C   C164      1.0  0.09395  0.80690  0.16841  1.0000
  H   H81       1.0  0.14200  0.77929  0.25447  1.0000
  O  Te1       1.0  0.16975  0.86975  0.90393  1.0000
  O  Te2       1.0  0.09356  0.88303  0.88357  1.0000
  H   H82       1.0  0.07558  0.79084  0.23683  1.0000
  Mg  Mg1       1.0  0.13733  0.90371  0.78759  1.0000
  C   C165      1.0  0.47308  0.74297  0.94592  1.0000
  C   C166      1.0  0.49493  0.76015  0.03853  1.0000
  C  Sn3       1.0  0.48428  0.78683  0.14537  1.0000
  C  Sn4       1.0  0.44696  0.79566  0.15952  1.0000
  C   C167      1.0  0.42123  0.77754  0.06642  1.0000
  C   C168      1.0  0.43626  0.75165  0.95985  1.0000
  H   H83       1.0  0.48155  0.72234  0.86353  1.0000
  O  Te3       1.0  0.51053  0.80450  0.23694  1.0000
  O  Te4       1.0  0.43556  0.82221  0.26540  1.0000
  H   H84       1.0  0.41618  0.73775  0.88824  1.0000
  Mg  Mg2       1.0  0.48156  0.83871  0.36437  1.0000
  C   C169      1.0  0.29750  0.97059  0.06798  1.0000
  C   C170      1.0  0.31530  0.94102  0.98917  1.0000
  C  Sn5       1.0  0.34283  0.94508  0.88046  1.0000
  C  Sn6       1.0  0.35681  0.98020  0.85038  1.0000
  C   C171      1.0  0.34932  0.01037  0.92992  1.0000
  C   C172      1.0  0.31771  0.00524  0.03842  1.0000
  H   H85       1.0  0.27619  0.96721  0.15200  1.0000
  O  Te5       1.0  0.35624  0.91449  0.80271  1.0000
  O  Te6       1.0  0.38434  0.98504  0.74236  1.0000
  H   H86       1.0  0.30709  0.02872  0.09950  1.0000
  Mg  Mg3       1.0  0.39375  0.93500  0.66598  1.0000
  C   C173      1.0  0.24016  0.64370  0.91948  1.0000
  C   C174      1.0  0.25972  0.66493  0.00694  1.0000
  C  Sn7       1.0  0.28480  0.64928  0.11149  1.0000
  C  Sn8       1.0  0.28618  0.61091  0.12852  1.0000
  C   C175      1.0  0.26244  0.58915  0.04041  1.0000
  C   C176      1.0  0.24151  0.60585  0.93616  1.0000
  H   H87       1.0  0.22083  0.65603  0.83876  1.0000
  O  Te7       1.0  0.30820  0.67164  0.19801  1.0000
  O  Te8       1.0  0.31099  0.59455  0.23213  1.0000
  H   H88       1.0  0.22324  0.58882  0.86839  1.0000
  Mg  Mg4       1.0  0.33723  0.63654  0.32412  1.0000
  C   C177      1.0  0.31196  0.44394  0.88679  1.0000
  C   C178      1.0  0.28914  0.42146  0.97182  1.0000
  C  Sn9       1.0  0.25884  0.43587  0.06882  1.0000
  C  Sn10      1.0  0.25544  0.47425  0.08065  1.0000
  C   C179      1.0  0.28245  0.49726  0.99502  1.0000
  C   C180      1.0  0.30862  0.48180  0.89835  1.0000
  H   H89       1.0  0.33220  0.43198  0.81192  1.0000
  O  Te9       1.0  0.23627  0.41302  0.15300  1.0000
  O  Te10      1.0  0.22944  0.49012  0.17668  1.0000
  H   H90       1.0  0.32626  0.49921  0.83245  1.0000
  Mg  Mg5       1.0  0.20501  0.44757  0.26820  1.0000
  C   C181      1.0  0.13950  0.33679  0.85572  1.0000
  C   C182      1.0  0.12016  0.31079  0.93848  1.0000
  C  Sn11      1.0  0.13376  0.28827  0.05014  1.0000
  C  Sn12      1.0  0.17148  0.29268  0.07927  1.0000
  C   C183      1.0  0.19465  0.31954  0.99594  1.0000
  C   C184      1.0  0.17671  0.34117  0.88443  1.0000
  H   H91       1.0  0.12562  0.35354  0.76950  1.0000
  O  Te11      1.0  0.11403  0.26242  0.13173  1.0000
  O  Te12      1.0  0.18981  0.27130  0.19027  1.0000
  H   H92       1.0  0.19168  0.36131  0.82045  1.0000
  Mg  Mg6       1.0  0.15112  0.23977  0.27141  1.0000
  C   C185      1.0  0.36616  0.14815  0.05180  1.0000
  C   C186      1.0  0.35302  0.17859  0.97983  1.0000
  C  Sn13      1.0  0.32487  0.17306  0.87098  1.0000
  C  Sn14      1.0  0.31379  0.13712  0.83376  1.0000
  C   C187      1.0  0.33115  0.10760  0.90648  1.0000
  C   C188      1.0  0.35523  0.11269  0.01520  1.0000
  H   H93       1.0  0.38792  0.15267  0.13598  1.0000
  O  Te13      1.0  0.30799  0.20302  0.80012  1.0000
  O  Te14      1.0  0.28572  0.13081  0.72543  1.0000
  H   H94       1.0  0.36853  0.08970  0.07098  1.0000
  Mg  Mg7       1.0  0.27108  0.18048  0.65999  1.0000
  C   C189      1.0  0.44744  0.31659  0.19709  1.0000
  C   C190      1.0  0.43148  0.28941  0.10480  1.0000
  C  Sn15      1.0  0.45313  0.26450  0.02453  1.0000
  C  Sn16      1.0  0.49147  0.26692  0.03715  1.0000
  C   C191      1.0  0.50717  0.29420  0.12987  1.0000
  C   C192      1.0  0.48524  0.31899  0.20965  1.0000
  H   H95       1.0  0.43047  0.33576  0.25890  1.0000
  O  Te15      1.0  0.44081  0.23827  0.93279  1.0000
  O  Te16      1.0  0.51782  0.24312  0.95822  1.0000
  H   H96       1.0  0.49760  0.34002  0.28118  1.0000
  Mg  Mg8       1.0  0.48270  0.21115  0.84760  1.0000
  C   C193      1.0  0.79840  0.65735  0.79452  1.0000
  C   C194      1.0  0.82149  0.67615  0.89738  1.0000
  C  Sn17      1.0  0.84655  0.65718  0.99116  1.0000
  C  Sn18      1.0  0.84847  0.61867  0.98148  1.0000
  C   C195      1.0  0.82527  0.60012  0.87812  1.0000
  C   C196      1.0  0.80029  0.61937  0.78485  1.0000
  H   H97       1.0  0.77908  0.67225  0.72229  1.0000
  O  Te17      1.0  0.86534  0.67564  0.09334  1.0000
  O  Te18      1.0  0.86921  0.59828  0.07382  1.0000
  H   H98       1.0  0.78243  0.60481  0.70515  1.0000
  Mg  Mg9       1.0  0.89460  0.63671  0.19515  1.0000
  C   C197      1.0  0.94938  0.75695  0.89166  1.0000
  C   C198      1.0  0.92079  0.77332  0.97147  1.0000
  C  Sn19      1.0  0.92325  0.80201  0.07161  1.0000
  C  Sn20      1.0  0.95909  0.81527  0.09195  1.0000
  C   C199      1.0  0.98750  0.79872  0.01149  1.0000
  C   C200      1.0  0.98474  0.77002  0.91161  1.0000
  H   H99       1.0  0.94410  0.73417  0.81431  1.0000
  O  Te19      1.0  0.89437  0.81804  0.15049  1.0000
  O  Te20      1.0  0.96637  0.84467  0.19128  1.0000
  H   H100      1.0  0.00688  0.75736  0.84976  1.0000
  Mg  Mg10      1.0  0.91799  0.85740  0.27310  1.0000
  C   C201      1.0  0.79290  0.95642  0.92254  1.0000
  C   C202      1.0  0.76721  0.98104  0.00030  1.0000
  C  Sn21      1.0  0.73847  0.96944  0.09169  1.0000
  C  Sn22      1.0  0.73133  0.93170  0.10528  1.0000
  C   C203      1.0  0.75314  0.90653  0.02711  1.0000
  C   C204      1.0  0.78588  0.91920  0.93593  1.0000
  H   H101      1.0  0.81511  0.96563  0.85206  1.0000
  O  Te21      1.0  0.71712  0.99516  0.16855  1.0000
  O  Te22      1.0  0.70279  0.91936  0.19589  1.0000
  H   H102      1.0  0.80264  0.89954  0.87582  1.0000
  Mg  Mg11      1.0  0.68134  0.96493  0.27822  1.0000
  C   C205      1.0  0.62112  0.83004  0.89792  1.0000
  C   C206      1.0  0.60146  0.80276  0.97130  1.0000
  C  Sn23      1.0  0.61516  0.77662  0.06734  1.0000
  C  Sn24      1.0  0.65331  0.77866  0.09016  1.0000
  C   C207      1.0  0.67272  0.80606  0.01631  1.0000
  C   C208      1.0  0.65874  0.83208  0.92041  1.0000
  H   H103      1.0  0.60715  0.84959  0.82379  1.0000
  O  Te23      1.0  0.59512  0.74954  0.13972  1.0000
  O  Te24      1.0  0.67175  0.75364  0.18558  1.0000
  H   H104      1.0  0.67396  0.85320  0.86369  1.0000
  Mg  Mg12      1.0  0.63251  0.72171  0.25885  1.0000
  C   C209      1.0  0.64420  0.32536  0.96800  1.0000
  C   C210      1.0  0.66960  0.30621  0.03664  1.0000
  C  Sn25      1.0  0.66387  0.27870  0.14571  1.0000
  C  Sn26      1.0  0.62795  0.26950  0.18655  1.0000
  C   C211      1.0  0.59865  0.28805  0.11713  1.0000
  C   C212      1.0  0.60469  0.31554  0.00817  1.0000
  H   H105      1.0  0.64886  0.34662  0.88363  1.0000
  O  Te25      1.0  0.69362  0.26060  0.21322  1.0000
  O  Te26      1.0  0.62145  0.24211  0.29517  1.0000
  H   H106      1.0  0.58593  0.33052  0.95496  1.0000
  Mg  Mg13      1.0  0.67087  0.22528  0.35522  1.0000
  C   C213      1.0  0.97877  0.25989  0.92806  1.0000
  C   C214      1.0  0.94702  0.27588  0.01227  1.0000
  C  Sn27      1.0  0.95545  0.30001  0.13400  1.0000
  C  Sn28      1.0  0.99229  0.30747  0.17182  1.0000
  C   C215      1.0  0.01978  0.29059  0.08680  1.0000
  C   C216      1.0  0.01511  0.26724  0.96524  1.0000
  H   H107      1.0  0.97201  0.24125  0.83395  1.0000
  O  Te27      1.0  0.92747  0.31649  0.21698  1.0000
  O  Te28      1.0  0.00147  0.33148  0.29288  1.0000
  H   H108      1.0  0.03654  0.25430  0.90000  1.0000
  Mg  Mg14      1.0  0.95369  0.34720  0.37197  1.0000
  C   C217      1.0  0.85184  0.44910  0.79761  1.0000
  C   C218      1.0  0.82754  0.42999  0.88974  1.0000
  C  Sn29      1.0  0.80430  0.44868  0.98977  1.0000
  C  Sn30      1.0  0.80545  0.48722  0.99743  1.0000
  C   C219      1.0  0.82984  0.50610  0.90471  1.0000
  C   C220      1.0  0.85299  0.48712  0.80505  1.0000
  H   H109      1.0  0.86974  0.43443  0.72043  1.0000
  O  Te29      1.0  0.77613  0.42840  0.08105  1.0000
  O  Te30      1.0  0.77845  0.50583  0.09636  1.0000
  H   H110      1.0  0.87178  0.50193  0.73366  1.0000
  Mg  Mg15      1.0  0.75033  0.46702  0.19780  1.0000
  C   C221      1.0  0.82989  0.12736  0.10650  1.0000
  C   C222      1.0  0.81046  0.15187  0.01202  1.0000
  C  Sn31      1.0  0.78776  0.14008  0.90782  1.0000
  C  Sn32      1.0  0.78037  0.10229  0.89833  1.0000
  C   C223      1.0  0.79994  0.07800  0.99342  1.0000
  C   C224      1.0  0.82261  0.09009  0.09725  1.0000
  H   H111      1.0  0.85056  0.13730  0.18689  1.0000
  O  Te31      1.0  0.76861  0.16493  0.81424  1.0000
  O  Te32      1.0  0.75375  0.08902  0.79524  1.0000
  H   H112      1.0  0.83763  0.07111  0.17045  1.0000
  Mg  Mg16      1.0  0.73494  0.13362  0.69194  1.0000
  C   C225      1.0  0.11442  0.79596  0.71617  1.0000
  C   C226      1.0  0.08693  0.81579  0.63995  1.0000
  C  Sn33      1.0  0.09531  0.83954  0.51875  1.0000
  C  Sn34      1.0  0.13190  0.84345  0.47323  1.0000
  C   C227      1.0  0.15919  0.82347  0.55014  1.0000
  C   C228      1.0  0.15051  0.79979  0.67130  1.0000
  H   H113      1.0  0.10770  0.77762  0.80986  1.0000
  O  Te33      1.0  0.06752  0.85916  0.44388  1.0000
  O  Te34      1.0  0.14102  0.86699  0.35243  1.0000
  H   H114      1.0  0.17179  0.78442  0.73022  1.0000
  Mg  Mg17      1.0  0.09357  0.88783  0.28598  1.0000
  C   C229      1.0  0.45187  0.74422  0.43284  1.0000
  C   C230      1.0  0.42974  0.76812  0.51627  1.0000
  C  Sn35      1.0  0.44499  0.79223  0.62524  1.0000
  C  Sn36      1.0  0.48312  0.79236  0.65087  1.0000
  C   C231      1.0  0.50503  0.76837  0.56673  1.0000
  C   C232      1.0  0.48948  0.74434  0.45801  1.0000
  H   H115      1.0  0.43984  0.72564  0.34866  1.0000
  O  Te35      1.0  0.42249  0.81592  0.70763  1.0000
  O  Te36      1.0  0.49908  0.81619  0.75904  1.0000
  H   H116      1.0  0.50662  0.72586  0.39336  1.0000
  Mg  Mg18      1.0  0.45703  0.84329  0.84263  1.0000
  C   C233      1.0  0.35273  0.97122  0.35101  1.0000
  C   C234      1.0  0.34388  0.00071  0.43043  1.0000
  C  Sn37      1.0  0.30989  0.99512  0.53764  1.0000
  C  Sn38      1.0  0.29744  0.95932  0.56564  1.0000
  C   C235      1.0  0.31291  0.93000  0.48567  1.0000
  C   C236      1.0  0.34047  0.93590  0.37860  1.0000
  H   H117      1.0  0.37407  0.97578  0.26823  1.0000
  O  Te37      1.0  0.30134  0.02489  0.61594  1.0000
  O  Te38      1.0  0.26993  0.95297  0.67221  1.0000
  H   H118      1.0  0.35230  0.91307  0.31721  1.0000
  Mg  Mg19      1.0  0.26448  0.00235  0.75005  1.0000
  C   C237      1.0  0.23842  0.64280  0.39653  1.0000
  C   C238      1.0  0.26150  0.66403  0.49005  1.0000
  C  Sn39      1.0  0.28443  0.64764  0.60134  1.0000
  C  Sn40      1.0  0.28420  0.60927  0.61903  1.0000
  C   C239      1.0  0.26102  0.58827  0.52483  1.0000
  C   C240      1.0  0.23818  0.60495  0.41386  1.0000
  H   H119      1.0  0.22076  0.65571  0.31061  1.0000
  O  Te39      1.0  0.30732  0.66925  0.69386  1.0000
  O  Te40      1.0  0.30684  0.59218  0.72931  1.0000
  H   H120      1.0  0.22032  0.58851  0.34140  1.0000
  Mg  Mg20      1.0  0.33318  0.63331  0.82790  1.0000
  C   C241      1.0  0.24760  0.46750  0.59166  1.0000
  C   C242      1.0  0.27302  0.48975  0.52017  1.0000
  C  Sn41      1.0  0.30091  0.47436  0.43277  1.0000
  C  Sn42      1.0  0.30332  0.43599  0.41682  1.0000
  C   C243      1.0  0.27775  0.41397  0.48870  1.0000
  C   C244      1.0  0.24996  0.42965  0.57593  1.0000
  H   H121      1.0  0.22609  0.47963  0.65909  1.0000
  O  Te41      1.0  0.32607  0.49698  0.36216  1.0000
  O  Te42      1.0  0.33092  0.41990  0.33008  1.0000
  H   H122      1.0  0.23028  0.41243  0.63119  1.0000
  Mg  Mg21      1.0  0.35876  0.46218  0.25593  1.0000
  C   C245      1.0  0.16595  0.28311  0.57317  1.0000
  C   C246      1.0  0.18564  0.30925  0.49277  1.0000
  C  Sn43      1.0  0.16763  0.33527  0.40085  1.0000
  C  Sn44      1.0  0.12919  0.33507  0.38947  1.0000
  C   C247      1.0  0.10974  0.30882  0.47046  1.0000
  C   C248      1.0  0.12804  0.28290  0.56207  1.0000
  H   H123      1.0  0.18010  0.26307  0.64413  1.0000
  O  Te43      1.0  0.18772  0.36118  0.32124  1.0000
  O  Te44      1.0  0.11050  0.36077  0.29847  1.0000
  H   H124      1.0  0.11278  0.26269  0.62439  1.0000
  Mg  Mg22      1.0  0.14991  0.39056  0.21200  1.0000
  C   C249      1.0  0.36257  0.14779  0.54432  1.0000
  C   C250      1.0  0.34569  0.17678  0.46598  1.0000
  C  Sn45      1.0  0.31785  0.17027  0.35668  1.0000
  C  Sn46      1.0  0.30675  0.13404  0.32550  1.0000
  C   C251      1.0  0.32378  0.10522  0.40457  1.0000
  C   C252      1.0  0.35162  0.11204  0.51368  1.0000
  H   H125      1.0  0.38409  0.15306  0.62880  1.0000
  O  Te45      1.0  0.30129  0.19956  0.27941  1.0000
  O  Te46      1.0  0.27898  0.12676  0.21687  1.0000
  H   H126      1.0  0.36467  0.08958  0.57439  1.0000
  Mg  Mg23      1.0  0.26473  0.17578  0.14152  1.0000
  C   C253      1.0  0.46316  0.31375  0.73066  1.0000
  C   C254      1.0  0.49396  0.29817  0.66411  1.0000
  C  Sn47      1.0  0.49043  0.27343  0.54044  1.0000
  C  Sn48      1.0  0.45538  0.26417  0.48255  1.0000
  C   C255      1.0  0.42473  0.27992  0.54985  1.0000
  C   C256      1.0  0.42858  0.30464  0.67359  1.0000
  H   H127      1.0  0.46614  0.33289  0.82634  1.0000
  O  Te47      1.0  0.52149  0.25811  0.47535  1.0000
  O  Te48      1.0  0.45107  0.23952  0.35902  1.0000
  H   H128      1.0  0.40473  0.31671  0.72502  1.0000
  Mg  Mg24      1.0  0.50161  0.22590  0.30905  1.0000
  C   C257      1.0  0.79286  0.63288  0.29296  1.0000
  C   C258      1.0  0.81439  0.60446  0.35176  1.0000
  C  Sn49      1.0  0.84371  0.61181  0.45248  1.0000
  C  Sn50      1.0  0.85154  0.64831  0.49495  1.0000
  C   C259      1.0  0.82981  0.67655  0.43559  1.0000
  C   C260      1.0  0.80055  0.66889  0.33485  1.0000
  H   H129      1.0  0.77020  0.62696  0.21508  1.0000
  O  Te49      1.0  0.86495  0.58309  0.51010  1.0000
  O  Te50      1.0  0.88066  0.65642  0.59546  1.0000
  H   H130      1.0  0.78387  0.69090  0.28943  1.0000
  Mg  Mg25      1.0  0.90169  0.60794  0.64343  1.0000
  C   C261      1.0  0.94747  0.75734  0.37098  1.0000
  C   C262      1.0  0.91947  0.76979  0.46579  1.0000
  C  Sn51      1.0  0.92618  0.79647  0.57927  1.0000
  C  Sn52      1.0  0.96160  0.81090  0.59785  1.0000
  C   C263      1.0  0.98942  0.79828  0.50234  1.0000
  C   C264      1.0  0.98241  0.77157  0.38919  1.0000
  H   H131      1.0  0.94204  0.73668  0.28337  1.0000
  O  Te51      1.0  0.89790  0.80860  0.67305  1.0000
  O  Te52      1.0  0.96905  0.83760  0.71031  1.0000
  H   H132      1.0  0.00409  0.76195  0.31573  1.0000
  Mg  Mg26      1.0  0.92153  0.84535  0.80997  1.0000
  C   C265      1.0  0.78972  0.95343  0.41216  1.0000
  C   C266      1.0  0.76780  0.97825  0.49167  1.0000
  C  Sn53      1.0  0.74079  0.96588  0.59061  1.0000
  C  Sn54      1.0  0.73570  0.92794  0.61011  1.0000
  C   C267      1.0  0.75779  0.90333  0.53013  1.0000
  C   C268      1.0  0.78473  0.91601  0.43137  1.0000
  H   H133      1.0  0.81058  0.96323  0.33581  1.0000
  O  Te53      1.0  0.71912  0.99105  0.66911  1.0000
  O  Te54      1.0  0.70891  0.91483  0.70832  1.0000
  H   H134      1.0  0.80172  0.89679  0.36991  1.0000
  Mg  Mg27      1.0  0.68622  0.95985  0.79002  1.0000
  C   C269      1.0  0.62037  0.82691  0.40683  1.0000
  C   C270      1.0  0.60063  0.80028  0.48395  1.0000
  C  Sn55      1.0  0.61840  0.77510  0.58101  1.0000
  C  Sn56      1.0  0.65664  0.77670  0.60104  1.0000
  C   C271      1.0  0.67614  0.80347  0.52345  1.0000
  C   C272      1.0  0.65808  0.82851  0.42656  1.0000
  H   H135      1.0  0.60640  0.84630  0.33193  1.0000
  O  Te55      1.0  0.59827  0.74866  0.65715  1.0000
  O  Te56      1.0  0.67509  0.75189  0.69740  1.0000
  H   H136      1.0  0.67337  0.84915  0.36694  1.0000
  Mg  Mg28      1.0  0.63571  0.72088  0.77616  1.0000
  C   C273      1.0  0.62690  0.28060  0.66883  1.0000
  C   C274      1.0  0.60177  0.30118  0.58195  1.0000
  C  Sn57      1.0  0.61346  0.32432  0.46399  1.0000
  C  Sn58      1.0  0.65103  0.32684  0.43265  1.0000
  C   C275      1.0  0.67595  0.30611  0.52015  1.0000
  C   C276      1.0  0.66396  0.28305  0.63796  1.0000
  H   H137      1.0  0.61762  0.26274  0.75992  1.0000
  O  Te57      1.0  0.58799  0.34470  0.37834  1.0000
  O  Te58      1.0  0.66345  0.34974  0.31538  1.0000
  H   H138      1.0  0.68342  0.26710  0.70513  1.0000
  Mg  Mg29      1.0  0.61825  0.37205  0.23053  1.0000
  C   C277      1.0  0.97044  0.30310  0.62960  1.0000
  C   C278      1.0  0.94678  0.28186  0.53888  1.0000
  C  Sn59      1.0  0.96038  0.25471  0.44085  1.0000
  C  Sn60      1.0  0.99838  0.24877  0.43379  1.0000
  C   C279      1.0  0.02183  0.27015  0.52511  1.0000
  C   C280      1.0  0.00793  0.29725  0.62276  1.0000
  H   H139      1.0  0.95969  0.32405  0.70523  1.0000
  O  Te59      1.0  0.93636  0.23374  0.35095  1.0000
  O  Te60      1.0  0.01270  0.22181  0.33686  1.0000
  H   H140      1.0  0.02625  0.31368  0.69307  1.0000
  Mg  Mg30      1.0  0.96897  0.20030  0.23674  1.0000
  C   C281      1.0  0.79944  0.45841  0.51965  1.0000
  C   C282      1.0  0.81520  0.42955  0.43788  1.0000
  C  Sn61      1.0  0.84190  0.43620  0.32774  1.0000
  C  Sn62      1.0  0.85296  0.47244  0.29921  1.0000
  C   C283      1.0  0.83704  0.50112  0.38170  1.0000
  C   C284      1.0  0.81035  0.49416  0.49162  1.0000
  H   H141      1.0  0.77880  0.45302  0.60476  1.0000
  O  Te61      1.0  0.85736  0.40705  0.24704  1.0000
  O  Te62      1.0  0.87959  0.47986  0.18981  1.0000
  H   H142      1.0  0.79816  0.51651  0.55498  1.0000
  Mg  Mg31      1.0  0.89260  0.43099  0.10939  1.0000
  C   C285      1.0  0.76307  0.10876  0.36709  1.0000
  C   C286      1.0  0.78316  0.08275  0.45094  1.0000
  C  Sn63      1.0  0.80969  0.09359  0.55976  1.0000
  C  Sn64      1.0  0.81618  0.13118  0.58488  1.0000
  C   C287      1.0  0.79592  0.15699  0.50048  1.0000
  C   C288      1.0  0.76944  0.14585  0.39183  1.0000
  H   H143      1.0  0.74257  0.10014  0.28308  1.0000
  O  Te63      1.0  0.82952  0.06724  0.64250  1.0000
  O  Te64      1.0  0.84253  0.14277  0.69298  1.0000
  H   H144      1.0  0.75388  0.16599  0.32700  1.0000
  Mg  Mg32      1.0  0.86251  0.09654  0.77714  1.0000
