data_image0
_chemical_formula_structural       C2NCHCHC3NCHCHC3NH2C3NCHCHC3H2C4HCHCH2C4HCHCH2CHCHC4HC5HC3HCHC2HC3HC5HCHCHCHCH2CH2N2C4HC6HC5HCHCHCHC2HCH2C3HC5HCHCHCHCH2CH2CHCHN2C2NCHCHC3NCHCHC3NH2C3NCHCHC3H2C4HCHCH2CHCHCHN4CHC2NCHCHC3NCHCHC3NH2C3NCHCHC3H2C4HCHCH2C4HCHCH2CHCHC4HC6HC5HCHCHCHC2HCH2CHN2C4HCHCH2C4HC6HC5HCHCHCHC2HCH2C3HC5HCHCHCHCH2CH2CHCHN2C2NCHCHC3NCHCHC3NH2C3NCHCHC3H2C4HCHCH2CHCHCHN4CHC2Sn2C2HTe2HMgC2Sn2C2HTe2HMgC2Sn2C2HTe2HMgC2Sn2C2HTe2HMgC2Sn2C2HTe2HMgC2Sn2C2HTe2HMgC2Sn2C2HTe2HMgC2Sn2C2HTe2HMgC2Sn2C2HTe2HMgC2Sn2C2HTe2HMgC2Sn2C2HTe2HMgC2Sn2C2HTe2HMgC2Sn2C2HTe2HMgC2Sn2C2HTe2HMgC2Sn2C2HTe2HMgC2Sn2C2HTe2HMg
_chemical_formula_sum              "C320 N32 H176 Sn32 Te32 Mg16"
_cell_length_a       36.8687
_cell_length_b       36.7539
_cell_length_c       8.54894
_cell_angle_alpha    90.1928
_cell_angle_beta     91.006
_cell_angle_gamma    89.6311

_symmetry_space_group_name_H-M    'P1'
_space_group_IT_number       1

loop_
  _space_group_symop_operation_xyz
  'x, y, z'

loop_
  _atom_site_type_symbol
  _atom_site_label
  _atom_site_symmetry_multiplicity
  _atom_site_fract_x
  _atom_site_fract_y
  _atom_site_fract_z
  _atom_site_occupancy
  C   C1        1.0  0.27222  0.88271  0.99609  1.0000
  C   C2        1.0  0.24140  0.90781  0.99148  1.0000
  N   N1        1.0  0.26059  0.84759  0.01751  1.0000
  C   C3        1.0  0.21156  0.88786  0.02310  1.0000
  H   H1        1.0  0.24218  0.93669  0.96900  1.0000
  C   C4        1.0  0.22348  0.85003  0.03165  1.0000
  H   H2        1.0  0.18433  0.89809  0.03842  1.0000
  C   C5        1.0  0.19932  0.82027  0.04297  1.0000
  C   C6        1.0  0.21054  0.78329  0.03541  1.0000
  C   C7        1.0  0.18782  0.75176  0.03209  1.0000
  N   N2        1.0  0.24585  0.77034  0.03229  1.0000
  C   C8        1.0  0.20956  0.72134  0.03747  1.0000
  H   H3        1.0  0.15856  0.75216  0.02527  1.0000
  C   C9        1.0  0.24659  0.73265  0.03328  1.0000
  H   H4        1.0  0.20061  0.69347  0.04271  1.0000
  C   C10       1.0  0.37488  0.71659  0.02121  1.0000
  C   C11       1.0  0.34436  0.69645  0.00335  1.0000
  C   C12       1.0  0.31375  0.72155  0.01766  1.0000
  N   N3        1.0  0.32575  0.75678  0.02975  1.0000
  H   H5        1.0  0.40248  0.70658  0.02443  1.0000
  H   H6        1.0  0.34290  0.66750  0.98241  1.0000
  C   C13       1.0  0.38720  0.78431  0.03636  1.0000
  C   C14       1.0  0.37588  0.82111  0.02673  1.0000
  C   C15       1.0  0.39855  0.85258  0.02347  1.0000
  N   N4        1.0  0.34048  0.83379  0.01546  1.0000
  C   C16       1.0  0.37666  0.88288  0.01550  1.0000
  H   H7        1.0  0.42784  0.85219  0.02722  1.0000
  C   C17       1.0  0.33960  0.87135  0.00573  1.0000
  H   H8        1.0  0.38552  0.91082  0.01679  1.0000
  C   C18       1.0  0.30879  0.89432  0.98898  1.0000
  C   C19       1.0  0.27732  0.70957  0.02569  1.0000
  C   C20       1.0  0.36307  0.75443  0.03153  1.0000
  H   H9        1.0  0.26800  0.78694  0.03201  1.0000
  H   H10       1.0  0.31841  0.81707  0.01380  1.0000
  C   C21       1.0  0.15965  0.82651  0.06098  1.0000
  C   C22       1.0  0.13993  0.80384  0.16101  1.0000
  C   C23       1.0  0.13925  0.85277  0.97599  1.0000
  C   C24       1.0  0.10221  0.80436  0.16232  1.0000
  H   H11       1.0  0.15461  0.78545  0.23910  1.0000
  C   C25       1.0  0.10174  0.85590  0.98866  1.0000
  H   H12       1.0  0.15259  0.86957  0.89036  1.0000
  C   C26       1.0  0.08243  0.83027  0.07519  1.0000
  H   H13       1.0  0.08788  0.78557  0.23686  1.0000
  H   H14       1.0  0.08677  0.87575  0.91855  1.0000
  C   C27       1.0  0.42706  0.77764  0.04713  1.0000
  C   C28       1.0  0.44475  0.75168  0.95263  1.0000
  C   C29       1.0  0.44915  0.79810  0.15046  1.0000
  C   C30       1.0  0.48206  0.74582  0.96280  1.0000
  H   H15       1.0  0.42918  0.73700  0.86404  1.0000
  C   C31       1.0  0.48681  0.79476  0.15110  1.0000
  H   H16       1.0  0.43648  0.81663  0.23286  1.0000
  C   C32       1.0  0.50381  0.76856  0.05693  1.0000
  H   H17       1.0  0.49502  0.72588  0.88756  1.0000
  H   H18       1.0  0.50331  0.81119  0.23052  1.0000
  C   C33       1.0  0.55914  0.79273  0.00115  1.0000
  H   H19       1.0  0.54422  0.81645  0.95384  1.0000
  C   C34       1.0  0.28722  0.53439  0.98538  1.0000
  H   H20       1.0  0.31266  0.54629  0.94409  1.0000
  C   C35       1.0  0.27624  0.37775  0.98867  1.0000
  C   C36       1.0  0.24060  0.36504  0.97771  1.0000
  C   C37       1.0  0.30504  0.35188  0.00183  1.0000
  C   C38       1.0  0.23160  0.32818  0.97755  1.0000
  H   H21       1.0  0.21864  0.38487  0.97049  1.0000
  C   C39       1.0  0.29698  0.31369  0.99691  1.0000
  C   C40       1.0  0.34201  0.36237  0.02126  1.0000
  C   C41       1.0  0.26003  0.30188  0.98336  1.0000
  C   C42       1.0  0.32586  0.28725  0.00665  1.0000
  C   C43       1.0  0.36945  0.33725  0.03099  1.0000
  H   H22       1.0  0.34851  0.39108  0.02893  1.0000
  C   C44       1.0  0.25312  0.26378  0.97627  1.0000
  C   C45       1.0  0.31778  0.24914  0.99369  1.0000
  C   C46       1.0  0.36268  0.29904  0.02930  1.0000
  H   H23       1.0  0.39722  0.34666  0.04027  1.0000
  C   C47       1.0  0.28059  0.23869  0.98322  1.0000
  H   H24       1.0  0.22529  0.25455  0.96544  1.0000
  C   C48       1.0  0.34685  0.22328  0.99471  1.0000
  C   C49       1.0  0.39083  0.27248  0.04798  1.0000
  H   H25       1.0  0.27395  0.20998  0.98175  1.0000
  C   C50       1.0  0.38191  0.23578  0.02744  1.0000
  C   C51       1.0  0.34172  0.18400  0.96404  1.0000
  C   C52       1.0  0.42927  0.28145  0.08161  1.0000
  H   H26       1.0  0.40359  0.21570  0.03656  1.0000
  C   C53       1.0  0.31526  0.17126  0.85648  1.0000
  C   C54       1.0  0.36388  0.15774  0.04049  1.0000
  C   C55       1.0  0.44038  0.31094  0.17666  1.0000
  C   C56       1.0  0.45690  0.25934  0.01776  1.0000
  C   C57       1.0  0.30898  0.13422  0.83727  1.0000
  H   H27       1.0  0.30004  0.19062  0.78499  1.0000
  C   C58       1.0  0.35895  0.12076  0.01506  1.0000
  H   H28       1.0  0.38399  0.16652  0.12702  1.0000
  C   C59       1.0  0.47699  0.31931  0.19814  1.0000
  H   H29       1.0  0.42017  0.32663  0.23936  1.0000
  C   C60       1.0  0.49329  0.26671  0.04415  1.0000
  H   H30       1.0  0.44951  0.23697  0.94027  1.0000
  C   C61       1.0  0.33060  0.10839  0.91658  1.0000
  H   H31       1.0  0.28796  0.12501  0.75561  1.0000
  H   H32       1.0  0.37554  0.10068  0.07691  1.0000
  C   C62       1.0  0.50408  0.29743  0.13164  1.0000
  H   H33       1.0  0.48468  0.34222  0.27250  1.0000
  H   H34       1.0  0.51422  0.24989  0.99166  1.0000
  N   N5        1.0  0.26006  0.55457  0.02435  1.0000
  N   N6        1.0  0.54190  0.76514  0.05432  1.0000
  C   C63       1.0  0.83281  0.71855  0.95062  1.0000
  C   C64       1.0  0.86790  0.73243  0.96410  1.0000
  C   C65       1.0  0.80290  0.74299  0.96527  1.0000
  C   C66       1.0  0.87579  0.76946  0.98167  1.0000
  H   H35       1.0  0.89039  0.71323  0.95954  1.0000
  C   C67       1.0  0.80956  0.78126  0.98252  1.0000
  C   C68       1.0  0.76626  0.73074  0.96628  1.0000
  C   C69       1.0  0.84617  0.79464  0.98663  1.0000
  C   C70       1.0  0.91460  0.77969  0.99029  1.0000
  C   C71       1.0  0.77945  0.80619  0.99394  1.0000
  C   C72       1.0  0.73767  0.75441  0.97603  1.0000
  H   H36       1.0  0.76104  0.70175  0.95914  1.0000
  C   C73       1.0  0.85117  0.83302  0.99662  1.0000
  C   C74       1.0  0.94004  0.75885  0.90626  1.0000
  C   C75       1.0  0.92828  0.80862  0.08302  1.0000
  C   C76       1.0  0.78592  0.84462  0.00626  1.0000
  C   C77       1.0  0.74293  0.79265  0.99154  1.0000
  H   H37       1.0  0.71023  0.74387  0.97234  1.0000
  C   C78       1.0  0.82264  0.85660  0.01129  1.0000
  H   H38       1.0  0.87836  0.84399  0.99267  1.0000
  C   C79       1.0  0.97695  0.76608  0.91615  1.0000
  H   H39       1.0  0.93049  0.73752  0.82764  1.0000
  C   C80       1.0  0.96502  0.81698  0.08758  1.0000
  H   H40       1.0  0.91009  0.82358  0.15868  1.0000
  C   C81       1.0  0.75592  0.86926  0.01156  1.0000
  C   C82       1.0  0.71341  0.81764  0.00226  1.0000
  H   H41       1.0  0.82827  0.88531  0.02655  1.0000
  C   C83       1.0  0.99006  0.79557  0.00533  1.0000
  H   H42       1.0  0.99593  0.74967  0.84925  1.0000
  H   H43       1.0  0.97517  0.83915  0.16038  1.0000
  C   C84       1.0  0.72096  0.85480  0.01167  1.0000
  C   C85       1.0  0.75933  0.90932  0.01444  1.0000
  C   C86       1.0  0.67456  0.80758  0.99667  1.0000
  H   H44       1.0  0.69815  0.87359  0.01761  1.0000
  C   C87       1.0  0.78591  0.92780  0.92869  1.0000
  C   C88       1.0  0.73436  0.93067  0.09861  1.0000
  C   C89       1.0  0.65960  0.77876  0.08265  1.0000
  C   C90       1.0  0.65057  0.82966  0.90792  1.0000
  C   C91       1.0  0.78915  0.96533  0.93641  1.0000
  H   H45       1.0  0.80327  0.91252  0.85050  1.0000
  C   C92       1.0  0.73636  0.96847  0.09971  1.0000
  H   H46       1.0  0.71394  0.91738  0.16837  1.0000
  C   C93       1.0  0.62235  0.77257  0.08109  1.0000
  H   H47       1.0  0.67718  0.76230  0.15790  1.0000
  C   C94       1.0  0.61335  0.82423  0.90999  1.0000
  H   H48       1.0  0.66161  0.85098  0.83528  1.0000
  C   C95       1.0  0.76457  0.98628  0.02321  1.0000
  H   H49       1.0  0.81011  0.97929  0.87227  1.0000
  H   H50       1.0  0.71708  0.98441  0.16693  1.0000
  C   C96       1.0  0.59859  0.79570  0.99702  1.0000
  H   H51       1.0  0.61090  0.75078  0.15014  1.0000
  H   H52       1.0  0.59537  0.84172  0.84085  1.0000
  C   C97       1.0  0.54261  0.30621  0.14955  1.0000
  H   H53       1.0  0.54939  0.33306  0.19859  1.0000
  C   C98       1.0  0.02908  0.80197  0.01128  1.0000
  H   H54       1.0  0.04567  0.78051  0.95738  1.0000
  N   N7        1.0  0.04420  0.83033  0.07276  1.0000
  N   N8        1.0  0.56708  0.28304  0.10862  1.0000
  C   C99       1.0  0.78270  0.37039  0.94533  1.0000
  C   C100      1.0  0.74900  0.39130  0.94183  1.0000
  N   N9        1.0  0.77582  0.33419  0.97304  1.0000
  C   C101      1.0  0.72228  0.36801  0.98226  1.0000
  H   H55       1.0  0.74613  0.41982  0.91355  1.0000
  C   C102      1.0  0.73896  0.33204  0.99457  1.0000
  H   H56       1.0  0.69415  0.37491  0.00001  1.0000
  C   C103      1.0  0.71903  0.29951  0.01583  1.0000
  C   C104      1.0  0.73389  0.26400  0.00110  1.0000
  C   C105      1.0  0.71385  0.23065  0.99605  1.0000
  N   N10       1.0  0.77000  0.25415  0.99162  1.0000
  C   C106      1.0  0.73800  0.20213  0.99486  1.0000
  H   H57       1.0  0.68466  0.22864  0.99256  1.0000
  C   C107      1.0  0.77385  0.21669  0.98873  1.0000
  H   H58       1.0  0.73145  0.17355  0.99688  1.0000
  C   C108      1.0  0.90262  0.21626  0.98641  1.0000
  C   C109      1.0  0.87514  0.19209  0.96726  1.0000
  C   C110      1.0  0.84150  0.21306  0.97489  1.0000
  N   N11       1.0  0.84867  0.24968  0.98522  1.0000
  H   H59       1.0  0.93128  0.21004  0.99326  1.0000
  H   H60       1.0  0.87751  0.16301  0.95017  1.0000
  C   C111      1.0  0.90582  0.28504  0.00288  1.0000
  C   C112      1.0  0.89079  0.32035  0.98686  1.0000
  C   C113      1.0  0.91062  0.35374  0.98196  1.0000
  N   N12       1.0  0.85461  0.32976  0.96813  1.0000
  C   C114      1.0  0.88629  0.38193  0.96552  1.0000
  H   H61       1.0  0.93979  0.35589  0.98997  1.0000
  C   C115      1.0  0.85052  0.36703  0.95394  1.0000
  H   H62       1.0  0.89261  0.41056  0.96202  1.0000
  C   C116      1.0  0.81747  0.38651  0.93596  1.0000
  C   C117      1.0  0.80673  0.19693  0.98074  1.0000
  C   C118      1.0  0.88586  0.25228  0.99293  1.0000
  H   H63       1.0  0.79138  0.27172  0.99326  1.0000
  H   H64       1.0  0.83349  0.31188  0.96774  1.0000
  C   C119      1.0  0.94577  0.28382  0.03114  1.0000
  C   C120      1.0  0.96949  0.26242  0.94173  1.0000
  C   C121      1.0  0.96142  0.30625  0.14797  1.0000
  C   C122      1.0  0.00698  0.26421  0.96451  1.0000
  H   H65       1.0  0.95871  0.24567  0.84703  1.0000
  C   C123      1.0  0.99874  0.30867  0.16975  1.0000
  H   H66       1.0  0.94359  0.32187  0.22306  1.0000
  C   C124      1.0  0.02215  0.28812  0.07572  1.0000
  H   H67       1.0  0.02487  0.24804  0.89163  1.0000
  H   H68       1.0  0.00999  0.32653  0.25952  1.0000
  C   C125      1.0  0.07776  0.30055  0.97101  1.0000
  H   H69       1.0  0.06368  0.30579  0.85848  1.0000
  C   C126      1.0  0.76820  0.02571  0.03384  1.0000
  H   H70       1.0  0.74425  0.04115  0.07225  1.0000
  C   C127      1.0  0.32266  0.06966  0.90054  1.0000
  H   H71       1.0  0.29503  0.06275  0.85986  1.0000
  N   N13       1.0  0.79826  0.04169  0.00313  1.0000
  N   N14       1.0  0.34628  0.04473  0.93381  1.0000
  N   N15       1.0  0.05997  0.29219  0.09438  1.0000
  N   N16       1.0  0.84090  0.54027  0.89773  1.0000
  C   C128      1.0  0.81643  0.56379  0.85755  1.0000
  H   H72       1.0  0.79008  0.55536  0.80720  1.0000
  C   C129      1.0  0.27009  0.87990  0.48349  1.0000
  C   C130      1.0  0.23910  0.90466  0.46770  1.0000
  N   N17       1.0  0.25849  0.84500  0.50967  1.0000
  C   C131      1.0  0.20901  0.88483  0.49761  1.0000
  H   H73       1.0  0.24009  0.93315  0.43725  1.0000
  C   C132      1.0  0.22129  0.84741  0.51882  1.0000
  H   H74       1.0  0.18130  0.89458  0.50147  1.0000
  C   C133      1.0  0.19767  0.81758  0.53916  1.0000
  C   C134      1.0  0.20912  0.78077  0.53162  1.0000
  C   C135      1.0  0.18639  0.74925  0.53098  1.0000
  N   N18       1.0  0.24435  0.76802  0.52150  1.0000
  C   C136      1.0  0.20817  0.71888  0.52765  1.0000
  H   H75       1.0  0.15712  0.74989  0.53319  1.0000
  C   C137      1.0  0.24514  0.73039  0.51894  1.0000
  H   H76       1.0  0.19936  0.69091  0.53097  1.0000
  C   C138      1.0  0.37359  0.71436  0.52170  1.0000
  C   C139      1.0  0.34320  0.69399  0.50360  1.0000
  C   C140      1.0  0.31248  0.71923  0.50735  1.0000
  N   N19       1.0  0.32442  0.75456  0.51556  1.0000
  H   H77       1.0  0.40114  0.70438  0.53245  1.0000
  H   H78       1.0  0.34193  0.66477  0.49035  1.0000
  C   C141      1.0  0.38587  0.78217  0.52630  1.0000
  C   C142      1.0  0.37433  0.81892  0.51609  1.0000
  C   C143      1.0  0.39671  0.85058  0.51415  1.0000
  N   N20       1.0  0.33884  0.83132  0.50559  1.0000
  C   C144      1.0  0.37456  0.88073  0.50879  1.0000
  H   H79       1.0  0.42599  0.85030  0.51715  1.0000
  C   C145      1.0  0.33760  0.86892  0.49854  1.0000
  H   H80       1.0  0.38309  0.90877  0.51182  1.0000
  C   C146      1.0  0.30665  0.89172  0.48195  1.0000
  C   C147      1.0  0.27592  0.70747  0.51089  1.0000
  C   C148      1.0  0.36174  0.75227  0.52280  1.0000
  H   H81       1.0  0.26645  0.78467  0.52084  1.0000
  H   H82       1.0  0.31703  0.81426  0.50386  1.0000
  C   C149      1.0  0.15822  0.82256  0.56878  1.0000
  C   C150      1.0  0.14248  0.80139  0.68700  1.0000
  C   C151      1.0  0.13449  0.84461  0.47905  1.0000
  C   C152      1.0  0.10522  0.79969  0.70571  1.0000
  H   H83       1.0  0.16021  0.78573  0.76453  1.0000
  C   C153      1.0  0.09694  0.84344  0.49832  1.0000
  H   H84       1.0  0.14498  0.86083  0.38414  1.0000
  C   C154      1.0  0.08174  0.81970  0.60718  1.0000
  H   H85       1.0  0.09400  0.78258  0.79602  1.0000
  H   H86       1.0  0.07909  0.85946  0.42242  1.0000
  C   C155      1.0  0.31402  0.93135  0.46731  1.0000
  C   C156      1.0  0.34107  0.94431  0.36703  1.0000
  C   C157      1.0  0.29557  0.95750  0.55741  1.0000
  C   C158      1.0  0.35078  0.98078  0.36382  1.0000
  H   H87       1.0  0.35426  0.92526  0.28836  1.0000
  C   C159      1.0  0.30316  0.99450  0.54592  1.0000
  H   H88       1.0  0.27592  0.94851  0.64212  1.0000
  C   C160      1.0  0.33145  0.00664  0.45144  1.0000
  H   H89       1.0  0.37191  0.99000  0.28638  1.0000
  H   H90       1.0  0.28905  0.01403  0.61932  1.0000
  C   C161      1.0  0.55828  0.79031  0.50963  1.0000
  H   H91       1.0  0.54377  0.81448  0.46424  1.0000
  C   C162      1.0  0.28156  0.53288  0.48590  1.0000
  H   H92       1.0  0.30767  0.54462  0.45205  1.0000
  C   C163      1.0  0.27226  0.37631  0.50356  1.0000
  C   C164      1.0  0.23672  0.36356  0.48999  1.0000
  C   C165      1.0  0.30114  0.35044  0.51337  1.0000
  C   C166      1.0  0.22767  0.32673  0.48121  1.0000
  H   H93       1.0  0.21484  0.38351  0.48660  1.0000
  C   C167      1.0  0.29319  0.31235  0.49844  1.0000
  C   C168      1.0  0.33798  0.36086  0.53933  1.0000
  C   C169      1.0  0.25629  0.30052  0.48008  1.0000
  C   C170      1.0  0.18863  0.31777  0.47486  1.0000
  C   C171      1.0  0.32225  0.28605  0.50244  1.0000
  C   C172      1.0  0.36557  0.33584  0.54470  1.0000
  H   H94       1.0  0.34418  0.38946  0.55593  1.0000
  C   C173      1.0  0.24980  0.26254  0.46193  1.0000
  C   C174      1.0  0.16439  0.34088  0.39244  1.0000
  C   C175      1.0  0.17378  0.28833  0.55754  1.0000
  C   C176      1.0  0.31449  0.24805  0.48117  1.0000
  C   C177      1.0  0.35894  0.29777  0.52883  1.0000
  H   H95       1.0  0.39330  0.34504  0.56108  1.0000
  C   C178      1.0  0.27740  0.23759  0.46584  1.0000
  H   H96       1.0  0.22219  0.25317  0.44448  1.0000
  C   C179      1.0  0.12717  0.33531  0.39495  1.0000
  H   H97       1.0  0.17512  0.36289  0.32270  1.0000
  C   C180      1.0  0.13666  0.28198  0.55608  1.0000
  H   H98       1.0  0.19150  0.27151  0.63052  1.0000
  C   C181      1.0  0.34362  0.22231  0.47758  1.0000
  C   C182      1.0  0.38731  0.27130  0.53652  1.0000
  H   H99       1.0  0.27081  0.20895  0.45748  1.0000
  C   C183      1.0  0.11276  0.30570  0.47615  1.0000
  H   H100      1.0  0.10888  0.35332  0.32976  1.0000
  H   H101      1.0  0.12534  0.25966  0.62237  1.0000
  C   C184      1.0  0.37884  0.23484  0.50732  1.0000
  H   H102      1.0  0.40099  0.21518  0.50854  1.0000
  N   N21       1.0  0.25368  0.55332  0.51149  1.0000
  N   N22       1.0  0.54050  0.76226  0.55479  1.0000
  C   C185      1.0  0.82097  0.59910  0.37263  1.0000
  C   C186      1.0  0.79652  0.62350  0.30012  1.0000
  C   C187      1.0  0.84957  0.61319  0.46507  1.0000
  C   C188      1.0  0.80049  0.66092  0.31911  1.0000
  H   H103      1.0  0.77486  0.61296  0.22482  1.0000
  C   C189      1.0  0.85252  0.65042  0.48921  1.0000
  H   H104      1.0  0.86812  0.59415  0.52268  1.0000
  C   C190      1.0  0.82787  0.67521  0.41824  1.0000
  H   H105      1.0  0.78271  0.67941  0.25441  1.0000
  H   H106      1.0  0.87328  0.66063  0.56972  1.0000
  C   C191      1.0  0.83188  0.71471  0.44641  1.0000
  C   C192      1.0  0.86700  0.72878  0.45607  1.0000
  C   C193      1.0  0.80198  0.73906  0.46510  1.0000
  C   C194      1.0  0.87462  0.76574  0.47625  1.0000
  H   H107      1.0  0.88969  0.70990  0.44698  1.0000
  C   C195      1.0  0.80857  0.77738  0.48126  1.0000
  C   C196      1.0  0.76537  0.72683  0.47181  1.0000
  C   C197      1.0  0.84509  0.79081  0.48404  1.0000
  C   C198      1.0  0.91323  0.77643  0.48474  1.0000
  C   C199      1.0  0.77859  0.80238  0.49387  1.0000
  C   C200      1.0  0.73683  0.75055  0.48338  1.0000
  H   H108      1.0  0.76013  0.69782  0.46798  1.0000
  C   C201      1.0  0.85040  0.82917  0.49355  1.0000
  C   C202      1.0  0.93830  0.75831  0.38873  1.0000
  C   C203      1.0  0.92673  0.80318  0.58903  1.0000
  C   C204      1.0  0.78526  0.84081  0.50410  1.0000
  C   C205      1.0  0.74209  0.78888  0.49491  1.0000
  H   H109      1.0  0.70942  0.73998  0.48408  1.0000
  C   C206      1.0  0.82196  0.85287  0.50764  1.0000
  H   H110      1.0  0.87775  0.83981  0.48939  1.0000
  C   C207      1.0  0.97492  0.76697  0.39435  1.0000
  H   H111      1.0  0.92857  0.73829  0.30430  1.0000
  C   C208      1.0  0.96342  0.81177  0.59547  1.0000
  H   H112      1.0  0.90848  0.81631  0.67052  1.0000
  C   C209      1.0  0.75537  0.86546  0.50984  1.0000
  C   C210      1.0  0.71268  0.81396  0.50604  1.0000
  H   H113      1.0  0.82742  0.88167  0.52147  1.0000
  C   C211      1.0  0.98808  0.79387  0.49754  1.0000
  H   H114      1.0  0.99351  0.75311  0.31625  1.0000
  H   H115      1.0  0.97364  0.83198  0.67814  1.0000
  C   C212      1.0  0.72039  0.85113  0.51231  1.0000
  C   C213      1.0  0.75870  0.90553  0.51294  1.0000
  C   C214      1.0  0.67377  0.80422  0.50425  1.0000
  H   H116      1.0  0.69773  0.87008  0.51786  1.0000
  C   C215      1.0  0.78385  0.92454  0.42147  1.0000
  C   C216      1.0  0.73464  0.92623  0.60425  1.0000
  C   C217      1.0  0.65873  0.77597  0.59339  1.0000
  C   C218      1.0  0.64979  0.82624  0.41521  1.0000
  C   C219      1.0  0.78570  0.96224  0.42581  1.0000
  H   H117      1.0  0.80110  0.90957  0.34162  1.0000
  C   C220      1.0  0.73586  0.96405  0.60597  1.0000
  H   H118      1.0  0.71551  0.91226  0.67817  1.0000
  C   C221      1.0  0.62142  0.77011  0.59385  1.0000
  H   H119      1.0  0.67635  0.75971  0.66930  1.0000
  C   C222      1.0  0.61257  0.82127  0.41994  1.0000
  H   H120      1.0  0.66080  0.84706  0.33988  1.0000
  C   C223      1.0  0.76180  0.98261  0.51868  1.0000
  H   H121      1.0  0.80488  0.97677  0.35407  1.0000
  H   H122      1.0  0.71727  0.97935  0.67919  1.0000
  C   C224      1.0  0.59774  0.79311  0.50868  1.0000
  H   H123      1.0  0.60997  0.74879  0.66546  1.0000
  H   H124      1.0  0.59451  0.83872  0.35102  1.0000
  C   C225      1.0  0.53866  0.30312  0.65673  1.0000
  H   H125      1.0  0.54861  0.30760  0.77754  1.0000
  C   C226      1.0  0.02698  0.80144  0.50078  1.0000
  H   H126      1.0  0.04163  0.79346  0.39477  1.0000
  N   N23       1.0  0.04395  0.81494  0.62057  1.0000
  N   N24       1.0  0.55961  0.30419  0.53751  1.0000
  C   C227      1.0  0.78134  0.36875  0.44943  1.0000
  C   C228      1.0  0.74850  0.39106  0.44648  1.0000
  N   N25       1.0  0.77304  0.33288  0.47754  1.0000
  C   C229      1.0  0.72091  0.36891  0.48704  1.0000
  H   H127      1.0  0.74660  0.41966  0.41852  1.0000
  C   C230      1.0  0.73610  0.33227  0.49860  1.0000
  H   H128      1.0  0.69311  0.37682  0.50679  1.0000
  C   C231      1.0  0.71450  0.30085  0.51909  1.0000
  C   C232      1.0  0.72789  0.26464  0.51363  1.0000
  C   C233      1.0  0.70715  0.23176  0.51611  1.0000
  N   N26       1.0  0.76372  0.25395  0.49913  1.0000
  C   C234      1.0  0.73069  0.20270  0.50814  1.0000
  H   H129      1.0  0.67793  0.23050  0.52157  1.0000
  C   C235      1.0  0.76675  0.21641  0.49471  1.0000
  H   H130      1.0  0.72370  0.17421  0.51089  1.0000
  C   C236      1.0  0.89557  0.21109  0.49749  1.0000
  C   C237      1.0  0.86723  0.18808  0.47672  1.0000
  C   C238      1.0  0.83440  0.21049  0.47816  1.0000
  N   N27       1.0  0.84312  0.24682  0.48593  1.0000
  H   H131      1.0  0.92379  0.20363  0.51235  1.0000
  H   H132      1.0  0.86869  0.15886  0.46452  1.0000
  C   C239      1.0  0.90214  0.27950  0.49617  1.0000
  C   C240      1.0  0.88840  0.31534  0.47939  1.0000
  C   C241      1.0  0.90905  0.34814  0.46908  1.0000
  N   N28       1.0  0.85236  0.32581  0.46806  1.0000
  C   C242      1.0  0.88540  0.37703  0.45798  1.0000
  H   H133      1.0  0.93828  0.34959  0.47073  1.0000
  C   C243      1.0  0.84916  0.36314  0.45316  1.0000
  H   H134      1.0  0.89253  0.40546  0.45406  1.0000
  C   C244      1.0  0.81664  0.38355  0.43746  1.0000
  C   C245      1.0  0.79901  0.19566  0.48188  1.0000
  C   C246      1.0  0.88041  0.24781  0.49563  1.0000
  H   H135      1.0  0.78503  0.27151  0.49297  1.0000
  H   H136      1.0  0.83096  0.30831  0.47225  1.0000
  C   C247      1.0  0.94229  0.27598  0.51131  1.0000
  C   C248      1.0  0.96265  0.25046  0.42471  1.0000
  C   C249      1.0  0.96187  0.29949  0.61148  1.0000
  C   C250      1.0  0.00022  0.24811  0.43991  1.0000
  H   H137      1.0  0.94893  0.23342  0.33842  1.0000
  C   C251      1.0  0.99964  0.29967  0.61568  1.0000
  H   H138      1.0  0.94710  0.31780  0.68804  1.0000
  C   C252      1.0  0.01936  0.27383  0.53023  1.0000
  H   H139      1.0  0.01544  0.22849  0.37138  1.0000
  H   H140      1.0  0.01410  0.31877  0.69116  1.0000
  C   C253      1.0  0.07350  0.30133  0.47714  1.0000
  H   H141      1.0  0.05785  0.32388  0.42464  1.0000
  C   C254      1.0  0.76370  0.02231  0.52575  1.0000
  H   H142      1.0  0.74187  0.03631  0.58899  1.0000
  C   C255      1.0  0.31940  0.06794  0.40380  1.0000
  H   H143      1.0  0.29263  0.06085  0.35374  1.0000
  N   N29       1.0  0.78989  0.04000  0.46489  1.0000
  N   N30       1.0  0.34203  0.04325  0.45028  1.0000
  N   N31       1.0  0.05753  0.27325  0.53329  1.0000
  N   N32       1.0  0.84155  0.53676  0.38569  1.0000
  C   C256      1.0  0.81585  0.55986  0.35648  1.0000
  H   H144      1.0  0.78858  0.55091  0.31920  1.0000
  C   C257      1.0  0.85423  0.62455  0.99519  1.0000
  C   C258      1.0  0.82896  0.60565  0.90281  1.0000
  C  Sn1       1.0  0.80374  0.62461  0.80980  1.0000
  C  Sn2       1.0  0.80390  0.66321  0.80948  1.0000
  C   C259      1.0  0.82930  0.68187  0.90222  1.0000
  C   C260      1.0  0.85441  0.66262  0.99489  1.0000
  H   H145      1.0  0.86961  0.60890  0.06683  1.0000
  O  Te1       1.0  0.77868  0.60530  0.71826  1.0000
  O  Te2       1.0  0.77900  0.68284  0.71757  1.0000
  H   H146      1.0  0.86992  0.67651  0.06631  1.0000
  Mg  Mg1       1.0  0.75019  0.64426  0.61275  1.0000
  C   C261      1.0  0.35583  0.97174  0.84399  1.0000
  C   C262      1.0  0.34777  0.00220  0.91940  1.0000
  C  Sn3       1.0  0.30986  0.99736  0.02858  1.0000
  C  Sn4       1.0  0.29676  0.96210  0.06270  1.0000
  C   C263      1.0  0.31551  0.93256  0.98672  1.0000
  C   C264      1.0  0.34294  0.93696  0.87762  1.0000
  H   H147      1.0  0.37707  0.97514  0.75965  1.0000
  O  Te3       1.0  0.30210  0.02807  0.10281  1.0000
  O  Te4       1.0  0.26938  0.95724  0.17137  1.0000
  H   H148      1.0  0.35416  0.91337  0.81934  1.0000
  Mg  Mg2       1.0  0.26511  0.00748  0.24194  1.0000
  C   C265      1.0  0.64455  0.33098  0.42162  1.0000
  C   C266      1.0  0.66980  0.31240  0.51596  1.0000
  C  Sn5       1.0  0.65812  0.28935  0.63428  1.0000
  C  Sn6       1.0  0.62043  0.28487  0.65829  1.0000
  C   C267      1.0  0.59538  0.30356  0.56320  1.0000
  C   C268      1.0  0.60737  0.32656  0.44518  1.0000
  H   H149      1.0  0.65382  0.34876  0.33024  1.0000
  O  Te5       1.0  0.68371  0.27101  0.72751  1.0000
  O  Te6       1.0  0.60800  0.26199  0.77566  1.0000
  H   H150      1.0  0.58781  0.34092  0.37209  1.0000
  Mg  Mg3       1.0  0.65341  0.24287  0.87237  1.0000
  C   C269      1.0  0.82091  0.10370  0.58410  1.0000
  C   C270      1.0  0.79796  0.08153  0.49420  1.0000
  C  Sn7       1.0  0.77299  0.09699  0.38865  1.0000
  C  Sn8       1.0  0.77104  0.13538  0.37305  1.0000
  C   C271      1.0  0.79413  0.15733  0.46344  1.0000
  C   C272      1.0  0.81901  0.14157  0.56873  1.0000
  H   H151      1.0  0.84017  0.09151  0.66551  1.0000
  O  Te7       1.0  0.75025  0.07444  0.29978  1.0000
  O  Te8       1.0  0.74634  0.15155  0.26841  1.0000
  H   H152      1.0  0.83679  0.15874  0.63825  1.0000
  Mg  Mg4       1.0  0.72110  0.10933  0.17316  1.0000
  C   C273      1.0  0.36092  0.12762  0.52979  1.0000
  C   C274      1.0  0.33521  0.10925  0.43770  1.0000
  C  Sn9       1.0  0.31133  0.12866  0.33999  1.0000
  C  Sn10      1.0  0.31330  0.16717  0.33459  1.0000
  C   C275      1.0  0.33914  0.18530  0.42709  1.0000
  C   C276      1.0  0.36289  0.16561  0.52449  1.0000
  H   H153      1.0  0.37932  0.11239  0.60509  1.0000
  O  Te9       1.0  0.28580  0.10987  0.24880  1.0000
  O  Te10      1.0  0.28977  0.18724  0.23792  1.0000
  H   H154      1.0  0.38281  0.17984  0.59570  1.0000
  Mg  Mg5       1.0  0.25964  0.14930  0.13567  1.0000
  C   C277      1.0  0.25387  0.46867  0.08929  1.0000
  C   C278      1.0  0.27883  0.49101  0.01544  1.0000
  C  Sn11      1.0  0.30930  0.47660  0.91926  1.0000
  C  Sn12      1.0  0.31066  0.43835  0.89680  1.0000
  C   C279      1.0  0.28555  0.41624  0.97112  1.0000
  C   C280      1.0  0.25519  0.43095  0.06715  1.0000
  H   H155      1.0  0.23352  0.48064  0.16352  1.0000
  O  Te11      1.0  0.33403  0.49930  0.84641  1.0000
  O  Te12      1.0  0.33675  0.42247  0.80125  1.0000
  H   H156      1.0  0.23585  0.41365  0.12423  1.0000
  Mg  Mg6       1.0  0.36454  0.46480  0.72730  1.0000
  C   C281      1.0  0.14984  0.28378  0.08883  1.0000
  C   C282      1.0  0.12210  0.30135  0.00442  1.0000
  C  Sn13      1.0  0.13444  0.32852  0.89367  1.0000
  C  Sn14      1.0  0.17121  0.33743  0.86715  1.0000
  C   C283      1.0  0.19877  0.31968  0.95212  1.0000
  C   C284      1.0  0.18611  0.29255  0.06271  1.0000
  H   H157      1.0  0.14320  0.26336  0.17434  1.0000
  O  Te13      1.0  0.10639  0.34582  0.81040  1.0000
  O  Te14      1.0  0.18025  0.36371  0.75711  1.0000
  H   H158      1.0  0.20760  0.27893  0.12797  1.0000
  Mg  Mg7       1.0  0.13242  0.37977  0.67294  1.0000
  C   C285      1.0  0.30867  0.44228  0.40738  1.0000
  C   C286      1.0  0.28502  0.42002  0.48915  1.0000
  C  Sn15      1.0  0.25724  0.43541  0.57717  1.0000
  C  Sn16      1.0  0.25312  0.47379  0.58318  1.0000
  C   C287      1.0  0.27691  0.49582  0.50086  1.0000
  C   C288      1.0  0.30462  0.48014  0.41319  1.0000
  H   H159      1.0  0.33011  0.43015  0.33947  1.0000
  O  Te15      1.0  0.23385  0.41277  0.65821  1.0000
  O  Te16      1.0  0.22557  0.48989  0.67020  1.0000
  H   H160      1.0  0.32292  0.49738  0.34981  1.0000
  Mg  Mg8       1.0  0.20051  0.44758  0.76061  1.0000
  C   C289      1.0  0.62830  0.32516  0.98755  1.0000
  C   C290      1.0  0.60639  0.30020  0.08519  1.0000
  C  Sn17      1.0  0.62626  0.27584  0.17860  1.0000
  C  Sn18      1.0  0.66471  0.27578  0.17395  1.0000
  C   C291      1.0  0.68231  0.30012  0.07596  1.0000
  C   C292      1.0  0.66622  0.32513  0.98294  1.0000
  H   H161      1.0  0.61271  0.34394  0.91564  1.0000
  O  Te17      1.0  0.60800  0.25183  0.27544  1.0000
  O  Te18      1.0  0.68524  0.25173  0.26613  1.0000
  H   H162      1.0  0.68005  0.34388  0.90743  1.0000
  Mg  Mg9       1.0  0.64792  0.22421  0.37914  1.0000
  C   C293      1.0  0.46285  0.26220  0.47249  1.0000
  C   C294      1.0  0.43236  0.27311  0.55583  1.0000
  C  Sn19      1.0  0.43593  0.29729  0.68153  1.0000
  C  Sn20      1.0  0.47070  0.31076  0.72428  1.0000
  C   C295      1.0  0.50104  0.29970  0.64009  1.0000
  C   C296      1.0  0.49716  0.27548  0.51454  1.0000
  H   H163      1.0  0.45985  0.24348  0.37529  1.0000
  O  Te19      1.0  0.40518  0.30790  0.76358  1.0000
  O  Te20      1.0  0.47504  0.33497  0.84939  1.0000
  H   H164      1.0  0.52078  0.26706  0.44997  1.0000
  Mg  Mg10      1.0  0.42497  0.34139  0.92529  1.0000
  C   C297      1.0  0.79570  0.48064  0.00686  1.0000
  C   C298      1.0  0.82453  0.50047  0.91686  1.0000
  C  Sn21      1.0  0.84762  0.48180  0.81611  1.0000
  C  Sn22      1.0  0.84582  0.44331  0.80548  1.0000
  C   C299      1.0  0.82094  0.42449  0.89593  1.0000
  C   C300      1.0  0.79797  0.44345  0.99640  1.0000
  H   H165      1.0  0.77792  0.49531  0.08454  1.0000
  O  Te21      1.0  0.87220  0.50127  0.72707  1.0000
  O  Te22      1.0  0.86857  0.42397  0.70569  1.0000
  H   H166      1.0  0.77472  0.42792  0.06600  1.0000
  Mg  Mg11      1.0  0.89754  0.46269  0.60813  1.0000
  C   C301      1.0  0.82989  0.12736  0.10650  1.0000
  C   C302      1.0  0.81046  0.15187  0.01202  1.0000
  C  Sn23      1.0  0.78776  0.14008  0.90782  1.0000
  C  Sn24      1.0  0.78037  0.10229  0.89833  1.0000
  C   C303      1.0  0.79994  0.07800  0.99342  1.0000
  C   C304      1.0  0.82261  0.09009  0.09725  1.0000
  H   H167      1.0  0.85056  0.13730  0.18689  1.0000
  O  Te23      1.0  0.76861  0.16493  0.81424  1.0000
  O  Te24      1.0  0.75375  0.08902  0.79524  1.0000
  H   H168      1.0  0.83763  0.07111  0.17045  1.0000
  Mg  Mg12      1.0  0.73494  0.13362  0.69194  1.0000
  C   C305      1.0  0.85663  0.46499  0.29242  1.0000
  C   C306      1.0  0.84000  0.49393  0.37038  1.0000
  C  Sn25      1.0  0.81340  0.48727  0.48091  1.0000
  C  Sn26      1.0  0.80333  0.45093  0.51379  1.0000
  C   C307      1.0  0.82015  0.42217  0.43525  1.0000
  C   C308      1.0  0.84673  0.42914  0.32482  1.0000
  H   H169      1.0  0.87721  0.47038  0.20704  1.0000
  O  Te25      1.0  0.79704  0.51650  0.55769  1.0000
  O  Te26      1.0  0.77683  0.44350  0.62376  1.0000
  H   H170      1.0  0.85962  0.40673  0.26455  1.0000
  Mg  Mg13      1.0  0.76236  0.49250  0.69778  1.0000
  C   C309      1.0  0.45652  0.79895  0.65974  1.0000
  C   C310      1.0  0.43084  0.78101  0.56588  1.0000
  C  Sn27      1.0  0.44167  0.75364  0.46261  1.0000
  C  Sn28      1.0  0.47893  0.74411  0.45343  1.0000
  C   C311      1.0  0.50441  0.76220  0.54791  1.0000
  C   C312      1.0  0.49327  0.78955  0.65080  1.0000
  H   H171      1.0  0.44790  0.82010  0.73941  1.0000
  O  Te27      1.0  0.41566  0.73600  0.36964  1.0000
  O  Te28      1.0  0.49050  0.71685  0.35128  1.0000
  H   H172      1.0  0.51316  0.80342  0.72353  1.0000
  Mg  Mg14      1.0  0.44480  0.70069  0.24854  1.0000
  C   C313      1.0  0.23842  0.64280  0.39653  1.0000
  C   C314      1.0  0.26150  0.66403  0.49005  1.0000
  C  Sn29      1.0  0.28443  0.64764  0.60134  1.0000
  C  Sn30      1.0  0.28420  0.60927  0.61903  1.0000
  C   C315      1.0  0.26102  0.58827  0.52483  1.0000
  C   C316      1.0  0.23818  0.60495  0.41386  1.0000
  H   H173      1.0  0.22076  0.65571  0.31061  1.0000
  O  Te29      1.0  0.30732  0.66925  0.69386  1.0000
  O  Te30      1.0  0.30684  0.59218  0.72931  1.0000
  H   H174      1.0  0.22032  0.58851  0.34140  1.0000
  Mg  Mg15      1.0  0.33318  0.63331  0.82790  1.0000
  C   C317      1.0  0.24016  0.64370  0.91948  1.0000
  C   C318      1.0  0.25972  0.66493  0.00694  1.0000
  C  Sn31      1.0  0.28480  0.64928  0.11149  1.0000
  C  Sn32      1.0  0.28618  0.61091  0.12852  1.0000
  C   C319      1.0  0.26244  0.58915  0.04041  1.0000
  C   C320      1.0  0.24151  0.60585  0.93616  1.0000
  H   H175      1.0  0.22083  0.65603  0.83876  1.0000
  O  Te31      1.0  0.30820  0.67164  0.19801  1.0000
  O  Te32      1.0  0.31099  0.59455  0.23213  1.0000
  H   H176      1.0  0.22324  0.58882  0.86839  1.0000
  Mg  Mg16      1.0  0.33723  0.63654  0.32412  1.0000
