data_image0
_chemical_formula_structural       C2NCHCHC3NCHCHC3NH2C3NCHCHC3H2CHCHC4HC5HC3HCHC2HCHN2C4HC5HC3HCHC2HCHCHCHN2C2NCHCHC3NCHCHC3NH2C3NCHCHC3H2CHCHCHN4CHC2NCHCHC3NCHCHC3NH2C3NCHCHC3H2CHCHC4HC5HC3HCHC2HCHN2C4HC5HC3HCHC2HCHCHCHN2C2NCHCHC3NCHCHC3NH2C3NCHCHC3H2CHCHCHN4CHSnCSn2CSnTe4Mg2SnCSn2CSnTe4Mg2SnCSn2CSnTe4Mg2SnCSn2CSnTe4Mg2SnCSn2CSnTe4Mg2SnCSn2CSnTe4Mg2SnCSn2CSnTe4Mg2SnCSn2CSnTe4Mg2SnCSn2CSnTe4Mg2SnCSn2CSnTe4Mg2SnCSn2CSnTe4Mg2SnCSn2CSnTe4Mg2SnCSn2CSnTe4Mg2SnCSn2CSnTe4Mg2SnCSn2CSnTe4Mg2SnCSn2CSnTe4Mg2SnCSn2CSnTe4Mg2SnCSn2CSnTe4Mg2SnCSn2CSnTe4Mg2SnCSn2CSnTe4Mg2SnCSn2CSnTe4Mg2SnCSn2CSnTe4Mg2SnCSn2CSnTe4Mg2SnCSn2CSnTe4Mg2SnCSn2CSnTe4Mg2SnCSn2CSnTe4Mg2SnCSn2CSnTe4Mg2SnCSn2CSnTe4Mg2SnCSn2CSnTe4Mg2SnCSn2CSnTe4Mg2SnCSn2CSnTe4Mg2SnCSn2CSnTe4Mg2
_chemical_formula_sum              "C224 N32 H80 Sn128 Te128 Mg64"
_cell_length_a       36.8687
_cell_length_b       36.7539
_cell_length_c       8.54894
_cell_angle_alpha    90.1928
_cell_angle_beta     91.006
_cell_angle_gamma    89.6311

_symmetry_space_group_name_H-M    'P1'
_space_group_IT_number       1

loop_
  _space_group_symop_operation_xyz
  'x, y, z'

loop_
  _atom_site_type_symbol
  _atom_site_label
  _atom_site_symmetry_multiplicity
  _atom_site_fract_x
  _atom_site_fract_y
  _atom_site_fract_z
  _atom_site_occupancy
  C   C1        1.0  0.27222  0.88271  0.99609  1.0000
  C   C2        1.0  0.24140  0.90781  0.99148  1.0000
  N   N1        1.0  0.26059  0.84759  0.01751  1.0000
  C   C3        1.0  0.21156  0.88786  0.02310  1.0000
  H   H1        1.0  0.24218  0.93669  0.96900  1.0000
  C   C4        1.0  0.22348  0.85003  0.03165  1.0000
  H   H2        1.0  0.18433  0.89809  0.03842  1.0000
  C   C5        1.0  0.19932  0.82027  0.04297  1.0000
  C   C6        1.0  0.21054  0.78329  0.03541  1.0000
  C   C7        1.0  0.18782  0.75176  0.03209  1.0000
  N   N2        1.0  0.24585  0.77034  0.03229  1.0000
  C   C8        1.0  0.20956  0.72134  0.03747  1.0000
  H   H3        1.0  0.15856  0.75216  0.02527  1.0000
  C   C9        1.0  0.24659  0.73265  0.03328  1.0000
  H   H4        1.0  0.20061  0.69347  0.04271  1.0000
  C   C10       1.0  0.37488  0.71659  0.02121  1.0000
  C   C11       1.0  0.34436  0.69645  0.00335  1.0000
  C   C12       1.0  0.31375  0.72155  0.01766  1.0000
  N   N3        1.0  0.32575  0.75678  0.02975  1.0000
  H   H5        1.0  0.40248  0.70658  0.02443  1.0000
  H   H6        1.0  0.34290  0.66750  0.98241  1.0000
  C   C13       1.0  0.38720  0.78431  0.03636  1.0000
  C   C14       1.0  0.37588  0.82111  0.02673  1.0000
  C   C15       1.0  0.39855  0.85258  0.02347  1.0000
  N   N4        1.0  0.34048  0.83379  0.01546  1.0000
  C   C16       1.0  0.37666  0.88288  0.01550  1.0000
  H   H7        1.0  0.42784  0.85219  0.02722  1.0000
  C   C17       1.0  0.33960  0.87135  0.00573  1.0000
  H   H8        1.0  0.38552  0.91082  0.01679  1.0000
  C   C18       1.0  0.30879  0.89432  0.98898  1.0000
  C   C19       1.0  0.27732  0.70957  0.02569  1.0000
  C   C20       1.0  0.36307  0.75443  0.03153  1.0000
  H   H9        1.0  0.26800  0.78694  0.03201  1.0000
  H   H10       1.0  0.31841  0.81707  0.01380  1.0000
  C   C21       1.0  0.55914  0.79273  0.00115  1.0000
  H   H11       1.0  0.54422  0.81645  0.95384  1.0000
  C   C22       1.0  0.28722  0.53439  0.98538  1.0000
  H   H12       1.0  0.31266  0.54629  0.94409  1.0000
  C   C23       1.0  0.27624  0.37775  0.98867  1.0000
  C   C24       1.0  0.24060  0.36504  0.97771  1.0000
  C   C25       1.0  0.30504  0.35188  0.00183  1.0000
  C   C26       1.0  0.23160  0.32818  0.97755  1.0000
  H   H13       1.0  0.21864  0.38487  0.97049  1.0000
  C   C27       1.0  0.29698  0.31369  0.99691  1.0000
  C   C28       1.0  0.34201  0.36237  0.02126  1.0000
  C   C29       1.0  0.26003  0.30188  0.98336  1.0000
  C   C30       1.0  0.32586  0.28725  0.00665  1.0000
  C   C31       1.0  0.36945  0.33725  0.03099  1.0000
  H   H14       1.0  0.34851  0.39108  0.02893  1.0000
  C   C32       1.0  0.25312  0.26378  0.97627  1.0000
  C   C33       1.0  0.31778  0.24914  0.99369  1.0000
  C   C34       1.0  0.36268  0.29904  0.02930  1.0000
  H   H15       1.0  0.39722  0.34666  0.04027  1.0000
  C   C35       1.0  0.28059  0.23869  0.98322  1.0000
  H   H16       1.0  0.22529  0.25455  0.96544  1.0000
  C   C36       1.0  0.34685  0.22328  0.99471  1.0000
  C   C37       1.0  0.39083  0.27248  0.04798  1.0000
  H   H17       1.0  0.27395  0.20998  0.98175  1.0000
  C   C38       1.0  0.38191  0.23578  0.02744  1.0000
  H   H18       1.0  0.40359  0.21570  0.03656  1.0000
  N   N5        1.0  0.26006  0.55457  0.02435  1.0000
  N   N6        1.0  0.54190  0.76514  0.05432  1.0000
  C   C39       1.0  0.83281  0.71855  0.95062  1.0000
  C   C40       1.0  0.86790  0.73243  0.96410  1.0000
  C   C41       1.0  0.80290  0.74299  0.96527  1.0000
  C   C42       1.0  0.87579  0.76946  0.98167  1.0000
  H   H19       1.0  0.89039  0.71323  0.95954  1.0000
  C   C43       1.0  0.80956  0.78126  0.98252  1.0000
  C   C44       1.0  0.76626  0.73074  0.96628  1.0000
  C   C45       1.0  0.84617  0.79464  0.98663  1.0000
  C   C46       1.0  0.77945  0.80619  0.99394  1.0000
  C   C47       1.0  0.73767  0.75441  0.97603  1.0000
  H   H20       1.0  0.76104  0.70175  0.95914  1.0000
  C   C48       1.0  0.85117  0.83302  0.99662  1.0000
  C   C49       1.0  0.78592  0.84462  0.00626  1.0000
  C   C50       1.0  0.74293  0.79265  0.99154  1.0000
  H   H21       1.0  0.71023  0.74387  0.97234  1.0000
  C   C51       1.0  0.82264  0.85660  0.01129  1.0000
  H   H22       1.0  0.87836  0.84399  0.99267  1.0000
  C   C52       1.0  0.75592  0.86926  0.01156  1.0000
  C   C53       1.0  0.71341  0.81764  0.00226  1.0000
  H   H23       1.0  0.82827  0.88531  0.02655  1.0000
  C   C54       1.0  0.72096  0.85480  0.01167  1.0000
  H   H24       1.0  0.69815  0.87359  0.01761  1.0000
  C   C55       1.0  0.54261  0.30621  0.14955  1.0000
  H   H25       1.0  0.54939  0.33306  0.19859  1.0000
  C   C56       1.0  0.02908  0.80197  0.01128  1.0000
  H   H26       1.0  0.04567  0.78051  0.95738  1.0000
  N   N7        1.0  0.04420  0.83033  0.07276  1.0000
  N   N8        1.0  0.56708  0.28304  0.10862  1.0000
  C   C57       1.0  0.78270  0.37039  0.94533  1.0000
  C   C58       1.0  0.74900  0.39130  0.94183  1.0000
  N   N9        1.0  0.77582  0.33419  0.97304  1.0000
  C   C59       1.0  0.72228  0.36801  0.98226  1.0000
  H   H27       1.0  0.74613  0.41982  0.91355  1.0000
  C   C60       1.0  0.73896  0.33204  0.99457  1.0000
  H   H28       1.0  0.69415  0.37491  0.00001  1.0000
  C   C61       1.0  0.71903  0.29951  0.01583  1.0000
  C   C62       1.0  0.73389  0.26400  0.00110  1.0000
  C   C63       1.0  0.71385  0.23065  0.99605  1.0000
  N   N10       1.0  0.77000  0.25415  0.99162  1.0000
  C   C64       1.0  0.73800  0.20213  0.99486  1.0000
  H   H29       1.0  0.68466  0.22864  0.99256  1.0000
  C   C65       1.0  0.77385  0.21669  0.98873  1.0000
  H   H30       1.0  0.73145  0.17355  0.99688  1.0000
  C   C66       1.0  0.90262  0.21626  0.98641  1.0000
  C   C67       1.0  0.87514  0.19209  0.96726  1.0000
  C   C68       1.0  0.84150  0.21306  0.97489  1.0000
  N   N11       1.0  0.84867  0.24968  0.98522  1.0000
  H   H31       1.0  0.93128  0.21004  0.99326  1.0000
  H   H32       1.0  0.87751  0.16301  0.95017  1.0000
  C   C69       1.0  0.90582  0.28504  0.00288  1.0000
  C   C70       1.0  0.89079  0.32035  0.98686  1.0000
  C   C71       1.0  0.91062  0.35374  0.98196  1.0000
  N   N12       1.0  0.85461  0.32976  0.96813  1.0000
  C   C72       1.0  0.88629  0.38193  0.96552  1.0000
  H   H33       1.0  0.93979  0.35589  0.98997  1.0000
  C   C73       1.0  0.85052  0.36703  0.95394  1.0000
  H   H34       1.0  0.89261  0.41056  0.96202  1.0000
  C   C74       1.0  0.81747  0.38651  0.93596  1.0000
  C   C75       1.0  0.80673  0.19693  0.98074  1.0000
  C   C76       1.0  0.88586  0.25228  0.99293  1.0000
  H   H35       1.0  0.79138  0.27172  0.99326  1.0000
  H   H36       1.0  0.83349  0.31188  0.96774  1.0000
  C   C77       1.0  0.07776  0.30055  0.97101  1.0000
  H   H37       1.0  0.06368  0.30579  0.85848  1.0000
  C   C78       1.0  0.76820  0.02571  0.03384  1.0000
  H   H38       1.0  0.74425  0.04115  0.07225  1.0000
  C   C79       1.0  0.32266  0.06966  0.90054  1.0000
  H   H39       1.0  0.29503  0.06275  0.85986  1.0000
  N   N13       1.0  0.79826  0.04169  0.00313  1.0000
  N   N14       1.0  0.34628  0.04473  0.93381  1.0000
  N   N15       1.0  0.05997  0.29219  0.09438  1.0000
  N   N16       1.0  0.84090  0.54027  0.89773  1.0000
  C   C80       1.0  0.81643  0.56379  0.85755  1.0000
  H   H40       1.0  0.79008  0.55536  0.80720  1.0000
  C   C81       1.0  0.27009  0.87990  0.48349  1.0000
  C   C82       1.0  0.23910  0.90466  0.46770  1.0000
  N   N17       1.0  0.25849  0.84500  0.50967  1.0000
  C   C83       1.0  0.20901  0.88483  0.49761  1.0000
  H   H41       1.0  0.24009  0.93315  0.43725  1.0000
  C   C84       1.0  0.22129  0.84741  0.51882  1.0000
  H   H42       1.0  0.18130  0.89458  0.50147  1.0000
  C   C85       1.0  0.19767  0.81758  0.53916  1.0000
  C   C86       1.0  0.20912  0.78077  0.53162  1.0000
  C   C87       1.0  0.18639  0.74925  0.53098  1.0000
  N   N18       1.0  0.24435  0.76802  0.52150  1.0000
  C   C88       1.0  0.20817  0.71888  0.52765  1.0000
  H   H43       1.0  0.15712  0.74989  0.53319  1.0000
  C   C89       1.0  0.24514  0.73039  0.51894  1.0000
  H   H44       1.0  0.19936  0.69091  0.53097  1.0000
  C   C90       1.0  0.37359  0.71436  0.52170  1.0000
  C   C91       1.0  0.34320  0.69399  0.50360  1.0000
  C   C92       1.0  0.31248  0.71923  0.50735  1.0000
  N   N19       1.0  0.32442  0.75456  0.51556  1.0000
  H   H45       1.0  0.40114  0.70438  0.53245  1.0000
  H   H46       1.0  0.34193  0.66477  0.49035  1.0000
  C   C93       1.0  0.38587  0.78217  0.52630  1.0000
  C   C94       1.0  0.37433  0.81892  0.51609  1.0000
  C   C95       1.0  0.39671  0.85058  0.51415  1.0000
  N   N20       1.0  0.33884  0.83132  0.50559  1.0000
  C   C96       1.0  0.37456  0.88073  0.50879  1.0000
  H   H47       1.0  0.42599  0.85030  0.51715  1.0000
  C   C97       1.0  0.33760  0.86892  0.49854  1.0000
  H   H48       1.0  0.38309  0.90877  0.51182  1.0000
  C   C98       1.0  0.30665  0.89172  0.48195  1.0000
  C   C99       1.0  0.27592  0.70747  0.51089  1.0000
  C   C100      1.0  0.36174  0.75227  0.52280  1.0000
  H   H49       1.0  0.26645  0.78467  0.52084  1.0000
  H   H50       1.0  0.31703  0.81426  0.50386  1.0000
  C   C101      1.0  0.55828  0.79031  0.50963  1.0000
  H   H51       1.0  0.54377  0.81448  0.46424  1.0000
  C   C102      1.0  0.28156  0.53288  0.48590  1.0000
  H   H52       1.0  0.30767  0.54462  0.45205  1.0000
  C   C103      1.0  0.27226  0.37631  0.50356  1.0000
  C   C104      1.0  0.23672  0.36356  0.48999  1.0000
  C   C105      1.0  0.30114  0.35044  0.51337  1.0000
  C   C106      1.0  0.22767  0.32673  0.48121  1.0000
  H   H53       1.0  0.21484  0.38351  0.48660  1.0000
  C   C107      1.0  0.29319  0.31235  0.49844  1.0000
  C   C108      1.0  0.33798  0.36086  0.53933  1.0000
  C   C109      1.0  0.25629  0.30052  0.48008  1.0000
  C   C110      1.0  0.32225  0.28605  0.50244  1.0000
  C   C111      1.0  0.36557  0.33584  0.54470  1.0000
  H   H54       1.0  0.34418  0.38946  0.55593  1.0000
  C   C112      1.0  0.24980  0.26254  0.46193  1.0000
  C   C113      1.0  0.31449  0.24805  0.48117  1.0000
  C   C114      1.0  0.35894  0.29777  0.52883  1.0000
  H   H55       1.0  0.39330  0.34504  0.56108  1.0000
  C   C115      1.0  0.27740  0.23759  0.46584  1.0000
  H   H56       1.0  0.22219  0.25317  0.44448  1.0000
  C   C116      1.0  0.34362  0.22231  0.47758  1.0000
  C   C117      1.0  0.38731  0.27130  0.53652  1.0000
  H   H57       1.0  0.27081  0.20895  0.45748  1.0000
  C   C118      1.0  0.37884  0.23484  0.50732  1.0000
  H   H58       1.0  0.40099  0.21518  0.50854  1.0000
  N   N21       1.0  0.25368  0.55332  0.51149  1.0000
  N   N22       1.0  0.54050  0.76226  0.55479  1.0000
  C   C119      1.0  0.83188  0.71471  0.44641  1.0000
  C   C120      1.0  0.86700  0.72878  0.45607  1.0000
  C   C121      1.0  0.80198  0.73906  0.46510  1.0000
  C   C122      1.0  0.87462  0.76574  0.47625  1.0000
  H   H59       1.0  0.88969  0.70990  0.44698  1.0000
  C   C123      1.0  0.80857  0.77738  0.48126  1.0000
  C   C124      1.0  0.76537  0.72683  0.47181  1.0000
  C   C125      1.0  0.84509  0.79081  0.48404  1.0000
  C   C126      1.0  0.77859  0.80238  0.49387  1.0000
  C   C127      1.0  0.73683  0.75055  0.48338  1.0000
  H   H60       1.0  0.76013  0.69782  0.46798  1.0000
  C   C128      1.0  0.85040  0.82917  0.49355  1.0000
  C   C129      1.0  0.78526  0.84081  0.50410  1.0000
  C   C130      1.0  0.74209  0.78888  0.49491  1.0000
  H   H61       1.0  0.70942  0.73998  0.48408  1.0000
  C   C131      1.0  0.82196  0.85287  0.50764  1.0000
  H   H62       1.0  0.87775  0.83981  0.48939  1.0000
  C   C132      1.0  0.75537  0.86546  0.50984  1.0000
  C   C133      1.0  0.71268  0.81396  0.50604  1.0000
  H   H63       1.0  0.82742  0.88167  0.52147  1.0000
  C   C134      1.0  0.72039  0.85113  0.51231  1.0000
  H   H64       1.0  0.69773  0.87008  0.51786  1.0000
  C   C135      1.0  0.53866  0.30312  0.65673  1.0000
  H   H65       1.0  0.54861  0.30760  0.77754  1.0000
  C   C136      1.0  0.02698  0.80144  0.50078  1.0000
  H   H66       1.0  0.04163  0.79346  0.39477  1.0000
  N   N23       1.0  0.04395  0.81494  0.62057  1.0000
  N   N24       1.0  0.55961  0.30419  0.53751  1.0000
  C   C137      1.0  0.78134  0.36875  0.44943  1.0000
  C   C138      1.0  0.74850  0.39106  0.44648  1.0000
  N   N25       1.0  0.77304  0.33288  0.47754  1.0000
  C   C139      1.0  0.72091  0.36891  0.48704  1.0000
  H   H67       1.0  0.74660  0.41966  0.41852  1.0000
  C   C140      1.0  0.73610  0.33227  0.49860  1.0000
  H   H68       1.0  0.69311  0.37682  0.50679  1.0000
  C   C141      1.0  0.71450  0.30085  0.51909  1.0000
  C   C142      1.0  0.72789  0.26464  0.51363  1.0000
  C   C143      1.0  0.70715  0.23176  0.51611  1.0000
  N   N26       1.0  0.76372  0.25395  0.49913  1.0000
  C   C144      1.0  0.73069  0.20270  0.50814  1.0000
  H   H69       1.0  0.67793  0.23050  0.52157  1.0000
  C   C145      1.0  0.76675  0.21641  0.49471  1.0000
  H   H70       1.0  0.72370  0.17421  0.51089  1.0000
  C   C146      1.0  0.89557  0.21109  0.49749  1.0000
  C   C147      1.0  0.86723  0.18808  0.47672  1.0000
  C   C148      1.0  0.83440  0.21049  0.47816  1.0000
  N   N27       1.0  0.84312  0.24682  0.48593  1.0000
  H   H71       1.0  0.92379  0.20363  0.51235  1.0000
  H   H72       1.0  0.86869  0.15886  0.46452  1.0000
  C   C149      1.0  0.90214  0.27950  0.49617  1.0000
  C   C150      1.0  0.88840  0.31534  0.47939  1.0000
  C   C151      1.0  0.90905  0.34814  0.46908  1.0000
  N   N28       1.0  0.85236  0.32581  0.46806  1.0000
  C   C152      1.0  0.88540  0.37703  0.45798  1.0000
  H   H73       1.0  0.93828  0.34959  0.47073  1.0000
  C   C153      1.0  0.84916  0.36314  0.45316  1.0000
  H   H74       1.0  0.89253  0.40546  0.45406  1.0000
  C   C154      1.0  0.81664  0.38355  0.43746  1.0000
  C   C155      1.0  0.79901  0.19566  0.48188  1.0000
  C   C156      1.0  0.88041  0.24781  0.49563  1.0000
  H   H75       1.0  0.78503  0.27151  0.49297  1.0000
  H   H76       1.0  0.83096  0.30831  0.47225  1.0000
  C   C157      1.0  0.07350  0.30133  0.47714  1.0000
  H   H77       1.0  0.05785  0.32388  0.42464  1.0000
  C   C158      1.0  0.76370  0.02231  0.52575  1.0000
  H   H78       1.0  0.74187  0.03631  0.58899  1.0000
  C   C159      1.0  0.31940  0.06794  0.40380  1.0000
  H   H79       1.0  0.29263  0.06085  0.35374  1.0000
  N   N29       1.0  0.78989  0.04000  0.46489  1.0000
  N   N30       1.0  0.34203  0.04325  0.45028  1.0000
  N   N31       1.0  0.05753  0.27325  0.53329  1.0000
  N   N32       1.0  0.84155  0.53676  0.38569  1.0000
  C   C160      1.0  0.81585  0.55986  0.35648  1.0000
  H   H80       1.0  0.78858  0.55091  0.31920  1.0000
  C  Sn1       1.0  0.12881  0.86169  0.00874  1.0000
  C   C161      1.0  0.15223  0.83594  0.07654  1.0000
  C  Sn2       1.0  0.13844  0.80453  0.14448  1.0000
  C  Sn3       1.0  0.10045  0.79872  0.14457  1.0000
  C   C162      1.0  0.07705  0.82446  0.07678  1.0000
  C  Sn4       1.0  0.09082  0.85588  0.00883  1.0000
  O  Te1       1.0  0.14727  0.89365  0.94148  1.0000
  O  Te2       1.0  0.16239  0.77918  0.21160  1.0000
  O  Te3       1.0  0.08607  0.76748  0.21191  1.0000
  O  Te4       1.0  0.07096  0.88198  0.94172  1.0000
  Mg  Mg1       1.0  0.12970  0.74092  0.28867  1.0000
  Mg  Mg2       1.0  0.10362  0.92023  0.86455  1.0000
  C  Sn5       1.0  0.45767  0.80685  0.12325  1.0000
  C   C163      1.0  0.43215  0.78627  0.03943  1.0000
  C  Sn6       1.0  0.44640  0.75439  0.96794  1.0000
  C  Sn7       1.0  0.48286  0.74204  0.98056  1.0000
  C   C164      1.0  0.50429  0.76186  0.06435  1.0000
  C  Sn8       1.0  0.49413  0.79451  0.13587  1.0000
  O  Te5       1.0  0.44688  0.83940  0.19378  1.0000
  O  Te6       1.0  0.42040  0.73429  0.88472  1.0000
  O  Te7       1.0  0.49364  0.70947  0.90993  1.0000
  O  Te8       1.0  0.52010  0.81460  0.21907  1.0000
  Mg  Mg3       1.0  0.44832  0.69171  0.80931  1.0000
  Mg  Mg4       1.0  0.49221  0.85717  0.29459  1.0000
  C  Sn9       1.0  0.34593  0.97503  0.81532  1.0000
  C   C165      1.0  0.33999  0.00447  0.90399  1.0000
  C  Sn10      1.0  0.30978  0.99785  0.03954  1.0000
  C  Sn11      1.0  0.30227  0.96182  0.08755  1.0000
  C   C166      1.0  0.31869  0.93316  0.99893  1.0000
  C  Sn12      1.0  0.33841  0.93899  0.86333  1.0000
  O  Te9       1.0  0.36559  0.98152  0.68022  1.0000
  O  Te10      1.0  0.30413  0.02772  0.12624  1.0000
  O  Te11      1.0  0.28259  0.95534  0.22277  1.0000
  O  Te12      1.0  0.35049  0.90915  0.77668  1.0000
  Mg  Mg5       1.0  0.27839  0.00491  0.30162  1.0000
  Mg  Mg6       1.0  0.37624  0.93193  0.60133  1.0000
  C  Sn13      1.0  0.28550  0.61747  0.16462  1.0000
  C   C167      1.0  0.26347  0.59603  0.06726  1.0000
  C  Sn14      1.0  0.25026  0.61192  0.93588  1.0000
  C  Sn15      1.0  0.25512  0.64926  0.90102  1.0000
  C   C168      1.0  0.27713  0.67067  0.99833  1.0000
  C  Sn16      1.0  0.29035  0.65480  0.12976  1.0000
  O  Te13      1.0  0.30251  0.60176  0.29534  1.0000
  O  Te14      1.0  0.22836  0.58995  0.84032  1.0000
  O  Te15      1.0  0.23808  0.66495  0.77018  1.0000
  O  Te16      1.0  0.31225  0.67675  0.22527  1.0000
  Mg  Mg7       1.0  0.21095  0.62387  0.67558  1.0000
  Mg  Mg8       1.0  0.32969  0.64286  0.38999  1.0000
  C  Sn17      1.0  0.26376  0.46896  0.12137  1.0000
  C   C169      1.0  0.28662  0.49081  0.03362  1.0000
  C  Sn18      1.0  0.30973  0.47683  0.90833  1.0000
  C  Sn19      1.0  0.30582  0.43947  0.86986  1.0000
  C   C170      1.0  0.28297  0.41765  0.95756  1.0000
  C  Sn20      1.0  0.25985  0.43160  0.08290  1.0000
  O  Te17      1.0  0.24498  0.48427  0.24613  1.0000
  O  Te18      1.0  0.33243  0.49921  0.82236  1.0000
  O  Te19      1.0  0.32462  0.42417  0.74499  1.0000
  O  Te20      1.0  0.23716  0.40924  0.16882  1.0000
  Mg  Mg9       1.0  0.35228  0.46573  0.66290  1.0000
  Mg  Mg10      1.0  0.21728  0.44270  0.32825  1.0000
  C  Sn21      1.0  0.15921  0.34623  0.89465  1.0000
  C   C171      1.0  0.18626  0.32983  0.98730  1.0000
  C  Sn22      1.0  0.17517  0.29691  0.06757  1.0000
  C  Sn23      1.0  0.14039  0.28078  0.05491  1.0000
  C   C172      1.0  0.11743  0.29794  0.96228  1.0000
  C  Sn24      1.0  0.12443  0.33011  0.88198  1.0000
  O  Te21      1.0  0.16684  0.37838  0.81543  1.0000
  O  Te22      1.0  0.20264  0.28102  0.15953  1.0000
  O  Te23      1.0  0.13277  0.24861  0.13423  1.0000
  O  Te24      1.0  0.09699  0.34599  0.79005  1.0000
  Mg  Mg11      1.0  0.17907  0.23728  0.24488  1.0000
  Mg  Mg12      1.0  0.12053  0.38971  0.70459  1.0000
  C  Sn25      1.0  0.35427  0.12772  0.06248  1.0000
  C   C173      1.0  0.33476  0.11167  0.95521  1.0000
  C  Sn26      1.0  0.31823  0.13181  0.83507  1.0000
  C  Sn27      1.0  0.32544  0.16952  0.82179  1.0000
  C   C174      1.0  0.34901  0.18630  0.92900  1.0000
  C  Sn28      1.0  0.36148  0.16543  0.04920  1.0000
  O  Te25      1.0  0.37050  0.10706  0.18165  1.0000
  O  Te26      1.0  0.29475  0.11441  0.72926  1.0000
  O  Te27      1.0  0.30919  0.19018  0.70249  1.0000
  O  Te28      1.0  0.38495  0.18281  0.15495  1.0000
  Mg  Mg13      1.0  0.27924  0.15417  0.58695  1.0000
  Mg  Mg14      1.0  0.40049  0.14307  0.29725  1.0000
  C  Sn29      1.0  0.46935  0.31280  0.23853  1.0000
  C   C175      1.0  0.49945  0.29612  0.17092  1.0000
  C  Sn30      1.0  0.49498  0.27246  0.04392  1.0000
  C  Sn31      1.0  0.46375  0.26610  0.98316  1.0000
  C   C176      1.0  0.42960  0.28202  0.05073  1.0000
  C  Sn32      1.0  0.43405  0.30568  0.17776  1.0000
  O  Te29      1.0  0.47446  0.33636  0.36541  1.0000
  O  Te30      1.0  0.52955  0.25685  0.97833  1.0000
  O  Te31      1.0  0.45866  0.24252  0.85618  1.0000
  O  Te32      1.0  0.40357  0.32204  0.24332  1.0000
  Mg  Mg15      1.0  0.50864  0.22683  0.80693  1.0000
  Mg  Mg16      1.0  0.42445  0.35209  0.41466  1.0000
  C  Sn33      1.0  0.79277  0.65746  0.84110  1.0000
  C   C177      1.0  0.81864  0.67568  0.93294  1.0000
  C  Sn34      1.0  0.84914  0.65717  0.99153  1.0000
  C  Sn35      1.0  0.85391  0.61967  0.95753  1.0000
  C   C178      1.0  0.82806  0.60146  0.86572  1.0000
  C  Sn36      1.0  0.79754  0.61995  0.80710  1.0000
  O  Te33      1.0  0.76248  0.67650  0.78376  1.0000
  O  Te34      1.0  0.87056  0.67522  0.08313  1.0000
  O  Te35      1.0  0.88016  0.59987  0.01496  1.0000
  O  Te36      1.0  0.77207  0.60117  0.71553  1.0000
  Mg  Mg17      1.0  0.90732  0.63739  0.13430  1.0000
  Mg  Mg18      1.0  0.73531  0.63897  0.66424  1.0000
  C  Sn37      1.0  0.94916  0.75147  0.93893  1.0000
  C   C179      1.0  0.91664  0.76993  0.00759  1.0000
  C  Sn38      1.0  0.92246  0.80449  0.07126  1.0000
  C  Sn39      1.0  0.95746  0.82020  0.06611  1.0000
  C   C180      1.0  0.98995  0.80176  0.99747  1.0000
  C  Sn40      1.0  0.98416  0.76718  0.93378  1.0000
  O  Te37      1.0  0.94272  0.71696  0.87599  1.0000
  O  Te38      1.0  0.89359  0.82316  0.13933  1.0000
  O  Te39      1.0  0.96388  0.85475  0.12913  1.0000
  O  Te40      1.0  0.01300  0.74852  0.86572  1.0000
  Mg  Mg19      1.0  0.91590  0.86944  0.20921  1.0000
  Mg  Mg20      1.0  0.99072  0.70225  0.79573  1.0000
  C  Sn41      1.0  0.74110  0.96026  0.14367  1.0000
  C   C181      1.0  0.76422  0.98255  0.05930  1.0000
  C  Sn42      1.0  0.78784  0.96917  0.93425  1.0000
  C  Sn43      1.0  0.78420  0.93197  0.89259  1.0000
  C   C182      1.0  0.76108  0.90970  0.97692  1.0000
  C  Sn44      1.0  0.73745  0.92306  0.10201  1.0000
  O  Te41      1.0  0.72181  0.97498  0.26824  1.0000
  O  Te42      1.0  0.81080  0.99199  0.85168  1.0000
  O  Te43      1.0  0.80351  0.91726  0.76791  1.0000
  O  Te44      1.0  0.71450  0.90026  0.18453  1.0000
  Mg  Mg21      1.0  0.83134  0.95926  0.69107  1.0000
  Mg  Mg22      1.0  0.69393  0.93296  0.34510  1.0000
  C  Sn45      1.0  0.65335  0.76867  0.05133  1.0000
  C   C183      1.0  0.67635  0.79727  0.97828  1.0000
  C  Sn46      1.0  0.65784  0.82755  0.91810  1.0000
  C  Sn47      1.0  0.61961  0.83008  0.93127  1.0000
  C   C184      1.0  0.59664  0.80150  0.00430  1.0000
  C  Sn48      1.0  0.61512  0.77120  0.06450  1.0000
  O  Te45      1.0  0.67241  0.73864  0.11066  1.0000
  O  Te46      1.0  0.67736  0.85504  0.84552  1.0000
  O  Te47      1.0  0.60056  0.86014  0.87186  1.0000
  O  Te48      1.0  0.59562  0.74373  0.13706  1.0000
  Mg  Mg23      1.0  0.63921  0.89054  0.78319  1.0000
  Mg  Mg24      1.0  0.63374  0.70822  0.19950  1.0000
  C  Sn49      1.0  0.63758  0.27625  0.21952  1.0000
  C   C185      1.0  0.60863  0.29280  0.13888  1.0000
  C  Sn50      1.0  0.61466  0.31240  0.00214  1.0000
  C  Sn51      1.0  0.65443  0.31625  0.94473  1.0000
  C   C186      1.0  0.67928  0.29894  0.02534  1.0000
  C  Sn52      1.0  0.67328  0.27935  0.16211  1.0000
  O  Te49      1.0  0.63092  0.25680  0.35597  1.0000
  O  Te50      1.0  0.58935  0.32947  0.92358  1.0000
  O  Te51      1.0  0.66107  0.33572  0.80816  1.0000
  O  Te52      1.0  0.70263  0.26303  0.24063  1.0000
  Mg  Mg25      1.0  0.61221  0.35308  0.74265  1.0000
  Mg  Mg26      1.0  0.67980  0.23940  0.42153  1.0000
  C  Sn53      1.0  0.99031  0.30150  0.20477  1.0000
  C   C187      1.0  0.01745  0.28439  0.11868  1.0000
  C  Sn54      1.0  0.01327  0.26903  0.97430  1.0000
  C  Sn55      1.0  0.97714  0.27005  0.91464  1.0000
  C   C188      1.0  0.94595  0.28639  0.00069  1.0000
  C  Sn56      1.0  0.95418  0.30251  0.14511  1.0000
  O  Te53      1.0  0.99917  0.31743  0.34884  1.0000
  O  Te54      1.0  0.04087  0.25208  0.89039  1.0000
  O  Te55      1.0  0.96829  0.25409  0.77045  1.0000
  O  Te56      1.0  0.92661  0.31946  0.22898  1.0000
  Mg  Mg27      1.0  0.01530  0.23426  0.69977  1.0000
  Mg  Mg28      1.0  0.95214  0.33730  0.41957  1.0000
  C  Sn57      1.0  0.85756  0.44748  0.84433  1.0000
  C   C189      1.0  0.83051  0.42941  0.92554  1.0000
  C  Sn58      1.0  0.80172  0.44889  0.98995  1.0000
  C  Sn59      1.0  0.79989  0.48723  0.97275  1.0000
  C   C190      1.0  0.82692  0.50528  0.89156  1.0000
  C  Sn60      1.0  0.85574  0.48582  0.82713  1.0000
  O  Te57      1.0  0.88610  0.42745  0.78090  1.0000
  O  Te58      1.0  0.77094  0.42947  0.07069  1.0000
  O  Te59      1.0  0.76726  0.50649  0.03627  1.0000
  O  Te60      1.0  0.88243  0.50446  0.74641  1.0000
  Mg  Mg29      1.0  0.73744  0.46877  0.13600  1.0000
  Mg  Mg30      1.0  0.91593  0.46518  0.68098  1.0000
  C  Sn61      1.0  0.78199  0.10644  0.86057  1.0000
  C   C191      1.0  0.80022  0.08281  0.96322  1.0000
  C  Sn62      1.0  0.81512  0.09569  0.09336  1.0000
  C  Sn63      1.0  0.81586  0.13373  0.12156  1.0000
  C   C192      1.0  0.79763  0.15733  0.01897  1.0000
  C  Sn64      1.0  0.78273  0.14448  0.88876  1.0000
  O  Te61      1.0  0.76319  0.09222  0.73120  1.0000
  O  Te62      1.0  0.83315  0.07153  0.19430  1.0000
  O  Te63      1.0  0.83467  0.14794  0.25105  1.0000
  O  Te64      1.0  0.76470  0.16862  0.78788  1.0000
  Mg  Mg31      1.0  0.85499  0.10406  0.35466  1.0000
  Mg  Mg32      1.0  0.74284  0.13612  0.62755  1.0000
  C  Sn65      1.0  0.11394  0.80683  0.74103  1.0000
  C   C193      1.0  0.08674  0.82413  0.65235  1.0000
  C  Sn66      1.0  0.09467  0.83954  0.50788  1.0000
  C  Sn67      1.0  0.13052  0.83761  0.45079  1.0000
  C   C194      1.0  0.15769  0.82031  0.53944  1.0000
  C  Sn68      1.0  0.14980  0.80489  0.68395  1.0000
  O  Te65      1.0  0.10541  0.79160  0.88514  1.0000
  O  Te66      1.0  0.06702  0.85671  0.42135  1.0000
  O  Te67      1.0  0.13904  0.85285  0.30656  1.0000
  O  Te68      1.0  0.17741  0.78773  0.77043  1.0000
  Mg  Mg33      1.0  0.09209  0.87332  0.23179  1.0000
  Mg  Mg34      1.0  0.15237  0.77110  0.95997  1.0000
  C  Sn69      1.0  0.47691  0.78744  0.68491  1.0000
  C   C195      1.0  0.49860  0.76549  0.59046  1.0000
  C  Sn70      1.0  0.48411  0.74941  0.45511  1.0000
  C  Sn71      1.0  0.44717  0.75541  0.41323  1.0000
  C   C196      1.0  0.42550  0.77736  0.50763  1.0000
  C  Sn72      1.0  0.43996  0.79345  0.64302  1.0000
  O  Te69      1.0  0.49197  0.80325  0.81968  1.0000
  O  Te70      1.0  0.50634  0.72755  0.36257  1.0000
  O  Te71      1.0  0.43212  0.73958  0.27833  1.0000
  O  Te72      1.0  0.41777  0.81529  0.73551  1.0000
  Mg  Mg35      1.0  0.47333  0.71201  0.19018  1.0000
  Mg  Mg36      1.0  0.45075  0.83086  0.90788  1.0000
  C  Sn73      1.0  0.35220  0.94962  0.39491  1.0000
  C   C197      1.0  0.32428  0.93328  0.47731  1.0000
  C  Sn74      1.0  0.29708  0.95455  0.54431  1.0000
  C  Sn75      1.0  0.29780  0.99294  0.52853  1.0000
  C   C198      1.0  0.33213  0.00925  0.44615  1.0000
  C  Sn76      1.0  0.35292  0.98801  0.37914  1.0000
  O  Te73      1.0  0.37911  0.92782  0.32890  1.0000
  O  Te74      1.0  0.26944  0.93760  0.62619  1.0000
  O  Te75      1.0  0.27728  0.01473  0.59464  1.0000
  O  Te76      1.0  0.38696  0.00493  0.29728  1.0000
  Mg  Mg37      1.0  0.23890  0.97895  0.69508  1.0000
  Mg  Mg38      1.0  0.41108  0.96361  0.22828  1.0000
  C  Sn77      1.0  0.29743  0.63596  0.58995  1.0000
  C   C199      1.0  0.27790  0.66224  0.50527  1.0000
  C  Sn78      1.0  0.24546  0.65317  0.42828  1.0000
  C  Sn79      1.0  0.23224  0.61708  0.43618  1.0000
  C   C200      1.0  0.25176  0.59082  0.52084  1.0000
  C  Sn80      1.0  0.28421  0.59987  0.59784  1.0000
  O  Te77      1.0  0.32980  0.64563  0.66601  1.0000
  O  Te78      1.0  0.22642  0.67991  0.34431  1.0000
  O  Te79      1.0  0.19984  0.60742  0.36002  1.0000
  O  Te80      1.0  0.30324  0.57315  0.68179  1.0000
  Mg  Mg39      1.0  0.18367  0.65343  0.26055  1.0000
  Mg  Mg40      1.0  0.34599  0.59960  0.76566  1.0000
  C  Sn81      1.0  0.30115  0.46404  0.37699  1.0000
  C   C201      1.0  0.27979  0.48929  0.45688  1.0000
  C  Sn82      1.0  0.25768  0.47806  0.57840  1.0000
  C  Sn83      1.0  0.25691  0.44082  0.62105  1.0000
  C   C202      1.0  0.27827  0.41559  0.54121  1.0000
  C  Sn84      1.0  0.30038  0.42680  0.41964  1.0000
  O  Te81      1.0  0.32306  0.47588  0.25588  1.0000
  O  Te82      1.0  0.23656  0.50381  0.65651  1.0000
  O  Te83      1.0  0.23498  0.42900  0.74227  1.0000
  O  Te84      1.0  0.32150  0.40108  0.34157  1.0000
  Mg  Mg41      1.0  0.21114  0.47436  0.81357  1.0000
  Mg  Mg42      1.0  0.34695  0.43049  0.18455  1.0000
  C  Sn85      1.0  0.14358  0.28797  0.60143  1.0000
  C   C203      1.0  0.11651  0.30653  0.51688  1.0000
  C  Sn86      1.0  0.12563  0.32995  0.39559  1.0000
  C  Sn87      1.0  0.16257  0.33491  0.35793  1.0000
  C   C204      1.0  0.18962  0.31636  0.44243  1.0000
  C  Sn88      1.0  0.18053  0.29294  0.56377  1.0000
  O  Te85      1.0  0.13384  0.26469  0.72222  1.0000
  O  Te86      1.0  0.09808  0.34821  0.31276  1.0000
  O  Te87      1.0  0.17230  0.35822  0.23703  1.0000
  O  Te88      1.0  0.20805  0.27468  0.64655  1.0000
  Mg  Mg43      1.0  0.12500  0.37700  0.15820  1.0000
  Mg  Mg44      1.0  0.18116  0.24587  0.80107  1.0000
  C  Sn89      1.0  0.30180  0.16259  0.36853  1.0000
  C   C205      1.0  0.32874  0.18017  0.45687  1.0000
  C  Sn90      1.0  0.35805  0.16048  0.51958  1.0000
  C  Sn91      1.0  0.36051  0.12243  0.49337  1.0000
  C   C206      1.0  0.33358  0.10487  0.40505  1.0000
  C  Sn92      1.0  0.30425  0.12453  0.34232  1.0000
  O  Te89      1.0  0.27274  0.18281  0.30696  1.0000
  O  Te90      1.0  0.38464  0.17866  0.60756  1.0000
  O  Te91      1.0  0.38960  0.10221  0.55503  1.0000
  O  Te92      1.0  0.27768  0.10638  0.25437  1.0000
  Mg  Mg45      1.0  0.41901  0.13925  0.66690  1.0000
  Mg  Mg46      1.0  0.24331  0.14576  0.19491  1.0000
  C  Sn93      1.0  0.46225  0.25452  0.51359  1.0000
  C   C207      1.0  0.43190  0.26876  0.58864  1.0000
  C  Sn94      1.0  0.43502  0.29970  0.68314  1.0000
  C  Sn95      1.0  0.46918  0.31678  0.70299  1.0000
  C   C208      1.0  0.49951  0.30255  0.62796  1.0000
  C  Sn96      1.0  0.49642  0.27161  0.53344  1.0000
  O  Te93      1.0  0.45850  0.22357  0.41965  1.0000
  O  Te94      1.0  0.40429  0.31342  0.75701  1.0000
  O  Te95      1.0  0.47291  0.34776  0.79703  1.0000
  O  Te96      1.0  0.52712  0.25789  0.45958  1.0000
  Mg  Mg47      1.0  0.42316  0.35620  0.87310  1.0000
  Mg  Mg48      1.0  0.50828  0.21513  0.34341  1.0000
  C  Sn97      1.0  0.84530  0.61989  0.51389  1.0000
  C   C209      1.0  0.82107  0.60164  0.41407  1.0000
  C  Sn98      1.0  0.80143  0.62069  0.29926  1.0000
  C  Sn99      1.0  0.80612  0.65878  0.28382  1.0000
  C   C210      1.0  0.83034  0.67700  0.38357  1.0000
  C  Sn100     1.0  0.84999  0.65797  0.49845  1.0000
  O  Te97      1.0  0.86465  0.60029  0.62783  1.0000
  O  Te98      1.0  0.77735  0.60186  0.20088  1.0000
  O  Te99      1.0  0.78674  0.67837  0.16977  1.0000
  O  Te100     1.0  0.87406  0.67678  0.59677  1.0000
  Mg  Mg49      1.0  0.75718  0.64056  0.06364  1.0000
  Mg  Mg50      1.0  0.89426  0.63810  0.73399  1.0000
  C  Sn101     1.0  0.93223  0.81455  0.56509  1.0000
  C   C211      1.0  0.91470  0.78828  0.47310  1.0000
  C  Sn102     1.0  0.93474  0.76142  0.39658  1.0000
  C  Sn103     1.0  0.97309  0.76079  0.41239  1.0000
  C   C212      1.0  0.99060  0.78704  0.50435  1.0000
  C  Sn104     1.0  0.97059  0.81391  0.58090  1.0000
  O  Te101     1.0  0.91165  0.84114  0.64054  1.0000
  O  Te102     1.0  0.91661  0.73546  0.30522  1.0000
  O  Te103     1.0  0.99366  0.73417  0.33684  1.0000
  O  Te104     1.0  0.98870  0.83986  0.67224  1.0000
  Mg  Mg51      1.0  0.95655  0.70470  0.22553  1.0000
  Mg  Mg52      1.0  0.94878  0.87062  0.75204  1.0000
  C  Sn105     1.0  0.77969  0.95496  0.38162  1.0000
  C   C213      1.0  0.75991  0.97901  0.47466  1.0000
  C  Sn106     1.0  0.74047  0.96612  0.60162  1.0000
  C  Sn107     1.0  0.74082  0.92841  0.63639  1.0000
  C   C214      1.0  0.76060  0.90439  0.54341  1.0000
  C  Sn108     1.0  0.78004  0.91725  0.41639  1.0000
  O  Te105     1.0  0.79893  0.96844  0.25527  1.0000
  O  Te106     1.0  0.72089  0.99069  0.69291  1.0000
  O  Te107     1.0  0.72156  0.91494  0.76286  1.0000
  O  Te108     1.0  0.79962  0.89271  0.32515  1.0000
  Mg  Mg53      1.0  0.69900  0.95915  0.85261  1.0000
  Mg  Mg54      1.0  0.82153  0.92421  0.16548  1.0000
  C  Sn109     1.0  0.62063  0.81698  0.37547  1.0000
  C   C215      1.0  0.60130  0.79249  0.46631  1.0000
  C  Sn110     1.0  0.61828  0.77466  0.59199  1.0000
  C  Sn111     1.0  0.65533  0.78147  0.62770  1.0000
  C   C216      1.0  0.67464  0.80595  0.53692  1.0000
  C  Sn112     1.0  0.65768  0.82378  0.41118  1.0000
  O  Te109     1.0  0.60311  0.83449  0.25038  1.0000
  O  Te110     1.0  0.59840  0.75029  0.68108  1.0000
  O  Te111     1.0  0.67285  0.76392  0.75291  1.0000
  O  Te112     1.0  0.67754  0.84815  0.32214  1.0000
  Mg  Mg55      1.0  0.63428  0.73312  0.83975  1.0000
  Mg  Mg56      1.0  0.64168  0.86534  0.16351  1.0000
  C  Sn113     1.0  0.64781  0.27446  0.62599  1.0000
  C   C217      1.0  0.67017  0.29537  0.53191  1.0000
  C  Sn114     1.0  0.65608  0.32537  0.45081  1.0000
  C  Sn115     1.0  0.61887  0.33468  0.46409  1.0000
  C   C218      1.0  0.59653  0.31378  0.55814  1.0000
  C  Sn116     1.0  0.61059  0.28377  0.63927  1.0000
  O  Te113     1.0  0.66248  0.24459  0.70602  1.0000
  O  Te114     1.0  0.67897  0.34586  0.35743  1.0000
  O  Te115     1.0  0.60421  0.36458  0.38396  1.0000
  O  Te116     1.0  0.58773  0.26329  0.73262  1.0000
  Mg  Mg57      1.0  0.64629  0.38408  0.27142  1.0000
  Mg  Mg58      1.0  0.62038  0.22508  0.81875  1.0000
  C  Sn117     1.0  0.99359  0.25442  0.39453  1.0000
  C   C219      1.0  0.01630  0.27350  0.49805  1.0000
  C  Sn118     1.0  0.00177  0.29274  0.62373  1.0000
  C  Sn119     1.0  0.96375  0.29289  0.64647  1.0000
  C   C220      1.0  0.94107  0.27382  0.54301  1.0000
  C  Sn120     1.0  0.95558  0.25458  0.41727  1.0000
  O  Te117     1.0  0.00871  0.23538  0.26969  1.0000
  O  Te118     1.0  0.02501  0.31161  0.72564  1.0000
  O  Te119     1.0  0.94865  0.31196  0.77143  1.0000
  O  Te120     1.0  0.93236  0.23570  0.31542  1.0000
  Mg  Mg59      1.0  0.99147  0.33350  0.87848  1.0000
  Mg  Mg60      1.0  0.96586  0.21379  0.16260  1.0000
  C  Sn121     1.0  0.79297  0.45741  0.47439  1.0000
  C   C221      1.0  0.81179  0.42893  0.40279  1.0000
  C  Sn122     1.0  0.84440  0.43552  0.32736  1.0000
  C  Sn123     1.0  0.85850  0.47131  0.32350  1.0000
  C   C222      1.0  0.83969  0.49976  0.39509  1.0000
  C  Sn124     1.0  0.80708  0.49321  0.47053  1.0000
  O  Te121     1.0  0.76043  0.45020  0.54914  1.0000
  O  Te122     1.0  0.86272  0.40661  0.25656  1.0000
  O  Te123     1.0  0.89107  0.47850  0.24866  1.0000
  O  Te124     1.0  0.78876  0.52209  0.54132  1.0000
  Mg  Mg61      1.0  0.90604  0.43013  0.16929  1.0000
  Mg  Mg62      1.0  0.74545  0.49859  0.62868  1.0000
  C  Sn125     1.0  0.76012  0.13064  0.40867  1.0000
  C   C223      1.0  0.78540  0.15197  0.49031  1.0000
  C  Sn126     1.0  0.81605  0.13596  0.56025  1.0000
  C  Sn127     1.0  0.82157  0.09784  0.54828  1.0000
  C   C224      1.0  0.79631  0.07653  0.46667  1.0000
  C  Sn128     1.0  0.76564  0.09252  0.39670  1.0000
  O  Te125     1.0  0.72967  0.14723  0.33966  1.0000
  O  Te126     1.0  0.84094  0.15785  0.64129  1.0000
  O  Te127     1.0  0.85205  0.08126  0.61738  1.0000
  O  Te128     1.0  0.74077  0.07065  0.31568  1.0000
  Mg  Mg63      1.0  0.87820  0.12258  0.71523  1.0000
  Mg  Mg64      1.0  0.70351  0.10590  0.24163  1.0000
