data_image0
_chemical_formula_structural       C2NCHCHC3NCHCHC3NH2C3NCHCHC3H2C4HCHCH2C4HCHCH2CHCHC4HC5HC3HCHC2HCHN2C4HC5HC3HCHC2HC2HC3HCHCH2CHCHN2C2NCHCHC3NCHCHC3NH2C3NCHCHC3H2C4HCHCH2C4HCHCH2CHCHCHN4CHC2NCHCHC3NCHCHC3NH2C3NCHCHC3H2C4HCHCH2C4HCHCH2C4HCHCH2CHCHC4HCHCH2C4HC5HC3HCHC2HCHN2C4HCHCH2C4HC5HC3HCHC2HC3HC5HCHCHCHCH2CH2CHCHN2C2NCHCHC3NCHCHC3NH2C3NCHCHC3H2C4HCHCH2C4HCHCH2C4HCHCH2C4HCHCH2CHCHCHN4CHSnCSn2CSnTe4Mg2SnCSn2CSnTe4Mg2SnCSn2CSnTe4Mg2SnCSn2CSnTe4Mg2SnCSn2CSnTe4Mg2SnCSn2CSnTe4Mg2SnCSn2CSnTe4Mg2SnCSn2CSnTe4Mg2SnCSn2CSnTe4Mg2SnCSn2CSnTe4Mg2SnCSn2CSnTe4Mg2SnCSn2CSnTe4Mg2SnCSn2CSnTe4Mg2SnCSn2CSnTe4Mg2SnCSn2CSnTe4Mg2SnCSn2CSnTe4Mg2
_chemical_formula_sum              "C288 N32 H144 Sn64 Te64 Mg32"
_cell_length_a       36.8687
_cell_length_b       36.7539
_cell_length_c       8.54894
_cell_angle_alpha    90.1928
_cell_angle_beta     91.006
_cell_angle_gamma    89.6311

_symmetry_space_group_name_H-M    'P1'
_space_group_IT_number       1

loop_
  _space_group_symop_operation_xyz
  'x, y, z'

loop_
  _atom_site_type_symbol
  _atom_site_label
  _atom_site_symmetry_multiplicity
  _atom_site_fract_x
  _atom_site_fract_y
  _atom_site_fract_z
  _atom_site_occupancy
  C   C1        1.0  0.27222  0.88271  0.99609  1.0000
  C   C2        1.0  0.24140  0.90781  0.99148  1.0000
  N   N1        1.0  0.26059  0.84759  0.01751  1.0000
  C   C3        1.0  0.21156  0.88786  0.02310  1.0000
  H   H1        1.0  0.24218  0.93669  0.96900  1.0000
  C   C4        1.0  0.22348  0.85003  0.03165  1.0000
  H   H2        1.0  0.18433  0.89809  0.03842  1.0000
  C   C5        1.0  0.19932  0.82027  0.04297  1.0000
  C   C6        1.0  0.21054  0.78329  0.03541  1.0000
  C   C7        1.0  0.18782  0.75176  0.03209  1.0000
  N   N2        1.0  0.24585  0.77034  0.03229  1.0000
  C   C8        1.0  0.20956  0.72134  0.03747  1.0000
  H   H3        1.0  0.15856  0.75216  0.02527  1.0000
  C   C9        1.0  0.24659  0.73265  0.03328  1.0000
  H   H4        1.0  0.20061  0.69347  0.04271  1.0000
  C   C10       1.0  0.37488  0.71659  0.02121  1.0000
  C   C11       1.0  0.34436  0.69645  0.00335  1.0000
  C   C12       1.0  0.31375  0.72155  0.01766  1.0000
  N   N3        1.0  0.32575  0.75678  0.02975  1.0000
  H   H5        1.0  0.40248  0.70658  0.02443  1.0000
  H   H6        1.0  0.34290  0.66750  0.98241  1.0000
  C   C13       1.0  0.38720  0.78431  0.03636  1.0000
  C   C14       1.0  0.37588  0.82111  0.02673  1.0000
  C   C15       1.0  0.39855  0.85258  0.02347  1.0000
  N   N4        1.0  0.34048  0.83379  0.01546  1.0000
  C   C16       1.0  0.37666  0.88288  0.01550  1.0000
  H   H7        1.0  0.42784  0.85219  0.02722  1.0000
  C   C17       1.0  0.33960  0.87135  0.00573  1.0000
  H   H8        1.0  0.38552  0.91082  0.01679  1.0000
  C   C18       1.0  0.30879  0.89432  0.98898  1.0000
  C   C19       1.0  0.27732  0.70957  0.02569  1.0000
  C   C20       1.0  0.36307  0.75443  0.03153  1.0000
  H   H9        1.0  0.26800  0.78694  0.03201  1.0000
  H   H10       1.0  0.31841  0.81707  0.01380  1.0000
  C   C21       1.0  0.42706  0.77764  0.04713  1.0000
  C   C22       1.0  0.44475  0.75168  0.95263  1.0000
  C   C23       1.0  0.44915  0.79810  0.15046  1.0000
  C   C24       1.0  0.48206  0.74582  0.96280  1.0000
  H   H11       1.0  0.42918  0.73700  0.86404  1.0000
  C   C25       1.0  0.48681  0.79476  0.15110  1.0000
  H   H12       1.0  0.43648  0.81663  0.23286  1.0000
  C   C26       1.0  0.50381  0.76856  0.05693  1.0000
  H   H13       1.0  0.49502  0.72588  0.88756  1.0000
  H   H14       1.0  0.50331  0.81119  0.23052  1.0000
  C   C27       1.0  0.27130  0.66954  0.02941  1.0000
  C   C28       1.0  0.29315  0.64720  0.12676  1.0000
  C   C29       1.0  0.24470  0.65199  0.93594  1.0000
  C   C30       1.0  0.29080  0.60941  0.12185  1.0000
  H   H15       1.0  0.31200  0.65995  0.20900  1.0000
  C   C31       1.0  0.24003  0.61446  0.94029  1.0000
  H   H16       1.0  0.22832  0.66791  0.85395  1.0000
  C   C32       1.0  0.26415  0.59245  0.02792  1.0000
  H   H17       1.0  0.30810  0.59287  0.19805  1.0000
  H   H18       1.0  0.21945  0.60146  0.86694  1.0000
  C   C33       1.0  0.55914  0.79273  0.00115  1.0000
  H   H19       1.0  0.54422  0.81645  0.95384  1.0000
  C   C34       1.0  0.28722  0.53439  0.98538  1.0000
  H   H20       1.0  0.31266  0.54629  0.94409  1.0000
  C   C35       1.0  0.27624  0.37775  0.98867  1.0000
  C   C36       1.0  0.24060  0.36504  0.97771  1.0000
  C   C37       1.0  0.30504  0.35188  0.00183  1.0000
  C   C38       1.0  0.23160  0.32818  0.97755  1.0000
  H   H21       1.0  0.21864  0.38487  0.97049  1.0000
  C   C39       1.0  0.29698  0.31369  0.99691  1.0000
  C   C40       1.0  0.34201  0.36237  0.02126  1.0000
  C   C41       1.0  0.26003  0.30188  0.98336  1.0000
  C   C42       1.0  0.32586  0.28725  0.00665  1.0000
  C   C43       1.0  0.36945  0.33725  0.03099  1.0000
  H   H22       1.0  0.34851  0.39108  0.02893  1.0000
  C   C44       1.0  0.25312  0.26378  0.97627  1.0000
  C   C45       1.0  0.31778  0.24914  0.99369  1.0000
  C   C46       1.0  0.36268  0.29904  0.02930  1.0000
  H   H23       1.0  0.39722  0.34666  0.04027  1.0000
  C   C47       1.0  0.28059  0.23869  0.98322  1.0000
  H   H24       1.0  0.22529  0.25455  0.96544  1.0000
  C   C48       1.0  0.34685  0.22328  0.99471  1.0000
  C   C49       1.0  0.39083  0.27248  0.04798  1.0000
  H   H25       1.0  0.27395  0.20998  0.98175  1.0000
  C   C50       1.0  0.38191  0.23578  0.02744  1.0000
  H   H26       1.0  0.40359  0.21570  0.03656  1.0000
  N   N5        1.0  0.26006  0.55457  0.02435  1.0000
  N   N6        1.0  0.54190  0.76514  0.05432  1.0000
  C   C51       1.0  0.83281  0.71855  0.95062  1.0000
  C   C52       1.0  0.86790  0.73243  0.96410  1.0000
  C   C53       1.0  0.80290  0.74299  0.96527  1.0000
  C   C54       1.0  0.87579  0.76946  0.98167  1.0000
  H   H27       1.0  0.89039  0.71323  0.95954  1.0000
  C   C55       1.0  0.80956  0.78126  0.98252  1.0000
  C   C56       1.0  0.76626  0.73074  0.96628  1.0000
  C   C57       1.0  0.84617  0.79464  0.98663  1.0000
  C   C58       1.0  0.77945  0.80619  0.99394  1.0000
  C   C59       1.0  0.73767  0.75441  0.97603  1.0000
  H   H28       1.0  0.76104  0.70175  0.95914  1.0000
  C   C60       1.0  0.85117  0.83302  0.99662  1.0000
  C   C61       1.0  0.78592  0.84462  0.00626  1.0000
  C   C62       1.0  0.74293  0.79265  0.99154  1.0000
  H   H29       1.0  0.71023  0.74387  0.97234  1.0000
  C   C63       1.0  0.82264  0.85660  0.01129  1.0000
  H   H30       1.0  0.87836  0.84399  0.99267  1.0000
  C   C64       1.0  0.75592  0.86926  0.01156  1.0000
  C   C65       1.0  0.71341  0.81764  0.00226  1.0000
  H   H31       1.0  0.82827  0.88531  0.02655  1.0000
  C   C66       1.0  0.72096  0.85480  0.01167  1.0000
  C   C67       1.0  0.67456  0.80758  0.99667  1.0000
  H   H32       1.0  0.69815  0.87359  0.01761  1.0000
  C   C68       1.0  0.65960  0.77876  0.08265  1.0000
  C   C69       1.0  0.65057  0.82966  0.90792  1.0000
  C   C70       1.0  0.62235  0.77257  0.08109  1.0000
  H   H33       1.0  0.67718  0.76230  0.15790  1.0000
  C   C71       1.0  0.61335  0.82423  0.90999  1.0000
  H   H34       1.0  0.66161  0.85098  0.83528  1.0000
  C   C72       1.0  0.59859  0.79570  0.99702  1.0000
  H   H35       1.0  0.61090  0.75078  0.15014  1.0000
  H   H36       1.0  0.59537  0.84172  0.84085  1.0000
  C   C73       1.0  0.54261  0.30621  0.14955  1.0000
  H   H37       1.0  0.54939  0.33306  0.19859  1.0000
  C   C74       1.0  0.02908  0.80197  0.01128  1.0000
  H   H38       1.0  0.04567  0.78051  0.95738  1.0000
  N   N7        1.0  0.04420  0.83033  0.07276  1.0000
  N   N8        1.0  0.56708  0.28304  0.10862  1.0000
  C   C75       1.0  0.78270  0.37039  0.94533  1.0000
  C   C76       1.0  0.74900  0.39130  0.94183  1.0000
  N   N9        1.0  0.77582  0.33419  0.97304  1.0000
  C   C77       1.0  0.72228  0.36801  0.98226  1.0000
  H   H39       1.0  0.74613  0.41982  0.91355  1.0000
  C   C78       1.0  0.73896  0.33204  0.99457  1.0000
  H   H40       1.0  0.69415  0.37491  0.00001  1.0000
  C   C79       1.0  0.71903  0.29951  0.01583  1.0000
  C   C80       1.0  0.73389  0.26400  0.00110  1.0000
  C   C81       1.0  0.71385  0.23065  0.99605  1.0000
  N   N10       1.0  0.77000  0.25415  0.99162  1.0000
  C   C82       1.0  0.73800  0.20213  0.99486  1.0000
  H   H41       1.0  0.68466  0.22864  0.99256  1.0000
  C   C83       1.0  0.77385  0.21669  0.98873  1.0000
  H   H42       1.0  0.73145  0.17355  0.99688  1.0000
  C   C84       1.0  0.90262  0.21626  0.98641  1.0000
  C   C85       1.0  0.87514  0.19209  0.96726  1.0000
  C   C86       1.0  0.84150  0.21306  0.97489  1.0000
  N   N11       1.0  0.84867  0.24968  0.98522  1.0000
  H   H43       1.0  0.93128  0.21004  0.99326  1.0000
  H   H44       1.0  0.87751  0.16301  0.95017  1.0000
  C   C87       1.0  0.90582  0.28504  0.00288  1.0000
  C   C88       1.0  0.89079  0.32035  0.98686  1.0000
  C   C89       1.0  0.91062  0.35374  0.98196  1.0000
  N   N12       1.0  0.85461  0.32976  0.96813  1.0000
  C   C90       1.0  0.88629  0.38193  0.96552  1.0000
  H   H45       1.0  0.93979  0.35589  0.98997  1.0000
  C   C91       1.0  0.85052  0.36703  0.95394  1.0000
  H   H46       1.0  0.89261  0.41056  0.96202  1.0000
  C   C92       1.0  0.81747  0.38651  0.93596  1.0000
  C   C93       1.0  0.80673  0.19693  0.98074  1.0000
  C   C94       1.0  0.88586  0.25228  0.99293  1.0000
  H   H47       1.0  0.79138  0.27172  0.99326  1.0000
  H   H48       1.0  0.83349  0.31188  0.96774  1.0000
  C   C95       1.0  0.94577  0.28382  0.03114  1.0000
  C   C96       1.0  0.96949  0.26242  0.94173  1.0000
  C   C97       1.0  0.96142  0.30625  0.14797  1.0000
  C   C98       1.0  0.00698  0.26421  0.96451  1.0000
  H   H49       1.0  0.95871  0.24567  0.84703  1.0000
  C   C99       1.0  0.99874  0.30867  0.16975  1.0000
  H   H50       1.0  0.94359  0.32187  0.22306  1.0000
  C   C100      1.0  0.02215  0.28812  0.07572  1.0000
  H   H51       1.0  0.02487  0.24804  0.89163  1.0000
  H   H52       1.0  0.00999  0.32653  0.25952  1.0000
  C   C101      1.0  0.80408  0.15665  0.98646  1.0000
  C   C102      1.0  0.82680  0.13608  0.08788  1.0000
  C   C103      1.0  0.77880  0.13746  0.89305  1.0000
  C   C104      1.0  0.82558  0.09831  0.09068  1.0000
  H   H53       1.0  0.84526  0.15034  0.16699  1.0000
  C   C105      1.0  0.77541  0.09987  0.90417  1.0000
  H   H54       1.0  0.76246  0.15212  0.80668  1.0000
  C   C106      1.0  0.79920  0.07974  0.00118  1.0000
  H   H55       1.0  0.84348  0.08283  0.16831  1.0000
  H   H56       1.0  0.75616  0.08542  0.82916  1.0000
  C   C107      1.0  0.07776  0.30055  0.97101  1.0000
  H   H57       1.0  0.06368  0.30579  0.85848  1.0000
  C   C108      1.0  0.76820  0.02571  0.03384  1.0000
  H   H58       1.0  0.74425  0.04115  0.07225  1.0000
  C   C109      1.0  0.32266  0.06966  0.90054  1.0000
  H   H59       1.0  0.29503  0.06275  0.85986  1.0000
  N   N13       1.0  0.79826  0.04169  0.00313  1.0000
  N   N14       1.0  0.34628  0.04473  0.93381  1.0000
  N   N15       1.0  0.05997  0.29219  0.09438  1.0000
  N   N16       1.0  0.84090  0.54027  0.89773  1.0000
  C   C110      1.0  0.81643  0.56379  0.85755  1.0000
  H   H60       1.0  0.79008  0.55536  0.80720  1.0000
  C   C111      1.0  0.27009  0.87990  0.48349  1.0000
  C   C112      1.0  0.23910  0.90466  0.46770  1.0000
  N   N17       1.0  0.25849  0.84500  0.50967  1.0000
  C   C113      1.0  0.20901  0.88483  0.49761  1.0000
  H   H61       1.0  0.24009  0.93315  0.43725  1.0000
  C   C114      1.0  0.22129  0.84741  0.51882  1.0000
  H   H62       1.0  0.18130  0.89458  0.50147  1.0000
  C   C115      1.0  0.19767  0.81758  0.53916  1.0000
  C   C116      1.0  0.20912  0.78077  0.53162  1.0000
  C   C117      1.0  0.18639  0.74925  0.53098  1.0000
  N   N18       1.0  0.24435  0.76802  0.52150  1.0000
  C   C118      1.0  0.20817  0.71888  0.52765  1.0000
  H   H63       1.0  0.15712  0.74989  0.53319  1.0000
  C   C119      1.0  0.24514  0.73039  0.51894  1.0000
  H   H64       1.0  0.19936  0.69091  0.53097  1.0000
  C   C120      1.0  0.37359  0.71436  0.52170  1.0000
  C   C121      1.0  0.34320  0.69399  0.50360  1.0000
  C   C122      1.0  0.31248  0.71923  0.50735  1.0000
  N   N19       1.0  0.32442  0.75456  0.51556  1.0000
  H   H65       1.0  0.40114  0.70438  0.53245  1.0000
  H   H66       1.0  0.34193  0.66477  0.49035  1.0000
  C   C123      1.0  0.38587  0.78217  0.52630  1.0000
  C   C124      1.0  0.37433  0.81892  0.51609  1.0000
  C   C125      1.0  0.39671  0.85058  0.51415  1.0000
  N   N20       1.0  0.33884  0.83132  0.50559  1.0000
  C   C126      1.0  0.37456  0.88073  0.50879  1.0000
  H   H67       1.0  0.42599  0.85030  0.51715  1.0000
  C   C127      1.0  0.33760  0.86892  0.49854  1.0000
  H   H68       1.0  0.38309  0.90877  0.51182  1.0000
  C   C128      1.0  0.30665  0.89172  0.48195  1.0000
  C   C129      1.0  0.27592  0.70747  0.51089  1.0000
  C   C130      1.0  0.36174  0.75227  0.52280  1.0000
  H   H69       1.0  0.26645  0.78467  0.52084  1.0000
  H   H70       1.0  0.31703  0.81426  0.50386  1.0000
  C   C131      1.0  0.15822  0.82256  0.56878  1.0000
  C   C132      1.0  0.14248  0.80139  0.68700  1.0000
  C   C133      1.0  0.13449  0.84461  0.47905  1.0000
  C   C134      1.0  0.10522  0.79969  0.70571  1.0000
  H   H71       1.0  0.16021  0.78573  0.76453  1.0000
  C   C135      1.0  0.09694  0.84344  0.49832  1.0000
  H   H72       1.0  0.14498  0.86083  0.38414  1.0000
  C   C136      1.0  0.08174  0.81970  0.60718  1.0000
  H   H73       1.0  0.09400  0.78258  0.79602  1.0000
  H   H74       1.0  0.07909  0.85946  0.42242  1.0000
  C   C137      1.0  0.31402  0.93135  0.46731  1.0000
  C   C138      1.0  0.34107  0.94431  0.36703  1.0000
  C   C139      1.0  0.29557  0.95750  0.55741  1.0000
  C   C140      1.0  0.35078  0.98078  0.36382  1.0000
  H   H75       1.0  0.35426  0.92526  0.28836  1.0000
  C   C141      1.0  0.30316  0.99450  0.54592  1.0000
  H   H76       1.0  0.27592  0.94851  0.64212  1.0000
  C   C142      1.0  0.33145  0.00664  0.45144  1.0000
  H   H77       1.0  0.37191  0.99000  0.28638  1.0000
  H   H78       1.0  0.28905  0.01403  0.61932  1.0000
  C   C143      1.0  0.26911  0.66760  0.51315  1.0000
  C   C144      1.0  0.28879  0.64484  0.61657  1.0000
  C   C145      1.0  0.24301  0.65094  0.41412  1.0000
  C   C146      1.0  0.28475  0.60724  0.61279  1.0000
  H   H79       1.0  0.30712  0.65702  0.70253  1.0000
  C   C147      1.0  0.23674  0.61368  0.41809  1.0000
  H   H80       1.0  0.22831  0.66747  0.32862  1.0000
  C   C148      1.0  0.25870  0.59110  0.51312  1.0000
  H   H81       1.0  0.30013  0.59015  0.69405  1.0000
  H   H82       1.0  0.21680  0.60137  0.33938  1.0000
  C   C149      1.0  0.55828  0.79031  0.50963  1.0000
  H   H83       1.0  0.54377  0.81448  0.46424  1.0000
  C   C150      1.0  0.28156  0.53288  0.48590  1.0000
  H   H84       1.0  0.30767  0.54462  0.45205  1.0000
  C   C151      1.0  0.28012  0.49327  0.49644  1.0000
  C   C152      1.0  0.30633  0.47179  0.42163  1.0000
  C   C153      1.0  0.25259  0.47583  0.57931  1.0000
  C   C154      1.0  0.30439  0.43395  0.42383  1.0000
  H   H85       1.0  0.32740  0.48498  0.35492  1.0000
  C   C155      1.0  0.25151  0.43815  0.58605  1.0000
  H   H86       1.0  0.23282  0.49248  0.64041  1.0000
  C   C156      1.0  0.27695  0.41624  0.50651  1.0000
  H   H87       1.0  0.32327  0.41800  0.35496  1.0000
  H   H88       1.0  0.23106  0.42510  0.65646  1.0000
  C   C157      1.0  0.27226  0.37631  0.50356  1.0000
  C   C158      1.0  0.23672  0.36356  0.48999  1.0000
  C   C159      1.0  0.30114  0.35044  0.51337  1.0000
  C   C160      1.0  0.22767  0.32673  0.48121  1.0000
  H   H89       1.0  0.21484  0.38351  0.48660  1.0000
  C   C161      1.0  0.29319  0.31235  0.49844  1.0000
  C   C162      1.0  0.33798  0.36086  0.53933  1.0000
  C   C163      1.0  0.25629  0.30052  0.48008  1.0000
  C   C164      1.0  0.32225  0.28605  0.50244  1.0000
  C   C165      1.0  0.36557  0.33584  0.54470  1.0000
  H   H90       1.0  0.34418  0.38946  0.55593  1.0000
  C   C166      1.0  0.24980  0.26254  0.46193  1.0000
  C   C167      1.0  0.31449  0.24805  0.48117  1.0000
  C   C168      1.0  0.35894  0.29777  0.52883  1.0000
  H   H91       1.0  0.39330  0.34504  0.56108  1.0000
  C   C169      1.0  0.27740  0.23759  0.46584  1.0000
  H   H92       1.0  0.22219  0.25317  0.44448  1.0000
  C   C170      1.0  0.34362  0.22231  0.47758  1.0000
  C   C171      1.0  0.38731  0.27130  0.53652  1.0000
  H   H93       1.0  0.27081  0.20895  0.45748  1.0000
  C   C172      1.0  0.37884  0.23484  0.50732  1.0000
  H   H94       1.0  0.40099  0.21518  0.50854  1.0000
  N   N21       1.0  0.25368  0.55332  0.51149  1.0000
  N   N22       1.0  0.54050  0.76226  0.55479  1.0000
  C   C173      1.0  0.82097  0.59910  0.37263  1.0000
  C   C174      1.0  0.79652  0.62350  0.30012  1.0000
  C   C175      1.0  0.84957  0.61319  0.46507  1.0000
  C   C176      1.0  0.80049  0.66092  0.31911  1.0000
  H   H95       1.0  0.77486  0.61296  0.22482  1.0000
  C   C177      1.0  0.85252  0.65042  0.48921  1.0000
  H   H96       1.0  0.86812  0.59415  0.52268  1.0000
  C   C178      1.0  0.82787  0.67521  0.41824  1.0000
  H   H97       1.0  0.78271  0.67941  0.25441  1.0000
  H   H98       1.0  0.87328  0.66063  0.56972  1.0000
  C   C179      1.0  0.83188  0.71471  0.44641  1.0000
  C   C180      1.0  0.86700  0.72878  0.45607  1.0000
  C   C181      1.0  0.80198  0.73906  0.46510  1.0000
  C   C182      1.0  0.87462  0.76574  0.47625  1.0000
  H   H99       1.0  0.88969  0.70990  0.44698  1.0000
  C   C183      1.0  0.80857  0.77738  0.48126  1.0000
  C   C184      1.0  0.76537  0.72683  0.47181  1.0000
  C   C185      1.0  0.84509  0.79081  0.48404  1.0000
  C   C186      1.0  0.77859  0.80238  0.49387  1.0000
  C   C187      1.0  0.73683  0.75055  0.48338  1.0000
  H   H100      1.0  0.76013  0.69782  0.46798  1.0000
  C   C188      1.0  0.85040  0.82917  0.49355  1.0000
  C   C189      1.0  0.78526  0.84081  0.50410  1.0000
  C   C190      1.0  0.74209  0.78888  0.49491  1.0000
  H   H101      1.0  0.70942  0.73998  0.48408  1.0000
  C   C191      1.0  0.82196  0.85287  0.50764  1.0000
  H   H102      1.0  0.87775  0.83981  0.48939  1.0000
  C   C192      1.0  0.75537  0.86546  0.50984  1.0000
  C   C193      1.0  0.71268  0.81396  0.50604  1.0000
  H   H103      1.0  0.82742  0.88167  0.52147  1.0000
  C   C194      1.0  0.72039  0.85113  0.51231  1.0000
  C   C195      1.0  0.75870  0.90553  0.51294  1.0000
  C   C196      1.0  0.67377  0.80422  0.50425  1.0000
  H   H104      1.0  0.69773  0.87008  0.51786  1.0000
  C   C197      1.0  0.78385  0.92454  0.42147  1.0000
  C   C198      1.0  0.73464  0.92623  0.60425  1.0000
  C   C199      1.0  0.65873  0.77597  0.59339  1.0000
  C   C200      1.0  0.64979  0.82624  0.41521  1.0000
  C   C201      1.0  0.78570  0.96224  0.42581  1.0000
  H   H105      1.0  0.80110  0.90957  0.34162  1.0000
  C   C202      1.0  0.73586  0.96405  0.60597  1.0000
  H   H106      1.0  0.71551  0.91226  0.67817  1.0000
  C   C203      1.0  0.62142  0.77011  0.59385  1.0000
  H   H107      1.0  0.67635  0.75971  0.66930  1.0000
  C   C204      1.0  0.61257  0.82127  0.41994  1.0000
  H   H108      1.0  0.66080  0.84706  0.33988  1.0000
  C   C205      1.0  0.76180  0.98261  0.51868  1.0000
  H   H109      1.0  0.80488  0.97677  0.35407  1.0000
  H   H110      1.0  0.71727  0.97935  0.67919  1.0000
  C   C206      1.0  0.59774  0.79311  0.50868  1.0000
  H   H111      1.0  0.60997  0.74879  0.66546  1.0000
  H   H112      1.0  0.59451  0.83872  0.35102  1.0000
  C   C207      1.0  0.53866  0.30312  0.65673  1.0000
  H   H113      1.0  0.54861  0.30760  0.77754  1.0000
  C   C208      1.0  0.02698  0.80144  0.50078  1.0000
  H   H114      1.0  0.04163  0.79346  0.39477  1.0000
  N   N23       1.0  0.04395  0.81494  0.62057  1.0000
  N   N24       1.0  0.55961  0.30419  0.53751  1.0000
  C   C209      1.0  0.78134  0.36875  0.44943  1.0000
  C   C210      1.0  0.74850  0.39106  0.44648  1.0000
  N   N25       1.0  0.77304  0.33288  0.47754  1.0000
  C   C211      1.0  0.72091  0.36891  0.48704  1.0000
  H   H115      1.0  0.74660  0.41966  0.41852  1.0000
  C   C212      1.0  0.73610  0.33227  0.49860  1.0000
  H   H116      1.0  0.69311  0.37682  0.50679  1.0000
  C   C213      1.0  0.71450  0.30085  0.51909  1.0000
  C   C214      1.0  0.72789  0.26464  0.51363  1.0000
  C   C215      1.0  0.70715  0.23176  0.51611  1.0000
  N   N26       1.0  0.76372  0.25395  0.49913  1.0000
  C   C216      1.0  0.73069  0.20270  0.50814  1.0000
  H   H117      1.0  0.67793  0.23050  0.52157  1.0000
  C   C217      1.0  0.76675  0.21641  0.49471  1.0000
  H   H118      1.0  0.72370  0.17421  0.51089  1.0000
  C   C218      1.0  0.89557  0.21109  0.49749  1.0000
  C   C219      1.0  0.86723  0.18808  0.47672  1.0000
  C   C220      1.0  0.83440  0.21049  0.47816  1.0000
  N   N27       1.0  0.84312  0.24682  0.48593  1.0000
  H   H119      1.0  0.92379  0.20363  0.51235  1.0000
  H   H120      1.0  0.86869  0.15886  0.46452  1.0000
  C   C221      1.0  0.90214  0.27950  0.49617  1.0000
  C   C222      1.0  0.88840  0.31534  0.47939  1.0000
  C   C223      1.0  0.90905  0.34814  0.46908  1.0000
  N   N28       1.0  0.85236  0.32581  0.46806  1.0000
  C   C224      1.0  0.88540  0.37703  0.45798  1.0000
  H   H121      1.0  0.93828  0.34959  0.47073  1.0000
  C   C225      1.0  0.84916  0.36314  0.45316  1.0000
  H   H122      1.0  0.89253  0.40546  0.45406  1.0000
  C   C226      1.0  0.81664  0.38355  0.43746  1.0000
  C   C227      1.0  0.79901  0.19566  0.48188  1.0000
  C   C228      1.0  0.88041  0.24781  0.49563  1.0000
  H   H123      1.0  0.78503  0.27151  0.49297  1.0000
  H   H124      1.0  0.83096  0.30831  0.47225  1.0000
  C   C229      1.0  0.67461  0.30509  0.53787  1.0000
  C   C230      1.0  0.65585  0.28448  0.64887  1.0000
  C   C231      1.0  0.65342  0.32778  0.43872  1.0000
  C   C232      1.0  0.61808  0.28462  0.65480  1.0000
  H   H125      1.0  0.67132  0.26800  0.73207  1.0000
  C   C233      1.0  0.61588  0.32894  0.44718  1.0000
  H   H126      1.0  0.66642  0.34264  0.34582  1.0000
  C   C234      1.0  0.59740  0.30663  0.55228  1.0000
  H   H127      1.0  0.60435  0.26730  0.73776  1.0000
  H   H128      1.0  0.60020  0.34554  0.36532  1.0000
  C   C235      1.0  0.94229  0.27598  0.51131  1.0000
  C   C236      1.0  0.96265  0.25046  0.42471  1.0000
  C   C237      1.0  0.96187  0.29949  0.61148  1.0000
  C   C238      1.0  0.00022  0.24811  0.43991  1.0000
  H   H129      1.0  0.94893  0.23342  0.33842  1.0000
  C   C239      1.0  0.99964  0.29967  0.61568  1.0000
  H   H130      1.0  0.94710  0.31780  0.68804  1.0000
  C   C240      1.0  0.01936  0.27383  0.53023  1.0000
  H   H131      1.0  0.01544  0.22849  0.37138  1.0000
  H   H132      1.0  0.01410  0.31877  0.69116  1.0000
  C   C241      1.0  0.82100  0.42346  0.41644  1.0000
  C   C242      1.0  0.84676  0.43750  0.31240  1.0000
  C   C243      1.0  0.80142  0.44896  0.50550  1.0000
  C   C244      1.0  0.85417  0.47448  0.30445  1.0000
  H   H133      1.0  0.86096  0.41881  0.23553  1.0000
  C   C245      1.0  0.80650  0.48624  0.48877  1.0000
  H   H134      1.0  0.78325  0.43932  0.59471  1.0000
  C   C246      1.0  0.83350  0.49960  0.39042  1.0000
  H   H135      1.0  0.87455  0.48458  0.22536  1.0000
  H   H136      1.0  0.79176  0.50523  0.56242  1.0000
  C   C247      1.0  0.79534  0.15533  0.47924  1.0000
  C   C248      1.0  0.81747  0.13313  0.57628  1.0000
  C   C249      1.0  0.77007  0.13752  0.38062  1.0000
  C   C250      1.0  0.81636  0.09539  0.56792  1.0000
  H   H137      1.0  0.83544  0.14582  0.66219  1.0000
  C   C251      1.0  0.76659  0.09974  0.38109  1.0000
  H   H138      1.0  0.75348  0.15345  0.29942  1.0000
  C   C252      1.0  0.79026  0.07816  0.47250  1.0000
  H   H139      1.0  0.83423  0.07888  0.64169  1.0000
  H   H140      1.0  0.74689  0.08658  0.30399  1.0000
  C   C253      1.0  0.07350  0.30133  0.47714  1.0000
  H   H141      1.0  0.05785  0.32388  0.42464  1.0000
  C   C254      1.0  0.76370  0.02231  0.52575  1.0000
  H   H142      1.0  0.74187  0.03631  0.58899  1.0000
  C   C255      1.0  0.31940  0.06794  0.40380  1.0000
  H   H143      1.0  0.29263  0.06085  0.35374  1.0000
  N   N29       1.0  0.78989  0.04000  0.46489  1.0000
  N   N30       1.0  0.34203  0.04325  0.45028  1.0000
  N   N31       1.0  0.05753  0.27325  0.53329  1.0000
  N   N32       1.0  0.84155  0.53676  0.38569  1.0000
  C   C256      1.0  0.81585  0.55986  0.35648  1.0000
  H   H144      1.0  0.78858  0.55091  0.31920  1.0000
  C  Sn1       1.0  0.44290  0.31600  0.67660  1.0000
  C   C257      1.0  0.42794  0.29250  0.56436  1.0000
  C  Sn2       1.0  0.44970  0.26665  0.49027  1.0000
  C  Sn3       1.0  0.48719  0.26423  0.52925  1.0000
  C   C258      1.0  0.50213  0.28772  0.64143  1.0000
  C  Sn4       1.0  0.48039  0.31358  0.71557  1.0000
  O  Te1       1.0  0.42063  0.34163  0.74918  1.0000
  O  Te2       1.0  0.43414  0.24345  0.37841  1.0000
  O  Te3       1.0  0.50945  0.23857  0.45654  1.0000
  O  Te4       1.0  0.49593  0.33676  0.82739  1.0000
  Mg  Mg1       1.0  0.47564  0.21303  0.31187  1.0000
  Mg  Mg2       1.0  0.45445  0.36718  0.89405  1.0000
  C  Sn5       1.0  0.46514  0.25239  0.05601  1.0000
  C   C259      1.0  0.43491  0.27202  0.10635  1.0000
  C  Sn6       1.0  0.43886  0.30725  0.16575  1.0000
  C  Sn7       1.0  0.47377  0.32320  0.17495  1.0000
  C   C260      1.0  0.50398  0.30357  0.12461  1.0000
  C  Sn8       1.0  0.50004  0.26833  0.06521  1.0000
  O  Te5       1.0  0.46461  0.21796  0.99703  1.0000
  O  Te6       1.0  0.40824  0.32635  0.21541  1.0000
  O  Te7       1.0  0.47834  0.35841  0.23401  1.0000
  O  Te8       1.0  0.53064  0.24925  0.01555  1.0000
  Mg  Mg3       1.0  0.42839  0.37348  0.28688  1.0000
  Mg  Mg4       1.0  0.51459  0.20288  0.94399  1.0000
  C  Sn9       1.0  0.94916  0.75147  0.93893  1.0000
  C   C261      1.0  0.91664  0.76993  0.00759  1.0000
  C  Sn10      1.0  0.92246  0.80449  0.07126  1.0000
  C  Sn11      1.0  0.95746  0.82020  0.06611  1.0000
  C   C262      1.0  0.98995  0.80176  0.99747  1.0000
  C  Sn12      1.0  0.98416  0.76718  0.93378  1.0000
  O  Te9       1.0  0.94272  0.71696  0.87599  1.0000
  O  Te10      1.0  0.89359  0.82316  0.13933  1.0000
  O  Te11      1.0  0.96388  0.85475  0.12913  1.0000
  O  Te12      1.0  0.01300  0.74852  0.86572  1.0000
  Mg  Mg5       1.0  0.91590  0.86944  0.20921  1.0000
  Mg  Mg6       1.0  0.99072  0.70225  0.79573  1.0000
  C  Sn13      1.0  0.74110  0.96026  0.14367  1.0000
  C   C263      1.0  0.76422  0.98255  0.05930  1.0000
  C  Sn14      1.0  0.78784  0.96917  0.93425  1.0000
  C  Sn15      1.0  0.78420  0.93197  0.89259  1.0000
  C   C264      1.0  0.76108  0.90970  0.97692  1.0000
  C  Sn16      1.0  0.73745  0.92306  0.10201  1.0000
  O  Te13      1.0  0.72181  0.97498  0.26824  1.0000
  O  Te14      1.0  0.81080  0.99199  0.85168  1.0000
  O  Te15      1.0  0.80351  0.91726  0.76791  1.0000
  O  Te16      1.0  0.71450  0.90026  0.18453  1.0000
  Mg  Mg7       1.0  0.83134  0.95926  0.69107  1.0000
  Mg  Mg8       1.0  0.69393  0.93296  0.34510  1.0000
  C  Sn17      1.0  0.16754  0.27850  0.52463  1.0000
  C   C265      1.0  0.18622  0.30714  0.45606  1.0000
  C  Sn18      1.0  0.16747  0.33786  0.40166  1.0000
  C  Sn19      1.0  0.12925  0.34002  0.41619  1.0000
  C   C266      1.0  0.11059  0.31140  0.48475  1.0000
  C  Sn20      1.0  0.12932  0.28067  0.53916  1.0000
  O  Te17      1.0  0.18684  0.24805  0.57821  1.0000
  O  Te18      1.0  0.18673  0.36613  0.33348  1.0000
  O  Te19      1.0  0.10996  0.37050  0.36254  1.0000
  O  Te20      1.0  0.11008  0.25241  0.60733  1.0000
  Mg  Mg9       1.0  0.14832  0.40197  0.27833  1.0000
  Mg  Mg10      1.0  0.14847  0.21657  0.66259  1.0000
  C  Sn21      1.0  0.45623  0.80497  0.61368  1.0000
  C   C267      1.0  0.43087  0.78408  0.53041  1.0000
  C  Sn22      1.0  0.44116  0.75110  0.46215  1.0000
  C  Sn23      1.0  0.47756  0.73872  0.47753  1.0000
  C   C268      1.0  0.50290  0.75960  0.56079  1.0000
  C  Sn24      1.0  0.49263  0.79259  0.62906  1.0000
  O  Te21      1.0  0.44534  0.83786  0.68095  1.0000
  O  Te22      1.0  0.41532  0.73070  0.37941  1.0000
  O  Te23      1.0  0.48844  0.70580  0.41017  1.0000
  O  Te24      1.0  0.51845  0.81299  0.71178  1.0000
  Mg  Mg11      1.0  0.44332  0.68771  0.30892  1.0000
  Mg  Mg12      1.0  0.49047  0.85597  0.78239  1.0000
  C  Sn25      1.0  0.35068  0.12750  0.55811  1.0000
  C   C269      1.0  0.32726  0.10973  0.45317  1.0000
  C  Sn26      1.0  0.31102  0.12870  0.32888  1.0000
  C  Sn27      1.0  0.31835  0.16622  0.30900  1.0000
  C   C270      1.0  0.34175  0.18398  0.41388  1.0000
  C  Sn28      1.0  0.35801  0.16502  0.53823  1.0000
  O  Te25      1.0  0.36662  0.10799  0.68151  1.0000
  O  Te26      1.0  0.28769  0.11035  0.22551  1.0000
  O  Te27      1.0  0.30238  0.18573  0.18547  1.0000
  O  Te28      1.0  0.38132  0.18336  0.64153  1.0000
  Mg  Mg13      1.0  0.27256  0.14871  0.07553  1.0000
  Mg  Mg14      1.0  0.39648  0.14502  0.79150  1.0000
  C  Sn29      1.0  0.29113  0.96993  0.02238  1.0000
  C   C271      1.0  0.31197  0.94054  0.95390  1.0000
  C  Sn30      1.0  0.34527  0.94421  0.88030  1.0000
  C  Sn31      1.0  0.36217  0.97873  0.87510  1.0000
  C   C272      1.0  0.35181  0.00886  0.94357  1.0000
  C  Sn32      1.0  0.31444  0.00446  0.01718  1.0000
  O  Te29      1.0  0.25784  0.96563  0.09534  1.0000
  O  Te30      1.0  0.36152  0.91367  0.81262  1.0000
  O  Te31      1.0  0.39548  0.98301  0.80205  1.0000
  O  Te32      1.0  0.29820  0.03497  0.08485  1.0000
  Mg  Mg15      1.0  0.40689  0.93332  0.72683  1.0000
  Mg  Mg16      1.0  0.25284  0.01535  0.17074  1.0000
  C  Sn33      1.0  0.80522  0.63596  0.75817  1.0000
  C   C273      1.0  0.82367  0.60783  0.83593  1.0000
  C  Sn34      1.0  0.84400  0.61499  0.97187  1.0000
  C  Sn35      1.0  0.84183  0.65025  0.03141  1.0000
  C   C274      1.0  0.82744  0.67911  0.95368  1.0000
  C  Sn36      1.0  0.80711  0.67197  0.81771  1.0000
  O  Te33      1.0  0.78506  0.62817  0.62247  1.0000
  O  Te34      1.0  0.85816  0.58567  0.04753  1.0000
  O  Te35      1.0  0.86201  0.65802  0.16723  1.0000
  O  Te36      1.0  0.78889  0.70051  0.74208  1.0000
  Mg  Mg17      1.0  0.88206  0.60995  0.22852  1.0000
  Mg  Mg18      1.0  0.76496  0.67626  0.56114  1.0000
  C  Sn37      1.0  0.35427  0.12772  0.06248  1.0000
  C   C275      1.0  0.33476  0.11167  0.95521  1.0000
  C  Sn38      1.0  0.31823  0.13181  0.83507  1.0000
  C  Sn39      1.0  0.32544  0.16952  0.82179  1.0000
  C   C276      1.0  0.34901  0.18630  0.92900  1.0000
  C  Sn40      1.0  0.36148  0.16543  0.04920  1.0000
  O  Te37      1.0  0.37050  0.10706  0.18165  1.0000
  O  Te38      1.0  0.29475  0.11441  0.72926  1.0000
  O  Te39      1.0  0.30919  0.19018  0.70249  1.0000
  O  Te40      1.0  0.38495  0.18281  0.15495  1.0000
  Mg  Mg19      1.0  0.27924  0.15417  0.58695  1.0000
  Mg  Mg20      1.0  0.40049  0.14307  0.29725  1.0000
  C  Sn41      1.0  0.94817  0.75054  0.41494  1.0000
  C   C277      1.0  0.92002  0.76613  0.50019  1.0000
  C  Sn42      1.0  0.92528  0.79890  0.58044  1.0000
  C  Sn43      1.0  0.95938  0.81646  0.57529  1.0000
  C   C278      1.0  0.98751  0.80087  0.49006  1.0000
  C  Sn44      1.0  0.98228  0.76809  0.40979  1.0000
  O  Te41      1.0  0.94231  0.71776  0.33560  1.0000
  O  Te42      1.0  0.89674  0.81396  0.66492  1.0000
  O  Te43      1.0  0.96523  0.84925  0.65473  1.0000
  O  Te44      1.0  0.01080  0.75304  0.32532  1.0000
  Mg  Mg21      1.0  0.91800  0.85902  0.75362  1.0000
  Mg  Mg22      1.0  0.98956  0.70799  0.23652  1.0000
  C  Sn45      1.0  0.64256  0.33052  0.01343  1.0000
  C   C279      1.0  0.67123  0.30920  0.07175  1.0000
  C  Sn46      1.0  0.66440  0.27615  0.14554  1.0000
  C  Sn47      1.0  0.62816  0.26415  0.16129  1.0000
  C   C280      1.0  0.59952  0.28547  0.10297  1.0000
  C  Sn48      1.0  0.60633  0.31852  0.02918  1.0000
  O  Te45      1.0  0.65409  0.36422  0.94007  1.0000
  O  Te46      1.0  0.69350  0.25531  0.20295  1.0000
  O  Te47      1.0  0.62072  0.23118  0.23473  1.0000
  O  Te48      1.0  0.58132  0.34011  0.97177  1.0000
  Mg  Mg23      1.0  0.66949  0.21243  0.29370  1.0000
  Mg  Mg24      1.0  0.60529  0.38299  0.88094  1.0000
  C  Sn49      1.0  0.13190  0.79483  0.13115  1.0000
  C   C281      1.0  0.15511  0.81842  0.05399  1.0000
  C  Sn50      1.0  0.14598  0.85184  0.99146  1.0000
  C  Sn51      1.0  0.10474  0.86037  0.00644  1.0000
  C   C282      1.0  0.08154  0.83679  0.08359  1.0000
  C  Sn52      1.0  0.09472  0.80412  0.14614  1.0000
  O  Te49      1.0  0.14568  0.76232  0.19277  1.0000
  O  Te50      1.0  0.16972  0.87498  0.91477  1.0000
  O  Te51      1.0  0.09503  0.89367  0.94474  1.0000
  O  Te52      1.0  0.07101  0.78099  0.22281  1.0000
  Mg  Mg25      1.0  0.13807  0.91621  0.85059  1.0000
  Mg  Mg26      1.0  0.10263  0.73976  0.28710  1.0000
  C  Sn53      1.0  0.84657  0.47164  0.77024  1.0000
  C   C283      1.0  0.83151  0.49923  0.86191  1.0000
  C  Sn54      1.0  0.81208  0.49065  0.99552  1.0000
  C  Sn55      1.0  0.80356  0.45297  0.03847  1.0000
  C   C284      1.0  0.82268  0.42616  0.94685  1.0000
  C  Sn56      1.0  0.84211  0.43472  0.81319  1.0000
  O  Te53      1.0  0.86589  0.48085  0.63717  1.0000
  O  Te54      1.0  0.79319  0.51794  0.08528  1.0000
  O  Te55      1.0  0.78422  0.44378  0.17167  1.0000
  O  Te56      1.0  0.85693  0.40670  0.72348  1.0000
  Mg  Mg27      1.0  0.76916  0.49164  0.25618  1.0000
  Mg  Mg28      1.0  0.88098  0.43296  0.55261  1.0000
  C  Sn57      1.0  0.14744  0.29413  0.11562  1.0000
  C   C285      1.0  0.12058  0.30941  0.01844  1.0000
  C  Sn58      1.0  0.13407  0.32861  0.88259  1.0000
  C  Sn59      1.0  0.17111  0.33182  0.84298  1.0000
  C   C286      1.0  0.19794  0.31653  0.94011  1.0000
  C  Sn60      1.0  0.18447  0.29734  0.07601  1.0000
  O  Te57      1.0  0.13739  0.27581  0.25085  1.0000
  O  Te58      1.0  0.10675  0.34367  0.78731  1.0000
  O  Te59      1.0  0.18114  0.35015  0.70763  1.0000
  O  Te60      1.0  0.21177  0.28227  0.17124  1.0000
  Mg  Mg29      1.0  0.13405  0.36602  0.61536  1.0000
  Mg  Mg30      1.0  0.18450  0.25990  0.34316  1.0000
  C  Sn61      1.0  0.24855  0.44762  0.04767  1.0000
  C   C287      1.0  0.27526  0.42328  0.97362  1.0000
  C  Sn62      1.0  0.30839  0.43429  0.91339  1.0000
  C  Sn63      1.0  0.31914  0.47116  0.92754  1.0000
  C   C288      1.0  0.29244  0.49547  0.00156  1.0000
  C  Sn64      1.0  0.25930  0.48448  0.06181  1.0000
  O  Te61      1.0  0.21555  0.43600  0.10703  1.0000
  O  Te62      1.0  0.33056  0.40870  0.83981  1.0000
  O  Te63      1.0  0.35217  0.48276  0.86810  1.0000
  O  Te64      1.0  0.23714  0.51005  0.13538  1.0000
  Mg  Mg31      1.0  0.37299  0.43774  0.77786  1.0000
  Mg  Mg32      1.0  0.19472  0.48104  0.19744  1.0000
