data_image0
_chemical_formula_structural       C2NC4SCH6C7NC4SCH10C3NC4SCH6C3NC4SCH6C2NC4SCH6C7NC4SCH10C8NC4SCH10C8NC4SCH10C8NC4SCH10C2NC4SCH6C7NC4SCH10C3NC4SCH6C2Sn2C2HTe2HMgC2Sn2C2HTe2HMgC2Sn2C2HTe2HMgC2Sn2C2HTe2HMgC2Sn2C2HTe2HMgC2Sn2C2HTe2HMg
_chemical_formula_sum              "C144 N12 S12 H108 Sn12 Te12 Mg6"
_cell_length_a       37.4478
_cell_length_b       37.2036
_cell_length_c       8.09163
_cell_angle_alpha    112.16
_cell_angle_beta     64.3797
_cell_angle_gamma    120.691

_symmetry_space_group_name_H-M    'P1'
_space_group_IT_number       1

loop_
  _space_group_symop_operation_xyz
  'x, y, z'

loop_
  _atom_site_type_symbol
  _atom_site_label
  _atom_site_symmetry_multiplicity
  _atom_site_fract_x
  _atom_site_fract_y
  _atom_site_fract_z
  _atom_site_occupancy
  C   C1        1.0  0.28836  0.63943  0.29728  1.0000
  C   C2        1.0  0.31480  0.62152  0.28487  1.0000
  N   N1        1.0  0.46559  0.57291  0.23154  1.0000
  C   C3        1.0  0.44963  0.53392  0.24864  1.0000
  C   C4        1.0  0.47653  0.51662  0.25045  1.0000
  C   C5        1.0  0.45889  0.47473  0.28129  1.0000
  C   C6        1.0  0.48616  0.46080  0.28934  1.0000
  S   S1        1.0  0.40267  0.44289  0.30930  1.0000
  C   C7        1.0  0.61103  0.59507  0.38306  1.0000
  H   H1        1.0  0.30079  0.58770  0.28354  1.0000
  H   H2        1.0  0.41486  0.51289  0.26853  1.0000
  H   H3        1.0  0.47407  0.42962  0.31769  1.0000
  H   H4        1.0  0.58730  0.60909  0.44464  1.0000
  H   H5        1.0  0.64403  0.62069  0.35584  1.0000
  H   H6        1.0  0.60702  0.57769  0.47892  1.0000
  C   C8        1.0  0.35895  0.64607  0.27481  1.0000
  C   C9        1.0  0.37692  0.68975  0.27487  1.0000
  C   C10       1.0  0.40997  0.77414  0.16174  1.0000
  C   C11       1.0  0.42679  0.81695  0.15635  1.0000
  C   C12       1.0  0.40437  0.84224  0.28478  1.0000
  C   C13       1.0  0.36437  0.82315  0.41523  1.0000
  C   C14       1.0  0.34798  0.78047  0.42054  1.0000
  N   N2        1.0  0.41948  0.88535  0.28560  1.0000
  C   C15       1.0  0.46065  0.90928  0.25894  1.0000
  C   C16       1.0  0.47971  0.95419  0.25223  1.0000
  C   C17       1.0  0.52370  0.98112  0.25262  1.0000
  C   C18       1.0  0.53926  0.02450  0.26062  1.0000
  S   S2        1.0  0.55566  0.95803  0.24450  1.0000
  C   C19       1.0  0.38535  0.00697  0.39127  1.0000
  H   H7        1.0  0.41133  0.70920  0.26097  1.0000
  H   H8        1.0  0.42724  0.75485  0.05879  1.0000
  H   H9        1.0  0.45650  0.83082  0.04801  1.0000
  H   H10       1.0  0.34733  0.84288  0.51494  1.0000
  H   H11       1.0  0.31792  0.76664  0.52747  1.0000
  H   H12       1.0  0.48275  0.89673  0.24772  1.0000
  H   H13       1.0  0.57183  0.04685  0.26942  1.0000
  H   H14       1.0  0.37178  0.97270  0.33183  1.0000
  H   H15       1.0  0.36400  0.02038  0.40292  1.0000
  H   H16       1.0  0.38747  0.01217  0.52994  1.0000
  C   C20       1.0  0.35126  0.70900  0.29297  1.0000
  C   C21       1.0  0.30709  0.68368  0.30675  1.0000
  C   C22       1.0  0.37020  0.75496  0.29300  1.0000
  N   N3        1.0  0.11055  0.53627  0.29796  1.0000
  C   C23       1.0  0.08801  0.54981  0.27169  1.0000
  C   C24       1.0  0.04311  0.52334  0.27161  1.0000
  C   C25       1.0  0.01887  0.54003  0.25050  1.0000
  C   C26       1.0  0.97571  0.51361  0.25341  1.0000
  S   S3        1.0  0.04483  0.59333  0.22132  1.0000
  C   C27       1.0  0.99682  0.39407  0.33688  1.0000
  H   H17       1.0  0.28765  0.69894  0.31897  1.0000
  H   H18       1.0  0.10135  0.58220  0.24980  1.0000
  H   H19       1.0  0.95568  0.52428  0.23585  1.0000
  H   H20       1.0  0.02405  0.39858  0.20697  1.0000
  H   H21       1.0  0.98224  0.36101  0.35319  1.0000
  H   H22       1.0  0.00804  0.41561  0.45835  1.0000
  C   C28       1.0  0.71332  0.35882  0.24025  1.0000
  C   C29       1.0  0.68860  0.37771  0.24557  1.0000
  C   C30       1.0  0.75879  0.38503  0.24351  1.0000
  N   N4        1.0  0.54226  0.43168  0.29326  1.0000
  C   C31       1.0  0.55806  0.47040  0.27276  1.0000
  C   C32       1.0  0.53107  0.48649  0.26175  1.0000
  C   C33       1.0  0.54894  0.52753  0.22291  1.0000
  C   C34       1.0  0.52119  0.54187  0.22300  1.0000
  S   S4        1.0  0.60602  0.56048  0.15800  1.0000
  C   C35       1.0  0.39587  0.39243  0.32290  1.0000
  H   H23       1.0  0.70404  0.41160  0.24559  1.0000
  H   H24       1.0  0.59209  0.49308  0.26205  1.0000
  H   H25       1.0  0.53380  0.57354  0.19835  1.0000
  H   H26       1.0  0.41780  0.38029  0.19960  1.0000
  H   H27       1.0  0.36195  0.37076  0.32701  1.0000
  H   H28       1.0  0.40088  0.39553  0.45283  1.0000
  C   C36       1.0  0.64466  0.35383  0.25192  1.0000
  C   C37       1.0  0.62587  0.31020  0.25358  1.0000
  N   N5        1.0  0.57306  0.11110  0.23942  1.0000
  C   C38       1.0  0.53145  0.08792  0.27785  1.0000
  C   C39       1.0  0.51337  0.04210  0.26415  1.0000
  C   C40       1.0  0.47020  0.01486  0.25516  1.0000
  C   C41       1.0  0.45439  0.97156  0.25007  1.0000
  S   S5        1.0  0.43842  0.03550  0.24038  1.0000
  C   C42       1.0  0.60232  0.00396  0.30406  1.0000
  H   H29       1.0  0.59188  0.29177  0.25847  1.0000
  H   H30       1.0  0.50754  0.10121  0.32434  1.0000
  H   H31       1.0  0.42169  0.94945  0.24224  1.0000
  H   H32       1.0  0.62405  0.02157  0.19039  1.0000
  H   H33       1.0  0.61939  0.99088  0.33045  1.0000
  H   H34       1.0  0.59164  0.02502  0.43276  1.0000
  C   C43       1.0  0.64961  0.29008  0.24854  1.0000
  C   C44       1.0  0.69369  0.31509  0.23994  1.0000
  C   C45       1.0  0.79135  0.36985  0.13668  1.0000
  C   C46       1.0  0.83384  0.39428  0.14570  1.0000
  C   C47       1.0  0.84526  0.43521  0.26167  1.0000
  C   C48       1.0  0.81313  0.45113  0.36349  1.0000
  C   C49       1.0  0.77068  0.42623  0.35607  1.0000
  N   N6        1.0  0.88733  0.46180  0.27543  1.0000
  C   C50       1.0  0.91059  0.44545  0.27554  1.0000
  C   C51       1.0  0.95558  0.47134  0.27718  1.0000
  C   C52       1.0  0.97973  0.45472  0.29892  1.0000
  C   C53       1.0  0.02294  0.48108  0.29588  1.0000
  S   S6        1.0  0.95356  0.40138  0.32891  1.0000
  C   C54       1.0  0.00132  0.60052  0.21552  1.0000
  H   H35       1.0  0.71308  0.30103  0.23880  1.0000
  H   H36       1.0  0.78338  0.33893  0.04166  1.0000
  H   H37       1.0  0.85884  0.38242  0.05885  1.0000
  H   H38       1.0  0.82199  0.48277  0.45233  1.0000
  H   H39       1.0  0.74598  0.43858  0.44039  1.0000
  H   H40       1.0  0.89712  0.41149  0.27650  1.0000
  H   H41       1.0  0.04285  0.47030  0.31364  1.0000
  H   H42       1.0  0.97388  0.59492  0.34424  1.0000
  H   H43       1.0  0.99052  0.57977  0.09219  1.0000
  H   H44       1.0  0.01546  0.63396  0.20525  1.0000
  C   C55       1.0  0.28813  0.64195  0.79821  1.0000
  C   C56       1.0  0.31378  0.62311  0.78564  1.0000
  C   C57       1.0  0.24230  0.61614  0.79758  1.0000
  C   C58       1.0  0.37361  0.58269  0.69144  1.0000
  C   C59       1.0  0.39872  0.56382  0.67983  1.0000
  C   C60       1.0  0.43675  0.58852  0.73624  1.0000
  C   C61       1.0  0.44844  0.63265  0.80327  1.0000
  C   C62       1.0  0.42249  0.65099  0.81928  1.0000
  N   N7        1.0  0.46404  0.57271  0.73164  1.0000
  C   C63       1.0  0.44793  0.53365  0.74803  1.0000
  C   C64       1.0  0.47366  0.51551  0.75430  1.0000
  C   C65       1.0  0.45452  0.47252  0.77553  1.0000
  C   C66       1.0  0.48009  0.45687  0.78581  1.0000
  S   S7        1.0  0.39888  0.44096  0.78776  1.0000
  C   C67       1.0  0.59944  0.60978  0.86091  1.0000
  H   H45       1.0  0.29910  0.58918  0.78356  1.0000
  H   H46       1.0  0.34567  0.56327  0.63846  1.0000
  H   H47       1.0  0.38959  0.52988  0.62091  1.0000
  H   H48       1.0  0.47747  0.65159  0.84875  1.0000
  H   H49       1.0  0.43149  0.68485  0.87846  1.0000
  H   H50       1.0  0.41322  0.51268  0.76536  1.0000
  H   H51       1.0  0.46707  0.42453  0.80364  1.0000
  H   H52       1.0  0.59915  0.62456  0.76754  1.0000
  H   H53       1.0  0.62986  0.62869  0.89825  1.0000
  H   H54       1.0  0.57187  0.60806  0.98899  1.0000
  C   C68       1.0  0.35797  0.64684  0.77598  1.0000
  C   C69       1.0  0.37676  0.69055  0.77559  1.0000
  C   C70       1.0  0.38451  0.62666  0.76345  1.0000
  C   C71       1.0  0.41317  0.77448  0.65963  1.0000
  C   C72       1.0  0.43223  0.81750  0.65305  1.0000
  C   C73       1.0  0.41092  0.84406  0.77715  1.0000
  C   C74       1.0  0.36995  0.82607  0.90539  1.0000
  C   C75       1.0  0.35144  0.78322  0.91246  1.0000
  N   N8        1.0  0.42791  0.88736  0.77649  1.0000
  C   C76       1.0  0.46916  0.91046  0.75268  1.0000
  C   C77       1.0  0.48883  0.95570  0.74965  1.0000
  C   C78       1.0  0.53263  0.98255  0.75183  1.0000
  C   C79       1.0  0.54765  0.02627  0.76835  1.0000
  S   S8        1.0  0.56592  0.95923  0.72863  1.0000
  C   C80       1.0  0.39245  0.99614  0.82555  1.0000
  H   H55       1.0  0.41121  0.70943  0.76200  1.0000
  H   H56       1.0  0.42947  0.75410  0.55970  1.0000
  H   H57       1.0  0.46302  0.83061  0.54779  1.0000
  H   H58       1.0  0.35394  0.84680  0.00323  1.0000
  H   H59       1.0  0.32065  0.77013  0.01782  1.0000
  H   H60       1.0  0.49045  0.89715  0.74298  1.0000
  H   H61       1.0  0.58020  0.04851  0.77778  1.0000
  H   H62       1.0  0.38766  0.96813  0.71044  1.0000
  H   H63       1.0  0.36931  0.00919  0.85547  1.0000
  H   H64       1.0  0.38734  0.98733  0.95164  1.0000
  C   C81       1.0  0.35202  0.71061  0.79214  1.0000
  C   C82       1.0  0.30773  0.68621  0.80680  1.0000
  C   C83       1.0  0.37248  0.75647  0.78885  1.0000
  C   C84       1.0  0.22060  0.63264  0.76021  1.0000
  C   C85       1.0  0.17754  0.60941  0.76009  1.0000
  C   C86       1.0  0.15377  0.56761  0.79518  1.0000
  C   C87       1.0  0.17535  0.55072  0.83045  1.0000
  C   C88       1.0  0.21839  0.57443  0.83277  1.0000
  N   N9        1.0  0.11087  0.54058  0.79091  1.0000
  C   C89       1.0  0.08740  0.55495  0.77704  1.0000
  C   C90       1.0  0.04282  0.52781  0.77143  1.0000
  C   C91       1.0  0.01826  0.54352  0.74629  1.0000
  C   C92       1.0  0.97519  0.51651  0.74865  1.0000
  S   S9        1.0  0.04353  0.59634  0.71154  1.0000
  C   C93       1.0  0.99871  0.39888  0.83258  1.0000
  H   H65       1.0  0.28892  0.70220  0.81934  1.0000
  H   H66       1.0  0.23847  0.66379  0.72280  1.0000
  H   H67       1.0  0.16309  0.62323  0.72349  1.0000
  H   H68       1.0  0.15695  0.51873  0.85989  1.0000
  H   H69       1.0  0.23307  0.56058  0.86785  1.0000
  H   H70       1.0  0.09946  0.58841  0.77161  1.0000
  H   H71       1.0  0.95511  0.52666  0.72839  1.0000
  H   H72       1.0  0.02520  0.40354  0.70043  1.0000
  H   H73       1.0  0.98486  0.36594  0.84862  1.0000
  H   H74       1.0  0.01084  0.42063  0.95161  1.0000
  C   C94       1.0  0.71249  0.36118  0.73929  1.0000
  C   C95       1.0  0.68624  0.37872  0.74752  1.0000
  N   N10       1.0  0.53396  0.42495  0.79819  1.0000
  C   C96       1.0  0.54906  0.46478  0.79483  1.0000
  C   C97       1.0  0.52402  0.48231  0.77859  1.0000
  C   C98       1.0  0.54309  0.52530  0.75852  1.0000
  C   C99       1.0  0.51760  0.54086  0.74640  1.0000
  S   S10       1.0  0.59868  0.55719  0.74698  1.0000
  C   C100      1.0  0.38780  0.39366  0.84919  1.0000
  H   H75       1.0  0.70037  0.41261  0.74945  1.0000
  H   H76       1.0  0.58179  0.48756  0.80569  1.0000
  H   H77       1.0  0.53064  0.57356  0.73264  1.0000
  H   H78       1.0  0.40649  0.37606  0.73851  1.0000
  H   H79       1.0  0.35296  0.37366  0.86713  1.0000
  H   H80       1.0  0.39437  0.40228  0.98254  1.0000
  C   C101      1.0  0.64220  0.35357  0.75606  1.0000
  C   C102      1.0  0.62485  0.31005  0.75658  1.0000
  C   C103      1.0  0.59121  0.21645  0.71482  1.0000
  C   C104      1.0  0.57361  0.17337  0.71606  1.0000
  C   C105      1.0  0.59556  0.15691  0.75176  1.0000
  C   C106      1.0  0.63598  0.18542  0.78436  1.0000
  C   C107      1.0  0.65283  0.22864  0.78729  1.0000
  N   N11       1.0  0.58049  0.11365  0.74787  1.0000
  C   C108      1.0  0.53902  0.08990  0.79143  1.0000
  C   C109      1.0  0.52154  0.04410  0.77626  1.0000
  C   C110      1.0  0.47846  0.01686  0.76522  1.0000
  C   C111      1.0  0.46313  0.97339  0.75367  1.0000
  S   S11       1.0  0.44628  0.03862  0.76381  1.0000
  C   C112      1.0  0.61015  0.00450  0.80962  1.0000
  H   H81       1.0  0.59070  0.29060  0.76531  1.0000
  H   H82       1.0  0.57444  0.22731  0.67591  1.0000
  H   H83       1.0  0.54380  0.15167  0.67803  1.0000
  H   H84       1.0  0.65304  0.17317  0.81381  1.0000
  H   H85       1.0  0.68309  0.24980  0.82203  1.0000
  H   H86       1.0  0.51485  0.10313  0.84195  1.0000
  H   H87       1.0  0.43042  0.95113  0.74711  1.0000
  H   H88       1.0  0.63164  0.02619  0.71107  1.0000
  H   H89       1.0  0.62848  0.99075  0.82243  1.0000
  H   H90       1.0  0.59724  0.02187  0.94742  1.0000
  C   C113      1.0  0.65022  0.29123  0.74710  1.0000
  C   C114      1.0  0.69427  0.31740  0.73612  1.0000
  C   C115      1.0  0.63120  0.24548  0.75172  1.0000
  N   N12       1.0  0.88635  0.46459  0.77979  1.0000
  C   C116      1.0  0.91000  0.44835  0.77734  1.0000
  C   C117      1.0  0.95527  0.47452  0.77553  1.0000
  C   C118      1.0  0.97989  0.45862  0.79848  1.0000
  C   C119      1.0  0.02294  0.48562  0.79658  1.0000
  S   S12       1.0  0.95434  0.40567  0.83256  1.0000
  C   C120      1.0  0.99830  0.60362  0.72342  1.0000
  H   H91       1.0  0.71470  0.30406  0.73128  1.0000
  H   H92       1.0  0.89682  0.41439  0.77801  1.0000
  H   H93       1.0  0.04296  0.47560  0.81796  1.0000
  H   H94       1.0  0.98598  0.58337  0.60338  1.0000
  H   H95       1.0  0.01159  0.63723  0.71755  1.0000
  H   H96       1.0  0.97208  0.59732  0.85520  1.0000
  C   C121      1.0  0.54942  0.36938  0.36870  1.0000
  C   C122      1.0  0.56376  0.40695  0.31237  1.0000
  C  Sn1       1.0  0.60770  0.42842  0.21957  1.0000
  C  Sn2       1.0  0.63777  0.41189  0.18263  1.0000
  C   C123      1.0  0.62310  0.37426  0.23944  1.0000
  C   C124      1.0  0.57906  0.35304  0.33226  1.0000
  H   H97       1.0  0.51534  0.35294  0.44043  1.0000
  O  Te1       1.0  0.62147  0.46593  0.16432  1.0000
  O  Te2       1.0  0.68187  0.43270  0.09005  1.0000
  H   H98       1.0  0.56797  0.32394  0.37575  1.0000
  Mg  Mg1       1.0  0.68486  0.48276  0.04246  1.0000
  C   C125      1.0  0.63182  0.41683  0.67952  1.0000
  C   C126      1.0  0.62041  0.38390  0.76123  1.0000
  C  Sn3       1.0  0.57705  0.36187  0.85870  1.0000
  C  Sn4       1.0  0.54458  0.37308  0.87438  1.0000
  C   C127      1.0  0.55632  0.40605  0.79203  1.0000
  C   C128      1.0  0.59981  0.42789  0.69486  1.0000
  H   H99       1.0  0.66546  0.43371  0.60425  1.0000
  O  Te3       1.0  0.56622  0.32907  0.93955  1.0000
  O  Te4       1.0  0.50099  0.35158  0.97095  1.0000
  H   H100      1.0  0.60863  0.45337  0.63151  1.0000
  Mg  Mg2       1.0  0.57250  0.26316  0.05702  1.0000
  C   C129      1.0  0.43318  0.65205  0.32966  1.0000
  C   C130      1.0  0.39652  0.63374  0.26996  1.0000
  C  Sn5       1.0  0.37922  0.59016  0.19284  1.0000
  C  Sn6       1.0  0.39905  0.56451  0.17540  1.0000
  C   C131      1.0  0.43570  0.58313  0.23566  1.0000
  C   C132      1.0  0.45275  0.62677  0.31257  1.0000
  H   H101      1.0  0.44637  0.68581  0.38926  1.0000
  O  Te5       1.0  0.34258  0.57239  0.13384  1.0000
  O  Te6       1.0  0.38242  0.52087  0.09890  1.0000
  H   H102      1.0  0.48112  0.64093  0.35889  1.0000
  Mg  Mg3       1.0  0.33196  0.51142  0.03862  1.0000
  C   C133      1.0  0.64116  0.19144  0.26962  1.0000
  C   C134      1.0  0.59984  0.16089  0.25655  1.0000
  C  Sn7       1.0  0.57237  0.17209  0.23168  1.0000
  C  Sn8       1.0  0.58663  0.21468  0.21966  1.0000
  C   C135      1.0  0.62804  0.24500  0.23276  1.0000
  C   C136      1.0  0.65526  0.23346  0.25771  1.0000
  H   H103      1.0  0.66223  0.18251  0.28882  1.0000
  O  Te7       1.0  0.53118  0.14117  0.21896  1.0000
  O  Te8       1.0  0.55984  0.22673  0.19473  1.0000
  H   H104      1.0  0.68726  0.25711  0.26770  1.0000
  Mg  Mg4       1.0  0.50652  0.17314  0.18532  1.0000
  C   C137      1.0  0.82477  0.38687  0.63142  1.0000
  C   C138      1.0  0.84287  0.42851  0.72920  1.0000
  C  Sn9       1.0  0.81666  0.45041  0.84578  1.0000
  C  Sn10      1.0  0.77151  0.43015  0.86457  1.0000
  C   C139      1.0  0.75371  0.38847  0.76626  1.0000
  C   C140      1.0  0.78023  0.36686  0.64993  1.0000
  H   H105      1.0  0.84528  0.37014  0.54149  1.0000
  O  Te9       1.0  0.83528  0.49201  0.94240  1.0000
  O  Te10      1.0  0.74458  0.45129  0.98020  1.0000
  H   H106      1.0  0.76621  0.33460  0.57434  1.0000
  Mg  Mg5       1.0  0.85525  0.46160  0.08297  1.0000
  C   C141      1.0  0.18638  0.54722  0.32968  1.0000
  C   C142      1.0  0.15848  0.55884  0.31065  1.0000
  C  Sn11      1.0  0.17396  0.59891  0.27366  1.0000
  C  Sn12      1.0  0.21822  0.62780  0.25540  1.0000
  C   C143      1.0  0.24587  0.61585  0.27455  1.0000
  C   C144      1.0  0.23003  0.57569  0.31162  1.0000
  H   H107      1.0  0.17413  0.51613  0.35827  1.0000
  O  Te11      1.0  0.14564  0.61002  0.25512  1.0000
  O  Te12      1.0  0.23455  0.66804  0.21837  1.0000
  H   H108      1.0  0.25165  0.56668  0.32623  1.0000
  Mg  Mg6       1.0  0.18322  0.66848  0.20493  1.0000
