data_image0
_chemical_formula_structural       C2NC4SCH6C2NC4SCH6C2NC4SCH6C2NC4SCH6C2NC4SCH6C2NC4SCH6C2NC4SCH6C2NC4SCH6C2NC4SCH6C2NC4SCH6C2NC4SCH6C2NC4SCH6SnCSn2CSnTe4Mg2SnCSn2CSnTe4Mg2SnCSn2CSnTe4Mg2SnCSn2CSnTe4Mg2SnCSn2CSnTe4Mg2SnCSn2CSnTe4Mg2SnCSn2CSnTe4Mg2SnCSn2CSnTe4Mg2SnCSn2CSnTe4Mg2SnCSn2CSnTe4Mg2SnCSn2CSnTe4Mg2SnCSn2CSnTe4Mg2
_chemical_formula_sum              "C108 N12 S12 H72 Sn48 Te48 Mg24"
_cell_length_a       37.4478
_cell_length_b       37.2036
_cell_length_c       8.09163
_cell_angle_alpha    112.16
_cell_angle_beta     64.3797
_cell_angle_gamma    120.691

_symmetry_space_group_name_H-M    'P1'
_space_group_IT_number       1

loop_
  _space_group_symop_operation_xyz
  'x, y, z'

loop_
  _atom_site_type_symbol
  _atom_site_label
  _atom_site_symmetry_multiplicity
  _atom_site_fract_x
  _atom_site_fract_y
  _atom_site_fract_z
  _atom_site_occupancy
  C   C1        1.0  0.28836  0.63943  0.29728  1.0000
  C   C2        1.0  0.31480  0.62152  0.28487  1.0000
  N   N1        1.0  0.46559  0.57291  0.23154  1.0000
  C   C3        1.0  0.44963  0.53392  0.24864  1.0000
  C   C4        1.0  0.47653  0.51662  0.25045  1.0000
  C   C5        1.0  0.45889  0.47473  0.28129  1.0000
  C   C6        1.0  0.48616  0.46080  0.28934  1.0000
  S   S1        1.0  0.40267  0.44289  0.30930  1.0000
  C   C7        1.0  0.61103  0.59507  0.38306  1.0000
  H   H1        1.0  0.30079  0.58770  0.28354  1.0000
  H   H2        1.0  0.41486  0.51289  0.26853  1.0000
  H   H3        1.0  0.47407  0.42962  0.31769  1.0000
  H   H4        1.0  0.58730  0.60909  0.44464  1.0000
  H   H5        1.0  0.64403  0.62069  0.35584  1.0000
  H   H6        1.0  0.60702  0.57769  0.47892  1.0000
  C   C8        1.0  0.35895  0.64607  0.27481  1.0000
  C   C9        1.0  0.37692  0.68975  0.27487  1.0000
  N   N2        1.0  0.41948  0.88535  0.28560  1.0000
  C   C10       1.0  0.46065  0.90928  0.25894  1.0000
  C   C11       1.0  0.47971  0.95419  0.25223  1.0000
  C   C12       1.0  0.52370  0.98112  0.25262  1.0000
  C   C13       1.0  0.53926  0.02450  0.26062  1.0000
  S   S2        1.0  0.55566  0.95803  0.24450  1.0000
  C   C14       1.0  0.38535  0.00697  0.39127  1.0000
  H   H7        1.0  0.41133  0.70920  0.26097  1.0000
  H   H8        1.0  0.48275  0.89673  0.24772  1.0000
  H   H9        1.0  0.57183  0.04685  0.26942  1.0000
  H   H10       1.0  0.37178  0.97270  0.33183  1.0000
  H   H11       1.0  0.36400  0.02038  0.40292  1.0000
  H   H12       1.0  0.38747  0.01217  0.52994  1.0000
  C   C15       1.0  0.35126  0.70900  0.29297  1.0000
  C   C16       1.0  0.30709  0.68368  0.30675  1.0000
  N   N3        1.0  0.11055  0.53627  0.29796  1.0000
  C   C17       1.0  0.08801  0.54981  0.27169  1.0000
  C   C18       1.0  0.04311  0.52334  0.27161  1.0000
  C   C19       1.0  0.01887  0.54003  0.25050  1.0000
  C   C20       1.0  0.97571  0.51361  0.25341  1.0000
  S   S3        1.0  0.04483  0.59333  0.22132  1.0000
  C   C21       1.0  0.99682  0.39407  0.33688  1.0000
  H   H13       1.0  0.28765  0.69894  0.31897  1.0000
  H   H14       1.0  0.10135  0.58220  0.24980  1.0000
  H   H15       1.0  0.95568  0.52428  0.23585  1.0000
  H   H16       1.0  0.02405  0.39858  0.20697  1.0000
  H   H17       1.0  0.98224  0.36101  0.35319  1.0000
  H   H18       1.0  0.00804  0.41561  0.45835  1.0000
  C   C22       1.0  0.71332  0.35882  0.24025  1.0000
  C   C23       1.0  0.68860  0.37771  0.24557  1.0000
  N   N4        1.0  0.54226  0.43168  0.29326  1.0000
  C   C24       1.0  0.55806  0.47040  0.27276  1.0000
  C   C25       1.0  0.53107  0.48649  0.26175  1.0000
  C   C26       1.0  0.54894  0.52753  0.22291  1.0000
  C   C27       1.0  0.52119  0.54187  0.22300  1.0000
  S   S4        1.0  0.60602  0.56048  0.15800  1.0000
  C   C28       1.0  0.39587  0.39243  0.32290  1.0000
  H   H19       1.0  0.70404  0.41160  0.24559  1.0000
  H   H20       1.0  0.59209  0.49308  0.26205  1.0000
  H   H21       1.0  0.53380  0.57354  0.19835  1.0000
  H   H22       1.0  0.41780  0.38029  0.19960  1.0000
  H   H23       1.0  0.36195  0.37076  0.32701  1.0000
  H   H24       1.0  0.40088  0.39553  0.45283  1.0000
  C   C29       1.0  0.64466  0.35383  0.25192  1.0000
  C   C30       1.0  0.62587  0.31020  0.25358  1.0000
  N   N5        1.0  0.57306  0.11110  0.23942  1.0000
  C   C31       1.0  0.53145  0.08792  0.27785  1.0000
  C   C32       1.0  0.51337  0.04210  0.26415  1.0000
  C   C33       1.0  0.47020  0.01486  0.25516  1.0000
  C   C34       1.0  0.45439  0.97156  0.25007  1.0000
  S   S5        1.0  0.43842  0.03550  0.24038  1.0000
  C   C35       1.0  0.60232  0.00396  0.30406  1.0000
  H   H25       1.0  0.59188  0.29177  0.25847  1.0000
  H   H26       1.0  0.50754  0.10121  0.32434  1.0000
  H   H27       1.0  0.42169  0.94945  0.24224  1.0000
  H   H28       1.0  0.62405  0.02157  0.19039  1.0000
  H   H29       1.0  0.61939  0.99088  0.33045  1.0000
  H   H30       1.0  0.59164  0.02502  0.43276  1.0000
  C   C36       1.0  0.64961  0.29008  0.24854  1.0000
  C   C37       1.0  0.69369  0.31509  0.23994  1.0000
  N   N6        1.0  0.88733  0.46180  0.27543  1.0000
  C   C38       1.0  0.91059  0.44545  0.27554  1.0000
  C   C39       1.0  0.95558  0.47134  0.27718  1.0000
  C   C40       1.0  0.97973  0.45472  0.29892  1.0000
  C   C41       1.0  0.02294  0.48108  0.29588  1.0000
  S   S6        1.0  0.95356  0.40138  0.32891  1.0000
  C   C42       1.0  0.00132  0.60052  0.21552  1.0000
  H   H31       1.0  0.71308  0.30103  0.23880  1.0000
  H   H32       1.0  0.89712  0.41149  0.27650  1.0000
  H   H33       1.0  0.04285  0.47030  0.31364  1.0000
  H   H34       1.0  0.97388  0.59492  0.34424  1.0000
  H   H35       1.0  0.99052  0.57977  0.09219  1.0000
  H   H36       1.0  0.01546  0.63396  0.20525  1.0000
  C   C43       1.0  0.28813  0.64195  0.79821  1.0000
  C   C44       1.0  0.31378  0.62311  0.78564  1.0000
  N   N7        1.0  0.46404  0.57271  0.73164  1.0000
  C   C45       1.0  0.44793  0.53365  0.74803  1.0000
  C   C46       1.0  0.47366  0.51551  0.75430  1.0000
  C   C47       1.0  0.45452  0.47252  0.77553  1.0000
  C   C48       1.0  0.48009  0.45687  0.78581  1.0000
  S   S7        1.0  0.39888  0.44096  0.78776  1.0000
  C   C49       1.0  0.59944  0.60978  0.86091  1.0000
  H   H37       1.0  0.29910  0.58918  0.78356  1.0000
  H   H38       1.0  0.41322  0.51268  0.76536  1.0000
  H   H39       1.0  0.46707  0.42453  0.80364  1.0000
  H   H40       1.0  0.59915  0.62456  0.76754  1.0000
  H   H41       1.0  0.62986  0.62869  0.89825  1.0000
  H   H42       1.0  0.57187  0.60806  0.98899  1.0000
  C   C50       1.0  0.35797  0.64684  0.77598  1.0000
  C   C51       1.0  0.37676  0.69055  0.77559  1.0000
  N   N8        1.0  0.42791  0.88736  0.77649  1.0000
  C   C52       1.0  0.46916  0.91046  0.75268  1.0000
  C   C53       1.0  0.48883  0.95570  0.74965  1.0000
  C   C54       1.0  0.53263  0.98255  0.75183  1.0000
  C   C55       1.0  0.54765  0.02627  0.76835  1.0000
  S   S8        1.0  0.56592  0.95923  0.72863  1.0000
  C   C56       1.0  0.39245  0.99614  0.82555  1.0000
  H   H43       1.0  0.41121  0.70943  0.76200  1.0000
  H   H44       1.0  0.49045  0.89715  0.74298  1.0000
  H   H45       1.0  0.58020  0.04851  0.77778  1.0000
  H   H46       1.0  0.38766  0.96813  0.71044  1.0000
  H   H47       1.0  0.36931  0.00919  0.85547  1.0000
  H   H48       1.0  0.38734  0.98733  0.95164  1.0000
  C   C57       1.0  0.35202  0.71061  0.79214  1.0000
  C   C58       1.0  0.30773  0.68621  0.80680  1.0000
  N   N9        1.0  0.11087  0.54058  0.79091  1.0000
  C   C59       1.0  0.08740  0.55495  0.77704  1.0000
  C   C60       1.0  0.04282  0.52781  0.77143  1.0000
  C   C61       1.0  0.01826  0.54352  0.74629  1.0000
  C   C62       1.0  0.97519  0.51651  0.74865  1.0000
  S   S9        1.0  0.04353  0.59634  0.71154  1.0000
  C   C63       1.0  0.99871  0.39888  0.83258  1.0000
  H   H49       1.0  0.28892  0.70220  0.81934  1.0000
  H   H50       1.0  0.09946  0.58841  0.77161  1.0000
  H   H51       1.0  0.95511  0.52666  0.72839  1.0000
  H   H52       1.0  0.02520  0.40354  0.70043  1.0000
  H   H53       1.0  0.98486  0.36594  0.84862  1.0000
  H   H54       1.0  0.01084  0.42063  0.95161  1.0000
  C   C64       1.0  0.71249  0.36118  0.73929  1.0000
  C   C65       1.0  0.68624  0.37872  0.74752  1.0000
  N   N10       1.0  0.53396  0.42495  0.79819  1.0000
  C   C66       1.0  0.54906  0.46478  0.79483  1.0000
  C   C67       1.0  0.52402  0.48231  0.77859  1.0000
  C   C68       1.0  0.54309  0.52530  0.75852  1.0000
  C   C69       1.0  0.51760  0.54086  0.74640  1.0000
  S   S10       1.0  0.59868  0.55719  0.74698  1.0000
  C   C70       1.0  0.38780  0.39366  0.84919  1.0000
  H   H55       1.0  0.70037  0.41261  0.74945  1.0000
  H   H56       1.0  0.58179  0.48756  0.80569  1.0000
  H   H57       1.0  0.53064  0.57356  0.73264  1.0000
  H   H58       1.0  0.40649  0.37606  0.73851  1.0000
  H   H59       1.0  0.35296  0.37366  0.86713  1.0000
  H   H60       1.0  0.39437  0.40228  0.98254  1.0000
  C   C71       1.0  0.64220  0.35357  0.75606  1.0000
  C   C72       1.0  0.62485  0.31005  0.75658  1.0000
  N   N11       1.0  0.58049  0.11365  0.74787  1.0000
  C   C73       1.0  0.53902  0.08990  0.79143  1.0000
  C   C74       1.0  0.52154  0.04410  0.77626  1.0000
  C   C75       1.0  0.47846  0.01686  0.76522  1.0000
  C   C76       1.0  0.46313  0.97339  0.75367  1.0000
  S   S11       1.0  0.44628  0.03862  0.76381  1.0000
  C   C77       1.0  0.61015  0.00450  0.80962  1.0000
  H   H61       1.0  0.59070  0.29060  0.76531  1.0000
  H   H62       1.0  0.51485  0.10313  0.84195  1.0000
  H   H63       1.0  0.43042  0.95113  0.74711  1.0000
  H   H64       1.0  0.63164  0.02619  0.71107  1.0000
  H   H65       1.0  0.62848  0.99075  0.82243  1.0000
  H   H66       1.0  0.59724  0.02187  0.94742  1.0000
  C   C78       1.0  0.65022  0.29123  0.74710  1.0000
  C   C79       1.0  0.69427  0.31740  0.73612  1.0000
  N   N12       1.0  0.88635  0.46459  0.77979  1.0000
  C   C80       1.0  0.91000  0.44835  0.77734  1.0000
  C   C81       1.0  0.95527  0.47452  0.77553  1.0000
  C   C82       1.0  0.97989  0.45862  0.79848  1.0000
  C   C83       1.0  0.02294  0.48562  0.79658  1.0000
  S   S12       1.0  0.95434  0.40567  0.83256  1.0000
  C   C84       1.0  0.99830  0.60362  0.72342  1.0000
  H   H67       1.0  0.71470  0.30406  0.73128  1.0000
  H   H68       1.0  0.89682  0.41439  0.77801  1.0000
  H   H69       1.0  0.04296  0.47560  0.81796  1.0000
  H   H70       1.0  0.98598  0.58337  0.60338  1.0000
  H   H71       1.0  0.01159  0.63723  0.71755  1.0000
  H   H72       1.0  0.97208  0.59732  0.85520  1.0000
  C  Sn1       1.0  0.40089  0.56750  0.12332  1.0000
  C   C85       1.0  0.43739  0.58656  0.18498  1.0000
  C  Sn2       1.0  0.44736  0.62661  0.30440  1.0000
  C  Sn3       1.0  0.42028  0.64805  0.36352  1.0000
  C   C86       1.0  0.38381  0.62899  0.30190  1.0000
  C  Sn4       1.0  0.37381  0.58893  0.18245  1.0000
  O  Te1       1.0  0.39154  0.52744  0.00399  1.0000
  O  Te2       1.0  0.48403  0.64504  0.36412  1.0000
  O  Te3       1.0  0.42966  0.68814  0.48295  1.0000
  O  Te4       1.0  0.33716  0.57051  0.12276  1.0000
  Mg  Mg1       1.0  0.48319  0.70009  0.52620  1.0000
  Mg  Mg2       1.0  0.26787  0.56148  0.96077  1.0000
  C  Sn5       1.0  0.42262  0.78633  0.18547  1.0000
  C   C87       1.0  0.38382  0.76264  0.30584  1.0000
  C  Sn6       1.0  0.35159  0.77793  0.41033  1.0000
  C  Sn7       1.0  0.35825  0.81771  0.39410  1.0000
  C   C88       1.0  0.39703  0.84137  0.27376  1.0000
  C  Sn8       1.0  0.42929  0.82611  0.16923  1.0000
  O  Te5       1.0  0.45440  0.77042  0.08234  1.0000
  O  Te6       1.0  0.31307  0.75368  0.52979  1.0000
  O  Te7       1.0  0.32643  0.83360  0.49736  1.0000
  O  Te8       1.0  0.46778  0.85033  0.04981  1.0000
  Mg  Mg3       1.0  0.27948  0.78886  0.64102  1.0000
  Mg  Mg4       1.0  0.43129  0.86120  0.93845  1.0000
  C  Sn9       1.0  0.20682  0.63105  0.31821  1.0000
  C   C89       1.0  0.23377  0.61898  0.34202  1.0000
  C  Sn10      1.0  0.22179  0.57607  0.33047  1.0000
  C  Sn11      1.0  0.18205  0.54455  0.29424  1.0000
  C   C90       1.0  0.15513  0.55662  0.27041  1.0000
  C  Sn12      1.0  0.16708  0.59953  0.28198  1.0000
  O  Te9       1.0  0.21945  0.67413  0.33033  1.0000
  O  Te10      1.0  0.24926  0.56479  0.35483  1.0000
  O  Te11      1.0  0.16944  0.50144  0.28213  1.0000
  O  Te12      1.0  0.13964  0.61082  0.25760  1.0000
  Mg  Mg5       1.0  0.21785  0.50196  0.32540  1.0000
  Mg  Mg6       1.0  0.17103  0.67364  0.28691  1.0000
  C  Sn13      1.0  0.55396  0.38015  0.41551  1.0000
  C   C91       1.0  0.56843  0.41524  0.34082  1.0000
  C  Sn14      1.0  0.60916  0.42901  0.20725  1.0000
  C  Sn15      1.0  0.63598  0.40723  0.14697  1.0000
  C   C92       1.0  0.62150  0.37216  0.22161  1.0000
  C  Sn16      1.0  0.58077  0.35837  0.35523  1.0000
  O  Te13      1.0  0.51312  0.36695  0.54888  1.0000
  O  Te14      1.0  0.62293  0.46418  0.13465  1.0000
  O  Te15      1.0  0.67684  0.42047  0.01349  1.0000
  O  Te16      1.0  0.56700  0.32322  0.42778  1.0000
  Mg  Mg7       1.0  0.61107  0.51604  0.95600  1.0000
  Mg  Mg8       1.0  0.50876  0.31734  0.60636  1.0000
  C  Sn17      1.0  0.57508  0.21021  0.28307  1.0000
  C   C93       1.0  0.61611  0.24037  0.30139  1.0000
  C  Sn18      1.0  0.64727  0.22730  0.27774  1.0000
  C  Sn19      1.0  0.63723  0.18315  0.23476  1.0000
  C   C94       1.0  0.59623  0.15302  0.21643  1.0000
  C  Sn20      1.0  0.56504  0.16606  0.24009  1.0000
  O  Te17      1.0  0.54443  0.22400  0.30730  1.0000
  O  Te18      1.0  0.68805  0.25805  0.29681  1.0000
  O  Te19      1.0  0.66793  0.16937  0.21054  1.0000
  O  Te20      1.0  0.52429  0.13534  0.22101  1.0000
  Mg  Mg9       1.0  0.71892  0.22341  0.25062  1.0000
  Mg  Mg10      1.0  0.49341  0.16994  0.26707  1.0000
  C  Sn21      1.0  0.82871  0.39217  0.09231  1.0000
  C   C95       1.0  0.84523  0.43234  0.20394  1.0000
  C  Sn22      1.0  0.81703  0.44864  0.35451  1.0000
  C  Sn23      1.0  0.77135  0.42428  0.39443  1.0000
  C   C96       1.0  0.75485  0.38413  0.28286  1.0000
  C  Sn24      1.0  0.78303  0.36781  0.13223  1.0000
  O  Te21      1.0  0.78741  0.42253  0.94250  1.0000
  O  Te22      1.0  0.83431  0.48889  0.46407  1.0000
  O  Te23      1.0  0.74256  0.43998  0.54437  1.0000
  O  Te24      1.0  0.76577  0.32759  0.02273  1.0000
  Mg  Mg11      1.0  0.78182  0.49645  0.65287  1.0000
  Mg  Mg12      1.0  0.74813  0.36601  0.83396  1.0000
  C  Sn25      1.0  0.43695  0.65216  0.76859  1.0000
  C   C97       1.0  0.39789  0.63244  0.72539  1.0000
  C  Sn26      1.0  0.37487  0.58809  0.69774  1.0000
  C  Sn27      1.0  0.39121  0.56294  0.71372  1.0000
  C   C98       1.0  0.43024  0.58266  0.75693  1.0000
  C  Sn28      1.0  0.45329  0.62700  0.78457  1.0000
  O  Te25      1.0  0.45942  0.69654  0.79566  1.0000
  O  Te26      1.0  0.33590  0.56910  0.65462  1.0000
  O  Te27      1.0  0.36871  0.51853  0.68660  1.0000
  O  Te28      1.0  0.49223  0.64600  0.82770  1.0000
  Mg  Mg13      1.0  0.31711  0.50750  0.63049  1.0000
  Mg  Mg14      1.0  0.51104  0.70759  0.85196  1.0000
  C  Sn29      1.0  0.42579  0.78613  0.68488  1.0000
  C   C99       1.0  0.38564  0.76337  0.80234  1.0000
  C  Sn30      1.0  0.35471  0.78043  0.90209  1.0000
  C  Sn31      1.0  0.36410  0.82107  0.88398  1.0000
  C   C100      1.0  0.40423  0.84381  0.76656  1.0000
  C  Sn32      1.0  0.43518  0.82677  0.66677  1.0000
  O  Te29      1.0  0.45623  0.76845  0.58648  1.0000
  O  Te30      1.0  0.38489  0.71105  0.01870  1.0000
  O  Te31      1.0  0.33362  0.83874  0.98251  1.0000
  O  Te32      1.0  0.47507  0.85010  0.55020  1.0000
  Mg  Mg15      1.0  0.35400  0.74863  0.12371  1.0000
  Mg  Mg16      1.0  0.50598  0.81254  0.44505  1.0000
  C  Sn33      1.0  0.18008  0.55842  0.88959  1.0000
  C   C101      1.0  0.15525  0.56947  0.84524  1.0000
  C  Sn34      1.0  0.17529  0.60373  0.75648  1.0000
  C  Sn35      1.0  0.22111  0.62742  0.71100  1.0000
  C   C102      1.0  0.24592  0.61637  0.75531  1.0000
  C  Sn36      1.0  0.22591  0.58212  0.84411  1.0000
  O  Te33      1.0  0.15936  0.52405  0.97832  1.0000
  O  Te34      1.0  0.14977  0.61418  0.71360  1.0000
  O  Te35      1.0  0.24182  0.66181  0.62221  1.0000
  O  Te36      1.0  0.25140  0.57166  0.88695  1.0000
  Mg  Mg17      1.0  0.19307  0.66366  0.59242  1.0000
  Mg  Mg18      1.0  0.27824  0.47614  0.00803  1.0000
  C  Sn37      1.0  0.55940  0.34953  0.81893  1.0000
  C   C103      1.0  0.60448  0.36308  0.74052  1.0000
  C  Sn38      1.0  0.63061  0.40357  0.69660  1.0000
  C  Sn39      1.0  0.61128  0.43110  0.73189  1.0000
  C   C104      1.0  0.56623  0.41755  0.81027  1.0000
  C  Sn40      1.0  0.54007  0.37706  0.85421  1.0000
  O  Te37      1.0  0.53390  0.30892  0.86174  1.0000
  O  Te38      1.0  0.67561  0.41641  0.61826  1.0000
  O  Te39      1.0  0.63682  0.47174  0.68900  1.0000
  O  Te40      1.0  0.49510  0.36422  0.93254  1.0000
  Mg  Mg19      1.0  0.69659  0.47471  0.58431  1.0000
  Mg  Mg20      1.0  0.47409  0.30594  0.96663  1.0000
  C  Sn41      1.0  0.58157  0.17981  0.65759  1.0000
  C   C105      1.0  0.59752  0.15870  0.70019  1.0000
  C  Sn42      1.0  0.62968  0.18183  0.79034  1.0000
  C  Sn43      1.0  0.64623  0.22699  0.83905  1.0000
  C   C106      1.0  0.63028  0.24808  0.79650  1.0000
  C  Sn44      1.0  0.59812  0.22497  0.70631  1.0000
  O  Te41      1.0  0.54942  0.15604  0.56742  1.0000
  O  Te42      1.0  0.64513  0.16002  0.83141  1.0000
  O  Te43      1.0  0.67841  0.25075  0.92929  1.0000
  O  Te44      1.0  0.58267  0.24676  0.66527  1.0000
  Mg  Mg21      1.0  0.68903  0.20652  0.95563  1.0000
  Mg  Mg22      1.0  0.53876  0.20029  0.54115  1.0000
  C  Sn45      1.0  0.79922  0.44560  0.91691  1.0000
  C   C107      1.0  0.83545  0.43596  0.81630  1.0000
  C  Sn46      1.0  0.83442  0.40289  0.65874  1.0000
  C  Sn47      1.0  0.79641  0.37897  0.60045  1.0000
  C   C108      1.0  0.76022  0.38863  0.70102  1.0000
  C  Sn48      1.0  0.76121  0.42169  0.85862  1.0000
  O  Te45      1.0  0.87107  0.43277  0.07398  1.0000
  O  Te46      1.0  0.87103  0.39383  0.56045  1.0000
  O  Te47      1.0  0.79468  0.34575  0.44325  1.0000
  O  Te48      1.0  0.72463  0.43075  0.95686  1.0000
  Mg  Mg23      1.0  0.85282  0.34559  0.35549  1.0000
  Mg  Mg24      1.0  0.81291  0.43297  0.16177  1.0000
