data_image0
_chemical_formula_structural       H31C51N14H29C57N14SnCSn2CSnTe4Mg2SnCSn2CSnTe4Mg2SnCSn2CSnTe4Mg2SnCSn2CSnTe4Mg2SnCSn2CSnTe4Mg2SnCSn2CSnTe4Mg2SnCSn2CSnTe4Mg2SnCSn2CSnTe4Mg2SnCSn2CSnTe4Mg2SnCSn2CSnTe4Mg2SnCSn2CSnTe4Mg2SnCSn2CSnTe4Mg2
_chemical_formula_sum              "H60 C132 N28 Sn48 Te48 Mg24"
_cell_length_a       26.2395
_cell_length_b       25.8146
_cell_length_c       8.59272
_cell_angle_alpha    89.7165
_cell_angle_beta     91.5358
_cell_angle_gamma    119.9

_symmetry_space_group_name_H-M    'P1'
_space_group_IT_number       1

loop_
  _space_group_symop_operation_xyz
  'x, y, z'

loop_
  _atom_site_type_symbol
  _atom_site_label
  _atom_site_symmetry_multiplicity
  _atom_site_fract_x
  _atom_site_fract_y
  _atom_site_fract_z
  _atom_site_occupancy
  H   H1        1.0  0.10410  0.88029  0.35751  1.0000
  H   H2        1.0  0.21217  0.93576  0.38007  1.0000
  H   H3        1.0  0.21188  0.10174  0.35050  1.0000
  H   H4        1.0  0.10300  0.04598  0.32952  1.0000
  H   H5        1.0  0.93053  0.75280  0.39345  1.0000
  H   H6        1.0  0.95564  0.67499  0.31420  1.0000
  H   H7        1.0  0.08352  0.80042  0.00283  1.0000
  H   H8        1.0  0.06164  0.87802  0.09079  1.0000
  H   H9        1.0  0.68634  0.85822  0.16991  1.0000
  H   H10       1.0  0.57862  0.82303  0.16104  1.0000
  H   H11       1.0  0.05526  0.13056  0.46809  1.0000
  H   H12       1.0  0.12384  0.23949  0.44746  1.0000
  H   H13       1.0  0.66944  0.07089  0.25144  1.0000
  H   H14       1.0  0.14254  0.32550  0.36352  1.0000
  H   H15       1.0  0.27790  0.10433  0.07684  1.0000
  H   H16       1.0  0.11333  0.73209  0.49377  1.0000
  H   H17       1.0  0.68991  0.49243  0.96124  1.0000
  H   H18       1.0  0.48616  0.79222  0.98202  1.0000
  H   H19       1.0  0.39461  0.08013  0.40171  1.0000
  H   H20       1.0  0.50028  0.14210  0.48155  1.0000
  H   H21       1.0  0.45741  0.23786  0.30293  1.0000
  H   H22       1.0  0.35486  0.18102  0.21228  1.0000
  H   H23       1.0  0.63166  0.29028  0.49758  1.0000
  H   H24       1.0  0.68495  0.39959  0.45087  1.0000
  H   H25       1.0  0.57568  0.41839  0.26495  1.0000
  H   H26       1.0  0.52718  0.31098  0.32712  1.0000
  H   H27       1.0  0.39925  0.62633  0.04200  1.0000
  H   H28       1.0  0.26054  0.68892  0.12574  1.0000
  H   H29       1.0  0.20396  0.73584  0.03137  1.0000
  H   H30       1.0  0.04889  0.59590  0.23888  1.0000
  H   H31       1.0  0.10541  0.54939  0.33626  1.0000
  C   C1        1.0  0.85666  0.85417  0.50279  1.0000
  C   C2        1.0  0.91547  0.88090  0.44234  1.0000
  C   C3        1.0  0.95507  0.94323  0.45700  1.0000
  C   C4        1.0  0.93348  0.97775  0.01387  1.0000
  C   C5        1.0  0.87364  0.95111  0.05704  1.0000
  C   C6        1.0  0.83397  0.88714  0.03673  1.0000
  C   C7        1.0  0.94939  0.07033  0.09672  1.0000
  C   C8        1.0  0.88749  0.04407  0.12649  1.0000
  C   C9        1.0  0.74123  0.80350  0.04870  1.0000
  C   C10       1.0  0.76756  0.76608  0.02898  1.0000
  C   C11       1.0  0.98671  0.86752  0.32568  1.0000
  C   C12       1.0  0.02945  0.92959  0.35721  1.0000
  C   C13       1.0  0.67758  0.78230  0.04413  1.0000
  C   C14       1.0  0.09457  0.95900  0.34550  1.0000
  C   C15       1.0  0.99701  0.82166  0.25469  1.0000
  C   C16       1.0  0.12681  0.92869  0.35615  1.0000
  C   C17       1.0  0.18794  0.95964  0.36821  1.0000
  C   C18       1.0  0.21970  0.02240  0.37549  1.0000
  C   C19       1.0  0.18822  0.05316  0.35479  1.0000
  C   C20       1.0  0.12713  0.02198  0.34041  1.0000
  C   C21       1.0  0.96427  0.76267  0.30913  1.0000
  C   C22       1.0  0.97769  0.71937  0.26384  1.0000
  C   C23       1.0  0.02399  0.73328  0.16255  1.0000
  C   C24       1.0  0.05123  0.79007  0.09203  1.0000
  C   C25       1.0  0.03837  0.83353  0.13969  1.0000
  C   C26       1.0  0.65542  0.81669  0.11048  1.0000
  C   C27       1.0  0.59541  0.79744  0.10293  1.0000
  C   C28       1.0  0.69228  0.11992  0.26324  1.0000
  C   C29       1.0  0.13215  0.35031  0.44845  1.0000
  C   C30       1.0  0.30546  0.09175  0.01037  1.0000
  C   C31       1.0  0.09500  0.70713  0.10868  1.0000
  C   C32       1.0  0.66583  0.47905  0.07041  1.0000
  C   C33       1.0  0.46549  0.74353  0.99737  1.0000
  C   C34       1.0  0.36834  0.12619  0.04904  1.0000
  C   C35       1.0  0.40850  0.11538  0.48901  1.0000
  C   C36       1.0  0.46989  0.14929  0.03186  1.0000
  C   C37       1.0  0.48818  0.19405  0.14738  1.0000
  C   C38       1.0  0.44582  0.20537  0.21001  1.0000
  C   C39       1.0  0.38725  0.17243  0.15976  1.0000
  C   C40       1.0  0.18915  0.61929  0.25256  1.0000
  C   C41       1.0  0.57802  0.29144  0.16794  1.0000
  C   C42       1.0  0.62408  0.31671  0.06285  1.0000
  C   C43       1.0  0.65278  0.37766  0.03286  1.0000
  C   C44       1.0  0.63569  0.41521  0.10504  1.0000
  C   C45       1.0  0.58877  0.38949  0.20786  1.0000
  C   C46       1.0  0.56087  0.32875  0.24044  1.0000
  C   C47       1.0  0.21484  0.66973  0.15620  1.0000
  C   C48       1.0  0.18253  0.69552  0.10108  1.0000
  C   C49       1.0  0.12286  0.67129  0.13608  1.0000
  C   C50       1.0  0.09545  0.61637  0.21472  1.0000
  C   C51       1.0  0.12767  0.59061  0.27140  1.0000
  N   N1        1.0  0.97006  0.03638  0.03858  1.0000
  N   N2        1.0  0.85220  0.98487  0.11104  1.0000
  N   N3        1.0  0.77631  0.86272  0.06321  1.0000
  N   N4        1.0  0.82351  0.79454  0.50837  1.0000
  N   N5        1.0  0.93157  0.84526  0.37307  1.0000
  N   N6        1.0  0.01123  0.96567  0.41616  1.0000
  N   N7        1.0  0.74890  0.15198  0.25627  1.0000
  N   N8        1.0  0.09605  0.32074  0.06605  1.0000
  N   N9        1.0  0.28076  0.05063  0.40444  1.0000
  N   N10       1.0  0.04255  0.69092  0.15465  1.0000
  N   N11       1.0  0.66241  0.51687  0.16157  1.0000
  N   N12       1.0  0.49679  0.72028  0.51033  1.0000
  N   N13       1.0  0.22444  0.59873  0.32792  1.0000
  N   N14       1.0  0.54905  0.22812  0.19721  1.0000
  H   H32       1.0  0.54706  0.66730  0.90203  1.0000
  H   H33       1.0  0.65364  0.70127  0.91650  1.0000
  H   H34       1.0  0.01700  0.27275  0.75668  1.0000
  H   H35       1.0  0.95027  0.16386  0.78326  1.0000
  H   H36       1.0  0.66855  0.07404  0.73797  1.0000
  H   H37       1.0  0.14232  0.32219  0.86710  1.0000
  H   H38       1.0  0.27514  0.10535  0.57204  1.0000
  H   H39       1.0  0.12434  0.75187  0.06220  1.0000
  H   H40       1.0  0.69168  0.49675  0.47793  1.0000
  H   H41       1.0  0.48779  0.79674  0.48995  1.0000
  H   H42       1.0  0.39765  0.08103  0.89500  1.0000
  H   H43       1.0  0.50282  0.14210  0.97762  1.0000
  H   H44       1.0  0.45543  0.24032  0.80051  1.0000
  H   H45       1.0  0.35233  0.18206  0.71296  1.0000
  H   H46       1.0  0.63659  0.28785  0.00345  1.0000
  H   H47       1.0  0.68803  0.39640  0.94974  1.0000
  H   H48       1.0  0.57617  0.42116  0.77935  1.0000
  H   H49       1.0  0.52721  0.31310  0.83812  1.0000
  H   H50       1.0  0.50940  0.11143  0.72212  1.0000
  H   H51       1.0  0.57170  0.06623  0.74425  1.0000
  H   H52       1.0  0.72558  0.23993  0.78174  1.0000
  H   H53       1.0  0.66431  0.28656  0.75465  1.0000
  H   H54       1.0  0.29493  0.56149  0.97062  1.0000
  H   H55       1.0  0.38754  0.78067  0.91109  1.0000
  H   H56       1.0  0.28328  0.71710  0.84197  1.0000
  H   H57       1.0  0.25551  0.67686  0.61877  1.0000
  H   H58       1.0  0.19791  0.71904  0.49933  1.0000
  H   H59       1.0  0.04941  0.60041  0.76930  1.0000
  H   H60       1.0  0.10566  0.55682  0.88496  1.0000
  C   C52       1.0  0.85585  0.85111  0.97838  1.0000
  C   C53       1.0  0.91521  0.87875  0.92113  1.0000
  C   C54       1.0  0.95485  0.94067  0.94477  1.0000
  C   C55       1.0  0.93439  0.98125  0.52486  1.0000
  C   C56       1.0  0.87515  0.95513  0.57331  1.0000
  C   C57       1.0  0.83533  0.89091  0.55947  1.0000
  C   C58       1.0  0.95059  0.07503  0.59895  1.0000
  C   C59       1.0  0.88880  0.04917  0.62999  1.0000
  C   C60       1.0  0.74231  0.80797  0.57045  1.0000
  C   C61       1.0  0.76772  0.76974  0.55158  1.0000
  C   C62       1.0  0.98816  0.86695  0.80895  1.0000
  C   C63       1.0  0.03062  0.92800  0.85217  1.0000
  C   C64       1.0  0.99491  0.13930  0.61524  1.0000
  C   C65       1.0  0.55577  0.74295  0.02794  1.0000
  C   C66       1.0  0.57814  0.70896  0.96051  1.0000
  C   C67       1.0  0.63764  0.72852  0.96768  1.0000
  C   C68       1.0  0.04720  0.16221  0.53063  1.0000
  C   C69       1.0  0.08534  0.22330  0.51914  1.0000
  C   C70       1.0  0.07184  0.26394  0.59086  1.0000
  C   C71       1.0  0.02439  0.24103  0.69239  1.0000
  C   C72       1.0  0.98692  0.17991  0.70557  1.0000
  C   C73       1.0  0.69110  0.12305  0.75027  1.0000
  C   C74       1.0  0.12990  0.34605  0.94971  1.0000
  C   C75       1.0  0.30335  0.09312  0.50754  1.0000
  C   C76       1.0  0.09145  0.69801  0.58355  1.0000
  C   C77       1.0  0.66486  0.48226  0.58249  1.0000
  C   C78       1.0  0.46725  0.74775  0.49508  1.0000
  C   C79       1.0  0.36584  0.12676  0.55101  1.0000
  C   C80       1.0  0.41104  0.11528  0.98495  1.0000
  C   C81       1.0  0.46744  0.14976  0.53472  1.0000
  C   C82       1.0  0.48585  0.19561  0.64738  1.0000
  C   C83       1.0  0.44345  0.20710  0.70923  1.0000
  C   C84       1.0  0.38473  0.17346  0.66054  1.0000
  C   C85       1.0  0.18650  0.61600  0.76771  1.0000
  C   C86       1.0  0.28093  0.63334  0.89005  1.0000
  C   C87       1.0  0.57551  0.29384  0.66939  1.0000
  C   C88       1.0  0.58147  0.20315  0.72439  1.0000
  C   C89       1.0  0.62059  0.31938  0.56153  1.0000
  C   C90       1.0  0.65020  0.38064  0.53548  1.0000
  C   C91       1.0  0.63429  0.41811  0.61329  1.0000
  C   C92       1.0  0.58812  0.39207  0.71848  1.0000
  C   C93       1.0  0.55979  0.33110  0.74843  1.0000
  C   C94       1.0  0.55668  0.14047  0.73229  1.0000
  C   C95       1.0  0.59227  0.11476  0.74643  1.0000
  C   C96       1.0  0.65384  0.14980  0.75891  1.0000
  C   C97       1.0  0.67807  0.21218  0.76737  1.0000
  C   C98       1.0  0.64317  0.23821  0.75134  1.0000
  C   C99       1.0  0.31472  0.60933  0.95561  1.0000
  C   C100      1.0  0.37332  0.64563  0.99699  1.0000
  C   C101      1.0  0.40184  0.70797  0.97694  1.0000
  C   C102      1.0  0.36743  0.73244  0.92342  1.0000
  C   C103      1.0  0.30834  0.69629  0.88142  1.0000
  C   C104      1.0  0.21065  0.66042  0.65362  1.0000
  C   C105      1.0  0.17793  0.68386  0.58552  1.0000
  C   C106      1.0  0.11991  0.66405  0.62961  1.0000
  C   C107      1.0  0.09439  0.61640  0.73486  1.0000
  C   C108      1.0  0.12670  0.59246  0.80169  1.0000
  N   N15       1.0  0.97086  0.04027  0.54360  1.0000
  N   N16       1.0  0.85397  0.98971  0.62260  1.0000
  N   N17       1.0  0.77766  0.86707  0.58611  1.0000
  N   N18       1.0  0.82311  0.79142  0.98315  1.0000
  N   N19       1.0  0.93207  0.84437  0.84882  1.0000
  N   N20       1.0  0.01182  0.96345  0.91169  1.0000
  N   N21       1.0  0.74769  0.15560  0.74483  1.0000
  N   N22       1.0  0.09939  0.32569  0.56695  1.0000
  N   N23       1.0  0.28205  0.04803  0.91112  1.0000
  N   N24       1.0  0.04652  0.69149  0.65828  1.0000
  N   N25       1.0  0.65881  0.51907  0.67138  1.0000
  N   N26       1.0  0.49496  0.71623  0.01918  1.0000
  N   N27       1.0  0.22164  0.59517  0.84458  1.0000
  N   N28       1.0  0.54676  0.23027  0.69584  1.0000
  C  Sn1       1.0  0.06524  0.16951  0.05288  1.0000
  C   C109      1.0  0.01428  0.13967  0.13925  1.0000
  C  Sn2       1.0  0.98796  0.17065  0.19871  1.0000
  C  Sn3       1.0  0.01308  0.23275  0.17119  1.0000
  C   C110      1.0  0.06400  0.26256  0.08484  1.0000
  C  Sn4       1.0  0.09036  0.23162  0.02535  1.0000
  O  Te1       1.0  0.10141  0.14137  0.99454  1.0000
  O  Te2       1.0  0.93704  0.13985  0.28477  1.0000
  O  Te3       1.0  0.98747  0.26461  0.22961  1.0000
  O  Te4       1.0  0.15185  0.26611  0.93932  1.0000
  Mg  Mg1       1.0  0.91843  0.20286  0.33984  1.0000
  Mg  Mg2       1.0  0.17048  0.20314  0.88414  1.0000
  C  Sn5       1.0  0.21754  0.45747  0.83673  1.0000
  C   C111      1.0  0.17287  0.41969  0.93566  1.0000
  C  Sn6       1.0  0.13477  0.43718  0.99584  1.0000
  C  Sn7       1.0  0.14142  0.49360  0.95626  1.0000
  C   C112      1.0  0.18606  0.53133  0.85737  1.0000
  C  Sn8       1.0  0.22420  0.51388  0.79715  1.0000
  O  Te5       1.0  0.25513  0.43906  0.77792  1.0000
  O  Te6       1.0  0.07985  0.39493  0.09455  1.0000
  O  Te7       1.0  0.09318  0.50826  0.01517  1.0000
  O  Te8       1.0  0.26848  0.55237  0.69847  1.0000
  Mg  Mg3       1.0  0.03958  0.44008  0.14504  1.0000
  Mg  Mg4       1.0  0.30875  0.50726  0.64786  1.0000
  C  Sn9       1.0  0.04523  0.82681  0.58907  1.0000
  C   C113      1.0  0.99776  0.81993  0.67481  1.0000
  C  Sn10      1.0  0.96593  0.76895  0.76446  1.0000
  C  Sn11      1.0  0.98189  0.72394  0.76859  1.0000
  C   C114      1.0  0.02934  0.73084  0.68290  1.0000
  C  Sn12      1.0  0.06119  0.78180  0.59319  1.0000
  O  Te9       1.0  0.07643  0.87814  0.50026  1.0000
  O  Te10      1.0  0.91863  0.76306  0.84916  1.0000
  O  Te11      1.0  0.95064  0.67258  0.85750  1.0000
  O  Te12      1.0  0.10847  0.78770  0.50856  1.0000
  Mg  Mg5       1.0  0.88969  0.68504  0.95278  1.0000
  Mg  Mg6       1.0  0.13746  0.86572  0.40497  1.0000
  C  Sn13      1.0  0.67294  0.21816  0.32693  1.0000
  C   C115      1.0  0.65578  0.15750  0.32264  1.0000
  C  Sn14      1.0  0.60061  0.11564  0.26074  1.0000
  C  Sn15      1.0  0.56179  0.13481  0.20180  1.0000
  C   C116      1.0  0.57896  0.19544  0.20608  1.0000
  C  Sn16      1.0  0.63412  0.23733  0.26799  1.0000
  O  Te13      1.0  0.72831  0.25923  0.38934  1.0000
  O  Te14      1.0  0.58443  0.05523  0.25776  1.0000
  O  Te15      1.0  0.50639  0.09368  0.13937  1.0000
  O  Te16      1.0  0.65031  0.29771  0.27096  1.0000
  Mg  Mg7       1.0  0.50442  0.01634  0.16102  1.0000
  Mg  Mg8       1.0  0.73032  0.33664  0.36759  1.0000
  C  Sn17      1.0  0.75310  0.65544  0.48777  1.0000
  C   C117      1.0  0.73397  0.69410  0.53841  1.0000
  C  Sn18      1.0  0.69343  0.67704  0.65705  1.0000
  C  Sn19      1.0  0.67159  0.62018  0.72660  1.0000
  C   C118      1.0  0.69073  0.58156  0.67599  1.0000
  C  Sn20      1.0  0.73126  0.59857  0.55733  1.0000
  O  Te17      1.0  0.79366  0.67342  0.36900  1.0000
  O  Te18      1.0  0.67494  0.71645  0.70567  1.0000
  O  Te19      1.0  0.63100  0.60221  0.84546  1.0000
  O  Te20      1.0  0.74976  0.55920  0.50873  1.0000
  Mg  Mg9       1.0  0.61916  0.67160  0.87153  1.0000
  Mg  Mg10      1.0  0.80556  0.60402  0.34294  1.0000
  C  Sn21      1.0  0.87131  0.14696  0.13539  1.0000
  C   C119      1.0  0.86665  0.09370  0.18975  1.0000
  C  Sn22      1.0  0.81572  0.05133  0.26227  1.0000
  C  Sn23      1.0  0.76843  0.06241  0.28076  1.0000
  C   C120      1.0  0.77309  0.11564  0.22639  1.0000
  C  Sn24      1.0  0.82402  0.15804  0.15387  1.0000
  O  Te21      1.0  0.92264  0.18868  0.06324  1.0000
  O  Te22      1.0  0.30252  0.99842  0.31571  1.0000
  O  Te23      1.0  0.71708  0.02063  0.35298  1.0000
  O  Te24      1.0  0.82765  0.21092  0.10043  1.0000
  Mg  Mg11      1.0  0.22350  0.95531  0.40624  1.0000
  Mg  Mg12      1.0  0.90663  0.25405  0.00982  1.0000
  C  Sn25      1.0  0.14308  0.02854  0.79431  1.0000
  C   C121      1.0  0.59494  0.96710  0.80573  1.0000
  C  Sn26      1.0  0.61438  0.92996  0.86997  1.0000
  C  Sn27      1.0  0.67359  0.95475  0.92402  1.0000
  C   C122      1.0  0.22169  0.01616  0.91261  1.0000
  C  Sn28      1.0  0.20228  0.05334  0.84835  1.0000
  O  Te25      1.0  0.12269  0.06482  0.72968  1.0000
  O  Te26      1.0  0.57502  0.86866  0.88011  1.0000
  O  Te27      1.0  0.69395  0.91841  0.98868  1.0000
  O  Te28      1.0  0.24160  0.11460  0.83823  1.0000
  Mg  Mg13      1.0  0.62364  0.83765  0.97731  1.0000
  Mg  Mg14      1.0  0.19303  0.14566  0.74113  1.0000
  C  Sn29      1.0  0.32656  0.61716  0.48995  1.0000
  C   C123      1.0  0.28588  0.63371  0.43735  1.0000
  C  Sn30      1.0  0.30488  0.69193  0.38718  1.0000
  C  Sn31      1.0  0.36583  0.73450  0.38955  1.0000
  C   C124      1.0  0.40647  0.71795  0.44211  1.0000
  C  Sn32      1.0  0.38750  0.65973  0.49232  1.0000
  O  Te29      1.0  0.30657  0.55871  0.53955  1.0000
  O  Te30      1.0  0.26338  0.70743  0.33514  1.0000
  O  Te31      1.0  0.38579  0.79299  0.33990  1.0000
  O  Te32      1.0  0.42896  0.64423  0.54431  1.0000
  Mg  Mg15      1.0  0.31229  0.79258  0.27923  1.0000
  Mg  Mg16      1.0  0.38011  0.55909  0.60017  1.0000
  C  Sn33      1.0  0.87129  0.15158  0.63065  1.0000
  C   C125      1.0  0.86681  0.09854  0.68625  1.0000
  C  Sn34      1.0  0.81563  0.05593  0.75737  1.0000
  C  Sn35      1.0  0.76793  0.06653  0.77316  1.0000
  C   C126      1.0  0.77242  0.11954  0.71755  1.0000
  C  Sn36      1.0  0.82358  0.16219  0.64644  1.0000
  O  Te33      1.0  0.92287  0.19355  0.55994  1.0000
  O  Te34      1.0  0.81219  0.00324  0.81210  1.0000
  O  Te35      1.0  0.71633  0.02450  0.84394  1.0000
  O  Te36      1.0  0.82703  0.21483  0.59171  1.0000
  Mg  Mg17      1.0  0.22313  0.95964  0.89982  1.0000
  Mg  Mg18      1.0  0.90647  0.25845  0.50390  1.0000
  C  Sn37      1.0  0.69554  0.66355  0.21066  1.0000
  C   C127      1.0  0.74176  0.69913  0.11313  1.0000
  C  Sn38      1.0  0.76196  0.67290  0.00761  1.0000
  C  Sn39      1.0  0.74598  0.61351  0.99932  1.0000
  C   C128      1.0  0.68918  0.57424  0.09679  1.0000
  C  Sn40      1.0  0.66896  0.60044  0.20237  1.0000
  O  Te37      1.0  0.67606  0.69074  0.31526  1.0000
  O  Te38      1.0  0.81884  0.71312  0.91134  1.0000
  O  Te39      1.0  0.76551  0.58633  0.89461  1.0000
  O  Te40      1.0  0.62270  0.56398  0.29857  1.0000
  Mg  Mg19      1.0  0.82982  0.65503  0.78785  1.0000
  Mg  Mg20      1.0  0.61167  0.62201  0.42204  1.0000
  C  Sn41      1.0  0.63200  0.74186  0.41615  1.0000
  C   C129      1.0  0.67410  0.78852  0.50971  1.0000
  C  Sn42      1.0  0.65679  0.81287  0.62804  1.0000
  C  Sn43      1.0  0.59612  0.79009  0.65348  1.0000
  C   C130      1.0  0.55406  0.74345  0.55998  1.0000
  C  Sn44      1.0  0.57133  0.71908  0.44159  1.0000
  O  Te41      1.0  0.65030  0.71819  0.29853  1.0000
  O  Te42      1.0  0.69970  0.85952  0.72003  1.0000
  O  Te43      1.0  0.57784  0.81380  0.77121  1.0000
  O  Te44      1.0  0.52846  0.67246  0.34966  1.0000
  Mg  Mg21      1.0  0.65284  0.87691  0.86575  1.0000
  Mg  Mg22      1.0  0.57527  0.65501  0.20396  1.0000
  C  Sn45      1.0  0.21935  0.46046  0.32705  1.0000
  C   C131      1.0  0.17626  0.42424  0.43168  1.0000
  C  Sn46      1.0  0.13949  0.44294  0.49464  1.0000
  C  Sn47      1.0  0.14589  0.49899  0.45205  1.0000
  C   C132      1.0  0.18895  0.53517  0.34745  1.0000
  C  Sn48      1.0  0.22575  0.51651  0.28446  1.0000
  O  Te45      1.0  0.25562  0.44086  0.26555  1.0000
  O  Te46      1.0  0.09675  0.40596  0.59907  1.0000
  O  Te47      1.0  0.10958  0.51857  0.51365  1.0000
  O  Te48      1.0  0.26846  0.55344  0.18007  1.0000
  Mg  Mg23      1.0  0.05789  0.45231  0.65135  1.0000
  Mg  Mg24      1.0  0.30732  0.50713  0.12766  1.0000
