data_image0
_chemical_formula_structural       H6C18N14H6C18N14SnCSn2CSnTe4Mg2SnCSn2CSnTe4Mg2SnCSn2CSnTe4Mg2SnCSn2CSnTe4Mg2SnCSn2CSnTe4Mg2SnCSn2CSnTe4Mg2SnCSn2CSnTe4Mg2SnCSn2CSnTe4Mg2SnCSn2CSnTe4Mg2SnCSn2CSnTe4Mg2SnCSn2CSnTe4Mg2SnCSn2CSnTe4Mg2SnCSn2CSnTe4Mg2SnCSn2CSnTe4Mg2SnCSn2CSnTe4Mg2SnCSn2CSnTe4Mg2SnCSn2CSnTe4Mg2SnCSn2CSnTe4Mg2SnCSn2CSnTe4Mg2SnCSn2CSnTe4Mg2SnCSn2CSnTe4Mg2SnCSn2CSnTe4Mg2SnCSn2CSnTe4Mg2SnCSn2CSnTe4Mg2
_chemical_formula_sum              "H12 C84 N28 Sn96 Te96 Mg48"
_cell_length_a       26.2395
_cell_length_b       25.8146
_cell_length_c       8.59272
_cell_angle_alpha    89.7165
_cell_angle_beta     91.5358
_cell_angle_gamma    119.9

_symmetry_space_group_name_H-M    'P1'
_space_group_IT_number       1

loop_
  _space_group_symop_operation_xyz
  'x, y, z'

loop_
  _atom_site_type_symbol
  _atom_site_label
  _atom_site_symmetry_multiplicity
  _atom_site_fract_x
  _atom_site_fract_y
  _atom_site_fract_z
  _atom_site_occupancy
  H   H1        1.0  0.66944  0.07089  0.25144  1.0000
  H   H2        1.0  0.14254  0.32550  0.36352  1.0000
  H   H3        1.0  0.27790  0.10433  0.07684  1.0000
  H   H4        1.0  0.11333  0.73209  0.49377  1.0000
  H   H5        1.0  0.68991  0.49243  0.96124  1.0000
  H   H6        1.0  0.48616  0.79222  0.98202  1.0000
  C   C1        1.0  0.85666  0.85417  0.50279  1.0000
  C   C2        1.0  0.91547  0.88090  0.44234  1.0000
  C   C3        1.0  0.95507  0.94323  0.45700  1.0000
  C   C4        1.0  0.93348  0.97775  0.01387  1.0000
  C   C5        1.0  0.87364  0.95111  0.05704  1.0000
  C   C6        1.0  0.83397  0.88714  0.03673  1.0000
  C   C7        1.0  0.94939  0.07033  0.09672  1.0000
  C   C8        1.0  0.88749  0.04407  0.12649  1.0000
  C   C9        1.0  0.74123  0.80350  0.04870  1.0000
  C   C10       1.0  0.76756  0.76608  0.02898  1.0000
  C   C11       1.0  0.98671  0.86752  0.32568  1.0000
  C   C12       1.0  0.02945  0.92959  0.35721  1.0000
  C   C13       1.0  0.69228  0.11992  0.26324  1.0000
  C   C14       1.0  0.13215  0.35031  0.44845  1.0000
  C   C15       1.0  0.30546  0.09175  0.01037  1.0000
  C   C16       1.0  0.09500  0.70713  0.10868  1.0000
  C   C17       1.0  0.66583  0.47905  0.07041  1.0000
  C   C18       1.0  0.46549  0.74353  0.99737  1.0000
  N   N1        1.0  0.97006  0.03638  0.03858  1.0000
  N   N2        1.0  0.85220  0.98487  0.11104  1.0000
  N   N3        1.0  0.77631  0.86272  0.06321  1.0000
  N   N4        1.0  0.82351  0.79454  0.50837  1.0000
  N   N5        1.0  0.93157  0.84526  0.37307  1.0000
  N   N6        1.0  0.01123  0.96567  0.41616  1.0000
  N   N7        1.0  0.74890  0.15198  0.25627  1.0000
  N   N8        1.0  0.09605  0.32074  0.06605  1.0000
  N   N9        1.0  0.28076  0.05063  0.40444  1.0000
  N   N10       1.0  0.04255  0.69092  0.15465  1.0000
  N   N11       1.0  0.66241  0.51687  0.16157  1.0000
  N   N12       1.0  0.49679  0.72028  0.51033  1.0000
  N   N13       1.0  0.22444  0.59873  0.32792  1.0000
  N   N14       1.0  0.54905  0.22812  0.19721  1.0000
  H   H7        1.0  0.66855  0.07404  0.73797  1.0000
  H   H8        1.0  0.14232  0.32219  0.86710  1.0000
  H   H9        1.0  0.27514  0.10535  0.57204  1.0000
  H   H10       1.0  0.12434  0.75187  0.06220  1.0000
  H   H11       1.0  0.69168  0.49675  0.47793  1.0000
  H   H12       1.0  0.48779  0.79674  0.48995  1.0000
  C   C19       1.0  0.85585  0.85111  0.97838  1.0000
  C   C20       1.0  0.91521  0.87875  0.92113  1.0000
  C   C21       1.0  0.95485  0.94067  0.94477  1.0000
  C   C22       1.0  0.93439  0.98125  0.52486  1.0000
  C   C23       1.0  0.87515  0.95513  0.57331  1.0000
  C   C24       1.0  0.83533  0.89091  0.55947  1.0000
  C   C25       1.0  0.95059  0.07503  0.59895  1.0000
  C   C26       1.0  0.88880  0.04917  0.62999  1.0000
  C   C27       1.0  0.74231  0.80797  0.57045  1.0000
  C   C28       1.0  0.76772  0.76974  0.55158  1.0000
  C   C29       1.0  0.98816  0.86695  0.80895  1.0000
  C   C30       1.0  0.03062  0.92800  0.85217  1.0000
  C   C31       1.0  0.69110  0.12305  0.75027  1.0000
  C   C32       1.0  0.12990  0.34605  0.94971  1.0000
  C   C33       1.0  0.30335  0.09312  0.50754  1.0000
  C   C34       1.0  0.09145  0.69801  0.58355  1.0000
  C   C35       1.0  0.66486  0.48226  0.58249  1.0000
  C   C36       1.0  0.46725  0.74775  0.49508  1.0000
  N   N15       1.0  0.97086  0.04027  0.54360  1.0000
  N   N16       1.0  0.85397  0.98971  0.62260  1.0000
  N   N17       1.0  0.77766  0.86707  0.58611  1.0000
  N   N18       1.0  0.82311  0.79142  0.98315  1.0000
  N   N19       1.0  0.93207  0.84437  0.84882  1.0000
  N   N20       1.0  0.01182  0.96345  0.91169  1.0000
  N   N21       1.0  0.74769  0.15560  0.74483  1.0000
  N   N22       1.0  0.09939  0.32569  0.56695  1.0000
  N   N23       1.0  0.28205  0.04803  0.91112  1.0000
  N   N24       1.0  0.04652  0.69149  0.65828  1.0000
  N   N25       1.0  0.65881  0.51907  0.67138  1.0000
  N   N26       1.0  0.49496  0.71623  0.01918  1.0000
  N   N27       1.0  0.22164  0.59517  0.84458  1.0000
  N   N28       1.0  0.54676  0.23027  0.69584  1.0000
  C  Sn1       1.0  0.13888  0.93200  0.40648  1.0000
  C   C37       1.0  0.10080  0.95486  0.38679  1.0000
  C  Sn2       1.0  0.63196  0.01411  0.34186  1.0000
  C  Sn3       1.0  0.69285  0.05127  0.31596  1.0000
  C   C38       1.0  0.73089  0.02840  0.33562  1.0000
  C  Sn4       1.0  0.19977  0.96916  0.38058  1.0000
  O  Te1       1.0  0.11635  0.87264  0.45145  1.0000
  O  Te2       1.0  0.59304  0.03597  0.32297  1.0000
  O  Te3       1.0  0.71536  0.11067  0.27096  1.0000
  O  Te4       1.0  0.23865  0.94730  0.39944  1.0000
  Mg  Mg1       1.0  0.64483  0.11985  0.26031  1.0000
  Mg  Mg2       1.0  0.18691  0.86342  0.46202  1.0000
  C  Sn5       1.0  0.06396  0.80699  0.13030  1.0000
  C   C39       1.0  0.03674  0.74708  0.17439  1.0000
  C  Sn6       1.0  0.98328  0.72108  0.25043  1.0000
  C  Sn7       1.0  0.95644  0.75568  0.28299  1.0000
  C   C40       1.0  0.98365  0.81555  0.23889  1.0000
  C  Sn8       1.0  0.03712  0.84159  0.16287  1.0000
  O  Te5       1.0  0.11739  0.83206  0.05440  1.0000
  O  Te6       1.0  0.95691  0.66111  0.29342  1.0000
  O  Te7       1.0  0.90296  0.73056  0.35896  1.0000
  O  Te8       1.0  0.06347  0.90152  0.11987  1.0000
  Mg  Mg3       1.0  0.88420  0.64712  0.39425  1.0000
  Mg  Mg4       1.0  0.13617  0.91554  0.01896  1.0000
  C  Sn9       1.0  0.76200  0.65505  0.96301  1.0000
  C   C41       1.0  0.73444  0.69080  0.02091  1.0000
  C  Sn10      1.0  0.69790  0.67512  0.14856  1.0000
  C  Sn11      1.0  0.67792  0.61882  0.21990  1.0000
  C   C42       1.0  0.69488  0.57938  0.16202  1.0000
  C  Sn12      1.0  0.73142  0.59502  0.03435  1.0000
  O  Te9       1.0  0.79856  0.67166  0.83528  1.0000
  O  Te10      1.0  0.68152  0.71533  0.20434  1.0000
  O  Te11      1.0  0.64133  0.60223  0.34772  1.0000
  O  Te12      1.0  0.75840  0.55858  0.97860  1.0000
  Mg  Mg5       1.0  0.63112  0.67229  0.38122  1.0000
  Mg  Mg6       1.0  0.80883  0.60159  0.80178  1.0000
  C  Sn13      1.0  0.64157  0.80716  0.15563  1.0000
  C   C43       1.0  0.67063  0.78018  0.08882  1.0000
  C  Sn14      1.0  0.65265  0.73898  0.97607  1.0000
  C  Sn15      1.0  0.59381  0.72065  0.92903  1.0000
  C   C44       1.0  0.56478  0.74763  0.99581  1.0000
  C  Sn16      1.0  0.58272  0.78883  0.10860  1.0000
  O  Te13      1.0  0.67100  0.85199  0.26814  1.0000
  O  Te14      1.0  0.68261  0.71266  0.91098  1.0000
  O  Te15      1.0  0.56439  0.67578  0.81643  1.0000
  O  Te16      1.0  0.55280  0.81515  0.17365  1.0000
  Mg  Mg7       1.0  0.62379  0.65347  0.76190  1.0000
  Mg  Mg8       1.0  0.61158  0.87436  0.32267  1.0000
  C  Sn17      1.0  0.63200  0.74186  0.41615  1.0000
  C   C45       1.0  0.67410  0.78852  0.50971  1.0000
  C  Sn18      1.0  0.65679  0.81287  0.62804  1.0000
  C  Sn19      1.0  0.59612  0.79009  0.65348  1.0000
  C   C46       1.0  0.55406  0.74345  0.55998  1.0000
  C  Sn20      1.0  0.57133  0.71908  0.44159  1.0000
  O  Te17      1.0  0.65030  0.71819  0.29853  1.0000
  O  Te18      1.0  0.69970  0.85952  0.72003  1.0000
  O  Te19      1.0  0.57784  0.81380  0.77121  1.0000
  O  Te20      1.0  0.52846  0.67246  0.34966  1.0000
  Mg  Mg9       1.0  0.65284  0.87691  0.86575  1.0000
  Mg  Mg10      1.0  0.57527  0.65501  0.20396  1.0000
  C  Sn21      1.0  0.82890  0.14252  0.08383  1.0000
  C   C47       1.0  0.78280  0.12155  0.18768  1.0000
  C  Sn22      1.0  0.77524  0.07837  0.29749  1.0000
  C  Sn23      1.0  0.81460  0.05570  0.30371  1.0000
  C   C48       1.0  0.86068  0.07667  0.19993  1.0000
  C  Sn24      1.0  0.86827  0.11984  0.09005  1.0000
  O  Te21      1.0  0.84623  0.18942  0.97502  1.0000
  O  Te22      1.0  0.72881  0.05808  0.40006  1.0000
  O  Te23      1.0  0.80784  0.01248  0.41264  1.0000
  O  Te24      1.0  0.92528  0.14386  0.98755  1.0000
  Mg  Mg11      1.0  0.22831  0.99893  0.52748  1.0000
  Mg  Mg12      1.0  0.91624  0.20303  0.86013  1.0000
  C  Sn25      1.0  0.07708  0.20960  0.97449  1.0000
  C   C49       1.0  0.06465  0.25190  0.05450  1.0000
  C  Sn26      1.0  0.03039  0.23948  0.18599  1.0000
  C  Sn27      1.0  0.99728  0.17983  0.23868  1.0000
  C   C50       1.0  0.99912  0.13385  0.15871  1.0000
  C  Sn28      1.0  0.03337  0.14622  0.02718  1.0000
  O  Te25      1.0  0.11164  0.22304  0.84332  1.0000
  O  Te26      1.0  0.02925  0.28624  0.26402  1.0000
  O  Te27      1.0  0.96270  0.16642  0.36996  1.0000
  O  Te28      1.0  0.04512  0.10323  0.94919  1.0000
  Mg  Mg13      1.0  0.97554  0.24540  0.43689  1.0000
  Mg  Mg14      1.0  0.09884  0.14402  0.77637  1.0000
  C  Sn29      1.0  0.41980  0.10868  0.52529  1.0000
  C   C51       1.0  0.37207  0.11335  0.57596  1.0000
  C  Sn30      1.0  0.38128  0.16445  0.65579  1.0000
  C  Sn31      1.0  0.43941  0.21189  0.68553  1.0000
  C   C52       1.0  0.48710  0.20722  0.63485  1.0000
  C  Sn32      1.0  0.47793  0.15612  0.55503  1.0000
  O  Te29      1.0  0.40956  0.05718  0.44568  1.0000
  O  Te30      1.0  0.33286  0.16808  0.70534  1.0000
  O  Te31      1.0  0.44962  0.26341  0.76521  1.0000
  O  Te32      1.0  0.52631  0.15248  0.50547  1.0000
  Mg  Mg15      1.0  0.36939  0.24735  0.80921  1.0000
  Mg  Mg16      1.0  0.48983  0.07325  0.40152  1.0000
  C  Sn33      1.0  0.41160  0.10453  0.02071  1.0000
  C   C53       1.0  0.36374  0.10884  0.07204  1.0000
  C  Sn34      1.0  0.37278  0.15928  0.15490  1.0000
  C  Sn35      1.0  0.43085  0.20643  0.18706  1.0000
  C   C54       1.0  0.47867  0.20211  0.13572  1.0000
  C  Sn36      1.0  0.46967  0.15168  0.05287  1.0000
  O  Te33      1.0  0.41213  0.05741  0.93806  1.0000
  O  Te34      1.0  0.32424  0.16256  0.20505  1.0000
  O  Te35      1.0  0.44089  0.25729  0.26978  1.0000
  O  Te36      1.0  0.51817  0.14839  0.00271  1.0000
  Mg  Mg17      1.0  0.36054  0.24096  0.31345  1.0000
  Mg  Mg18      1.0  0.49252  0.07375  0.89424  1.0000
  C  Sn37      1.0  0.20623  0.48626  0.24279  1.0000
  C   C55       1.0  0.19102  0.52516  0.31321  1.0000
  C  Sn38      1.0  0.16056  0.50957  0.45212  1.0000
  C  Sn39      1.0  0.14501  0.45394  0.52218  1.0000
  C   C56       1.0  0.16022  0.41507  0.45178  1.0000
  C  Sn40      1.0  0.19068  0.43062  0.31284  1.0000
  O  Te37      1.0  0.23669  0.50277  0.10394  1.0000
  O  Te38      1.0  0.14581  0.54920  0.52032  1.0000
  O  Te39      1.0  0.11452  0.43744  0.66114  1.0000
  O  Te40      1.0  0.20543  0.39103  0.24468  1.0000
  Mg  Mg19      1.0  0.10429  0.50656  0.70939  1.0000
  Mg  Mg20      1.0  0.24697  0.43364  0.05565  1.0000
  C  Sn41      1.0  0.14447  0.48750  0.02006  1.0000
  C   C57       1.0  0.20002  0.52909  0.92195  1.0000
  C  Sn42      1.0  0.21769  0.50544  0.80271  1.0000
  C  Sn43      1.0  0.18983  0.44263  0.78100  1.0000
  C   C58       1.0  0.14490  0.40481  0.87905  1.0000
  C  Sn44      1.0  0.12720  0.42842  0.99835  1.0000
  O  Te41      1.0  0.12751  0.51212  0.13850  1.0000
  O  Te42      1.0  0.26275  0.54419  0.70615  1.0000
  O  Te43      1.0  0.20682  0.41803  0.66244  1.0000
  O  Te44      1.0  0.07156  0.38599  0.09486  1.0000
  Mg  Mg21      1.0  0.27029  0.48918  0.56107  1.0000
  Mg  Mg22      1.0  0.06398  0.44094  0.23991  1.0000
  C  Sn45      1.0  0.64433  0.33203  0.08493  1.0000
  C   C59       1.0  0.59666  0.29957  0.18107  1.0000
  C  Sn46      1.0  0.56353  0.32456  0.23268  1.0000
  C  Sn47      1.0  0.57834  0.38321  0.18718  1.0000
  C   C60       1.0  0.62598  0.41563  0.09108  1.0000
  C  Sn48      1.0  0.65914  0.39067  0.03943  1.0000
  O  Te45      1.0  0.67684  0.30615  0.03472  1.0000
  O  Te46      1.0  0.51607  0.29126  0.32877  1.0000
  O  Te47      1.0  0.54579  0.40907  0.23749  1.0000
  O  Te48      1.0  0.71717  0.42767  0.94338  1.0000
  Mg  Mg23      1.0  0.48511  0.34592  0.36687  1.0000
  Mg  Mg24      1.0  0.74814  0.37304  0.90515  1.0000
  C  Sn49      1.0  0.56002  0.12753  0.28346  1.0000
  C   C61       1.0  0.57742  0.18826  0.28284  1.0000
  C  Sn50      1.0  0.63641  0.23130  0.26475  1.0000
  C  Sn51      1.0  0.67891  0.21326  0.24679  1.0000
  C   C62       1.0  0.66151  0.15256  0.24738  1.0000
  C  Sn52      1.0  0.60252  0.10949  0.26550  1.0000
  O  Te49      1.0  0.50081  0.08528  0.30171  1.0000
  O  Te50      1.0  0.65274  0.29175  0.26456  1.0000
  O  Te51      1.0  0.73816  0.25557  0.22853  1.0000
  O  Te52      1.0  0.58618  0.04907  0.26566  1.0000
  Mg  Mg25      1.0  0.73874  0.33249  0.23591  1.0000
  Mg  Mg26      1.0  0.50019  0.00829  0.29422  1.0000
  C  Sn53      1.0  0.32656  0.61716  0.48995  1.0000
  C   C63       1.0  0.28588  0.63371  0.43735  1.0000
  C  Sn54      1.0  0.30488  0.69193  0.38718  1.0000
  C  Sn55      1.0  0.36583  0.73450  0.38955  1.0000
  C   C64       1.0  0.40647  0.71795  0.44211  1.0000
  C  Sn56      1.0  0.38750  0.65973  0.49232  1.0000
  O  Te53      1.0  0.30657  0.55871  0.53955  1.0000
  O  Te54      1.0  0.26338  0.70743  0.33514  1.0000
  O  Te55      1.0  0.38579  0.79299  0.33990  1.0000
  O  Te56      1.0  0.42896  0.64423  0.54431  1.0000
  Mg  Mg27      1.0  0.31229  0.79258  0.27923  1.0000
  Mg  Mg28      1.0  0.38011  0.55909  0.60017  1.0000
  C  Sn57      1.0  0.18854  0.68321  0.06787  1.0000
  C   C65       1.0  0.12953  0.66515  0.09165  1.0000
  C  Sn58      1.0  0.09845  0.62347  0.20631  1.0000
  C  Sn59      1.0  0.12696  0.59935  0.29921  1.0000
  C   C66       1.0  0.18593  0.61741  0.27543  1.0000
  C  Sn60      1.0  0.21705  0.65909  0.16077  1.0000
  O  Te57      1.0  0.22936  0.72866  0.95259  1.0000
  O  Te58      1.0  0.03948  0.60609  0.22789  1.0000
  O  Te59      1.0  0.09669  0.55759  0.41455  1.0000
  O  Te60      1.0  0.27598  0.67647  0.13920  1.0000
  Mg  Mg29      1.0  0.01702  0.54799  0.39970  1.0000
  Mg  Mg30      1.0  0.30910  0.73832  0.96748  1.0000
  C  Sn61      1.0  0.17601  0.04884  0.89870  1.0000
  C   C67       1.0  0.21343  0.02524  0.91957  1.0000
  C  Sn62      1.0  0.68309  0.96455  0.89247  1.0000
  C  Sn63      1.0  0.62371  0.92667  0.84340  1.0000
  C   C68       1.0  0.58633  0.95027  0.82252  1.0000
  C  Sn64      1.0  0.11663  0.01095  0.84962  1.0000
  O  Te61      1.0  0.19770  0.10964  0.92645  1.0000
  O  Te62      1.0  0.72133  0.94199  0.91418  1.0000
  O  Te63      1.0  0.60204  0.86582  0.81565  1.0000
  O  Te64      1.0  0.07844  0.03352  0.82791  1.0000
  Mg  Mg31      1.0  0.67115  0.85614  0.86136  1.0000
  Mg  Mg32      1.0  0.12857  0.11937  0.88061  1.0000
  C  Sn65      1.0  0.95975  0.72110  0.70469  1.0000
  C   C69       1.0  0.00873  0.72854  0.62536  1.0000
  C  Sn66      1.0  0.05701  0.78557  0.60540  1.0000
  C  Sn67      1.0  0.05634  0.83621  0.66606  1.0000
  C   C70       1.0  0.00738  0.82876  0.74536  1.0000
  C  Sn68      1.0  0.95908  0.77174  0.76536  1.0000
  O  Te65      1.0  0.91197  0.66367  0.72329  1.0000
  O  Te66      1.0  0.10548  0.79188  0.52563  1.0000
  O  Te67      1.0  0.10417  0.89367  0.64739  1.0000
  O  Te68      1.0  0.91064  0.76541  0.84510  1.0000
  Mg  Mg33      1.0  0.15997  0.87931  0.53024  1.0000
  Mg  Mg34      1.0  0.85615  0.67801  0.84062  1.0000
  C  Sn69      1.0  0.75310  0.65544  0.48777  1.0000
  C   C71       1.0  0.73397  0.69410  0.53841  1.0000
  C  Sn70      1.0  0.69343  0.67704  0.65705  1.0000
  C  Sn71      1.0  0.67159  0.62018  0.72660  1.0000
  C   C72       1.0  0.69073  0.58156  0.67599  1.0000
  C  Sn72      1.0  0.73126  0.59857  0.55733  1.0000
  O  Te69      1.0  0.79366  0.67342  0.36900  1.0000
  O  Te70      1.0  0.67494  0.71645  0.70567  1.0000
  O  Te71      1.0  0.63100  0.60221  0.84546  1.0000
  O  Te72      1.0  0.74976  0.55920  0.50873  1.0000
  Mg  Mg35      1.0  0.61916  0.67160  0.87153  1.0000
  Mg  Mg36      1.0  0.80556  0.60402  0.34294  1.0000
  C  Sn73      1.0  0.87129  0.15158  0.63065  1.0000
  C   C73       1.0  0.86681  0.09854  0.68625  1.0000
  C  Sn74      1.0  0.81563  0.05593  0.75737  1.0000
  C  Sn75      1.0  0.76793  0.06653  0.77316  1.0000
  C   C74       1.0  0.77242  0.11954  0.71755  1.0000
  C  Sn76      1.0  0.82358  0.16219  0.64644  1.0000
  O  Te73      1.0  0.92287  0.19355  0.55994  1.0000
  O  Te74      1.0  0.81219  0.00324  0.81210  1.0000
  O  Te75      1.0  0.71633  0.02450  0.84394  1.0000
  O  Te76      1.0  0.82703  0.21483  0.59171  1.0000
  Mg  Mg37      1.0  0.22313  0.95964  0.89982  1.0000
  Mg  Mg38      1.0  0.90647  0.25845  0.50390  1.0000
  C  Sn77      1.0  0.06730  0.17374  0.55825  1.0000
  C   C75       1.0  0.01537  0.14441  0.64096  1.0000
  C  Sn78      1.0  0.98895  0.17593  0.69607  1.0000
  C  Sn79      1.0  0.01496  0.23808  0.66785  1.0000
  C   C76       1.0  0.06685  0.26738  0.58517  1.0000
  C  Sn80      1.0  0.09331  0.23589  0.53003  1.0000
  O  Te77      1.0  0.09295  0.14133  0.50423  1.0000
  O  Te78      1.0  0.93706  0.14564  0.77851  1.0000
  O  Te79      1.0  0.98926  0.27048  0.72195  1.0000
  O  Te80      1.0  0.14516  0.26615  0.44761  1.0000
  Mg  Mg39      1.0  0.91873  0.20928  0.82833  1.0000
  Mg  Mg40      1.0  0.16351  0.20254  0.39767  1.0000
  C  Sn81      1.0  0.64107  0.33418  0.58338  1.0000
  C   C77       1.0  0.59374  0.30156  0.68044  1.0000
  C  Sn82      1.0  0.56193  0.32712  0.73802  1.0000
  C  Sn83      1.0  0.57774  0.38652  0.69767  1.0000
  C   C78       1.0  0.62504  0.41910  0.60065  1.0000
  C  Sn84      1.0  0.65688  0.39357  0.54303  1.0000
  O  Te81      1.0  0.67225  0.30772  0.52715  1.0000
  O  Te82      1.0  0.51480  0.29364  0.83491  1.0000
  O  Te83      1.0  0.54652  0.41296  0.75400  1.0000
  O  Te84      1.0  0.70398  0.42702  0.44617  1.0000
  Mg  Mg41      1.0  0.48579  0.34928  0.88210  1.0000
  Mg  Mg42      1.0  0.73300  0.37142  0.39886  1.0000
  C  Sn85      1.0  0.67259  0.22143  0.81167  1.0000
  C   C79       1.0  0.65547  0.16076  0.80894  1.0000
  C  Sn86      1.0  0.59936  0.11842  0.75364  1.0000
  C  Sn87      1.0  0.55955  0.13710  0.69986  1.0000
  C   C80       1.0  0.57668  0.19772  0.70259  1.0000
  C  Sn88      1.0  0.63277  0.24010  0.75789  1.0000
  O  Te85      1.0  0.72890  0.26298  0.86744  1.0000
  O  Te86      1.0  0.58324  0.05802  0.75210  1.0000
  O  Te87      1.0  0.50320  0.09548  0.64408  1.0000
  O  Te88      1.0  0.64890  0.30047  0.75943  1.0000
  Mg  Mg43      1.0  0.50172  0.01836  0.66517  1.0000
  Mg  Mg44      1.0  0.73042  0.34017  0.84625  1.0000
  C  Sn89      1.0  0.32492  0.70591  0.84274  1.0000
  C   C81       1.0  0.29043  0.64390  0.85558  1.0000
  C  Sn90      1.0  0.31034  0.61198  0.94562  1.0000
  C  Sn91      1.0  0.35525  0.63896  0.02456  1.0000
  C   C82       1.0  0.38970  0.70094  0.01173  1.0000
  C  Sn92      1.0  0.38043  0.73662  0.92168  1.0000
  O  Te89      1.0  0.30414  0.73692  0.75209  1.0000
  O  Te90      1.0  0.27508  0.55000  0.95665  1.0000
  O  Te91      1.0  0.37601  0.60790  0.11525  1.0000
  O  Te92      1.0  0.41565  0.79856  0.91065  1.0000
  Mg  Mg45      1.0  0.31196  0.52384  0.09428  1.0000
  Mg  Mg46      1.0  0.36820  0.82105  0.77313  1.0000
  C  Sn93      1.0  0.21269  0.68056  0.66781  1.0000
  C   C83       1.0  0.19454  0.63437  0.77559  1.0000
  C  Sn94      1.0  0.13479  0.59683  0.80215  1.0000
  C  Sn95      1.0  0.09229  0.60563  0.71919  1.0000
  C   C84       1.0  0.11044  0.65179  0.61147  1.0000
  C  Sn96      1.0  0.17019  0.68936  0.58485  1.0000
  O  Te93      1.0  0.27265  0.71754  0.64311  1.0000
  O  Te94      1.0  0.11771  0.55097  0.91052  1.0000
  O  Te95      1.0  0.03229  0.56860  0.74398  1.0000
  O  Te96      1.0  0.18727  0.73519  0.47654  1.0000
  Mg  Mg47      1.0  0.03085  0.51231  0.90340  1.0000
  Mg  Mg48      1.0  0.27411  0.77385  0.48351  1.0000
