data_image0
_chemical_formula_structural       H6C18N14H6C18N14SnCSn2CSnTe4Mg2SnCSn2CSnTe4Mg2SnCSn2CSnTe4Mg2SnCSn2CSnTe4Mg2SnCSn2CSnTe4Mg2SnCSn2CSnTe4Mg2SnCSn2CSnTe4Mg2SnCSn2CSnTe4Mg2SnCSn2CSnTe4Mg2SnCSn2CSnTe4Mg2SnCSn2CSnTe4Mg2SnCSn2CSnTe4Mg2SnCSn2CSnTe4Mg2SnCSn2CSnTe4Mg2SnCSn2CSnTe4Mg2SnCSn2CSnTe4Mg2SnCSn2CSnTe4Mg2SnCSn2CSnTe4Mg2SnCSn2CSnTe4Mg2SnCSn2CSnTe4Mg2SnCSn2CSnTe4Mg2SnCSn2CSnTe4Mg2SnCSn2CSnTe4Mg2SnCSn2CSnTe4Mg2SnCSn2CSnTe4Mg2SnCSn2CSnTe4Mg2SnCSn2CSnTe4Mg2SnCSn2CSnTe4Mg2SnCSn2CSnTe4Mg2SnCSn2CSnTe4Mg2SnCSn2CSnTe4Mg2SnCSn2CSnTe4Mg2SnCSn2CSnTe4Mg2SnCSn2CSnTe4Mg2SnCSn2CSnTe4Mg2SnCSn2CSnTe4Mg2
_chemical_formula_sum              "H12 C108 N28 Sn144 Te144 Mg72"
_cell_length_a       34.3946
_cell_length_b       33.6603
_cell_length_c       8.36407
_cell_angle_alpha    84.5163
_cell_angle_beta     110.069
_cell_angle_gamma    119.282

_symmetry_space_group_name_H-M    'P1'
_space_group_IT_number       1

loop_
  _space_group_symop_operation_xyz
  'x, y, z'

loop_
  _atom_site_type_symbol
  _atom_site_label
  _atom_site_symmetry_multiplicity
  _atom_site_fract_x
  _atom_site_fract_y
  _atom_site_fract_z
  _atom_site_occupancy
  H   H1        1.0  0.89276  0.89523  0.47652  1.0000
  H   H2        1.0  0.29156  0.09497  0.58766  1.0000
  H   H3        1.0  0.40264  0.98986  0.44199  1.0000
  H   H4        1.0  0.20851  0.58579  0.36599  1.0000
  H   H5        1.0  0.96832  0.46116  0.32046  1.0000
  H   H6        1.0  0.78787  0.65482  0.50985  1.0000
  C   C1        1.0  0.06884  0.73384  0.42869  1.0000
  C   C2        1.0  0.11688  0.76007  0.42374  1.0000
  C   C3        1.0  0.14082  0.80837  0.44976  1.0000
  C   C4        1.0  0.11769  0.83150  0.48378  1.0000
  C   C5        1.0  0.06995  0.80630  0.47767  1.0000
  C   C6        1.0  0.04500  0.75661  0.44853  1.0000
  C   C7        1.0  0.12259  0.89875  0.56080  1.0000
  C   C8        1.0  0.07204  0.87405  0.52950  1.0000
  C   C9        1.0  0.97765  0.68647  0.42560  1.0000
  C   C10       1.0  0.00485  0.66381  0.43533  1.0000
  C   C11       1.0  0.18536  0.76267  0.42227  1.0000
  C   C12       1.0  0.20858  0.81211  0.43556  1.0000
  C   C13       1.0  0.91531  0.93160  0.52419  1.0000
  C   C14       1.0  0.28087  0.11258  0.65387  1.0000
  C   C15       1.0  0.42306  0.97174  0.49414  1.0000
  C   C16       1.0  0.24734  0.60627  0.42412  1.0000
  C   C17       1.0  0.94414  0.44728  0.39423  1.0000
  C   C18       1.0  0.76545  0.62179  0.43216  1.0000
  N   N1        1.0  0.14287  0.87645  0.52929  1.0000
  N   N2        1.0  0.04794  0.82845  0.49631  1.0000
  N   N3        1.0  0.99954  0.73232  0.43957  1.0000
  N   N4        1.0  0.04863  0.68822  0.42744  1.0000
  N   N5        1.0  0.13970  0.73823  0.40997  1.0000
  N   N6        1.0  0.18541  0.83325  0.45009  1.0000
  N   N7        1.0  0.96014  0.95330  0.54810  1.0000
  N   N8        1.0  0.24725  0.09093  0.71802  1.0000
  N   N9        1.0  0.40296  0.92880  0.51702  1.0000
  N   N10       1.0  0.26905  0.64905  0.47666  1.0000
  N   N11       1.0  0.93699  0.47245  0.47632  1.0000
  N   N12       1.0  0.78139  0.60505  0.35258  1.0000
  N   N13       1.0  0.43807  0.44923  0.51863  1.0000
  N   N14       1.0  0.75947  0.11485  0.53721  1.0000
  H   H7        1.0  0.88884  0.89921  0.94110  1.0000
  H   H8        1.0  0.28362  0.09245  0.07636  1.0000
  H   H9        1.0  0.39465  0.98196  0.93512  1.0000
  H   H10       1.0  0.19953  0.58812  0.76639  1.0000
  H   H11       1.0  0.95394  0.46036  0.81672  1.0000
  H   H12       1.0  0.77646  0.66078  0.99694  1.0000
  C   C19       1.0  0.05843  0.73131  0.92738  1.0000
  C   C20       1.0  0.10623  0.75656  0.91933  1.0000
  C   C21       1.0  0.13144  0.80489  0.94861  1.0000
  C   C22       1.0  0.10973  0.82913  0.98580  1.0000
  C   C23       1.0  0.06202  0.80493  0.97941  1.0000
  C   C24       1.0  0.03599  0.75534  0.94932  1.0000
  C   C25       1.0  0.11640  0.89716  0.06388  1.0000
  C   C26       1.0  0.06585  0.87344  0.03194  1.0000
  C   C27       1.0  0.96738  0.68659  0.92514  1.0000
  C   C28       1.0  0.99317  0.66238  0.93542  1.0000
  C   C29       1.0  0.17295  0.75779  0.90637  1.0000
  C   C30       1.0  0.19777  0.80723  0.92670  1.0000
  C   C31       1.0  0.91073  0.93385  0.00708  1.0000
  C   C32       1.0  0.27542  0.11027  0.15259  1.0000
  C   C33       1.0  0.41430  0.96319  0.98935  1.0000
  C   C34       1.0  0.23409  0.60279  0.87039  1.0000
  C   C35       1.0  0.93129  0.44622  0.89638  1.0000
  C   C36       1.0  0.75657  0.62483  0.94440  1.0000
  N   N15       1.0  0.13588  0.87406  0.03204  1.0000
  N   N16       1.0  0.04083  0.82790  0.99798  1.0000
  N   N17       1.0  0.99051  0.73236  0.94026  1.0000
  N   N18       1.0  0.03696  0.68567  0.92618  1.0000
  N   N19       1.0  0.12756  0.73391  0.89776  1.0000
  N   N20       1.0  0.17594  0.82911  0.94759  1.0000
  N   N21       1.0  0.95632  0.95502  0.05166  1.0000
  N   N22       1.0  0.24342  0.08879  0.22414  1.0000
  N   N23       1.0  0.39319  0.92039  0.01277  1.0000
  N   N24       1.0  0.25270  0.64109  0.95887  1.0000
  N   N25       1.0  0.92459  0.47099  0.98230  1.0000
  N   N26       1.0  0.77417  0.60626  0.88212  1.0000
  N   N27       1.0  0.42915  0.44695  0.02365  1.0000
  N   N28       1.0  0.75154  0.11327  0.03791  1.0000
  C  Sn1       1.0  0.32251  0.90874  0.58845  1.0000
  C   C37       1.0  0.35233  0.90133  0.53121  1.0000
  C  Sn2       1.0  0.33340  0.86534  0.40860  1.0000
  C  Sn3       1.0  0.28362  0.83615  0.34171  1.0000
  C   C38       1.0  0.25383  0.84357  0.39892  1.0000
  C  Sn4       1.0  0.27274  0.87955  0.52156  1.0000
  O  Te1       1.0  0.34221  0.94494  0.71111  1.0000
  O  Te2       1.0  0.36392  0.85860  0.35340  1.0000
  O  Te3       1.0  0.26394  0.79993  0.21896  1.0000
  O  Te4       1.0  0.24224  0.88630  0.57673  1.0000
  Mg  Mg1       1.0  0.32011  0.80468  0.18421  1.0000
  Mg  Mg2       1.0  0.28601  0.94022  0.74584  1.0000
  C  Sn5       1.0  0.17701  0.67748  0.35275  1.0000
  C   C39       1.0  0.19759  0.71902  0.44837  1.0000
  C  Sn6       1.0  0.24610  0.74180  0.54195  1.0000
  C  Sn7       1.0  0.27464  0.72267  0.53984  1.0000
  C   C40       1.0  0.25407  0.68115  0.44425  1.0000
  C  Sn8       1.0  0.20556  0.65835  0.35065  1.0000
  O  Te5       1.0  0.12844  0.65531  0.26016  1.0000
  O  Te6       1.0  0.26586  0.78328  0.63662  1.0000
  O  Te7       1.0  0.32325  0.74488  0.63255  1.0000
  O  Te8       1.0  0.18580  0.61690  0.25600  1.0000
  Mg  Mg3       1.0  0.33371  0.80055  0.74180  1.0000
  Mg  Mg4       1.0  0.11796  0.59961  0.15070  1.0000
  C  Sn9       1.0  0.01231  0.56119  0.45859  1.0000
  C   C41       1.0  0.97637  0.52869  0.51701  1.0000
  C  Sn10      1.0  0.94309  0.53832  0.53723  1.0000
  C  Sn11      1.0  0.94575  0.58133  0.49814  1.0000
  C   C42       1.0  0.98166  0.61380  0.43973  1.0000
  C  Sn12      1.0  0.01497  0.60420  0.41950  1.0000
  O  Te9       1.0  0.04521  0.55082  0.43932  1.0000
  O  Te10      1.0  0.90749  0.50528  0.59588  1.0000
  O  Te11      1.0  0.91281  0.59168  0.51746  1.0000
  O  Te12      1.0  0.05055  0.63721  0.36086  1.0000
  Mg  Mg5       1.0  0.87090  0.53550  0.60122  1.0000
  Mg  Mg6       1.0  0.08714  0.60702  0.35539  1.0000
  C  Sn13      1.0  0.87856  0.62077  0.25963  1.0000
  C   C43       1.0  0.91751  0.66233  0.34350  1.0000
  C  Sn14      1.0  0.91400  0.68732  0.45683  1.0000
  C  Sn15      1.0  0.87065  0.67041  0.48706  1.0000
  C   C44       1.0  0.83173  0.62887  0.40324  1.0000
  C  Sn16      1.0  0.83521  0.60386  0.28985  1.0000
  O  Te13      1.0  0.88288  0.59636  0.14687  1.0000
  O  Te14      1.0  0.95342  0.72878  0.53914  1.0000
  O  Te15      1.0  0.86636  0.69486  0.59992  1.0000
  O  Te16      1.0  0.79583  0.56242  0.20760  1.0000
  Mg  Mg7       1.0  0.92999  0.74954  0.68134  1.0000
  Mg  Mg8       1.0  0.81922  0.54162  0.06545  1.0000
  C  Sn17      1.0  0.98834  0.88738  0.64138  1.0000
  C   C45       1.0  0.99016  0.92824  0.58147  1.0000
  C  Sn18      1.0  0.01532  0.95131  0.47146  1.0000
  C  Sn19      1.0  0.03914  0.93314  0.42015  1.0000
  C   C46       1.0  0.03732  0.89229  0.48002  1.0000
  C  Sn20      1.0  0.01217  0.86920  0.59008  1.0000
  O  Te17      1.0  0.96297  0.86489  0.75127  1.0000
  O  Te18      1.0  0.01664  0.99212  0.41330  1.0000
  O  Te19      1.0  0.06453  0.95566  0.31018  1.0000
  O  Te20      1.0  0.01084  0.82841  0.64820  1.0000
  Mg  Mg9       1.0  0.57719  0.01013  0.26540  1.0000
  Mg  Mg10      1.0  0.97161  0.81036  0.79603  1.0000
  C  Sn21      1.0  0.65551  0.01116  0.78055  1.0000
  C   C47       1.0  0.21972  0.03608  0.74981  1.0000
  C  Sn22      1.0  0.23071  0.01680  0.64262  1.0000
  C  Sn23      1.0  0.67682  0.97169  0.56442  1.0000
  C   C48       1.0  0.63397  0.94679  0.59514  1.0000
  C  Sn24      1.0  0.62296  0.96604  0.70235  1.0000
  O  Te21      1.0  0.16660  0.03111  0.88816  1.0000
  O  Te22      1.0  0.27379  0.04238  0.61387  1.0000
  O  Te23      1.0  0.68710  0.95174  0.45674  1.0000
  O  Te24      1.0  0.57990  0.94049  0.73108  1.0000
  Mg  Mg11      1.0  0.75032  0.00027  0.45711  1.0000
  Mg  Mg12      1.0  0.58199  0.98257  0.88774  1.0000
  C  Sn25      1.0  0.51647  0.98650  0.66962  1.0000
  C   C49       1.0  0.48325  0.00068  0.58403  1.0000
  C  Sn26      1.0  0.01424  0.03436  0.46980  1.0000
  C  Sn27      1.0  0.05801  0.05427  0.44041  1.0000
  C   C50       1.0  0.09121  0.04009  0.52595  1.0000
  C  Sn28      1.0  0.56024  0.00641  0.64023  1.0000
  O  Te25      1.0  0.50606  0.95276  0.78325  1.0000
  O  Te26      1.0  0.98048  0.04799  0.38577  1.0000
  O  Te27      1.0  0.06840  0.08803  0.32667  1.0000
  O  Te28      1.0  0.59398  0.99278  0.72420  1.0000
  Mg  Mg13      1.0  0.01107  0.09513  0.24293  1.0000
  Mg  Mg14      1.0  0.56341  0.94562  0.86700  1.0000
  C  Sn29      1.0  0.36302  0.19522  0.66058  1.0000
  C   C51       1.0  0.32159  0.16816  0.69909  1.0000
  C  Sn30      1.0  0.29270  0.18604  0.70148  1.0000
  C  Sn31      1.0  0.30546  0.23192  0.66449  1.0000
  C   C52       1.0  0.34686  0.25894  0.62598  1.0000
  C  Sn32      1.0  0.37578  0.24109  0.62359  1.0000
  O  Te29      1.0  0.39138  0.17663  0.65893  1.0000
  O  Te30      1.0  0.25146  0.15833  0.74039  1.0000
  O  Te31      1.0  0.27706  0.25049  0.66618  1.0000
  O  Te32      1.0  0.41699  0.26877  0.58468  1.0000
  Mg  Mg15      1.0  0.22439  0.19920  0.72644  1.0000
  Mg  Mg16      1.0  0.44407  0.22794  0.59851  1.0000
  C  Sn33      1.0  0.65747  0.11553  0.53831  1.0000
  C   C53       1.0  0.62154  0.06998  0.51427  1.0000
  C  Sn34      1.0  0.63198  0.03449  0.52117  1.0000
  C  Sn35      1.0  0.67931  0.04473  0.55287  1.0000
  C   C54       1.0  0.71520  0.09026  0.57691  1.0000
  C  Sn36      1.0  0.70480  0.12578  0.57001  1.0000
  O  Te33      1.0  0.64622  0.15046  0.53088  1.0000
  O  Te34      1.0  0.07413  0.98922  0.49669  1.0000
  O  Te35      1.0  0.16919  0.00975  0.56028  1.0000
  O  Te36      1.0  0.74128  0.17102  0.59450  1.0000
  Mg  Mg17      1.0  0.10720  0.95355  0.51880  1.0000
  Mg  Mg18      1.0  0.70825  0.20672  0.57251  1.0000
  C  Sn37      1.0  0.43669  0.34624  0.66928  1.0000
  C   C55       1.0  0.39146  0.31754  0.67795  1.0000
  C  Sn38      1.0  0.35623  0.33020  0.61501  1.0000
  C  Sn39      1.0  0.36641  0.37242  0.54177  1.0000
  C   C56       1.0  0.41162  0.40110  0.53310  1.0000
  C  Sn40      1.0  0.44688  0.38847  0.59605  1.0000
  O  Te37      1.0  0.47137  0.33290  0.73299  1.0000
  O  Te38      1.0  0.31128  0.30093  0.62514  1.0000
  O  Te39      1.0  0.33169  0.38575  0.47805  1.0000
  O  Te40      1.0  0.49180  0.41770  0.58591  1.0000
  Mg  Mg19      1.0  0.27587  0.33423  0.52081  1.0000
  Mg  Mg20      1.0  0.52723  0.38443  0.69012  1.0000
  C  Sn41      1.0  0.84512  0.19361  0.56112  1.0000
  C   C57       1.0  0.79643  0.16790  0.53154  1.0000
  C  Sn42      1.0  0.76541  0.18215  0.42227  1.0000
  C  Sn43      1.0  0.78342  0.22292  0.34077  1.0000
  C   C58       1.0  0.83207  0.24860  0.37034  1.0000
  C  Sn44      1.0  0.86312  0.23439  0.47962  1.0000
  O  Te41      1.0  0.87548  0.17872  0.67085  1.0000
  O  Te42      1.0  0.71688  0.15588  0.39473  1.0000
  O  Te43      1.0  0.75301  0.23780  0.23097  1.0000
  O  Te44      1.0  0.91162  0.26062  0.50714  1.0000
  Mg  Mg21      1.0  0.68976  0.19033  0.23413  1.0000
  Mg  Mg22      1.0  0.93878  0.22619  0.66764  1.0000
  C  Sn45      1.0  0.83518  0.09764  0.68142  1.0000
  C   C59       1.0  0.79314  0.09299  0.55939  1.0000
  C  Sn46      1.0  0.76137  0.05277  0.45143  1.0000
  C  Sn47      1.0  0.77182  0.01644  0.46582  1.0000
  C   C60       1.0  0.81383  0.02110  0.58781  1.0000
  C  Sn48      1.0  0.84562  0.06131  0.69581  1.0000
  O  Te45      1.0  0.86642  0.13815  0.78801  1.0000
  O  Te46      1.0  0.71957  0.04892  0.33038  1.0000
  O  Te47      1.0  0.21919  0.97591  0.35909  1.0000
  O  Te48      1.0  0.88739  0.06516  0.81682  1.0000
  Mg  Mg23      1.0  0.16687  0.98698  0.21439  1.0000
  Mg  Mg24      1.0  0.91877  0.12708  0.93293  1.0000
  C  Sn49      1.0  0.51480  0.53292  0.48681  1.0000
  C   C61       1.0  0.48228  0.48620  0.45112  1.0000
  C  Sn50      1.0  0.49619  0.45544  0.42458  1.0000
  C  Sn51      1.0  0.54361  0.47172  0.43400  1.0000
  C   C62       1.0  0.57609  0.51841  0.46969  1.0000
  C  Sn52      1.0  0.56221  0.54919  0.49623  1.0000
  O  Te49      1.0  0.50011  0.56304  0.51291  1.0000
  O  Te50      1.0  0.46305  0.40889  0.38903  1.0000
  O  Te51      1.0  0.55827  0.44155  0.40786  1.0000
  O  Te52      1.0  0.59533  0.59571  0.53178  1.0000
  Mg  Mg25      1.0  0.50011  0.38130  0.36321  1.0000
  Mg  Mg26      1.0  0.55832  0.62334  0.55772  1.0000
  C  Sn53      1.0  0.33547  0.46061  0.39504  1.0000
  C   C63       1.0  0.34585  0.49658  0.50164  1.0000
  C  Sn54      1.0  0.39203  0.52372  0.61276  1.0000
  C  Sn55      1.0  0.42861  0.51476  0.61738  1.0000
  C   C64       1.0  0.41823  0.47881  0.51081  1.0000
  C  Sn56      1.0  0.37205  0.45164  0.39965  1.0000
  O  Te53      1.0  0.28904  0.43392  0.28495  1.0000
  O  Te54      1.0  0.40154  0.55948  0.71816  1.0000
  O  Te55      1.0  0.47506  0.54149  0.72760  1.0000
  O  Te56      1.0  0.36253  0.41591  0.29429  1.0000
  Mg  Mg27      1.0  0.47036  0.58627  0.84627  1.0000
  Mg  Mg28      1.0  0.29373  0.38912  0.16607  1.0000
  C  Sn57      1.0  0.27068  0.52009  0.33912  1.0000
  C   C65       1.0  0.31926  0.53665  0.42256  1.0000
  C  Sn58      1.0  0.34632  0.57625  0.53484  1.0000
  C  Sn59      1.0  0.32435  0.59980  0.56443  1.0000
  C   C66       1.0  0.27579  0.58324  0.48104  1.0000
  C  Sn60      1.0  0.24871  0.54364  0.36871  1.0000
  O  Te57      1.0  0.24432  0.48043  0.22741  1.0000
  O  Te58      1.0  0.39483  0.59215  0.61673  1.0000
  O  Te59      1.0  0.35075  0.63949  0.67624  1.0000
  O  Te60      1.0  0.20022  0.52774  0.28687  1.0000
  Mg  Mg29      1.0  0.41567  0.64764  0.75746  1.0000
  Mg  Mg30      1.0  0.17935  0.47224  0.14620  1.0000
  C  Sn61      1.0  0.92303  0.33243  0.40041  1.0000
  C   C67       1.0  0.88133  0.30704  0.43865  1.0000
  C  Sn62      1.0  0.85382  0.32673  0.43923  1.0000
  C  Sn63      1.0  0.86827  0.37275  0.40067  1.0000
  C   C68       1.0  0.90994  0.39811  0.36243  1.0000
  C  Sn64      1.0  0.93748  0.37845  0.36186  1.0000
  O  Te61      1.0  0.94997  0.31205  0.40058  1.0000
  O  Te62      1.0  0.81228  0.30067  0.47791  1.0000
  O  Te63      1.0  0.84129  0.39311  0.40054  1.0000
  O  Te64      1.0  0.97899  0.40448  0.32318  1.0000
  Mg  Mg31      1.0  0.78755  0.34365  0.46120  1.0000
  Mg  Mg32      1.0  0.00374  0.36153  0.33976  1.0000
  C  Sn65      1.0  0.90344  0.02538  0.60799  1.0000
  C   C69       1.0  0.33342  0.00967  0.55754  1.0000
  C  Sn66      1.0  0.30107  0.96304  0.51667  1.0000
  C  Sn67      1.0  0.31772  0.93146  0.52651  1.0000
  C   C70       1.0  0.36638  0.94718  0.57696  1.0000
  C  Sn68      1.0  0.39876  0.99380  0.61783  1.0000
  O  Te65      1.0  0.93514  0.07215  0.64827  1.0000
  O  Te66      1.0  0.25256  0.94815  0.46651  1.0000
  O  Te67      1.0  0.28597  0.88467  0.48617  1.0000
  O  Te68      1.0  0.44723  0.00870  0.66799  1.0000
  Mg  Mg33      1.0  0.22333  0.88107  0.42461  1.0000
  Mg  Mg34      1.0  0.99784  0.07576  0.71001  1.0000
  C  Sn69      1.0  0.65227  0.52699  0.39356  1.0000
  C   C71       1.0  0.63083  0.54259  0.46732  1.0000
  C  Sn70      1.0  0.65142  0.58913  0.51428  1.0000
  C  Sn71      1.0  0.69432  0.62074  0.48686  1.0000
  C   C72       1.0  0.71572  0.60513  0.41312  1.0000
  C  Sn72      1.0  0.69516  0.55860  0.36614  1.0000
  O  Te69      1.0  0.63105  0.48031  0.34760  1.0000
  O  Te70      1.0  0.62933  0.60391  0.58786  1.0000
  O  Te71      1.0  0.71552  0.66745  0.53290  1.0000
  O  Te72      1.0  0.71722  0.54381  0.29258  1.0000
  Mg  Mg35      1.0  0.67193  0.67090  0.62878  1.0000
  Mg  Mg36      1.0  0.67464  0.47684  0.25153  1.0000
  C  Sn73      1.0  0.28529  0.82221  0.91367  1.0000
  C   C73       1.0  0.25508  0.83180  0.95933  1.0000
  C  Sn74      1.0  0.17400  0.85311  0.00601  1.0000
  C  Sn75      1.0  0.21879  0.88921  0.00697  1.0000
  C   C74       1.0  0.34371  0.90323  0.96130  1.0000
  C  Sn76      1.0  0.33007  0.85831  0.91462  1.0000
  O  Te73      1.0  0.27089  0.77705  0.86743  1.0000
  O  Te74      1.0  0.14321  0.86185  0.05122  1.0000
  O  Te75      1.0  0.23317  0.93440  0.05327  1.0000
  O  Te76      1.0  0.36083  0.84957  0.86941  1.0000
  Mg  Mg37      1.0  0.17880  0.92901  0.10456  1.0000
  Mg  Mg38      1.0  0.32527  0.78242  0.81597  1.0000
  C  Sn77      1.0  0.24689  0.70849  0.08441  1.0000
  C   C75       1.0  0.32240  0.69253  0.97881  1.0000
  C  Sn78      1.0  0.28750  0.68460  0.81904  1.0000
  C  Sn79      1.0  0.27153  0.71690  0.76360  1.0000
  C   C76       1.0  0.29078  0.75644  0.86915  1.0000
  C  Sn80      1.0  0.23092  0.74079  0.02896  1.0000
  O  Te77      1.0  0.28174  0.71572  0.24362  1.0000
  O  Te78      1.0  0.26878  0.64479  0.71576  1.0000
  O  Te79      1.0  0.23666  0.70963  0.60424  1.0000
  O  Te80      1.0  0.24964  0.78058  0.13220  1.0000
  Mg  Mg39      1.0  0.22204  0.65028  0.50957  1.0000
  Mg  Mg40      1.0  0.29640  0.77513  0.33836  1.0000
  C  Sn81      1.0  0.00154  0.55997  0.98815  1.0000
  C   C77       1.0  0.86734  0.50314  0.02760  1.0000
  C  Sn82      1.0  0.83155  0.51221  0.02419  1.0000
  C  Sn83      1.0  0.92999  0.57898  0.98033  1.0000
  C   C78       1.0  0.96942  0.61218  0.94089  1.0000
  C  Sn84      1.0  0.00524  0.60314  0.94430  1.0000
  O  Te81      1.0  0.03689  0.55016  0.99237  1.0000
  O  Te82      1.0  0.79245  0.47845  0.06417  1.0000
  O  Te83      1.0  0.89459  0.58878  0.97615  1.0000
  O  Te84      1.0  0.04431  0.63686  0.90432  1.0000
  Mg  Mg41      1.0  0.75349  0.50810  0.04056  1.0000
  Mg  Mg42      1.0  0.08327  0.60724  0.92780  1.0000
  C  Sn85      1.0  0.84496  0.60246  0.82523  1.0000
  C   C79       1.0  0.82678  0.62069  0.90502  1.0000
  C  Sn86      1.0  0.85342  0.66625  0.97339  1.0000
  C  Sn87      1.0  0.89919  0.69417  0.96168  1.0000
  C   C80       1.0  0.91734  0.67594  0.88191  1.0000
  C  Sn88      1.0  0.89072  0.63039  0.81352  1.0000
  O  Te85      1.0  0.81769  0.55683  0.75776  1.0000
  O  Te86      1.0  0.73975  0.66009  0.05262  1.0000
  O  Te87      1.0  0.83170  0.71623  0.02924  1.0000
  O  Te88      1.0  0.90962  0.61294  0.73431  1.0000
  Mg  Mg43      1.0  0.79051  0.72431  0.12489  1.0000
  Mg  Mg44      1.0  0.85888  0.54873  0.66192  1.0000
  C  Sn89      1.0  0.95530  0.92617  0.00970  1.0000
  C   C81       1.0  0.95007  0.88330  0.05621  1.0000
  C  Sn90      1.0  0.90828  0.84975  0.08051  1.0000
  C  Sn91      1.0  0.87092  0.85924  0.05775  1.0000
  C   C82       1.0  0.87615  0.90208  0.01124  1.0000
  C  Sn92      1.0  0.01268  0.95926  0.98694  1.0000
  O  Te89      1.0  0.09213  0.98279  0.98608  1.0000
  O  Te90      1.0  0.90389  0.80715  0.12705  1.0000
  O  Te91      1.0  0.82881  0.82617  0.08143  1.0000
  O  Te92      1.0  0.01708  0.00183  0.94041  1.0000
  Mg  Mg45      1.0  0.83971  0.77334  0.14435  1.0000
  Mg  Mg46      1.0  0.60257  0.03566  0.92299  1.0000
  C  Sn93      1.0  0.21037  0.97181  0.15591  1.0000
  C   C83       1.0  0.16552  0.94813  0.17211  1.0000
  C  Sn94      1.0  0.14381  0.97190  0.19563  1.0000
  C  Sn95      1.0  0.68874  0.02034  0.20301  1.0000
  C   C84       1.0  0.73355  0.04399  0.18678  1.0000
  C  Sn96      1.0  0.75529  0.02025  0.16328  1.0000
  O  Te93      1.0  0.23140  0.94735  0.13247  1.0000
  O  Te94      1.0  0.09897  0.94748  0.21156  1.0000
  O  Te95      1.0  0.66767  0.04479  0.22647  1.0000
  O  Te96      1.0  0.80010  0.04464  0.14733  1.0000
  Mg  Mg47      1.0  0.08491  0.99617  0.24149  1.0000
  Mg  Mg48      1.0  0.29285  0.99598  0.11731  1.0000
  C  Sn97      1.0  0.50742  0.97726  0.16616  1.0000
  C   C85       1.0  0.47400  0.99102  0.07810  1.0000
  C  Sn98      1.0  0.10022  0.04884  0.96605  1.0000
  C  Sn99      1.0  0.14467  0.06971  0.94140  1.0000
  C   C86       1.0  0.08331  0.03233  0.02940  1.0000
  C  Sn100     1.0  0.55187  0.99813  0.14152  1.0000
  O  Te97      1.0  0.49653  0.94299  0.27755  1.0000
  O  Te98      1.0  0.06625  0.06204  0.87949  1.0000
  O  Te99      1.0  0.15554  0.10401  0.82991  1.0000
  O  Te100     1.0  0.58581  0.98493  0.22802  1.0000
  Mg  Mg49      1.0  0.09768  0.11021  0.74124  1.0000
  Mg  Mg50      1.0  0.55441  0.93675  0.36623  1.0000
  C  Sn101     1.0  0.35091  0.21751  0.04566  1.0000
  C   C87       1.0  0.34204  0.24927  0.10027  1.0000
  C  Sn102     1.0  0.31459  0.23691  0.20529  1.0000
  C  Sn103     1.0  0.29563  0.19186  0.25690  1.0000
  C   C88       1.0  0.30451  0.16013  0.20233  1.0000
  C  Sn104     1.0  0.33195  0.17246  0.09727  1.0000
  O  Te101     1.0  0.47320  0.25423  0.94072  1.0000
  O  Te102     1.0  0.30619  0.26925  0.25820  1.0000
  O  Te103     1.0  0.26806  0.17876  0.36192  1.0000
  O  Te104     1.0  0.34036  0.14015  0.04440  1.0000
  Mg  Mg51      1.0  0.26655  0.23502  0.40056  1.0000
  Mg  Mg52      1.0  0.47476  0.19796  0.90211  1.0000
  C  Sn105     1.0  0.68386  0.11889  0.14007  1.0000
  C   C89       1.0  0.70651  0.09680  0.11066  1.0000
  C  Sn106     1.0  0.68028  0.05130  0.04192  1.0000
  C  Sn107     1.0  0.63037  0.02737  0.00163  1.0000
  C   C90       1.0  0.60775  0.04945  0.03101  1.0000
  C  Sn108     1.0  0.63395  0.09496  0.09979  1.0000
  O  Te105     1.0  0.71078  0.16440  0.20889  1.0000
  O  Te106     1.0  0.70372  0.02994  0.01370  1.0000
  O  Te107     1.0  0.17687  0.00543  0.93277  1.0000
  O  Te108     1.0  0.61053  0.11632  0.12797  1.0000
  Mg  Mg53      1.0  0.22498  0.99118  0.91757  1.0000
  Mg  Mg54      1.0  0.66264  0.17868  0.22401  1.0000
  C  Sn109     1.0  0.36362  0.37042  0.13326  1.0000
  C   C91       1.0  0.40759  0.39882  0.11377  1.0000
  C  Sn110     1.0  0.43375  0.38019  0.08890  1.0000
  C  Sn111     1.0  0.41557  0.33217  0.08328  1.0000
  C   C92       1.0  0.37161  0.30380  0.10274  1.0000
  C  Sn112     1.0  0.34543  0.32240  0.12764  1.0000
  O  Te109     1.0  0.33808  0.38980  0.15797  1.0000
  O  Te110     1.0  0.47763  0.40927  0.06979  1.0000
  O  Te111     1.0  0.44115  0.31281  0.05855  1.0000
  O  Te112     1.0  0.30157  0.29335  0.14671  1.0000
  Mg  Mg55      1.0  0.49915  0.36659  0.03899  1.0000
  Mg  Mg56      1.0  0.28002  0.33599  0.17743  1.0000
  C  Sn113     1.0  0.83597  0.19345  0.06449  1.0000
  C   C93       1.0  0.78742  0.16693  0.03628  1.0000
  C  Sn114     1.0  0.85044  0.20436  0.92975  1.0000
  C  Sn115     1.0  0.86759  0.24553  0.84966  1.0000
  C   C94       1.0  0.91611  0.27202  0.87786  1.0000
  C  Sn116     1.0  0.94787  0.25823  0.98440  1.0000
  O  Te113     1.0  0.86705  0.17898  0.17148  1.0000
  O  Te114     1.0  0.80205  0.17728  0.90353  1.0000
  O  Te115     1.0  0.83646  0.25999  0.74261  1.0000
  O  Te116     1.0  0.90148  0.26168  0.01061  1.0000
  Mg  Mg57      1.0  0.77374  0.21142  0.74668  1.0000
  Mg  Mg58      1.0  0.92982  0.22756  0.16736  1.0000
  C  Sn117     1.0  0.82780  0.09585  0.17064  1.0000
  C   C95       1.0  0.78658  0.09304  0.04882  1.0000
  C  Sn118     1.0  0.84922  0.07766  0.93468  1.0000
  C  Sn119     1.0  0.85848  0.04070  0.94253  1.0000
  C   C96       1.0  0.80493  0.01991  0.06432  1.0000
  C  Sn120     1.0  0.83707  0.05889  0.17850  1.0000
  O  Te117     1.0  0.85941  0.13516  0.28348  1.0000
  O  Te118     1.0  0.80826  0.07565  0.81397  1.0000
  O  Te119     1.0  0.30550  0.00138  0.82956  1.0000
  O  Te120     1.0  0.87800  0.06091  0.29917  1.0000
  Mg  Mg59      1.0  0.25464  0.01482  0.68803  1.0000
  Mg  Mg60      1.0  0.91030  0.12171  0.42522  1.0000
  C  Sn121     1.0  0.51920  0.47444  0.85386  1.0000
  C   C97       1.0  0.55369  0.51997  0.90981  1.0000
  C  Sn122     1.0  0.45670  0.52013  0.03148  1.0000
  C  Sn123     1.0  0.41922  0.49791  0.09874  1.0000
  C   C98       1.0  0.38476  0.45240  0.04282  1.0000
  C  Sn124     1.0  0.48172  0.45222  0.92112  1.0000
  O  Te121     1.0  0.52214  0.45134  0.73213  1.0000
  O  Te122     1.0  0.49158  0.56564  0.08539  1.0000
  O  Te123     1.0  0.41630  0.52105  0.22055  1.0000
  O  Te124     1.0  0.44687  0.40673  0.86723  1.0000
  Mg  Mg61      1.0  0.47223  0.58263  0.25367  1.0000
  Mg  Mg62      1.0  0.46620  0.38970  0.69904  1.0000
  C  Sn125     1.0  0.40304  0.53245  0.08019  1.0000
  C   C99       1.0  0.45436  0.54572  0.95325  1.0000
  C  Sn126     1.0  0.42694  0.50374  0.85467  1.0000
  C  Sn127     1.0  0.44325  0.47140  0.88365  1.0000
  C   C100      1.0  0.39189  0.45813  0.01054  1.0000
  C  Sn128     1.0  0.41934  0.50011  0.10917  1.0000
  O  Te125     1.0  0.42987  0.57463  0.17721  1.0000
  O  Te126     1.0  0.38366  0.49419  0.72846  1.0000
  O  Te127     1.0  0.41637  0.42920  0.78649  1.0000
  O  Te128     1.0  0.46260  0.50966  0.23533  1.0000
  Mg  Mg63      1.0  0.35985  0.43205  0.62966  1.0000
  Mg  Mg64      1.0  0.48642  0.57179  0.33426  1.0000
  C  Sn129     1.0  0.31810  0.56671  0.09693  1.0000
  C   C101      1.0  0.40308  0.55351  0.99643  1.0000
  C  Sn130     1.0  0.36917  0.54112  0.83244  1.0000
  C  Sn131     1.0  0.34452  0.56605  0.76749  1.0000
  C   C102      1.0  0.35428  0.60284  0.86795  1.0000
  C  Sn132     1.0  0.29344  0.59165  0.03198  1.0000
  O  Te129     1.0  0.35214  0.57850  0.26051  1.0000
  O  Te130     1.0  0.36001  0.50418  0.73438  1.0000
  O  Te131     1.0  0.31045  0.55423  0.60377  1.0000
  O  Te132     1.0  0.30261  0.62856  0.13000  1.0000
  Mg  Mg65      1.0  0.31049  0.50132  0.51914  1.0000
  Mg  Mg66      1.0  0.35214  0.63147  0.34521  1.0000
  C  Sn133     1.0  0.90848  0.35639  0.79874  1.0000
  C   C103      1.0  0.89967  0.38962  0.84140  1.0000
  C  Sn134     1.0  0.86951  0.37902  0.93463  1.0000
  C  Sn135     1.0  0.84773  0.33428  0.98639  1.0000
  C   C104      1.0  0.85655  0.30107  0.94376  1.0000
  C  Sn136     1.0  0.88670  0.31164  0.85050  1.0000
  O  Te133     1.0  0.93876  0.36774  0.70547  1.0000
  O  Te134     1.0  0.86124  0.41282  0.97571  1.0000
  O  Te135     1.0  0.72268  0.29933  0.07973  1.0000
  O  Te136     1.0  0.89498  0.27787  0.80945  1.0000
  Mg  Mg67      1.0  0.72251  0.35712  0.10477  1.0000
  Mg  Mg68      1.0  0.93898  0.30993  0.68048  1.0000
  C  Sn137     1.0  0.90361  0.99479  0.19609  1.0000
  C   C105      1.0  0.88592  0.95551  0.09148  1.0000
  C  Sn138     1.0  0.93763  0.96328  0.95603  1.0000
  C  Sn139     1.0  0.91174  0.98722  0.92440  1.0000
  C   C106      1.0  0.35602  0.00288  0.02896  1.0000
  C  Sn140     1.0  0.39906  0.01873  0.16447  1.0000
  O  Te137     1.0  0.46804  0.01000  0.33077  1.0000
  O  Te138     1.0  0.92065  0.92392  0.85323  1.0000
  O  Te139     1.0  0.86861  0.97197  0.78959  1.0000
  O  Te140     1.0  0.41603  0.05808  0.26720  1.0000
  Mg  Mg69      1.0  0.86022  0.91670  0.68531  1.0000
  Mg  Mg70      1.0  0.47647  0.06533  0.43509  1.0000
  C  Sn141     1.0  0.64778  0.60913  0.95233  1.0000
  C   C107      1.0  0.61492  0.56273  0.90690  1.0000
  C  Sn142     1.0  0.62979  0.53171  0.89293  1.0000
  C  Sn143     1.0  0.67851  0.54740  0.92513  1.0000
  C   C108      1.0  0.71134  0.59377  0.97055  1.0000
  C  Sn144     1.0  0.69650  0.62481  0.98453  1.0000
  O  Te141     1.0  0.63212  0.63952  0.96555  1.0000
  O  Te142     1.0  0.59628  0.48549  0.84728  1.0000
  O  Te143     1.0  0.69415  0.51696  0.91187  1.0000
  O  Te144     1.0  0.63523  0.64740  0.03018  1.0000
  Mg  Mg71      1.0  0.63501  0.45733  0.84594  1.0000
  Mg  Mg72      1.0  0.59655  0.67558  0.03165  1.0000
