data_image0
_chemical_formula_structural       H42C72N14H42C72N14C2Sn2C2HTe2HMgC2Sn2C2HTe2HMgC2Sn2C2HTe2HMgC2Sn2C2HTe2HMgC2Sn2C2HTe2HMgC2Sn2C2HTe2HMgC2Sn2C2HTe2HMgC2Sn2C2HTe2HMgC2Sn2C2HTe2HMgC2Sn2C2HTe2HMgC2Sn2C2HTe2HMgC2Sn2C2HTe2HMgC2Sn2C2HTe2HMgC2Sn2C2HTe2HMgC2Sn2C2HTe2HMgC2Sn2C2HTe2HMgC2Sn2C2HTe2HMgC2Sn2C2HTe2HMg
_chemical_formula_sum              "H120 C216 N28 Sn36 Te36 Mg18"
_cell_length_a       34.3946
_cell_length_b       33.6603
_cell_length_c       8.36407
_cell_angle_alpha    84.5163
_cell_angle_beta     110.069
_cell_angle_gamma    119.282

_symmetry_space_group_name_H-M    'P1'
_space_group_IT_number       1

loop_
  _space_group_symop_operation_xyz
  'x, y, z'

loop_
  _atom_site_type_symbol
  _atom_site_label
  _atom_site_symmetry_multiplicity
  _atom_site_fract_x
  _atom_site_fract_y
  _atom_site_fract_z
  _atom_site_occupancy
  H   H1        1.0  0.26533  0.79662  0.31280  1.0000
  H   H2        1.0  0.35069  0.84814  0.35946  1.0000
  H   H3        1.0  0.34712  0.95144  0.60915  1.0000
  H   H4        1.0  0.26177  0.89824  0.57104  1.0000
  H   H5        1.0  0.14752  0.68444  0.23075  1.0000
  H   H6        1.0  0.18121  0.63330  0.24690  1.0000
  H   H7        1.0  0.30583  0.72371  0.65584  1.0000
  H   H8        1.0  0.27381  0.77651  0.63101  1.0000
  H   H9        1.0  0.93928  0.60283  0.57940  1.0000
  H   H10       1.0  0.91074  0.51956  0.58670  1.0000
  H   H11       1.0  0.01461  0.53370  0.37780  1.0000
  H   H12       1.0  0.04061  0.61614  0.35969  1.0000
  H   H13       1.0  0.20901  0.94515  0.54731  1.0000
  H   H14       1.0  0.26630  0.02708  0.61678  1.0000
  H   H15       1.0  0.17127  0.04487  0.79108  1.0000
  H   H16       1.0  0.11529  0.96179  0.73190  1.0000
  H   H17       1.0  0.89276  0.89523  0.47652  1.0000
  H   H18       1.0  0.29156  0.09497  0.58766  1.0000
  H   H19       1.0  0.40264  0.98986  0.44199  1.0000
  H   H20       1.0  0.20851  0.58579  0.36599  1.0000
  H   H21       1.0  0.96832  0.46116  0.32046  1.0000
  H   H22       1.0  0.78787  0.65482  0.50985  1.0000
  H   H23       1.0  0.36004  0.16340  0.57899  1.0000
  H   H24       1.0  0.40227  0.24683  0.57128  1.0000
  H   H25       1.0  0.30030  0.25679  0.73022  1.0000
  H   H26       1.0  0.25816  0.17278  0.73639  1.0000
  H   H27       1.0  0.85290  0.16048  0.56901  1.0000
  H   H28       1.0  0.89775  0.23871  0.50497  1.0000
  H   H29       1.0  0.77076  0.24927  0.31582  1.0000
  H   H30       1.0  0.72571  0.17148  0.38108  1.0000
  H   H31       1.0  0.72829  0.04269  0.32692  1.0000
  H   H32       1.0  0.76321  0.99263  0.35368  1.0000
  H   H33       1.0  0.87347  0.07291  0.81596  1.0000
  H   H34       1.0  0.83535  0.12011  0.79577  1.0000
  H   H35       1.0  0.38710  0.59966  0.61065  1.0000
  H   H36       1.0  0.34079  0.63945  0.58214  1.0000
  H   H37       1.0  0.21303  0.51867  0.31303  1.0000
  H   H38       1.0  0.25856  0.47820  0.34233  1.0000
  H   H39       1.0  0.78077  0.94069  0.45669  1.0000
  H   H40       1.0  0.82119  0.89951  0.42930  1.0000
  H   H41       1.0  0.95645  0.01548  0.68250  1.0000
  H   H42       1.0  0.91616  0.05733  0.71270  1.0000
  C   C1        1.0  0.06884  0.73384  0.42869  1.0000
  C   C2        1.0  0.11688  0.76007  0.42374  1.0000
  C   C3        1.0  0.14082  0.80837  0.44976  1.0000
  C   C4        1.0  0.11769  0.83150  0.48378  1.0000
  C   C5        1.0  0.06995  0.80630  0.47767  1.0000
  C   C6        1.0  0.04500  0.75661  0.44853  1.0000
  C   C7        1.0  0.12259  0.89875  0.56080  1.0000
  C   C8        1.0  0.07204  0.87405  0.52950  1.0000
  C   C9        1.0  0.97765  0.68647  0.42560  1.0000
  C   C10       1.0  0.00485  0.66381  0.43533  1.0000
  C   C11       1.0  0.18536  0.76267  0.42227  1.0000
  C   C12       1.0  0.20858  0.81211  0.43556  1.0000
  C   C13       1.0  0.15635  0.94754  0.62295  1.0000
  C   C14       1.0  0.98959  0.61491  0.45684  1.0000
  C   C15       1.0  0.25778  0.84340  0.44209  1.0000
  C   C16       1.0  0.20770  0.73389  0.43093  1.0000
  C   C17       1.0  0.28312  0.83023  0.37907  1.0000
  C   C18       1.0  0.33082  0.85883  0.40445  1.0000
  C   C19       1.0  0.35448  0.90305  0.48696  1.0000
  C   C20       1.0  0.32876  0.91768  0.54183  1.0000
  C   C21       1.0  0.28133  0.88811  0.52152  1.0000
  C   C22       1.0  0.18196  0.69263  0.32548  1.0000
  C   C23       1.0  0.20067  0.66352  0.33689  1.0000
  C   C24       1.0  0.24561  0.67429  0.45765  1.0000
  C   C25       1.0  0.27119  0.71549  0.56312  1.0000
  C   C26       1.0  0.25269  0.74466  0.54989  1.0000
  C   C27       1.0  0.95440  0.58754  0.52821  1.0000
  C   C28       1.0  0.93863  0.54097  0.53442  1.0000
  C   C29       1.0  0.95838  0.52008  0.47404  1.0000
  C   C30       1.0  0.99708  0.54829  0.41837  1.0000
  C   C31       1.0  0.01199  0.59465  0.40848  1.0000
  C   C32       1.0  0.20100  0.96726  0.60107  1.0000
  C   C33       1.0  0.23296  0.01357  0.63968  1.0000
  C   C34       1.0  0.22125  0.04292  0.69826  1.0000
  C   C35       1.0  0.17894  0.02272  0.73569  1.0000
  C   C36       1.0  0.14740  0.97599  0.70053  1.0000
  C   C37       1.0  0.91531  0.93160  0.52419  1.0000
  C   C38       1.0  0.28087  0.11258  0.65387  1.0000
  C   C39       1.0  0.42306  0.97174  0.49414  1.0000
  C   C40       1.0  0.24734  0.60627  0.42412  1.0000
  C   C41       1.0  0.94414  0.44728  0.39423  1.0000
  C   C42       1.0  0.76545  0.62179  0.43216  1.0000
  C   C43       1.0  0.30613  0.16223  0.65871  1.0000
  C   C44       1.0  0.34754  0.18408  0.61540  1.0000
  C   C45       1.0  0.37154  0.23130  0.61225  1.0000
  C   C46       1.0  0.35475  0.25883  0.64935  1.0000
  C   C47       1.0  0.31344  0.23664  0.69479  1.0000
  C   C48       1.0  0.28972  0.18956  0.69999  1.0000
  C   C49       1.0  0.77934  0.08485  0.55869  1.0000
  C   C50       1.0  0.78560  0.15987  0.49311  1.0000
  C   C51       1.0  0.83434  0.17971  0.51727  1.0000
  C   C52       1.0  0.85993  0.22439  0.47871  1.0000
  C   C53       1.0  0.83878  0.25190  0.41426  1.0000
  C   C54       1.0  0.78950  0.23062  0.37772  1.0000
  C   C55       1.0  0.76367  0.18624  0.41525  1.0000
  C   C56       1.0  0.75880  0.04786  0.43821  1.0000
  C   C57       1.0  0.77877  0.01973  0.45397  1.0000
  C   C58       1.0  0.82148  0.02893  0.58588  1.0000
  C   C59       1.0  0.84164  0.06595  0.70770  1.0000
  C   C60       1.0  0.82042  0.09287  0.69671  1.0000
  C   C61       1.0  0.32650  0.53581  0.47762  1.0000
  C   C62       1.0  0.84528  0.00256  0.58423  1.0000
  C   C63       1.0  0.34890  0.58152  0.54595  1.0000
  C   C64       1.0  0.32348  0.60426  0.52923  1.0000
  C   C65       1.0  0.27412  0.58222  0.44303  1.0000
  C   C66       1.0  0.25133  0.53645  0.37710  1.0000
  C   C67       1.0  0.27702  0.51370  0.39362  1.0000
  C   C68       1.0  0.81929  0.95760  0.50605  1.0000
  C   C69       1.0  0.84201  0.93414  0.49147  1.0000
  C   C70       1.0  0.89176  0.95513  0.55208  1.0000
  C   C71       1.0  0.91797  0.99957  0.63486  1.0000
  C   C72       1.0  0.89517  0.02263  0.65149  1.0000
  N   N1        1.0  0.14287  0.87645  0.52929  1.0000
  N   N2        1.0  0.04794  0.82845  0.49631  1.0000
  N   N3        1.0  0.99954  0.73232  0.43957  1.0000
  N   N4        1.0  0.04863  0.68822  0.42744  1.0000
  N   N5        1.0  0.13970  0.73823  0.40997  1.0000
  N   N6        1.0  0.18541  0.83325  0.45009  1.0000
  N   N7        1.0  0.96014  0.95330  0.54810  1.0000
  N   N8        1.0  0.24725  0.09093  0.71802  1.0000
  N   N9        1.0  0.40296  0.92880  0.51702  1.0000
  N   N10       1.0  0.26905  0.64905  0.47666  1.0000
  N   N11       1.0  0.93699  0.47245  0.47632  1.0000
  N   N12       1.0  0.78139  0.60505  0.35258  1.0000
  N   N13       1.0  0.43807  0.44923  0.51863  1.0000
  N   N14       1.0  0.75947  0.11485  0.53721  1.0000
  H   H43       1.0  0.13695  0.68347  0.68794  1.0000
  H   H44       1.0  0.16997  0.63192  0.70224  1.0000
  H   H45       1.0  0.28778  0.71313  0.14775  1.0000
  H   H46       1.0  0.25691  0.76716  0.12345  1.0000
  H   H47       1.0  0.93148  0.72137  0.06724  1.0000
  H   H48       1.0  0.84939  0.68996  0.05734  1.0000
  H   H49       1.0  0.80571  0.57691  0.71247  1.0000
  H   H50       1.0  0.88860  0.60869  0.72385  1.0000
  H   H51       1.0  0.07342  0.95562  0.91351  1.0000
  H   H52       1.0  0.02490  0.98977  0.92524  1.0000
  H   H53       1.0  0.94113  0.87048  0.14026  1.0000
  H   H54       1.0  0.99094  0.83701  0.13369  1.0000
  H   H55       1.0  0.20279  0.94241  0.05013  1.0000
  H   H56       1.0  0.26084  0.02453  0.11880  1.0000
  H   H57       1.0  0.16693  0.04389  0.29372  1.0000
  H   H58       1.0  0.11025  0.96096  0.23515  1.0000
  H   H59       1.0  0.88884  0.89921  0.94110  1.0000
  H   H60       1.0  0.28362  0.09245  0.07636  1.0000
  H   H61       1.0  0.39465  0.98196  0.93512  1.0000
  H   H62       1.0  0.19953  0.58812  0.76639  1.0000
  H   H63       1.0  0.95394  0.46036  0.81672  1.0000
  H   H64       1.0  0.77646  0.66078  0.99694  1.0000
  H   H65       1.0  0.47734  0.93550  0.16060  1.0000
  H   H66       1.0  0.56350  0.97530  0.19919  1.0000
  H   H67       1.0  0.55003  0.08488  0.92274  1.0000
  H   H68       1.0  0.46481  0.04640  0.89369  1.0000
  H   H69       1.0  0.35065  0.16153  0.05275  1.0000
  H   H70       1.0  0.39111  0.24479  0.04301  1.0000
  H   H71       1.0  0.29778  0.25414  0.25619  1.0000
  H   H72       1.0  0.25680  0.16978  0.26285  1.0000
  H   H73       1.0  0.46881  0.41842  0.86631  1.0000
  H   H74       1.0  0.54512  0.46158  0.83098  1.0000
  H   H75       1.0  0.56944  0.58041  0.09072  1.0000
  H   H76       1.0  0.49327  0.53765  0.12235  1.0000
  H   H77       1.0  0.36110  0.58035  0.17055  1.0000
  H   H78       1.0  0.31460  0.61954  0.12894  1.0000
  H   H79       1.0  0.20940  0.52671  0.68789  1.0000
  H   H80       1.0  0.25551  0.48750  0.72564  1.0000
  H   H81       1.0  0.61248  0.49258  0.85308  1.0000
  H   H82       1.0  0.69392  0.53497  0.84794  1.0000
  H   H83       1.0  0.71026  0.65810  0.03924  1.0000
  H   H84       1.0  0.62839  0.61706  0.03724  1.0000
  C   C73       1.0  0.05843  0.73131  0.92738  1.0000
  C   C74       1.0  0.10623  0.75656  0.91933  1.0000
  C   C75       1.0  0.13144  0.80489  0.94861  1.0000
  C   C76       1.0  0.10973  0.82913  0.98580  1.0000
  C   C77       1.0  0.06202  0.80493  0.97941  1.0000
  C   C78       1.0  0.03599  0.75534  0.94932  1.0000
  C   C79       1.0  0.11640  0.89716  0.06388  1.0000
  C   C80       1.0  0.06585  0.87344  0.03194  1.0000
  C   C81       1.0  0.96738  0.68659  0.92514  1.0000
  C   C82       1.0  0.99317  0.66238  0.93542  1.0000
  C   C83       1.0  0.17295  0.75779  0.90637  1.0000
  C   C84       1.0  0.19777  0.80723  0.92670  1.0000
  C   C85       1.0  0.03668  0.89453  0.02907  1.0000
  C   C86       1.0  0.15071  0.94580  0.12620  1.0000
  C   C87       1.0  0.91653  0.66654  0.90306  1.0000
  C   C88       1.0  0.19436  0.72875  0.90629  1.0000
  C   C89       1.0  0.16997  0.68988  0.78896  1.0000
  C   C90       1.0  0.18845  0.66065  0.79849  1.0000
  C   C91       1.0  0.23099  0.66837  0.93003  1.0000
  C   C92       1.0  0.25518  0.70737  0.04613  1.0000
  C   C93       1.0  0.23738  0.73710  0.03340  1.0000
  C   C94       1.0  0.90365  0.68978  0.98905  1.0000
  C   C95       1.0  0.85705  0.67213  0.98086  1.0000
  C   C96       1.0  0.82118  0.63006  0.88563  1.0000
  C   C97       1.0  0.83366  0.60837  0.79108  1.0000
  C   C98       1.0  0.88030  0.62640  0.79815  1.0000
  C   C99       1.0  0.04494  0.93715  0.96549  1.0000
  C   C100      1.0  0.01782  0.95645  0.97151  1.0000
  C   C101      1.0  0.97980  0.93255  0.03337  1.0000
  C   C102      1.0  0.96938  0.88858  0.08673  1.0000
  C   C103      1.0  0.99771  0.87011  0.08555  1.0000
  C   C104      1.0  0.19521  0.96491  0.10380  1.0000
  C   C105      1.0  0.22759  0.01116  0.14217  1.0000
  C   C106      1.0  0.21648  0.04090  0.20143  1.0000
  C   C107      1.0  0.17419  0.02133  0.23866  1.0000
  C   C108      1.0  0.14231  0.97473  0.20389  1.0000
  C   C109      1.0  0.91073  0.93385  0.00708  1.0000
  C   C110      1.0  0.27542  0.11027  0.15259  1.0000
  C   C111      1.0  0.41430  0.96319  0.98935  1.0000
  C   C112      1.0  0.23409  0.60279  0.87039  1.0000
  C   C113      1.0  0.93129  0.44622  0.89638  1.0000
  C   C114      1.0  0.75657  0.62483  0.94440  1.0000
  C   C115      1.0  0.30103  0.15992  0.15988  1.0000
  C   C116      1.0  0.46541  0.98813  0.02387  1.0000
  C   C117      1.0  0.49393  0.96845  0.11102  1.0000
  C   C118      1.0  0.54165  0.99049  0.12999  1.0000
  C   C119      1.0  0.56285  0.03280  0.06259  1.0000
  C   C120      1.0  0.53455  0.05296  0.97996  1.0000
  C   C121      1.0  0.48665  0.03106  0.96199  1.0000
  C   C122      1.0  0.33981  0.18193  0.10149  1.0000
  C   C123      1.0  0.36285  0.22915  0.09707  1.0000
  C   C124      1.0  0.34768  0.25631  0.14853  1.0000
  C   C125      1.0  0.30919  0.23397  0.20965  1.0000
  C   C126      1.0  0.28641  0.18692  0.21576  1.0000
  C   C127      1.0  0.47446  0.47318  0.00345  1.0000
  C   C128      1.0  0.49116  0.45356  0.92088  1.0000
  C   C129      1.0  0.53515  0.47870  0.90051  1.0000
  C   C130      1.0  0.56556  0.52516  0.96095  1.0000
  C   C131      1.0  0.54785  0.54489  0.03835  1.0000
  C   C132      1.0  0.50377  0.52002  0.05866  1.0000
  C   C133      1.0  0.31345  0.53152  0.94714  1.0000
  C   C134      1.0  0.61331  0.55099  0.94773  1.0000
  C   C135      1.0  0.32837  0.56847  0.06203  1.0000
  C   C136      1.0  0.30232  0.59072  0.04098  1.0000
  C   C137      1.0  0.25948  0.57695  0.90296  1.0000
  C   C138      1.0  0.24284  0.53856  0.79378  1.0000
  C   C139      1.0  0.26925  0.51641  0.81528  1.0000
  C   C140      1.0  0.63320  0.52896  0.89311  1.0000
  C   C141      1.0  0.67923  0.55235  0.89113  1.0000
  C   C142      1.0  0.70819  0.59931  0.94560  1.0000
  C   C143      1.0  0.68856  0.62175  0.99737  1.0000
  C   C144      1.0  0.64206  0.59830  0.99629  1.0000
  N   N15       1.0  0.13588  0.87406  0.03204  1.0000
  N   N16       1.0  0.04083  0.82790  0.99798  1.0000
  N   N17       1.0  0.99051  0.73236  0.94026  1.0000
  N   N18       1.0  0.03696  0.68567  0.92618  1.0000
  N   N19       1.0  0.12756  0.73391  0.89776  1.0000
  N   N20       1.0  0.17594  0.82911  0.94759  1.0000
  N   N21       1.0  0.95632  0.95502  0.05166  1.0000
  N   N22       1.0  0.24342  0.08879  0.22414  1.0000
  N   N23       1.0  0.39319  0.92039  0.01277  1.0000
  N   N24       1.0  0.25270  0.64109  0.95887  1.0000
  N   N25       1.0  0.92459  0.47099  0.98230  1.0000
  N   N26       1.0  0.77417  0.60626  0.88212  1.0000
  N   N27       1.0  0.42915  0.44695  0.02365  1.0000
  N   N28       1.0  0.75154  0.11327  0.03791  1.0000
  C   C145      1.0  0.99458  0.86907  0.60374  1.0000
  C   C146      1.0  0.03007  0.88553  0.53087  1.0000
  C  Sn1       1.0  0.04403  0.92765  0.46086  1.0000
  C  Sn2       1.0  0.02199  0.95370  0.46409  1.0000
  C   C147      1.0  0.98654  0.93695  0.53740  1.0000
  C   C148      1.0  0.97284  0.89475  0.60705  1.0000
  H   H85       1.0  0.98400  0.83643  0.65772  1.0000
  O  Te1       1.0  0.07953  0.94358  0.38849  1.0000
  O  Te2       1.0  0.03526  0.99592  0.39508  1.0000
  H   H86       1.0  0.94538  0.88202  0.66356  1.0000
  Mg  Mg1       1.0  0.08536  0.00309  0.31068  1.0000
  C   C149      1.0  0.75394  0.19579  0.91056  1.0000
  C   C150      1.0  0.76925  0.16363  0.96430  1.0000
  C  Sn3       1.0  0.72233  0.15282  0.00707  1.0000
  C  Sn4       1.0  0.85011  0.22229  0.99575  1.0000
  C   C151      1.0  0.83444  0.25421  0.94197  1.0000
  C   C152      1.0  0.78650  0.24104  0.89942  1.0000
  H   H87       1.0  0.71685  0.18561  0.87773  1.0000
  O  Te3       1.0  0.73702  0.12026  0.06046  1.0000
  O  Te4       1.0  0.80337  0.21240  0.03778  1.0000
  H   H88       1.0  0.77466  0.26595  0.85793  1.0000
  Mg  Mg2       1.0  0.80615  0.15552  0.10380  1.0000
  C   C153      1.0  0.34494  0.34146  0.10539  1.0000
  C   C154      1.0  0.36270  0.31118  0.12242  1.0000
  C  Sn5       1.0  0.40823  0.32669  0.11915  1.0000
  C  Sn6       1.0  0.43642  0.37339  0.09849  1.0000
  C   C155      1.0  0.41834  0.40341  0.08168  1.0000
  C   C156      1.0  0.37273  0.38753  0.08507  1.0000
  H   H89       1.0  0.30967  0.32918  0.10810  1.0000
  O  Te5       1.0  0.42541  0.29598  0.13627  1.0000
  O  Te6       1.0  0.48204  0.38981  0.09484  1.0000
  H   H90       1.0  0.35900  0.41098  0.07199  1.0000
  Mg  Mg3       1.0  0.48974  0.33470  0.12324  1.0000
  C   C157      1.0  0.50567  0.05025  0.45802  1.0000
  C   C158      1.0  0.95678  0.00767  0.50768  1.0000
  C  Sn7       1.0  0.97753  0.98161  0.59603  1.0000
  C  Sn8       1.0  0.02680  0.99858  0.63524  1.0000
  C   C159      1.0  0.57541  0.04123  0.58510  1.0000
  C   C160      1.0  0.55428  0.06703  0.49670  1.0000
  H   H91       1.0  0.48933  0.07022  0.38970  1.0000
  O  Te7       1.0  0.94947  0.93913  0.64465  1.0000
  O  Te8       1.0  0.04845  0.97325  0.72346  1.0000
  H   H92       1.0  0.57563  0.10001  0.45836  1.0000
  Mg  Mg4       1.0  0.99529  0.91729  0.76248  1.0000
  C   C161      1.0  0.91692  0.33146  0.34275  1.0000
  C   C162      1.0  0.87810  0.30580  0.39741  1.0000
  C  Sn9       1.0  0.85692  0.32705  0.44398  1.0000
  C  Sn10      1.0  0.87501  0.37488  0.43548  1.0000
  C   C163      1.0  0.91383  0.40025  0.38051  1.0000
  C   C164      1.0  0.93477  0.37864  0.33427  1.0000
  H   H93       1.0  0.93310  0.31474  0.30687  1.0000
  O  Te9       1.0  0.81818  0.30090  0.49837  1.0000
  O  Te10      1.0  0.85450  0.39699  0.48121  1.0000
  H   H94       1.0  0.96480  0.39851  0.29184  1.0000
  Mg  Mg5       1.0  0.80237  0.34663  0.54724  1.0000
  C   C165      1.0  0.43121  0.00570  0.16254  1.0000
  C   C166      1.0  0.89192  0.96399  0.07267  1.0000
  C  Sn11      1.0  0.93910  0.96407  0.96808  1.0000
  C  Sn12      1.0  0.90904  0.98275  0.95341  1.0000
  C   C167      1.0  0.83261  0.00091  0.04376  1.0000
  C   C168      1.0  0.40159  0.02416  0.14810  1.0000
  H   H95       1.0  0.46809  0.02371  0.24321  1.0000
  O  Te11      1.0  0.92173  0.92242  0.87922  1.0000
  O  Te12      1.0  0.86136  0.95996  0.84973  1.0000
  H   H96       1.0  0.41549  0.05647  0.21758  1.0000
  Mg  Mg6       1.0  0.85424  0.90424  0.75411  1.0000
  C   C169      1.0  0.65452  0.11170  0.09984  1.0000
  C   C170      1.0  0.61832  0.06618  0.06529  1.0000
  C  Sn13      1.0  0.62697  0.03182  0.03283  1.0000
  C  Sn14      1.0  0.67275  0.04335  0.03514  1.0000
  C   C171      1.0  0.70874  0.08899  0.06996  1.0000
  C   C172      1.0  0.69969  0.12310  0.10221  1.0000
  H   H97       1.0  0.64753  0.13809  0.12488  1.0000
  O  Te13      1.0  0.16381  0.01012  0.99847  1.0000
  O  Te14      1.0  0.68238  0.00969  0.00321  1.0000
  H   H98       1.0  0.72773  0.15834  0.12907  1.0000
  Mg  Mg7       1.0  0.19435  0.97643  0.96279  1.0000
  C   C173      1.0  0.54566  0.54659  0.52504  1.0000
  C   C174      1.0  0.57028  0.53091  0.47038  1.0000
  C  Sn15      1.0  0.54887  0.48503  0.41181  1.0000
  C  Sn16      1.0  0.50194  0.45436  0.40798  1.0000
  C   C175      1.0  0.47760  0.47039  0.46283  1.0000
  C   C176      1.0  0.49937  0.51636  0.52125  1.0000
  H   H99       1.0  0.56249  0.58217  0.57016  1.0000
  O  Te15      1.0  0.57397  0.46993  0.35772  1.0000
  O  Te16      1.0  0.47969  0.40833  0.34998  1.0000
  H   H100      1.0  0.48029  0.52850  0.56346  1.0000
  Mg  Mg8       1.0  0.52847  0.40408  0.28963  1.0000
  C   C177      1.0  0.69148  0.61840  0.52406  1.0000
  C   C178      1.0  0.71432  0.60290  0.45775  1.0000
  C  Sn17      1.0  0.68944  0.55942  0.37102  1.0000
  C  Sn18      1.0  0.64078  0.53102  0.35045  1.0000
  C   C179      1.0  0.61824  0.54687  0.41715  1.0000
  C   C180      1.0  0.64348  0.59042  0.50377  1.0000
  H   H101      1.0  0.71100  0.65211  0.59099  1.0000
  O  Te17      1.0  0.71281  0.54445  0.30563  1.0000
  O  Te18      1.0  0.61506  0.48743  0.26426  1.0000
  H   H102      1.0  0.62578  0.60243  0.55499  1.0000
  Mg  Mg9       1.0  0.66259  0.48236  0.19806  1.0000
  C   C181      1.0  0.84139  0.34095  0.95584  1.0000
  C   C182      1.0  0.84770  0.30691  0.90377  1.0000
  C  Sn19      1.0  0.88590  0.31872  0.84964  1.0000
  C  Sn20      1.0  0.91833  0.36550  0.84779  1.0000
  C   C183      1.0  0.91172  0.39930  0.90025  1.0000
  C   C184      1.0  0.87337  0.38710  0.95412  1.0000
  H   H103      1.0  0.81173  0.33152  0.99761  1.0000
  O  Te19      1.0  0.89166  0.28428  0.79798  1.0000
  O  Te20      1.0  0.95682  0.37826  0.79435  1.0000
  H   H104      1.0  0.86851  0.41346  0.99453  1.0000
  Mg  Mg10      1.0  0.94962  0.31884  0.73586  1.0000
  C   C185      1.0  0.28297  0.89311  0.03627  1.0000
  C   C186      1.0  0.34676  0.87381  0.94477  1.0000
  C  Sn21      1.0  0.36372  0.85247  0.87279  1.0000
  C  Sn22      1.0  0.41259  0.87457  0.89306  1.0000
  C   C187      1.0  0.44328  0.91748  0.98493  1.0000
  C   C188      1.0  0.33118  0.91492  0.05637  1.0000
  H   H105      1.0  0.26955  0.90939  0.09163  1.0000
  O  Te21      1.0  0.33230  0.80961  0.78171  1.0000
  O  Te22      1.0  0.43049  0.85401  0.82251  1.0000
  H   H106      1.0  0.35516  0.94813  0.12731  1.0000
  Mg  Mg11      1.0  0.37365  0.79545  0.70939  1.0000
  C   C189      1.0  0.43397  0.34295  0.61403  1.0000
  C   C190      1.0  0.39092  0.31489  0.64072  1.0000
  C  Sn23      1.0  0.35937  0.33113  0.62278  1.0000
  C  Sn24      1.0  0.37123  0.37630  0.57723  1.0000
  C   C191      1.0  0.41437  0.40409  0.55069  1.0000
  C   C192      1.0  0.44569  0.38750  0.56903  1.0000
  H   H107      1.0  0.45819  0.33010  0.62813  1.0000
  O  Te23      1.0  0.31651  0.30265  0.64998  1.0000
  O  Te24      1.0  0.34034  0.39340  0.55839  1.0000
  H   H108      1.0  0.47900  0.40922  0.54826  1.0000
  Mg  Mg12      1.0  0.28614  0.34150  0.60901  1.0000
  C   C193      1.0  0.92150  0.54876  0.03175  1.0000
  C   C194      1.0  0.03326  0.54632  0.98815  1.0000
  C  Sn25      1.0  0.07332  0.56751  0.93869  1.0000
  C  Sn26      1.0  0.09672  0.61567  0.93295  1.0000
  C   C195      1.0  0.07944  0.64142  0.97693  1.0000
  C   C196      1.0  0.94456  0.59626  0.02619  1.0000
  H   H109      1.0  0.89047  0.53209  0.06995  1.0000
  O  Te25      1.0  0.08983  0.54098  0.89548  1.0000
  O  Te26      1.0  0.13684  0.63773  0.88403  1.0000
  H   H110      1.0  0.93142  0.61643  0.06005  1.0000
  Mg  Mg13      1.0  0.14581  0.58679  0.83689  1.0000
  C   C197      1.0  0.75198  0.03963  0.90084  1.0000
  C   C198      1.0  0.66969  0.05026  0.02025  1.0000
  C  Sn27      1.0  0.70953  0.06315  0.16799  1.0000
  C  Sn28      1.0  0.73736  0.04130  0.19634  1.0000
  C   C199      1.0  0.72462  0.00710  0.07604  1.0000
  C   C200      1.0  0.25809  0.01807  0.92867  1.0000
  H   H111      1.0  0.72108  0.02986  0.78676  1.0000
  O  Te27      1.0  0.72146  0.09742  0.28600  1.0000
  O  Te28      1.0  0.77737  0.05353  0.34287  1.0000
  H   H112      1.0  0.24847  0.99158  0.83619  1.0000
  Mg  Mg14      1.0  0.77920  0.10212  0.46616  1.0000
  C   C201      1.0  0.34067  0.46846  0.35300  1.0000
  C   C202      1.0  0.34794  0.50108  0.46746  1.0000
  C  Sn29      1.0  0.38949  0.52066  0.60955  1.0000
  C  Sn30      1.0  0.42436  0.50727  0.63719  1.0000
  C   C203      1.0  0.41676  0.47463  0.52186  1.0000
  C   C204      1.0  0.37504  0.45524  0.38013  1.0000
  H   H113      1.0  0.30840  0.45348  0.24328  1.0000
  O  Te29      1.0  0.39618  0.55319  0.72267  1.0000
  O  Te30      1.0  0.46622  0.52630  0.77812  1.0000
  H   H114      1.0  0.36944  0.43001  0.29147  1.0000
  Mg  Mg15      1.0  0.45903  0.56930  0.89610  1.0000
  C   C205      1.0  0.90171  0.69186  0.46947  1.0000
  C   C206      1.0  0.92318  0.67099  0.42249  1.0000
  C  Sn31      1.0  0.89566  0.62744  0.33509  1.0000
  C  Sn32      1.0  0.84572  0.60445  0.29409  1.0000
  C   C207      1.0  0.82457  0.62563  0.34154  1.0000
  C   C208      1.0  0.85245  0.66922  0.42902  1.0000
  H   H115      1.0  0.92327  0.72559  0.53706  1.0000
  O  Te31      1.0  0.91769  0.60708  0.28918  1.0000
  O  Te32      1.0  0.81736  0.56090  0.20676  1.0000
  H   H116      1.0  0.83581  0.68538  0.46527  1.0000
  Mg  Mg16      1.0  0.86390  0.54734  0.17160  1.0000
  C   C209      1.0  0.64453  0.02986  0.51674  1.0000
  C   C210      1.0  0.62432  0.05208  0.56407  1.0000
  C  Sn33      1.0  0.64927  0.09953  0.60010  1.0000
  C  Sn34      1.0  0.69528  0.12512  0.58837  1.0000
  C   C211      1.0  0.71517  0.10257  0.54079  1.0000
  C   C212      1.0  0.68990  0.05507  0.50507  1.0000
  H   H117      1.0  0.10363  0.99311  0.48901  1.0000
  O  Te33      1.0  0.62856  0.12119  0.64727  1.0000
  O  Te34      1.0  0.72099  0.17258  0.62362  1.0000
  H   H118      1.0  0.70554  0.03788  0.46832  1.0000
  Mg  Mg17      1.0  0.67765  0.18652  0.68274  1.0000
  C   C213      1.0  0.33118  0.46471  0.83551  1.0000
  C   C214      1.0  0.33669  0.49767  0.94364  1.0000
  C  Sn35      1.0  0.28283  0.49510  0.08731  1.0000
  C  Sn36      1.0  0.31883  0.48286  0.12303  1.0000
  C   C215      1.0  0.31299  0.44987  0.01400  1.0000
  C   C216      1.0  0.36667  0.45263  0.87061  1.0000
  H   H119      1.0  0.29942  0.44860  0.72452  1.0000
  O  Te35      1.0  0.28776  0.52794  0.19403  1.0000
  O  Te36      1.0  0.36006  0.50336  0.26571  1.0000
  H   H120      1.0  0.36244  0.42714  0.78686  1.0000
  Mg  Mg18      1.0  0.35037  0.54623  0.37291  1.0000
