data_image0
_chemical_formula_structural       H50C84N14H34C60N14SnCSn2CSnTe4Mg2SnCSn2CSnTe4Mg2SnCSn2CSnTe4Mg2SnCSn2CSnTe4Mg2SnCSn2CSnTe4Mg2SnCSn2CSnTe4Mg2SnCSn2CSnTe4Mg2SnCSn2CSnTe4Mg2SnCSn2CSnTe4Mg2SnCSn2CSnTe4Mg2SnCSn2CSnTe4Mg2SnCSn2CSnTe4Mg2SnCSn2CSnTe4Mg2SnCSn2CSnTe4Mg2SnCSn2CSnTe4Mg2SnCSn2CSnTe4Mg2SnCSn2CSnTe4Mg2SnCSn2CSnTe4Mg2
_chemical_formula_sum              "H84 C180 N28 Sn72 Te72 Mg36"
_cell_length_a       34.3946
_cell_length_b       33.6603
_cell_length_c       8.36407
_cell_angle_alpha    84.5163
_cell_angle_beta     110.069
_cell_angle_gamma    119.282

_symmetry_space_group_name_H-M    'P1'
_space_group_IT_number       1

loop_
  _space_group_symop_operation_xyz
  'x, y, z'

loop_
  _atom_site_type_symbol
  _atom_site_label
  _atom_site_symmetry_multiplicity
  _atom_site_fract_x
  _atom_site_fract_y
  _atom_site_fract_z
  _atom_site_occupancy
  H   H1        1.0  0.26533  0.79662  0.31280  1.0000
  H   H2        1.0  0.35069  0.84814  0.35946  1.0000
  H   H3        1.0  0.34712  0.95144  0.60915  1.0000
  H   H4        1.0  0.26177  0.89824  0.57104  1.0000
  H   H5        1.0  0.14752  0.68444  0.23075  1.0000
  H   H6        1.0  0.18121  0.63330  0.24690  1.0000
  H   H7        1.0  0.30583  0.72371  0.65584  1.0000
  H   H8        1.0  0.27381  0.77651  0.63101  1.0000
  H   H9        1.0  0.93760  0.72344  0.53090  1.0000
  H   H10       1.0  0.85421  0.69257  0.50354  1.0000
  H   H11       1.0  0.81749  0.57023  0.23030  1.0000
  H   H12       1.0  0.90150  0.60124  0.25937  1.0000
  H   H13       1.0  0.89276  0.89523  0.47652  1.0000
  H   H14       1.0  0.29156  0.09497  0.58766  1.0000
  H   H15       1.0  0.40264  0.98986  0.44199  1.0000
  H   H16       1.0  0.20851  0.58579  0.36599  1.0000
  H   H17       1.0  0.96832  0.46116  0.32046  1.0000
  H   H18       1.0  0.78787  0.65482  0.50985  1.0000
  H   H19       1.0  0.36004  0.16340  0.57899  1.0000
  H   H20       1.0  0.40227  0.24683  0.57128  1.0000
  H   H21       1.0  0.30030  0.25679  0.73022  1.0000
  H   H22       1.0  0.25816  0.17278  0.73639  1.0000
  H   H23       1.0  0.44546  0.31596  0.64881  1.0000
  H   H24       1.0  0.48072  0.39537  0.59311  1.0000
  H   H25       1.0  0.35451  0.39725  0.56525  1.0000
  H   H26       1.0  0.31914  0.31775  0.62037  1.0000
  H   H27       1.0  0.85290  0.16048  0.56901  1.0000
  H   H28       1.0  0.89775  0.23871  0.50497  1.0000
  H   H29       1.0  0.77076  0.24927  0.31582  1.0000
  H   H30       1.0  0.72571  0.17148  0.38108  1.0000
  H   H31       1.0  0.47753  0.41844  0.36762  1.0000
  H   H32       1.0  0.55524  0.45938  0.34394  1.0000
  H   H33       1.0  0.57554  0.58302  0.55120  1.0000
  H   H34       1.0  0.49930  0.54144  0.58528  1.0000
  H   H35       1.0  0.45902  0.51699  0.73879  1.0000
  H   H36       1.0  0.41195  0.55416  0.71870  1.0000
  H   H37       1.0  0.30487  0.46467  0.26974  1.0000
  H   H38       1.0  0.35397  0.42878  0.28797  1.0000
  H   H39       1.0  0.38710  0.59966  0.61065  1.0000
  H   H40       1.0  0.34079  0.63945  0.58214  1.0000
  H   H41       1.0  0.21303  0.51867  0.31303  1.0000
  H   H42       1.0  0.25856  0.47820  0.34233  1.0000
  H   H43       1.0  0.91946  0.30005  0.32201  1.0000
  H   H44       1.0  0.96388  0.38356  0.31294  1.0000
  H   H45       1.0  0.86495  0.39953  0.46692  1.0000
  H   H46       1.0  0.81941  0.31535  0.47325  1.0000
  H   H47       1.0  0.78077  0.94069  0.45669  1.0000
  H   H48       1.0  0.82119  0.89951  0.42930  1.0000
  H   H49       1.0  0.95645  0.01548  0.68250  1.0000
  H   H50       1.0  0.91616  0.05733  0.71270  1.0000
  C   C1        1.0  0.06884  0.73384  0.42869  1.0000
  C   C2        1.0  0.11688  0.76007  0.42374  1.0000
  C   C3        1.0  0.14082  0.80837  0.44976  1.0000
  C   C4        1.0  0.11769  0.83150  0.48378  1.0000
  C   C5        1.0  0.06995  0.80630  0.47767  1.0000
  C   C6        1.0  0.04500  0.75661  0.44853  1.0000
  C   C7        1.0  0.12259  0.89875  0.56080  1.0000
  C   C8        1.0  0.07204  0.87405  0.52950  1.0000
  C   C9        1.0  0.97765  0.68647  0.42560  1.0000
  C   C10       1.0  0.00485  0.66381  0.43533  1.0000
  C   C11       1.0  0.18536  0.76267  0.42227  1.0000
  C   C12       1.0  0.20858  0.81211  0.43556  1.0000
  C   C13       1.0  0.92640  0.66466  0.40141  1.0000
  C   C14       1.0  0.25778  0.84340  0.44209  1.0000
  C   C15       1.0  0.20770  0.73389  0.43093  1.0000
  C   C16       1.0  0.28312  0.83023  0.37907  1.0000
  C   C17       1.0  0.33082  0.85883  0.40445  1.0000
  C   C18       1.0  0.35448  0.90305  0.48696  1.0000
  C   C19       1.0  0.32876  0.91768  0.54183  1.0000
  C   C20       1.0  0.28133  0.88811  0.52152  1.0000
  C   C21       1.0  0.18196  0.69263  0.32548  1.0000
  C   C22       1.0  0.20067  0.66352  0.33689  1.0000
  C   C23       1.0  0.24561  0.67429  0.45765  1.0000
  C   C24       1.0  0.27119  0.71549  0.56312  1.0000
  C   C25       1.0  0.25269  0.74466  0.54989  1.0000
  C   C26       1.0  0.91106  0.68986  0.46466  1.0000
  C   C27       1.0  0.86383  0.67226  0.44775  1.0000
  C   C28       1.0  0.82929  0.62811  0.36617  1.0000
  C   C29       1.0  0.84430  0.60370  0.29707  1.0000
  C   C30       1.0  0.89163  0.62145  0.31391  1.0000
  C   C31       1.0  0.91531  0.93160  0.52419  1.0000
  C   C32       1.0  0.28087  0.11258  0.65387  1.0000
  C   C33       1.0  0.42306  0.97174  0.49414  1.0000
  C   C34       1.0  0.24734  0.60627  0.42412  1.0000
  C   C35       1.0  0.94414  0.44728  0.39423  1.0000
  C   C36       1.0  0.76545  0.62179  0.43216  1.0000
  C   C37       1.0  0.30613  0.16223  0.65871  1.0000
  C   C38       1.0  0.34754  0.18408  0.61540  1.0000
  C   C39       1.0  0.37154  0.23130  0.61225  1.0000
  C   C40       1.0  0.35475  0.25883  0.64935  1.0000
  C   C41       1.0  0.31344  0.23664  0.69479  1.0000
  C   C42       1.0  0.28972  0.18956  0.69999  1.0000
  C   C43       1.0  0.37786  0.30830  0.63065  1.0000
  C   C44       1.0  0.42416  0.33282  0.62465  1.0000
  C   C45       1.0  0.44438  0.37842  0.58999  1.0000
  C   C46       1.0  0.41916  0.40286  0.55698  1.0000
  C   C47       1.0  0.37434  0.37950  0.57741  1.0000
  C   C48       1.0  0.35447  0.33389  0.61184  1.0000
  C   C49       1.0  0.48249  0.47489  0.49188  1.0000
  C   C50       1.0  0.41062  0.47131  0.51097  1.0000
  C   C51       1.0  0.78560  0.15987  0.49311  1.0000
  C   C52       1.0  0.83434  0.17971  0.51727  1.0000
  C   C53       1.0  0.85993  0.22439  0.47871  1.0000
  C   C54       1.0  0.83878  0.25190  0.41426  1.0000
  C   C55       1.0  0.78950  0.23062  0.37772  1.0000
  C   C56       1.0  0.76367  0.18624  0.41525  1.0000
  C   C57       1.0  0.49984  0.45395  0.41815  1.0000
  C   C58       1.0  0.54451  0.47804  0.40252  1.0000
  C   C59       1.0  0.57463  0.52505  0.45397  1.0000
  C   C60       1.0  0.55540  0.54644  0.51501  1.0000
  C   C61       1.0  0.51104  0.52251  0.53416  1.0000
  C   C62       1.0  0.42627  0.50668  0.63165  1.0000
  C   C63       1.0  0.39919  0.52763  0.61984  1.0000
  C   C64       1.0  0.35471  0.51304  0.49063  1.0000
  C   C65       1.0  0.33857  0.47626  0.37377  1.0000
  C   C66       1.0  0.36622  0.45617  0.38232  1.0000
  C   C67       1.0  0.32650  0.53581  0.47762  1.0000
  C   C68       1.0  0.86588  0.30119  0.39817  1.0000
  C   C69       1.0  0.84528  0.00256  0.58423  1.0000
  C   C70       1.0  0.34890  0.58152  0.54595  1.0000
  C   C71       1.0  0.32348  0.60426  0.52923  1.0000
  C   C72       1.0  0.27412  0.58222  0.44303  1.0000
  C   C73       1.0  0.25133  0.53645  0.37710  1.0000
  C   C74       1.0  0.27702  0.51370  0.39362  1.0000
  C   C75       1.0  0.90738  0.32152  0.35531  1.0000
  C   C76       1.0  0.93251  0.36880  0.35020  1.0000
  C   C77       1.0  0.91777  0.39751  0.39256  1.0000
  C   C78       1.0  0.87600  0.37717  0.43350  1.0000
  C   C79       1.0  0.85061  0.33019  0.43515  1.0000
  C   C80       1.0  0.81929  0.95760  0.50605  1.0000
  C   C81       1.0  0.84201  0.93414  0.49147  1.0000
  C   C82       1.0  0.89176  0.95513  0.55208  1.0000
  C   C83       1.0  0.91797  0.99957  0.63486  1.0000
  C   C84       1.0  0.89517  0.02263  0.65149  1.0000
  N   N1        1.0  0.14287  0.87645  0.52929  1.0000
  N   N2        1.0  0.04794  0.82845  0.49631  1.0000
  N   N3        1.0  0.99954  0.73232  0.43957  1.0000
  N   N4        1.0  0.04863  0.68822  0.42744  1.0000
  N   N5        1.0  0.13970  0.73823  0.40997  1.0000
  N   N6        1.0  0.18541  0.83325  0.45009  1.0000
  N   N7        1.0  0.96014  0.95330  0.54810  1.0000
  N   N8        1.0  0.24725  0.09093  0.71802  1.0000
  N   N9        1.0  0.40296  0.92880  0.51702  1.0000
  N   N10       1.0  0.26905  0.64905  0.47666  1.0000
  N   N11       1.0  0.93699  0.47245  0.47632  1.0000
  N   N12       1.0  0.78139  0.60505  0.35258  1.0000
  N   N13       1.0  0.43807  0.44923  0.51863  1.0000
  N   N14       1.0  0.75947  0.11485  0.53721  1.0000
  H   H51       1.0  0.91918  0.59941  0.04587  1.0000
  H   H52       1.0  0.89212  0.51666  0.06237  1.0000
  H   H53       1.0  0.00706  0.53288  0.91732  1.0000
  H   H54       1.0  0.03386  0.61566  0.89920  1.0000
  H   H55       1.0  0.93148  0.72137  0.06724  1.0000
  H   H56       1.0  0.84939  0.68996  0.05734  1.0000
  H   H57       1.0  0.80571  0.57691  0.71247  1.0000
  H   H58       1.0  0.88860  0.60869  0.72385  1.0000
  H   H59       1.0  0.20279  0.94241  0.05013  1.0000
  H   H60       1.0  0.26084  0.02453  0.11880  1.0000
  H   H61       1.0  0.16693  0.04389  0.29372  1.0000
  H   H62       1.0  0.11025  0.96096  0.23515  1.0000
  H   H63       1.0  0.88884  0.89921  0.94110  1.0000
  H   H64       1.0  0.28362  0.09245  0.07636  1.0000
  H   H65       1.0  0.39465  0.98196  0.93512  1.0000
  H   H66       1.0  0.19953  0.58812  0.76639  1.0000
  H   H67       1.0  0.95394  0.46036  0.81672  1.0000
  H   H68       1.0  0.77646  0.66078  0.99694  1.0000
  H   H69       1.0  0.35065  0.16153  0.05275  1.0000
  H   H70       1.0  0.39111  0.24479  0.04301  1.0000
  H   H71       1.0  0.29778  0.25414  0.25619  1.0000
  H   H72       1.0  0.25680  0.16978  0.26285  1.0000
  H   H73       1.0  0.84449  0.16095  0.07056  1.0000
  H   H74       1.0  0.88803  0.23965  0.00916  1.0000
  H   H75       1.0  0.75954  0.24786  0.82855  1.0000
  H   H76       1.0  0.71557  0.16907  0.88493  1.0000
  H   H77       1.0  0.72074  0.04386  0.81364  1.0000
  H   H78       1.0  0.75538  0.99449  0.82688  1.0000
  H   H79       1.0  0.86457  0.06942  0.30045  1.0000
  H   H80       1.0  0.82827  0.11732  0.28845  1.0000
  H   H81       1.0  0.77571  0.94603  0.88179  1.0000
  H   H82       1.0  0.81817  0.90705  0.85690  1.0000
  H   H83       1.0  0.94661  0.00845  0.22030  1.0000
  H   H84       1.0  0.90493  0.04844  0.24613  1.0000
  C   C85       1.0  0.05843  0.73131  0.92738  1.0000
  C   C86       1.0  0.10623  0.75656  0.91933  1.0000
  C   C87       1.0  0.13144  0.80489  0.94861  1.0000
  C   C88       1.0  0.10973  0.82913  0.98580  1.0000
  C   C89       1.0  0.06202  0.80493  0.97941  1.0000
  C   C90       1.0  0.03599  0.75534  0.94932  1.0000
  C   C91       1.0  0.11640  0.89716  0.06388  1.0000
  C   C92       1.0  0.06585  0.87344  0.03194  1.0000
  C   C93       1.0  0.96738  0.68659  0.92514  1.0000
  C   C94       1.0  0.99317  0.66238  0.93542  1.0000
  C   C95       1.0  0.17295  0.75779  0.90637  1.0000
  C   C96       1.0  0.19777  0.80723  0.92670  1.0000
  C   C97       1.0  0.15071  0.94580  0.12620  1.0000
  C   C98       1.0  0.91653  0.66654  0.90306  1.0000
  C   C99       1.0  0.97692  0.61336  0.96018  1.0000
  C   C100      1.0  0.93787  0.58509  0.01289  1.0000
  C   C101      1.0  0.92249  0.53866  0.02284  1.0000
  C   C102      1.0  0.94559  0.51847  0.98091  1.0000
  C   C103      1.0  0.98738  0.54724  0.94381  1.0000
  C   C104      1.0  0.00251  0.59364  0.93323  1.0000
  C   C105      1.0  0.90365  0.68978  0.98905  1.0000
  C   C106      1.0  0.85705  0.67213  0.98086  1.0000
  C   C107      1.0  0.82118  0.63006  0.88563  1.0000
  C   C108      1.0  0.83366  0.60837  0.79108  1.0000
  C   C109      1.0  0.88030  0.62640  0.79815  1.0000
  C   C110      1.0  0.19521  0.96491  0.10380  1.0000
  C   C111      1.0  0.22759  0.01116  0.14217  1.0000
  C   C112      1.0  0.21648  0.04090  0.20143  1.0000
  C   C113      1.0  0.17419  0.02133  0.23866  1.0000
  C   C114      1.0  0.14231  0.97473  0.20389  1.0000
  C   C115      1.0  0.91073  0.93385  0.00708  1.0000
  C   C116      1.0  0.27542  0.11027  0.15259  1.0000
  C   C117      1.0  0.41430  0.96319  0.98935  1.0000
  C   C118      1.0  0.23409  0.60279  0.87039  1.0000
  C   C119      1.0  0.93129  0.44622  0.89638  1.0000
  C   C120      1.0  0.75657  0.62483  0.94440  1.0000
  C   C121      1.0  0.30103  0.15992  0.15988  1.0000
  C   C122      1.0  0.33981  0.18193  0.10149  1.0000
  C   C123      1.0  0.36285  0.22915  0.09707  1.0000
  C   C124      1.0  0.34768  0.25631  0.14853  1.0000
  C   C125      1.0  0.30919  0.23397  0.20965  1.0000
  C   C126      1.0  0.28641  0.18692  0.21576  1.0000
  C   C127      1.0  0.77206  0.08418  0.04909  1.0000
  C   C128      1.0  0.77656  0.15885  0.99653  1.0000
  C   C129      1.0  0.82530  0.17966  0.02015  1.0000
  C   C130      1.0  0.85014  0.22463  0.98351  1.0000
  C   C131      1.0  0.82808  0.25145  0.92208  1.0000
  C   C132      1.0  0.77885  0.22952  0.88757  1.0000
  C   C133      1.0  0.75371  0.18466  0.92191  1.0000
  C   C134      1.0  0.75161  0.04861  0.92250  1.0000
  C   C135      1.0  0.77136  0.02058  0.93140  1.0000
  C   C136      1.0  0.81337  0.02793  0.06438  1.0000
  C   C137      1.0  0.83337  0.06370  0.19126  1.0000
  C   C138      1.0  0.81294  0.09106  0.18523  1.0000
  C   C139      1.0  0.83696  0.00129  0.06269  1.0000
  C   C140      1.0  0.81317  0.96038  0.95672  1.0000
  C   C141      1.0  0.83692  0.93791  0.94324  1.0000
  C   C142      1.0  0.88557  0.95564  0.03429  1.0000
  C   C143      1.0  0.90920  0.99531  0.14636  1.0000
  C   C144      1.0  0.88533  0.01742  0.16047  1.0000
  N   N15       1.0  0.13588  0.87406  0.03204  1.0000
  N   N16       1.0  0.04083  0.82790  0.99798  1.0000
  N   N17       1.0  0.99051  0.73236  0.94026  1.0000
  N   N18       1.0  0.03696  0.68567  0.92618  1.0000
  N   N19       1.0  0.12756  0.73391  0.89776  1.0000
  N   N20       1.0  0.17594  0.82911  0.94759  1.0000
  N   N21       1.0  0.95632  0.95502  0.05166  1.0000
  N   N22       1.0  0.24342  0.08879  0.22414  1.0000
  N   N23       1.0  0.39319  0.92039  0.01277  1.0000
  N   N24       1.0  0.25270  0.64109  0.95887  1.0000
  N   N25       1.0  0.92459  0.47099  0.98230  1.0000
  N   N26       1.0  0.77417  0.60626  0.88212  1.0000
  N   N27       1.0  0.42915  0.44695  0.02365  1.0000
  N   N28       1.0  0.75154  0.11327  0.03791  1.0000
  C  Sn1       1.0  0.91096  0.33176  0.90150  1.0000
  C   C145      1.0  0.86993  0.30638  0.94391  1.0000
  C  Sn2       1.0  0.84271  0.32603  0.94864  1.0000
  C  Sn3       1.0  0.85677  0.37199  0.91007  1.0000
  C   C146      1.0  0.89777  0.39735  0.86766  1.0000
  C  Sn4       1.0  0.92501  0.37773  0.86293  1.0000
  O  Te1       1.0  0.93763  0.31143  0.89756  1.0000
  O  Te2       1.0  0.80185  0.29997  0.99145  1.0000
  O  Te3       1.0  0.83006  0.39232  0.91405  1.0000
  O  Te4       1.0  0.96585  0.40375  0.82013  1.0000
  Mg  Mg1       1.0  0.77726  0.34288  0.97944  1.0000
  Mg  Mg2       1.0  0.99045  0.36088  0.83201  1.0000
  C  Sn5       1.0  0.40304  0.53245  0.08019  1.0000
  C   C147      1.0  0.45436  0.54572  0.95325  1.0000
  C  Sn6       1.0  0.42694  0.50374  0.85467  1.0000
  C  Sn7       1.0  0.44325  0.47140  0.88365  1.0000
  C   C148      1.0  0.39189  0.45813  0.01054  1.0000
  C  Sn8       1.0  0.41934  0.50011  0.10917  1.0000
  O  Te5       1.0  0.42987  0.57463  0.17721  1.0000
  O  Te6       1.0  0.38366  0.49419  0.72846  1.0000
  O  Te7       1.0  0.41637  0.42920  0.78649  1.0000
  O  Te8       1.0  0.46260  0.50966  0.23533  1.0000
  Mg  Mg3       1.0  0.35985  0.43205  0.62966  1.0000
  Mg  Mg4       1.0  0.48642  0.57179  0.33426  1.0000
  C  Sn9       1.0  0.69284  0.12288  0.63540  1.0000
  C   C149      1.0  0.71348  0.09945  0.59968  1.0000
  C  Sn10      1.0  0.68525  0.05466  0.52322  1.0000
  C  Sn11      1.0  0.63535  0.03283  0.48148  1.0000
  C   C150      1.0  0.61474  0.05625  0.51717  1.0000
  C  Sn12      1.0  0.64294  0.10104  0.59366  1.0000
  O  Te9       1.0  0.72174  0.16764  0.71188  1.0000
  O  Te10      1.0  0.70670  0.03193  0.48879  1.0000
  O  Te11      1.0  0.08512  0.98803  0.40494  1.0000
  O  Te12      1.0  0.62151  0.12377  0.62806  1.0000
  Mg  Mg5       1.0  0.13096  0.97132  0.38325  1.0000
  Mg  Mg6       1.0  0.67588  0.18439  0.73351  1.0000
  C  Sn13      1.0  0.83143  0.06447  0.74248  1.0000
  C   C151      1.0  0.81803  0.02892  0.62701  1.0000
  C  Sn14      1.0  0.78606  0.02291  0.46187  1.0000
  C  Sn15      1.0  0.76710  0.05307  0.41104  1.0000
  C   C152      1.0  0.78050  0.08860  0.52647  1.0000
  C  Sn16      1.0  0.81247  0.09464  0.69165  1.0000
  O  Te13      1.0  0.86345  0.06985  0.90691  1.0000
  O  Te14      1.0  0.25185  0.98711  0.34872  1.0000
  O  Te15      1.0  0.73506  0.04767  0.24646  1.0000
  O  Te16      1.0  0.82535  0.13041  0.80476  1.0000
  Mg  Mg7       1.0  0.20708  0.99383  0.13852  1.0000
  Mg  Mg8       1.0  0.77539  0.10014  0.01494  1.0000
  C  Sn17      1.0  0.53670  0.98512  0.58802  1.0000
  C   C153      1.0  0.08448  0.02717  0.53233  1.0000
  C  Sn18      1.0  0.06705  0.05790  0.48471  1.0000
  C  Sn19      1.0  0.02227  0.04637  0.49302  1.0000
  C   C154      1.0  0.47452  0.00435  0.54871  1.0000
  C  Sn20      1.0  0.49191  0.97360  0.59633  1.0000
  O  Te17      1.0  0.55481  0.95493  0.63501  1.0000
  O  Te18      1.0  0.09413  0.09972  0.42939  1.0000
  O  Te19      1.0  0.00417  0.07660  0.44597  1.0000
  O  Te20      1.0  0.46486  0.93180  0.65165  1.0000
  Mg  Mg9       1.0  0.05428  0.12942  0.37915  1.0000
  Mg  Mg10      1.0  0.50469  0.90208  0.70200  1.0000
  C  Sn21      1.0  0.14548  0.98829  0.66331  1.0000
  C   C155      1.0  0.15070  0.95455  0.60252  1.0000
  C  Sn22      1.0  0.19508  0.96367  0.60433  1.0000
  C  Sn23      1.0  0.23509  0.00742  0.66834  1.0000
  C   C156      1.0  0.75120  0.04113  0.72911  1.0000
  C  Sn24      1.0  0.70682  0.03204  0.72732  1.0000
  O  Te21      1.0  0.10077  0.97841  0.66029  1.0000
  O  Te22      1.0  0.19941  0.92939  0.54282  1.0000
  O  Te23      1.0  0.80115  0.01727  0.67131  1.0000
  O  Te24      1.0  0.70248  0.06628  0.78882  1.0000
  Mg  Mg11      1.0  0.26773  0.95936  0.57365  1.0000
  Mg  Mg12      1.0  0.63420  0.03634  0.75813  1.0000
  C  Sn25      1.0  0.43291  0.03393  0.01540  1.0000
  C   C157      1.0  0.46535  0.01819  0.09005  1.0000
  C  Sn26      1.0  0.92819  0.97243  0.12401  1.0000
  C  Sn27      1.0  0.87892  0.94177  0.08239  1.0000
  C   C158      1.0  0.84651  0.95752  0.00777  1.0000
  C  Sn28      1.0  0.47838  0.02687  0.97378  1.0000
  O  Te25      1.0  0.54427  0.10342  0.98257  1.0000
  O  Te26      1.0  0.96130  0.95749  0.19876  1.0000
  O  Te27      1.0  0.86232  0.89586  0.11529  1.0000
  O  Te28      1.0  0.44530  0.04182  0.89905  1.0000
  Mg  Mg13      1.0  0.92125  0.89182  0.21857  1.0000
  Mg  Mg14      1.0  0.48531  0.10747  0.87911  1.0000
  C  Sn29      1.0  0.50605  0.45264  0.95629  1.0000
  C   C159      1.0  0.38914  0.44357  0.03048  1.0000
  C  Sn30      1.0  0.40582  0.49017  0.06122  1.0000
  C  Sn31      1.0  0.44546  0.52293  0.01679  1.0000
  C   C160      1.0  0.56234  0.53199  0.94263  1.0000
  C  Sn32      1.0  0.54569  0.48539  0.91187  1.0000
  O  Te29      1.0  0.48877  0.40588  0.92671  1.0000
  O  Te30      1.0  0.38309  0.50388  0.13557  1.0000
  O  Te31      1.0  0.46273  0.56972  0.04644  1.0000
  O  Te32      1.0  0.56839  0.47169  0.83754  1.0000
  Mg  Mg15      1.0  0.41979  0.57145  0.15046  1.0000
  Mg  Mg16      1.0  0.53171  0.40413  0.82251  1.0000
  C  Sn33      1.0  0.64778  0.60913  0.95233  1.0000
  C   C161      1.0  0.61492  0.56273  0.90690  1.0000
  C  Sn34      1.0  0.62979  0.53171  0.89293  1.0000
  C  Sn35      1.0  0.67851  0.54740  0.92513  1.0000
  C   C162      1.0  0.71134  0.59377  0.97055  1.0000
  C  Sn36      1.0  0.69650  0.62481  0.98453  1.0000
  O  Te33      1.0  0.63212  0.63952  0.96555  1.0000
  O  Te34      1.0  0.59628  0.48549  0.84728  1.0000
  O  Te35      1.0  0.69415  0.51696  0.91187  1.0000
  O  Te36      1.0  0.63523  0.64740  0.03018  1.0000
  Mg  Mg17      1.0  0.63501  0.45733  0.84594  1.0000
  Mg  Mg18      1.0  0.59655  0.67558  0.03165  1.0000
  C  Sn37      1.0  0.66954  0.55048  0.30218  1.0000
  C   C163      1.0  0.70627  0.59385  0.37813  1.0000
  C  Sn38      1.0  0.70338  0.61557  0.50444  1.0000
  C  Sn39      1.0  0.66295  0.59347  0.55600  1.0000
  C   C164      1.0  0.62625  0.55013  0.48010  1.0000
  C  Sn40      1.0  0.62911  0.52838  0.35375  1.0000
  O  Te37      1.0  0.67319  0.52941  0.17617  1.0000
  O  Te38      1.0  0.74054  0.65894  0.57846  1.0000
  O  Te39      1.0  0.65933  0.61459  0.68212  1.0000
  O  Te40      1.0  0.59199  0.48504  0.27977  1.0000
  Mg  Mg19      1.0  0.71913  0.67366  0.74495  1.0000
  Mg  Mg20      1.0  0.61337  0.47028  0.11333  1.0000
  C  Sn41      1.0  0.37309  0.91949  0.98084  1.0000
  C   C165      1.0  0.34401  0.87473  0.90398  1.0000
  C  Sn42      1.0  0.36387  0.84970  0.87493  1.0000
  C  Sn43      1.0  0.41384  0.86981  0.92383  1.0000
  C   C166      1.0  0.34814  0.89093  0.00066  1.0000
  C  Sn44      1.0  0.32831  0.91599  0.02973  1.0000
  O  Te41      1.0  0.25772  0.92027  0.00866  1.0000
  O  Te42      1.0  0.33407  0.80502  0.79784  1.0000
  O  Te43      1.0  0.43445  0.84538  0.89594  1.0000
  O  Te44      1.0  0.35808  0.96064  0.10680  1.0000
  Mg  Mg21      1.0  0.37902  0.78563  0.78687  1.0000
  Mg  Mg22      1.0  0.31317  0.98005  0.11791  1.0000
  C  Sn45      1.0  0.01637  0.94905  0.91773  1.0000
  C   C167      1.0  0.97914  0.93118  0.98236  1.0000
  C  Sn46      1.0  0.87738  0.87129  0.08580  1.0000
  C  Sn47      1.0  0.90824  0.85250  0.12558  1.0000
  C   C168      1.0  0.94545  0.87038  0.06100  1.0000
  C  Sn48      1.0  0.04723  0.93026  0.95751  1.0000
  O  Te45      1.0  0.02272  0.98533  0.81458  1.0000
  O  Te46      1.0  0.83990  0.85399  0.14886  1.0000
  O  Te47      1.0  0.90186  0.81619  0.22882  1.0000
  O  Te48      1.0  0.08468  0.94757  0.89450  1.0000
  Mg  Mg23      1.0  0.84580  0.80440  0.28413  1.0000
  Mg  Mg24      1.0  0.07883  0.99717  0.75930  1.0000
  C  Sn49      1.0  0.24689  0.70849  0.08441  1.0000
  C   C169      1.0  0.32240  0.69253  0.97881  1.0000
  C  Sn50      1.0  0.28750  0.68460  0.81904  1.0000
  C  Sn51      1.0  0.27153  0.71690  0.76360  1.0000
  C   C170      1.0  0.29078  0.75644  0.86915  1.0000
  C  Sn52      1.0  0.23092  0.74079  0.02896  1.0000
  O  Te49      1.0  0.28174  0.71572  0.24362  1.0000
  O  Te50      1.0  0.26878  0.64479  0.71576  1.0000
  O  Te51      1.0  0.23666  0.70963  0.60424  1.0000
  O  Te52      1.0  0.24964  0.78058  0.13220  1.0000
  Mg  Mg25      1.0  0.22204  0.65028  0.50957  1.0000
  Mg  Mg26      1.0  0.29640  0.77513  0.33836  1.0000
  C  Sn53      1.0  0.26827  0.52766  0.77066  1.0000
  C   C171      1.0  0.31099  0.53668  0.89962  1.0000
  C  Sn54      1.0  0.23232  0.54050  0.04821  1.0000
  C  Sn55      1.0  0.20511  0.55929  0.06838  1.0000
  C   C172      1.0  0.25717  0.57387  0.93949  1.0000
  C  Sn56      1.0  0.24107  0.54645  0.79083  1.0000
  O  Te53      1.0  0.25288  0.50014  0.62319  1.0000
  O  Te54      1.0  0.27514  0.54905  0.17534  1.0000
  O  Te55      1.0  0.22054  0.58683  0.21600  1.0000
  O  Te56      1.0  0.19826  0.53789  0.66377  1.0000
  Mg  Mg27      1.0  0.28117  0.58859  0.35301  1.0000
  Mg  Mg28      1.0  0.19219  0.49834  0.48609  1.0000
  C  Sn57      1.0  0.00158  0.58240  0.35818  1.0000
  C   C173      1.0  0.98507  0.60786  0.40931  1.0000
  C  Sn58      1.0  0.95778  0.59010  0.51561  1.0000
  C  Sn59      1.0  0.94679  0.54597  0.57210  1.0000
  C   C174      1.0  0.96330  0.52053  0.52100  1.0000
  C  Sn60      1.0  0.99059  0.53827  0.41466  1.0000
  O  Te57      1.0  0.02881  0.60084  0.25187  1.0000
  O  Te58      1.0  0.94166  0.61620  0.56498  1.0000
  O  Te59      1.0  0.91953  0.52754  0.67848  1.0000
  O  Te60      1.0  0.00671  0.51220  0.36533  1.0000
  Mg  Mg29      1.0  0.90578  0.57625  0.71099  1.0000
  Mg  Mg30      1.0  0.04261  0.55212  0.21940  1.0000
  C  Sn61      1.0  0.01981  0.94724  0.41332  1.0000
  C   C175      1.0  0.98276  0.92889  0.47904  1.0000
  C  Sn62      1.0  0.97705  0.89339  0.58585  1.0000
  C  Sn63      1.0  0.00904  0.87588  0.62795  1.0000
  C   C176      1.0  0.04607  0.89422  0.56228  1.0000
  C  Sn64      1.0  0.05180  0.92972  0.45542  1.0000
  O  Te61      1.0  0.02485  0.98272  0.30679  1.0000
  O  Te62      1.0  0.93973  0.87560  0.64995  1.0000
  O  Te63      1.0  0.00397  0.84037  0.73457  1.0000
  O  Te64      1.0  0.08910  0.94752  0.39137  1.0000
  Mg  Mg31      1.0  0.94761  0.82747  0.79008  1.0000
  Mg  Mg32      1.0  0.08127  0.99566  0.25130  1.0000
  C  Sn65      1.0  0.42816  0.34399  0.16727  1.0000
  C   C177      1.0  0.38280  0.31465  0.17379  1.0000
  C  Sn66      1.0  0.34721  0.32681  0.11010  1.0000
  C  Sn67      1.0  0.35714  0.36918  0.03829  1.0000
  C   C178      1.0  0.40247  0.39849  0.03176  1.0000
  C  Sn68      1.0  0.43809  0.38636  0.09545  1.0000
  O  Te65      1.0  0.46320  0.33113  0.23169  1.0000
  O  Te66      1.0  0.30214  0.29691  0.11809  1.0000
  O  Te67      1.0  0.41680  0.40563  0.97384  1.0000
  O  Te68      1.0  0.48313  0.41622  0.08746  1.0000
  Mg  Mg33      1.0  0.26620  0.32971  0.01354  1.0000
  Mg  Mg34      1.0  0.51909  0.38345  0.19188  1.0000
  C  Sn69      1.0  0.64550  0.02718  0.09430  1.0000
  C   C179      1.0  0.62249  0.04931  0.12007  1.0000
  C  Sn70      1.0  0.63996  0.09604  0.10154  1.0000
  C  Sn71      1.0  0.68127  0.12116  0.05619  1.0000
  C   C180      1.0  0.70426  0.09902  0.03041  1.0000
  C  Sn72      1.0  0.68682  0.05230  0.04894  1.0000
  O  Te69      1.0  0.10608  0.98045  0.11351  1.0000
  O  Te70      1.0  0.61634  0.11742  0.12803  1.0000
  O  Te71      1.0  0.69935  0.16792  0.03699  1.0000
  O  Te72      1.0  0.71040  0.03092  0.02245  1.0000
  Mg  Mg35      1.0  0.65469  0.18170  0.08659  1.0000
  Mg  Mg36      1.0  0.15074  0.96664  0.06377  1.0000
