data_image0
_chemical_formula_structural       H6C18N14H6C18N14C2Sn2C2HTe2HMgC2Sn2C2HTe2HMgC2Sn2C2HTe2HMgC2Sn2C2HTe2HMgC2Sn2C2HTe2HMgC2Sn2C2HTe2HMgC2Sn2C2HTe2HMgC2Sn2C2HTe2HMgC2Sn2C2HTe2HMgC2Sn2C2HTe2HMgC2Sn2C2HTe2HMgC2Sn2C2HTe2HMgC2Sn2C2HTe2HMgC2Sn2C2HTe2HMgC2Sn2C2HTe2HMgC2Sn2C2HTe2HMgC2Sn2C2HTe2HMgC2Sn2C2HTe2HMgC2Sn2C2HTe2HMgC2Sn2C2HTe2HMgC2Sn2C2HTe2HMgC2Sn2C2HTe2HMgC2Sn2C2HTe2HMgC2Sn2C2HTe2HMgC2Sn2C2HTe2HMgC2Sn2C2HTe2HMgC2Sn2C2HTe2HMgC2Sn2C2HTe2HMgC2Sn2C2HTe2HMgC2Sn2C2HTe2HMgC2Sn2C2HTe2HMgC2Sn2C2HTe2HMgC2Sn2C2HTe2HMgC2Sn2C2HTe2HMgC2Sn2C2HTe2HMgC2Sn2C2HTe2HMg
_chemical_formula_sum              "H84 C180 N28 Sn72 Te72 Mg36"
_cell_length_a       34.3946
_cell_length_b       33.6603
_cell_length_c       8.36407
_cell_angle_alpha    84.5163
_cell_angle_beta     110.069
_cell_angle_gamma    119.282

_symmetry_space_group_name_H-M    'P1'
_space_group_IT_number       1

loop_
  _space_group_symop_operation_xyz
  'x, y, z'

loop_
  _atom_site_type_symbol
  _atom_site_label
  _atom_site_symmetry_multiplicity
  _atom_site_fract_x
  _atom_site_fract_y
  _atom_site_fract_z
  _atom_site_occupancy
  H   H1        1.0  0.89276  0.89523  0.47652  1.0000
  H   H2        1.0  0.29156  0.09497  0.58766  1.0000
  H   H3        1.0  0.40264  0.98986  0.44199  1.0000
  H   H4        1.0  0.20851  0.58579  0.36599  1.0000
  H   H5        1.0  0.96832  0.46116  0.32046  1.0000
  H   H6        1.0  0.78787  0.65482  0.50985  1.0000
  C   C1        1.0  0.06884  0.73384  0.42869  1.0000
  C   C2        1.0  0.11688  0.76007  0.42374  1.0000
  C   C3        1.0  0.14082  0.80837  0.44976  1.0000
  C   C4        1.0  0.11769  0.83150  0.48378  1.0000
  C   C5        1.0  0.06995  0.80630  0.47767  1.0000
  C   C6        1.0  0.04500  0.75661  0.44853  1.0000
  C   C7        1.0  0.12259  0.89875  0.56080  1.0000
  C   C8        1.0  0.07204  0.87405  0.52950  1.0000
  C   C9        1.0  0.97765  0.68647  0.42560  1.0000
  C   C10       1.0  0.00485  0.66381  0.43533  1.0000
  C   C11       1.0  0.18536  0.76267  0.42227  1.0000
  C   C12       1.0  0.20858  0.81211  0.43556  1.0000
  C   C13       1.0  0.91531  0.93160  0.52419  1.0000
  C   C14       1.0  0.28087  0.11258  0.65387  1.0000
  C   C15       1.0  0.42306  0.97174  0.49414  1.0000
  C   C16       1.0  0.24734  0.60627  0.42412  1.0000
  C   C17       1.0  0.94414  0.44728  0.39423  1.0000
  C   C18       1.0  0.76545  0.62179  0.43216  1.0000
  N   N1        1.0  0.14287  0.87645  0.52929  1.0000
  N   N2        1.0  0.04794  0.82845  0.49631  1.0000
  N   N3        1.0  0.99954  0.73232  0.43957  1.0000
  N   N4        1.0  0.04863  0.68822  0.42744  1.0000
  N   N5        1.0  0.13970  0.73823  0.40997  1.0000
  N   N6        1.0  0.18541  0.83325  0.45009  1.0000
  N   N7        1.0  0.96014  0.95330  0.54810  1.0000
  N   N8        1.0  0.24725  0.09093  0.71802  1.0000
  N   N9        1.0  0.40296  0.92880  0.51702  1.0000
  N   N10       1.0  0.26905  0.64905  0.47666  1.0000
  N   N11       1.0  0.93699  0.47245  0.47632  1.0000
  N   N12       1.0  0.78139  0.60505  0.35258  1.0000
  N   N13       1.0  0.43807  0.44923  0.51863  1.0000
  N   N14       1.0  0.75947  0.11485  0.53721  1.0000
  H   H7        1.0  0.88884  0.89921  0.94110  1.0000
  H   H8        1.0  0.28362  0.09245  0.07636  1.0000
  H   H9        1.0  0.39465  0.98196  0.93512  1.0000
  H   H10       1.0  0.19953  0.58812  0.76639  1.0000
  H   H11       1.0  0.95394  0.46036  0.81672  1.0000
  H   H12       1.0  0.77646  0.66078  0.99694  1.0000
  C   C19       1.0  0.05843  0.73131  0.92738  1.0000
  C   C20       1.0  0.10623  0.75656  0.91933  1.0000
  C   C21       1.0  0.13144  0.80489  0.94861  1.0000
  C   C22       1.0  0.10973  0.82913  0.98580  1.0000
  C   C23       1.0  0.06202  0.80493  0.97941  1.0000
  C   C24       1.0  0.03599  0.75534  0.94932  1.0000
  C   C25       1.0  0.11640  0.89716  0.06388  1.0000
  C   C26       1.0  0.06585  0.87344  0.03194  1.0000
  C   C27       1.0  0.96738  0.68659  0.92514  1.0000
  C   C28       1.0  0.99317  0.66238  0.93542  1.0000
  C   C29       1.0  0.17295  0.75779  0.90637  1.0000
  C   C30       1.0  0.19777  0.80723  0.92670  1.0000
  C   C31       1.0  0.91073  0.93385  0.00708  1.0000
  C   C32       1.0  0.27542  0.11027  0.15259  1.0000
  C   C33       1.0  0.41430  0.96319  0.98935  1.0000
  C   C34       1.0  0.23409  0.60279  0.87039  1.0000
  C   C35       1.0  0.93129  0.44622  0.89638  1.0000
  C   C36       1.0  0.75657  0.62483  0.94440  1.0000
  N   N15       1.0  0.13588  0.87406  0.03204  1.0000
  N   N16       1.0  0.04083  0.82790  0.99798  1.0000
  N   N17       1.0  0.99051  0.73236  0.94026  1.0000
  N   N18       1.0  0.03696  0.68567  0.92618  1.0000
  N   N19       1.0  0.12756  0.73391  0.89776  1.0000
  N   N20       1.0  0.17594  0.82911  0.94759  1.0000
  N   N21       1.0  0.95632  0.95502  0.05166  1.0000
  N   N22       1.0  0.24342  0.08879  0.22414  1.0000
  N   N23       1.0  0.39319  0.92039  0.01277  1.0000
  N   N24       1.0  0.25270  0.64109  0.95887  1.0000
  N   N25       1.0  0.92459  0.47099  0.98230  1.0000
  N   N26       1.0  0.77417  0.60626  0.88212  1.0000
  N   N27       1.0  0.42915  0.44695  0.02365  1.0000
  N   N28       1.0  0.75154  0.11327  0.03791  1.0000
  C   C37       1.0  0.32034  0.84709  0.39056  1.0000
  C   C38       1.0  0.34897  0.89248  0.46102  1.0000
  C  Sn1       1.0  0.33102  0.91348  0.52922  1.0000
  C  Sn2       1.0  0.28351  0.88848  0.52668  1.0000
  C   C39       1.0  0.25516  0.84309  0.45600  1.0000
  C   C40       1.0  0.27348  0.82241  0.38806  1.0000
  H   H13       1.0  0.33452  0.83109  0.33807  1.0000
  O  Te1       1.0  0.36010  0.95885  0.59907  1.0000
  O  Te2       1.0  0.26467  0.90863  0.59402  1.0000
  H   H14       1.0  0.25132  0.78727  0.33361  1.0000
  Mg  Mg1       1.0  0.31825  0.97131  0.67517  1.0000
  C   C41       1.0  0.27331  0.72701  0.57492  1.0000
  C   C42       1.0  0.25160  0.68343  0.49258  1.0000
  C  Sn3       1.0  0.20667  0.66557  0.36685  1.0000
  C  Sn4       1.0  0.18314  0.69192  0.32298  1.0000
  C   C43       1.0  0.20518  0.73551  0.40602  1.0000
  C   C44       1.0  0.25013  0.75304  0.53168  1.0000
  H   H15       1.0  0.30811  0.74059  0.67208  1.0000
  O  Te3       1.0  0.18548  0.62195  0.28590  1.0000
  O  Te4       1.0  0.13823  0.67491  0.19775  1.0000
  H   H16       1.0  0.26695  0.78680  0.59533  1.0000
  Mg  Mg2       1.0  0.12394  0.61367  0.12362  1.0000
  C   C45       1.0  0.00418  0.55926  0.40187  1.0000
  C   C46       1.0  0.97188  0.52713  0.47569  1.0000
  C  Sn5       1.0  0.94640  0.53935  0.54048  1.0000
  C  Sn6       1.0  0.95345  0.58459  0.53096  1.0000
  C   C47       1.0  0.98582  0.61647  0.45675  1.0000
  C   C48       1.0  0.01115  0.60389  0.39237  1.0000
  H   H17       1.0  0.02375  0.54952  0.35196  1.0000
  O  Te5       1.0  0.91428  0.50683  0.61387  1.0000
  O  Te6       1.0  0.92844  0.59771  0.59466  1.0000
  H   H18       1.0  0.03613  0.62876  0.33512  1.0000
  Mg  Mg3       1.0  0.88861  0.54115  0.68292  1.0000
  C   C49       1.0  0.85327  0.60268  0.28463  1.0000
  C   C50       1.0  0.83290  0.62073  0.35357  1.0000
  C  Sn7       1.0  0.86055  0.66396  0.44347  1.0000
  C  Sn8       1.0  0.90948  0.68952  0.46449  1.0000
  C   C51       1.0  0.92951  0.67117  0.39493  1.0000
  C   C52       1.0  0.90152  0.62787  0.30524  1.0000
  H   H19       1.0  0.83161  0.56919  0.21516  1.0000
  O  Te7       1.0  0.83964  0.68148  0.51158  1.0000
  O  Te8       1.0  0.93793  0.73282  0.55371  1.0000
  H   H20       1.0  0.91729  0.61391  0.25178  1.0000
  Mg  Mg4       1.0  0.89311  0.74202  0.62290  1.0000
  C   C53       1.0  0.97709  0.87749  0.59544  1.0000
  C   C54       1.0  0.98129  0.92024  0.55277  1.0000
  C  Sn9       1.0  0.01557  0.95010  0.48234  1.0000
  C  Sn10      1.0  0.04616  0.93681  0.45420  1.0000
  C   C55       1.0  0.04166  0.89395  0.49720  1.0000
  C   C56       1.0  0.00724  0.86435  0.56766  1.0000
  H   H21       1.0  0.95044  0.85457  0.64987  1.0000
  O  Te9       1.0  0.01929  0.99269  0.44050  1.0000
  O  Te10      1.0  0.08073  0.96598  0.38392  1.0000
  H   H22       1.0  0.00398  0.83124  0.60058  1.0000
  Mg  Mg5       1.0  0.59330  0.02049  0.34796  1.0000
  C   C57       1.0  0.21215  0.97730  0.59806  1.0000
  C   C58       1.0  0.16933  0.95154  0.62861  1.0000
  C  Sn11      1.0  0.15179  0.97298  0.69682  1.0000
  C  Sn12      1.0  0.69900  0.02113  0.73498  1.0000
  C   C59       1.0  0.74178  0.04660  0.70384  1.0000
  C   C60       1.0  0.75902  0.02479  0.63560  1.0000
  H   H23       1.0  0.22548  0.96043  0.54517  1.0000
  O  Te11      1.0  0.10896  0.94672  0.72661  1.0000
  O  Te12      1.0  0.68227  0.04344  0.80318  1.0000
  H   H24       1.0  0.79216  0.04475  0.61185  1.0000
  Mg  Mg6       1.0  0.10081  0.99282  0.82113  1.0000
  C   C61       1.0  0.53999  0.98958  0.64258  1.0000
  C   C62       1.0  0.08730  0.02911  0.57303  1.0000
  C  Sn13      1.0  0.06637  0.05485  0.48255  1.0000
  C  Sn14      1.0  0.01856  0.04067  0.46156  1.0000
  C   C63       1.0  0.47155  0.00108  0.53174  1.0000
  C   C64       1.0  0.49283  0.97558  0.62200  1.0000
  H   H25       1.0  0.55646  0.96985  0.71250  1.0000
  O  Te13      1.0  0.09282  0.09424  0.41384  1.0000
  O  Te14      1.0  0.99678  0.06576  0.37177  1.0000
  H   H26       1.0  0.47273  0.94499  0.67593  1.0000
  Mg  Mg7       1.0  0.04747  0.11698  0.30188  1.0000
  C   C65       1.0  0.29128  0.20092  0.71067  1.0000
  C   C66       1.0  0.29953  0.16808  0.66070  1.0000
  C  Sn15      1.0  0.33857  0.18151  0.60970  1.0000
  C  Sn16      1.0  0.36988  0.22871  0.60888  1.0000
  C   C67       1.0  0.36134  0.26129  0.65922  1.0000
  C   C68       1.0  0.32216  0.24748  0.70997  1.0000
  H   H27       1.0  0.26099  0.19024  0.75003  1.0000
  O  Te15      1.0  0.34628  0.14826  0.56010  1.0000
  O  Te16      1.0  0.40918  0.24307  0.55855  1.0000
  H   H28       1.0  0.31580  0.27291  0.74876  1.0000
  Mg  Mg8       1.0  0.40468  0.18484  0.50198  1.0000
  C   C69       1.0  0.68766  0.12720  0.58299  1.0000
  C   C70       1.0  0.71066  0.10416  0.56513  1.0000
  C  Sn17      1.0  0.68606  0.05660  0.53275  1.0000
  C  Sn18      1.0  0.63753  0.03175  0.51799  1.0000
  C   C71       1.0  0.61484  0.05513  0.53595  1.0000
  C   C72       1.0  0.63980  0.10272  0.56839  1.0000
  H   H29       1.0  0.70696  0.16402  0.60800  1.0000
  O  Te17      1.0  0.70958  0.03412  0.51532  1.0000
  O  Te18      1.0  0.09076  0.98421  0.48561  1.0000
  H   H30       1.0  0.62197  0.12055  0.58210  1.0000
  Mg  Mg9       1.0  0.13841  0.96901  0.47194  1.0000
  C   C73       1.0  0.44581  0.36813  0.60312  1.0000
  C   C74       1.0  0.42610  0.39712  0.56242  1.0000
  C  Sn19      1.0  0.38041  0.38202  0.56312  1.0000
  C  Sn20      1.0  0.35407  0.33706  0.60544  1.0000
  C   C75       1.0  0.37412  0.30833  0.64608  1.0000
  C   C76       1.0  0.41985  0.32378  0.64494  1.0000
  H   H31       1.0  0.48121  0.38008  0.60233  1.0000
  O  Te19      1.0  0.36125  0.41142  0.52208  1.0000
  O  Te20      1.0  0.30834  0.32111  0.60718  1.0000
  H   H32       1.0  0.43512  0.30134  0.67656  1.0000
  Mg  Mg10      1.0  0.29758  0.37397  0.54206  1.0000
  C   C77       1.0  0.85995  0.21405  0.49965  1.0000
  C   C78       1.0  0.84406  0.24421  0.41743  1.0000
  C  Sn21      1.0  0.79631  0.23207  0.37117  1.0000
  C  Sn22      1.0  0.76394  0.18892  0.40813  1.0000
  C   C79       1.0  0.78019  0.15901  0.49054  1.0000
  C   C80       1.0  0.82805  0.17150  0.53621  1.0000
  H   H33       1.0  0.89698  0.22372  0.53508  1.0000
  O  Te21      1.0  0.78103  0.26260  0.28904  1.0000
  O  Te22      1.0  0.71603  0.17593  0.36338  1.0000
  H   H34       1.0  0.84034  0.14815  0.59997  1.0000
  Mg  Mg11      1.0  0.71229  0.22931  0.25341  1.0000
  C   C81       1.0  0.75908  0.03851  0.41853  1.0000
  C   C82       1.0  0.77194  0.07443  0.53112  1.0000
  C  Sn23      1.0  0.81218  0.08882  0.67812  1.0000
  C  Sn24      1.0  0.84000  0.06678  0.71267  1.0000
  C   C83       1.0  0.82686  0.03090  0.59917  1.0000
  C   C84       1.0  0.78652  0.01677  0.45248  1.0000
  H   H35       1.0  0.72789  0.02759  0.30498  1.0000
  O  Te23      1.0  0.82450  0.12474  0.78928  1.0000
  O  Te24      1.0  0.88040  0.08048  0.85862  1.0000
  H   H36       1.0  0.25526  0.98898  0.36527  1.0000
  Mg  Mg12      1.0  0.88268  0.13106  0.97141  1.0000
  C   C85       1.0  0.53369  0.46684  0.40013  1.0000
  C   C86       1.0  0.56664  0.51347  0.43339  1.0000
  C  Sn25      1.0  0.55796  0.54317  0.50315  1.0000
  C  Sn26      1.0  0.51547  0.52575  0.54021  1.0000
  C   C87       1.0  0.48275  0.47904  0.50657  1.0000
  C   C88       1.0  0.49178  0.44962  0.43670  1.0000
  H   H37       1.0  0.54069  0.44407  0.34615  1.0000
  O  Te25      1.0  0.59125  0.58967  0.53553  1.0000
  O  Te26      1.0  0.50591  0.55467  0.61003  1.0000
  H   H38       1.0  0.46628  0.41351  0.41106  1.0000
  Mg  Mg13      1.0  0.56218  0.61542  0.63135  1.0000
  C   C89       1.0  0.40952  0.52599  0.64556  1.0000
  C   C90       1.0  0.36766  0.51966  0.51732  1.0000
  C  Sn27      1.0  0.34501  0.48572  0.38275  1.0000
  C  Sn28      1.0  0.36471  0.45764  0.37684  1.0000
  C   C91       1.0  0.40658  0.46422  0.50583  1.0000
  C   C92       1.0  0.42897  0.49829  0.63987  1.0000
  H   H39       1.0  0.42683  0.55233  0.74933  1.0000
  O  Te27      1.0  0.30321  0.47987  0.25564  1.0000
  O  Te28      1.0  0.34279  0.42346  0.24385  1.0000
  H   H40       1.0  0.46137  0.50317  0.73921  1.0000
  Mg  Mg14      1.0  0.28647  0.42871  0.10057  1.0000
  C   C93       1.0  0.33504  0.60426  0.54893  1.0000
  C   C94       1.0  0.28693  0.58916  0.46030  1.0000
  C  Sn29      1.0  0.25699  0.54452  0.38295  1.0000
  C  Sn30      1.0  0.27565  0.51451  0.39481  1.0000
  C   C95       1.0  0.32382  0.52994  0.48388  1.0000
  C   C96       1.0  0.35347  0.57469  0.56075  1.0000
  H   H41       1.0  0.35798  0.63887  0.60849  1.0000
  O  Te29      1.0  0.20902  0.52999  0.29483  1.0000
  O  Te30      1.0  0.24652  0.46971  0.31876  1.0000
  H   H42       1.0  0.39071  0.58636  0.62946  1.0000
  Mg  Mg15      1.0  0.18356  0.46583  0.21262  1.0000
  C   C97       1.0  0.85264  0.34176  0.44570  1.0000
  C   C98       1.0  0.85931  0.30764  0.39663  1.0000
  C  Sn31      1.0  0.89821  0.31934  0.34698  1.0000
  C  Sn32      1.0  0.93098  0.36609  0.34663  1.0000
  C   C99       1.0  0.92400  0.39997  0.39606  1.0000
  C   C100      1.0  0.88495  0.38788  0.44545  1.0000
  H   H43       1.0  0.82244  0.33242  0.48401  1.0000
  O  Te31      1.0  0.90434  0.28482  0.29828  1.0000
  O  Te32      1.0  0.97017  0.37874  0.29766  1.0000
  H   H44       1.0  0.87980  0.41431  0.48354  1.0000
  Mg  Mg16      1.0  0.96323  0.31924  0.24191  1.0000
  C   C101      1.0  0.91896  0.01060  0.64622  1.0000
  C   C102      1.0  0.89931  0.96539  0.58325  1.0000
  C  Sn33      1.0  0.85014  0.93799  0.51262  1.0000
  C  Sn34      1.0  0.82019  0.95629  0.50504  1.0000
  C   C103      1.0  0.84020  0.00157  0.56828  1.0000
  C   C104      1.0  0.41078  0.02868  0.63873  1.0000
  H   H45       1.0  0.47840  0.03159  0.70065  1.0000
  O  Te33      1.0  0.83110  0.89288  0.45035  1.0000
  O  Te34      1.0  0.77094  0.92966  0.43506  1.0000
  H   H46       1.0  0.42599  0.06370  0.68738  1.0000
  Mg  Mg17      1.0  0.76185  0.87014  0.36691  1.0000
  C   C105      1.0  0.66742  0.60521  0.53463  1.0000
  C   C106      1.0  0.62956  0.56279  0.45388  1.0000
  C  Sn35      1.0  0.63611  0.53554  0.36110  1.0000
  C  Sn36      1.0  0.68146  0.55115  0.34920  1.0000
  C   C107      1.0  0.71912  0.59363  0.43055  1.0000
  C   C108      1.0  0.71216  0.62062  0.52302  1.0000
  H   H47       1.0  0.66206  0.62609  0.60626  1.0000
  O  Te35      1.0  0.59790  0.49325  0.28116  1.0000
  O  Te36      1.0  0.68899  0.52461  0.25735  1.0000
  H   H48       1.0  0.74149  0.65346  0.58561  1.0000
  Mg  Mg18      1.0  0.62585  0.46947  0.17070  1.0000
  C   C109      1.0  0.28297  0.89311  0.03627  1.0000
  C   C110      1.0  0.34676  0.87381  0.94477  1.0000
  C  Sn37      1.0  0.36372  0.85247  0.87279  1.0000
  C  Sn38      1.0  0.41259  0.87457  0.89306  1.0000
  C   C111      1.0  0.44328  0.91748  0.98493  1.0000
  C   C112      1.0  0.33118  0.91492  0.05637  1.0000
  H   H49       1.0  0.26955  0.90939  0.09163  1.0000
  O  Te37      1.0  0.33230  0.80961  0.78171  1.0000
  O  Te38      1.0  0.43049  0.85401  0.82251  1.0000
  H   H50       1.0  0.35516  0.94813  0.12731  1.0000
  Mg  Mg19      1.0  0.37365  0.79545  0.70939  1.0000
  C   C113      1.0  0.24598  0.73319  0.05925  1.0000
  C   C114      1.0  0.30223  0.75759  0.93155  1.0000
  C  Sn39      1.0  0.27266  0.72244  0.79977  1.0000
  C  Sn40      1.0  0.28187  0.68586  0.79614  1.0000
  C   C115      1.0  0.32045  0.68536  0.92456  1.0000
  C   C116      1.0  0.25508  0.69711  0.05581  1.0000
  H   H51       1.0  0.26869  0.76053  0.16086  1.0000
  O  Te39      1.0  0.23436  0.72377  0.67316  1.0000
  O  Te40      1.0  0.25287  0.65028  0.66595  1.0000
  H   H52       1.0  0.28486  0.69647  0.15473  1.0000
  Mg  Mg20      1.0  0.20504  0.66739  0.52227  1.0000
  C   C117      1.0  0.00502  0.58399  0.93336  1.0000
  C   C118      1.0  0.98359  0.60872  0.95062  1.0000
  C  Sn41      1.0  0.94301  0.58738  0.99696  1.0000
  C  Sn42      1.0  0.82885  0.51680  0.02653  1.0000
  C   C119      1.0  0.85057  0.49236  0.00905  1.0000
  C   C120      1.0  0.98591  0.53766  0.96257  1.0000
  H   H53       1.0  0.03644  0.60078  0.89749  1.0000
  O  Te41      1.0  0.82730  0.58899  0.01358  1.0000
  O  Te42      1.0  0.78833  0.49462  0.07305  1.0000
  H   H54       1.0  0.00250  0.51851  0.94932  1.0000
  Mg  Mg21      1.0  0.77254  0.54354  0.07947  1.0000
  C   C121      1.0  0.86789  0.61658  0.78466  1.0000
  C   C122      1.0  0.90780  0.65802  0.86467  1.0000
  C  Sn43      1.0  0.90476  0.68636  0.96603  1.0000
  C  Sn44      1.0  0.86091  0.67285  0.98748  1.0000
  C   C123      1.0  0.82120  0.63131  0.90698  1.0000
  C   C124      1.0  0.82463  0.60323  0.80579  1.0000
  H   H55       1.0  0.87055  0.59484  0.70644  1.0000
  O  Te43      1.0  0.85023  0.70405  0.04501  1.0000
  O  Te44      1.0  0.76214  0.67690  0.08813  1.0000
  H   H56       1.0  0.79373  0.57113  0.74395  1.0000
  Mg  Mg22      1.0  0.82693  0.73002  0.16954  1.0000
  C   C125      1.0  0.02860  0.95799  0.96416  1.0000
  C   C126      1.0  0.89350  0.91524  0.01160  1.0000
  C  Sn45      1.0  0.87765  0.87225  0.07493  1.0000
  C  Sn46      1.0  0.90274  0.84805  0.09096  1.0000
  C   C127      1.0  0.94309  0.86751  0.04326  1.0000
  C   C128      1.0  0.05338  0.93415  0.97999  1.0000
  H   H57       1.0  0.04064  0.99129  0.91529  1.0000
  O  Te45      1.0  0.83726  0.85362  0.12168  1.0000
  O  Te46      1.0  0.88768  0.80504  0.15394  1.0000
  H   H58       1.0  0.08464  0.94897  0.94337  1.0000
  Mg  Mg23      1.0  0.83068  0.79397  0.20069  1.0000
  C   C129      1.0  0.70353  0.99949  0.12905  1.0000
  C   C130      1.0  0.22083  0.03429  0.18819  1.0000
  C  Sn47      1.0  0.18102  0.02389  0.22972  1.0000
  C  Sn48      1.0  0.62332  0.97777  0.21163  1.0000
  C   C131      1.0  0.62771  0.94321  0.15247  1.0000
  C   C132      1.0  0.66768  0.95399  0.11123  1.0000
  H   H59       1.0  0.25580  0.00783  0.09722  1.0000
  O  Te47      1.0  0.17754  0.05908  0.28857  1.0000
  O  Te48      1.0  0.58316  0.96642  0.25228  1.0000
  H   H60       1.0  0.67081  0.92704  0.06555  1.0000
  Mg  Mg24      1.0  0.11599  0.02642  0.32743  1.0000
  C   C133      1.0  0.49721  0.04154  0.95706  1.0000
  C   C134      1.0  0.85349  0.97509  0.00485  1.0000
  C  Sn49      1.0  0.87429  0.94909  0.09349  1.0000
  C  Sn50      1.0  0.92370  0.96640  0.13491  1.0000
  C   C135      1.0  0.47238  0.00931  0.08663  1.0000
  C   C136      1.0  0.54595  0.05864  0.99792  1.0000
  H   H61       1.0  0.48083  0.06145  0.88850  1.0000
  O  Te49      1.0  0.84615  0.90634  0.14022  1.0000
  O  Te50      1.0  0.94541  0.94114  0.22348  1.0000
  H   H62       1.0  0.56736  0.09183  0.96103  1.0000
  Mg  Mg25      1.0  0.89209  0.88474  0.25939  1.0000
  C   C137      1.0  0.36268  0.21808  0.09296  1.0000
  C   C138      1.0  0.35138  0.24996  0.13013  1.0000
  C  Sn51      1.0  0.31461  0.23615  0.19463  1.0000
  C  Sn52      1.0  0.28874  0.18954  0.22234  1.0000
  C   C139      1.0  0.30033  0.15792  0.18487  1.0000
  C   C140      1.0  0.33718  0.17211  0.12032  1.0000
  H   H63       1.0  0.39121  0.22905  0.04311  1.0000
  O  Te51      1.0  0.30379  0.26844  0.23101  1.0000
  O  Te52      1.0  0.25183  0.17482  0.28675  1.0000
  H   H64       1.0  0.34594  0.14742  0.09166  1.0000
  Mg  Mg26      1.0  0.25042  0.23170  0.31664  1.0000
  C   C141      1.0  0.65452  0.11170  0.09984  1.0000
  C   C142      1.0  0.61832  0.06618  0.06529  1.0000
  C  Sn53      1.0  0.62697  0.03182  0.03283  1.0000
  C  Sn54      1.0  0.67275  0.04335  0.03514  1.0000
  C   C143      1.0  0.70874  0.08899  0.06996  1.0000
  C   C144      1.0  0.69969  0.12310  0.10221  1.0000
  H   H65       1.0  0.64753  0.13809  0.12488  1.0000
  O  Te53      1.0  0.16381  0.01012  0.99847  1.0000
  O  Te54      1.0  0.68238  0.00969  0.00321  1.0000
  H   H66       1.0  0.72773  0.15834  0.12907  1.0000
  Mg  Mg27      1.0  0.19435  0.97643  0.96279  1.0000
  C   C145      1.0  0.43737  0.36613  0.10252  1.0000
  C   C146      1.0  0.41727  0.39480  0.06358  1.0000
  C  Sn55      1.0  0.37150  0.37913  0.06455  1.0000
  C  Sn56      1.0  0.34546  0.33390  0.10536  1.0000
  C   C147      1.0  0.36589  0.30550  0.14425  1.0000
  C   C148      1.0  0.41171  0.32152  0.14285  1.0000
  H   H67       1.0  0.47283  0.37854  0.10154  1.0000
  O  Te55      1.0  0.35196  0.40822  0.02527  1.0000
  O  Te56      1.0  0.29966  0.31736  0.10733  1.0000
  H   H68       1.0  0.42727  0.29933  0.17312  1.0000
  Mg  Mg28      1.0  0.28833  0.36998  0.04487  1.0000
  C   C149      1.0  0.75563  0.19072  0.00401  1.0000
  C   C150      1.0  0.83369  0.24405  0.92330  1.0000
  C  Sn57      1.0  0.78570  0.23096  0.87724  1.0000
  C  Sn58      1.0  0.75390  0.18728  0.91285  1.0000
  C   C151      1.0  0.77095  0.15781  0.99376  1.0000
  C   C152      1.0  0.72430  0.14764  0.03925  1.0000
  H   H69       1.0  0.79284  0.20112  0.03930  1.0000
  O  Te57      1.0  0.76962  0.26107  0.79662  1.0000
  O  Te58      1.0  0.70576  0.17334  0.86826  1.0000
  H   H70       1.0  0.73721  0.12463  0.10184  1.0000
  Mg  Mg29      1.0  0.70086  0.22647  0.76060  1.0000
  C   C153      1.0  0.75198  0.03963  0.90084  1.0000
  C   C154      1.0  0.66969  0.05026  0.02025  1.0000
  C  Sn59      1.0  0.70953  0.06315  0.16799  1.0000
  C  Sn60      1.0  0.73736  0.04130  0.19634  1.0000
  C   C155      1.0  0.72462  0.00710  0.07604  1.0000
  C   C156      1.0  0.25809  0.01807  0.92867  1.0000
  H   H71       1.0  0.72108  0.02986  0.78676  1.0000
  O  Te59      1.0  0.72146  0.09742  0.28600  1.0000
  O  Te60      1.0  0.77737  0.05353  0.34287  1.0000
  H   H72       1.0  0.24847  0.99158  0.83619  1.0000
  Mg  Mg30      1.0  0.77920  0.10212  0.46616  1.0000
  C   C157      1.0  0.51558  0.53068  0.06988  1.0000
  C   C158      1.0  0.47940  0.48615  0.00598  1.0000
  C  Sn61      1.0  0.58137  0.48188  0.91912  1.0000
  C  Sn62      1.0  0.62568  0.49900  0.89605  1.0000
  C   C159      1.0  0.66166  0.54358  0.96056  1.0000
  C   C160      1.0  0.55930  0.54758  0.04724  1.0000
  H   H73       1.0  0.50970  0.55203  0.13703  1.0000
  O  Te61      1.0  0.54484  0.43748  0.85605  1.0000
  O  Te62      1.0  0.63386  0.47187  0.80978  1.0000
  H   H74       1.0  0.58732  0.58205  0.09679  1.0000
  Mg  Mg31      1.0  0.57309  0.41366  0.74724  1.0000
  C   C161      1.0  0.33118  0.46471  0.83551  1.0000
  C   C162      1.0  0.33669  0.49767  0.94364  1.0000
  C  Sn63      1.0  0.28283  0.49510  0.08731  1.0000
  C  Sn64      1.0  0.31883  0.48286  0.12303  1.0000
  C   C163      1.0  0.31299  0.44987  0.01400  1.0000
  C   C164      1.0  0.36667  0.45263  0.87061  1.0000
  H   H75       1.0  0.29942  0.44860  0.72452  1.0000
  O  Te63      1.0  0.28776  0.52794  0.19403  1.0000
  O  Te64      1.0  0.36006  0.50336  0.26571  1.0000
  H   H76       1.0  0.36244  0.42714  0.78686  1.0000
  Mg  Mg32      1.0  0.35037  0.54623  0.37291  1.0000
  C   C165      1.0  0.25784  0.51655  0.79295  1.0000
  C   C166      1.0  0.30283  0.52780  0.90986  1.0000
  C  Sn65      1.0  0.23134  0.54040  0.03603  1.0000
  C  Sn66      1.0  0.20905  0.56575  0.04503  1.0000
  C   C167      1.0  0.25877  0.57782  0.92755  1.0000
  C   C168      1.0  0.23583  0.54152  0.80178  1.0000
  H   H77       1.0  0.24007  0.48845  0.69569  1.0000
  O  Te65      1.0  0.27628  0.55119  0.15179  1.0000
  O  Te66      1.0  0.23149  0.60210  0.16988  1.0000
  H   H78       1.0  0.20098  0.53280  0.71135  1.0000
  Mg  Mg33      1.0  0.29253  0.60369  0.29878  1.0000
  C   C169      1.0  0.84139  0.34095  0.95584  1.0000
  C   C170      1.0  0.84770  0.30691  0.90377  1.0000
  C  Sn67      1.0  0.88590  0.31872  0.84964  1.0000
  C  Sn68      1.0  0.91833  0.36550  0.84779  1.0000
  C   C171      1.0  0.91172  0.39930  0.90025  1.0000
  C   C172      1.0  0.87337  0.38710  0.95412  1.0000
  H   H79       1.0  0.81173  0.33152  0.99761  1.0000
  O  Te67      1.0  0.89166  0.28428  0.79798  1.0000
  O  Te68      1.0  0.95682  0.37826  0.79435  1.0000
  H   H80       1.0  0.86851  0.41346  0.99453  1.0000
  Mg  Mg34      1.0  0.94962  0.31884  0.73586  1.0000
  C   C173      1.0  0.82538  0.93775  0.93368  1.0000
  C   C174      1.0  0.77883  0.92737  0.00512  1.0000
  C  Sn69      1.0  0.80993  0.96641  0.11975  1.0000
  C  Sn70      1.0  0.79234  0.99261  0.16345  1.0000
  C   C175      1.0  0.74405  0.97907  0.09137  1.0000
  C   C176      1.0  0.80799  0.96356  0.97676  1.0000
  H   H81       1.0  0.80154  0.90747  0.84507  1.0000
  O  Te69      1.0  0.85799  0.97914  0.18990  1.0000
  O  Te70      1.0  0.34397  0.03177  0.27772  1.0000
  H   H82       1.0  0.77067  0.95331  0.92155  1.0000
  Mg  Mg35      1.0  0.40658  0.03522  0.33953  1.0000
  C   C177      1.0  0.58347  0.59858  0.00099  1.0000
  C   C178      1.0  0.70510  0.60550  0.96854  1.0000
  C  Sn71      1.0  0.68433  0.55946  0.91351  1.0000
  C  Sn72      1.0  0.63574  0.52965  0.89060  1.0000
  C   C179      1.0  0.60915  0.54668  0.92328  1.0000
  C   C180      1.0  0.63029  0.59282  0.97836  1.0000
  H   H83       1.0  0.59982  0.63428  0.04351  1.0000
  O  Te71      1.0  0.71170  0.54335  0.88173  1.0000
  O  Te72      1.0  0.61408  0.48348  0.83565  1.0000
  H   H84       1.0  0.51471  0.58212  0.00337  1.0000
  Mg  Mg36      1.0  0.66617  0.47770  0.80900  1.0000
