data_image0
_chemical_formula_structural       H6C18N14H6C18N14C2Sn2C2HTe2HMgC2Sn2C2HTe2HMgC2Sn2C2HTe2HMgC2Sn2C2HTe2HMgC2Sn2C2HTe2HMgC2Sn2C2HTe2HMgC2Sn2C2HTe2HMgC2Sn2C2HTe2HMgC2Sn2C2HTe2HMgC2Sn2C2HTe2HMgC2Sn2C2HTe2HMgC2Sn2C2HTe2HMgC2Sn2C2HTe2HMgC2Sn2C2HTe2HMgC2Sn2C2HTe2HMgC2Sn2C2HTe2HMgC2Sn2C2HTe2HMgC2Sn2C2HTe2HMgC2Sn2C2HTe2HMgC2Sn2C2HTe2HMgC2Sn2C2HTe2HMgC2Sn2C2HTe2HMgC2Sn2C2HTe2HMgC2Sn2C2HTe2HMg
_chemical_formula_sum              "H60 C132 N28 Sn48 Te48 Mg24"
_cell_length_a       26.2395
_cell_length_b       25.8146
_cell_length_c       8.59272
_cell_angle_alpha    89.7165
_cell_angle_beta     91.5358
_cell_angle_gamma    119.9

_symmetry_space_group_name_H-M    'P1'
_space_group_IT_number       1

loop_
  _space_group_symop_operation_xyz
  'x, y, z'

loop_
  _atom_site_type_symbol
  _atom_site_label
  _atom_site_symmetry_multiplicity
  _atom_site_fract_x
  _atom_site_fract_y
  _atom_site_fract_z
  _atom_site_occupancy
  H   H1        1.0  0.66944  0.07089  0.25144  1.0000
  H   H2        1.0  0.14254  0.32550  0.36352  1.0000
  H   H3        1.0  0.27790  0.10433  0.07684  1.0000
  H   H4        1.0  0.11333  0.73209  0.49377  1.0000
  H   H5        1.0  0.68991  0.49243  0.96124  1.0000
  H   H6        1.0  0.48616  0.79222  0.98202  1.0000
  C   C1        1.0  0.85666  0.85417  0.50279  1.0000
  C   C2        1.0  0.91547  0.88090  0.44234  1.0000
  C   C3        1.0  0.95507  0.94323  0.45700  1.0000
  C   C4        1.0  0.93348  0.97775  0.01387  1.0000
  C   C5        1.0  0.87364  0.95111  0.05704  1.0000
  C   C6        1.0  0.83397  0.88714  0.03673  1.0000
  C   C7        1.0  0.94939  0.07033  0.09672  1.0000
  C   C8        1.0  0.88749  0.04407  0.12649  1.0000
  C   C9        1.0  0.74123  0.80350  0.04870  1.0000
  C   C10       1.0  0.76756  0.76608  0.02898  1.0000
  C   C11       1.0  0.98671  0.86752  0.32568  1.0000
  C   C12       1.0  0.02945  0.92959  0.35721  1.0000
  C   C13       1.0  0.69228  0.11992  0.26324  1.0000
  C   C14       1.0  0.13215  0.35031  0.44845  1.0000
  C   C15       1.0  0.30546  0.09175  0.01037  1.0000
  C   C16       1.0  0.09500  0.70713  0.10868  1.0000
  C   C17       1.0  0.66583  0.47905  0.07041  1.0000
  C   C18       1.0  0.46549  0.74353  0.99737  1.0000
  N   N1        1.0  0.97006  0.03638  0.03858  1.0000
  N   N2        1.0  0.85220  0.98487  0.11104  1.0000
  N   N3        1.0  0.77631  0.86272  0.06321  1.0000
  N   N4        1.0  0.82351  0.79454  0.50837  1.0000
  N   N5        1.0  0.93157  0.84526  0.37307  1.0000
  N   N6        1.0  0.01123  0.96567  0.41616  1.0000
  N   N7        1.0  0.74890  0.15198  0.25627  1.0000
  N   N8        1.0  0.09605  0.32074  0.06605  1.0000
  N   N9        1.0  0.28076  0.05063  0.40444  1.0000
  N   N10       1.0  0.04255  0.69092  0.15465  1.0000
  N   N11       1.0  0.66241  0.51687  0.16157  1.0000
  N   N12       1.0  0.49679  0.72028  0.51033  1.0000
  N   N13       1.0  0.22444  0.59873  0.32792  1.0000
  N   N14       1.0  0.54905  0.22812  0.19721  1.0000
  H   H7        1.0  0.66855  0.07404  0.73797  1.0000
  H   H8        1.0  0.14232  0.32219  0.86710  1.0000
  H   H9        1.0  0.27514  0.10535  0.57204  1.0000
  H   H10       1.0  0.12434  0.75187  0.06220  1.0000
  H   H11       1.0  0.69168  0.49675  0.47793  1.0000
  H   H12       1.0  0.48779  0.79674  0.48995  1.0000
  C   C19       1.0  0.85585  0.85111  0.97838  1.0000
  C   C20       1.0  0.91521  0.87875  0.92113  1.0000
  C   C21       1.0  0.95485  0.94067  0.94477  1.0000
  C   C22       1.0  0.93439  0.98125  0.52486  1.0000
  C   C23       1.0  0.87515  0.95513  0.57331  1.0000
  C   C24       1.0  0.83533  0.89091  0.55947  1.0000
  C   C25       1.0  0.95059  0.07503  0.59895  1.0000
  C   C26       1.0  0.88880  0.04917  0.62999  1.0000
  C   C27       1.0  0.74231  0.80797  0.57045  1.0000
  C   C28       1.0  0.76772  0.76974  0.55158  1.0000
  C   C29       1.0  0.98816  0.86695  0.80895  1.0000
  C   C30       1.0  0.03062  0.92800  0.85217  1.0000
  C   C31       1.0  0.69110  0.12305  0.75027  1.0000
  C   C32       1.0  0.12990  0.34605  0.94971  1.0000
  C   C33       1.0  0.30335  0.09312  0.50754  1.0000
  C   C34       1.0  0.09145  0.69801  0.58355  1.0000
  C   C35       1.0  0.66486  0.48226  0.58249  1.0000
  C   C36       1.0  0.46725  0.74775  0.49508  1.0000
  N   N15       1.0  0.97086  0.04027  0.54360  1.0000
  N   N16       1.0  0.85397  0.98971  0.62260  1.0000
  N   N17       1.0  0.77766  0.86707  0.58611  1.0000
  N   N18       1.0  0.82311  0.79142  0.98315  1.0000
  N   N19       1.0  0.93207  0.84437  0.84882  1.0000
  N   N20       1.0  0.01182  0.96345  0.91169  1.0000
  N   N21       1.0  0.74769  0.15560  0.74483  1.0000
  N   N22       1.0  0.09939  0.32569  0.56695  1.0000
  N   N23       1.0  0.28205  0.04803  0.91112  1.0000
  N   N24       1.0  0.04652  0.69149  0.65828  1.0000
  N   N25       1.0  0.65881  0.51907  0.67138  1.0000
  N   N26       1.0  0.49496  0.71623  0.01918  1.0000
  N   N27       1.0  0.22164  0.59517  0.84458  1.0000
  N   N28       1.0  0.54676  0.23027  0.69584  1.0000
  C   C37       1.0  0.17429  0.05349  0.34671  1.0000
  C   C38       1.0  0.21309  0.03186  0.37314  1.0000
  C  Sn1       1.0  0.68237  0.97038  0.37893  1.0000
  C  Sn2       1.0  0.62123  0.92992  0.35777  1.0000
  C   C39       1.0  0.58278  0.95201  0.33128  1.0000
  C   C40       1.0  0.11399  0.01361  0.32577  1.0000
  H   H13       1.0  0.19102  0.10116  0.34235  1.0000
  O  Te1       1.0  0.72174  0.94953  0.40551  1.0000
  O  Te2       1.0  0.59893  0.86825  0.36293  1.0000
  H   H14       1.0  0.08395  0.03035  0.30520  1.0000
  Mg  Mg1       1.0  0.67011  0.86157  0.40246  1.0000
  C   C41       1.0  0.05337  0.80541  0.08637  1.0000
  C   C42       1.0  0.03114  0.74711  0.14034  1.0000
  C  Sn3       1.0  0.98725  0.72430  0.25087  1.0000
  C  Sn4       1.0  0.96528  0.76063  0.30817  1.0000
  C   C43       1.0  0.98778  0.81889  0.25336  1.0000
  C   C44       1.0  0.03171  0.84127  0.14278  1.0000
  H   H15       1.0  0.08733  0.82272  0.00076  1.0000
  O  Te3       1.0  0.96554  0.66596  0.30358  1.0000
  O  Te4       1.0  0.92141  0.73895  0.41862  1.0000
  H   H16       1.0  0.04889  0.88640  0.10095  1.0000
  Mg  Mg2       1.0  0.90588  0.65658  0.45470  1.0000
  C   C45       1.0  0.68004  0.65793  0.17715  1.0000
  C   C46       1.0  0.72983  0.69586  0.09330  1.0000
  C  Sn5       1.0  0.76125  0.67315  0.01835  1.0000
  C  Sn6       1.0  0.74235  0.61129  0.02769  1.0000
  C   C47       1.0  0.69246  0.57371  0.11178  1.0000
  C   C48       1.0  0.66136  0.59691  0.18638  1.0000
  H   H17       1.0  0.65596  0.67587  0.23480  1.0000
  O  Te5       1.0  0.82152  0.71539  0.93511  1.0000
  O  Te6       1.0  0.78352  0.59114  0.95385  1.0000
  H   H18       1.0  0.62278  0.56753  0.25121  1.0000
  Mg  Mg3       1.0  0.84853  0.66166  0.85444  1.0000
  C   C49       1.0  0.61039  0.80830  0.11921  1.0000
  C   C50       1.0  0.56483  0.75861  0.04187  1.0000
  C  Sn7       1.0  0.58681  0.72172  0.96520  1.0000
  C  Sn8       1.0  0.64491  0.73113  0.96621  1.0000
  C   C51       1.0  0.67956  0.77723  0.04400  1.0000
  C   C52       1.0  0.66770  0.81761  0.12031  1.0000
  H   H19       1.0  0.60120  0.83953  0.17832  1.0000
  O  Te7       1.0  0.54079  0.67232  0.88846  1.0000
  O  Te8       1.0  0.65750  0.69123  0.89056  1.0000
  H   H20       1.0  0.70297  0.85606  0.18026  1.0000
  Mg  Mg4       1.0  0.57998  0.63058  0.80209  1.0000
  C   C53       1.0  0.59537  0.71686  0.43391  1.0000
  C   C54       1.0  0.56215  0.73690  0.51121  1.0000
  C  Sn9       1.0  0.58967  0.78610  0.61229  1.0000
  C  Sn10      1.0  0.65161  0.81571  0.63617  1.0000
  C   C55       1.0  0.68446  0.79534  0.55820  1.0000
  C   C56       1.0  0.65647  0.74605  0.45735  1.0000
  H   H21       1.0  0.57373  0.67874  0.35581  1.0000
  O  Te9       1.0  0.55581  0.80552  0.68863  1.0000
  O  Te10      1.0  0.68024  0.86501  0.73651  1.0000
  H   H22       1.0  0.68222  0.73057  0.39744  1.0000
  Mg  Mg5       1.0  0.61503  0.87466  0.81391  1.0000
  C   C57       1.0  0.84397  0.15566  0.11499  1.0000
  C   C58       1.0  0.79399  0.13246  0.20566  1.0000
  C  Sn11      1.0  0.77554  0.07923  0.28662  1.0000
  C  Sn12      1.0  0.80783  0.04877  0.27643  1.0000
  C   C59       1.0  0.85780  0.07236  0.18549  1.0000
  C   C60       1.0  0.87586  0.12565  0.10491  1.0000
  H   H23       1.0  0.85797  0.19690  0.05271  1.0000
  O  Te11      1.0  0.72549  0.05667  0.37664  1.0000
  O  Te12      1.0  0.28080  0.99549  0.35619  1.0000
  H   H24       1.0  0.91458  0.14361  0.03480  1.0000
  Mg  Mg6       1.0  0.20965  0.98259  0.46373  1.0000
  C   C61       1.0  0.00890  0.22318  0.21107  1.0000
  C   C62       1.0  0.06038  0.25408  0.12719  1.0000
  C  Sn13      1.0  0.07901  0.22293  0.03356  1.0000
  C  Sn14      1.0  0.04537  0.15967  0.02394  1.0000
  C   C63       1.0  0.99391  0.12917  0.10823  1.0000
  C   C64       1.0  0.97568  0.16078  0.20160  1.0000
  H   H25       1.0  0.99478  0.24763  0.28325  1.0000
  O  Te13      1.0  0.14117  0.25823  0.95057  1.0000
  O  Te14      1.0  0.07357  0.13115  0.93121  1.0000
  H   H26       1.0  0.93580  0.13684  0.26646  1.0000
  Mg  Mg7       1.0  0.14703  0.19431  0.84015  1.0000
  C   C65       1.0  0.45571  0.13624  0.51352  1.0000
  C   C66       1.0  0.48293  0.18660  0.61089  1.0000
  C  Sn15      1.0  0.44918  0.20577  0.68903  1.0000
  C  Sn16      1.0  0.38705  0.17385  0.66912  1.0000
  C   C67       1.0  0.36025  0.12351  0.57153  1.0000
  C   C68       1.0  0.39444  0.10472  0.49386  1.0000
  H   H27       1.0  0.48216  0.12168  0.45348  1.0000
  O  Te15      1.0  0.47708  0.25618  0.78584  1.0000
  O  Te16      1.0  0.35227  0.19203  0.74587  1.0000
  H   H28       1.0  0.37335  0.06571  0.41855  1.0000
  Mg  Mg8       1.0  0.41073  0.26344  0.86534  1.0000
  C   C69       1.0  0.42673  0.11981  0.97786  1.0000
  C   C70       1.0  0.36688  0.11533  0.03850  1.0000
  C  Sn17      1.0  0.37368  0.15613  0.15473  1.0000
  C  Sn18      1.0  0.43092  0.19843  0.21104  1.0000
  C   C71       1.0  0.47991  0.19885  0.14955  1.0000
  C   C72       1.0  0.47260  0.15781  0.03330  1.0000
  H   H29       1.0  0.42108  0.08808  0.88786  1.0000
  O  Te17      1.0  0.32400  0.15475  0.21406  1.0000
  O  Te18      1.0  0.43898  0.23973  0.32711  1.0000
  H   H30       1.0  0.52134  0.16215  0.98631  1.0000
  Mg  Mg9       1.0  0.35763  0.22012  0.37119  1.0000
  C   C73       1.0  0.20820  0.45645  0.28287  1.0000
  C   C74       1.0  0.16977  0.42092  0.39763  1.0000
  C  Sn19      1.0  0.14350  0.44400  0.49340  1.0000
  C  Sn20      1.0  0.15602  0.50378  0.47361  1.0000
  C   C75       1.0  0.19449  0.53895  0.35839  1.0000
  C   C76       1.0  0.22055  0.51541  0.26323  1.0000
  H   H31       1.0  0.22834  0.43823  0.20918  1.0000
  O  Te19      1.0  0.10523  0.40789  0.60753  1.0000
  O  Te20      1.0  0.13035  0.52796  0.56769  1.0000
  H   H32       1.0  0.25027  0.54292  0.17432  1.0000
  Mg  Mg10      1.0  0.08114  0.46110  0.70702  1.0000
  C   C77       1.0  0.11871  0.45071  0.00938  1.0000
  C   C78       1.0  0.14104  0.41487  0.92845  1.0000
  C  Sn21      1.0  0.18508  0.43629  0.81838  1.0000
  C  Sn22      1.0  0.21793  0.49850  0.78907  1.0000
  C   C79       1.0  0.20589  0.53772  0.87072  1.0000
  C   C80       1.0  0.16171  0.51580  0.98058  1.0000
  H   H33       1.0  0.08455  0.43375  0.09444  1.0000
  O  Te21      1.0  0.19620  0.39614  0.73853  1.0000
  O  Te22      1.0  0.26221  0.52112  0.67972  1.0000
  H   H34       1.0  0.14207  0.54272  0.04329  1.0000
  Mg  Mg11      1.0  0.26096  0.44858  0.60061  1.0000
  C   C81       1.0  0.56306  0.34389  0.24983  1.0000
  C   C82       1.0  0.57087  0.29901  0.18402  1.0000
  C  Sn23      1.0  0.61430  0.31332  0.07468  1.0000
  C  Sn24      1.0  0.65053  0.37371  0.03067  1.0000
  C   C83       1.0  0.64240  0.41829  0.09727  1.0000
  C   C84       1.0  0.59879  0.40347  0.20653  1.0000
  H   H35       1.0  0.52935  0.33244  0.33443  1.0000
  O  Te23      1.0  0.62149  0.26793  0.01003  1.0000
  O  Te24      1.0  0.70488  0.39299  0.92170  1.0000
  H   H36       1.0  0.59279  0.43823  0.25754  1.0000
  Mg  Mg12      1.0  0.69769  0.31521  0.86628  1.0000
  C   C85       1.0  0.57855  0.11015  0.25102  1.0000
  C   C86       1.0  0.63977  0.13703  0.26256  1.0000
  C  Sn25      1.0  0.67464  0.19921  0.27058  1.0000
  C  Sn26      1.0  0.64758  0.23503  0.26701  1.0000
  C   C87       1.0  0.58629  0.20771  0.25556  1.0000
  C   C88       1.0  0.55183  0.14545  0.24755  1.0000
  H   H37       1.0  0.55188  0.06198  0.24490  1.0000
  O  Te25      1.0  0.73575  0.22533  0.28202  1.0000
  O  Te26      1.0  0.68138  0.29728  0.27492  1.0000
  H   H38       1.0  0.50442  0.12465  0.23872  1.0000
  Mg  Mg13      1.0  0.76298  0.31198  0.28952  1.0000
  C   C89       1.0  0.33279  0.61429  0.44392  1.0000
  C   C90       1.0  0.28985  0.62961  0.40652  1.0000
  C  Sn27      1.0  0.30500  0.68961  0.39572  1.0000
  C  Sn28      1.0  0.36428  0.73501  0.42288  1.0000
  C   C91       1.0  0.40692  0.71921  0.46012  1.0000
  C   C92       1.0  0.39127  0.65904  0.47067  1.0000
  H   H39       1.0  0.32069  0.56773  0.45200  1.0000
  O  Te27      1.0  0.26155  0.70414  0.35829  1.0000
  O  Te28      1.0  0.38064  0.79532  0.41280  1.0000
  H   H40       1.0  0.42453  0.64718  0.49953  1.0000
  Mg  Mg14      1.0  0.30556  0.79265  0.35834  1.0000
  C   C93       1.0  0.19720  0.69658  0.10733  1.0000
  C   C94       1.0  0.13701  0.67617  0.11574  1.0000
  C  Sn29      1.0  0.10072  0.62415  0.19724  1.0000
  C  Sn30      1.0  0.12527  0.59208  0.27162  1.0000
  C   C95       1.0  0.18554  0.61289  0.26261  1.0000
  C   C96       1.0  0.22145  0.66499  0.18071  1.0000
  H   H41       1.0  0.22499  0.73690  0.04403  1.0000
  O  Te29      1.0  0.04068  0.60437  0.20444  1.0000
  O  Te30      1.0  0.09001  0.53997  0.35390  1.0000
  H   H42       1.0  0.26805  0.68080  0.17430  1.0000
  Mg  Mg15      1.0  0.01070  0.53093  0.33045  1.0000
  C   C97       1.0  0.17423  0.94205  0.89287  1.0000
  C   C98       1.0  0.21379  0.00300  0.87549  1.0000
  C  Sn31      1.0  0.70269  0.04287  0.84962  1.0000
  C  Sn32      1.0  0.64124  0.02120  0.84109  1.0000
  C   C99       1.0  0.09244  0.96015  0.85873  1.0000
  C   C100      1.0  0.11361  0.92064  0.88452  1.0000
  H   H43       1.0  0.19061  0.91148  0.91291  1.0000
  O  Te31      1.0  0.74282  0.10362  0.83246  1.0000
  O  Te32      1.0  0.61937  0.06008  0.81540  1.0000
  H   H44       1.0  0.08297  0.87346  0.89807  1.0000
  Mg  Mg16      1.0  0.69156  0.13897  0.79932  1.0000
  C   C101      1.0  0.95721  0.74544  0.76879  1.0000
  C   C102      1.0  0.98888  0.80714  0.74567  1.0000
  C  Sn33      1.0  0.04097  0.83264  0.66335  1.0000
  C  Sn34      1.0  0.06161  0.79557  0.60316  1.0000
  C   C103      1.0  0.02958  0.73389  0.62681  1.0000
  C   C104      1.0  0.97752  0.70884  0.70940  1.0000
  H   H45       1.0  0.91691  0.72605  0.83261  1.0000
  O  Te33      1.0  0.07209  0.89437  0.64137  1.0000
  O  Te34      1.0  0.11353  0.81989  0.52040  1.0000
  H   H46       1.0  0.95299  0.66107  0.72719  1.0000
  Mg  Mg17      1.0  0.14043  0.90647  0.52086  1.0000
  C   C105      1.0  0.75132  0.62484  0.53435  1.0000
  C   C106      1.0  0.70322  0.58771  0.62468  1.0000
  C  Sn35      1.0  0.66972  0.60972  0.69133  1.0000
  C  Sn36      1.0  0.68473  0.67003  0.66684  1.0000
  C   C107      1.0  0.73290  0.70680  0.57619  1.0000
  C   C108      1.0  0.76614  0.68432  0.51009  1.0000
  H   H47       1.0  0.77702  0.60744  0.48313  1.0000
  O  Te35      1.0  0.62182  0.57202  0.78131  1.0000
  O  Te36      1.0  0.65198  0.69317  0.73204  1.0000
  H   H48       1.0  0.80336  0.71307  0.44007  1.0000
  Mg  Mg18      1.0  0.59066  0.62426  0.84569  1.0000
  C   C109      1.0  0.79646  0.05153  0.79111  1.0000
  C   C110      1.0  0.84143  0.07017  0.68438  1.0000
  C  Sn37      1.0  0.85919  0.12257  0.60007  1.0000
  C  Sn38      1.0  0.83132  0.15687  0.62333  1.0000
  C   C111      1.0  0.78640  0.13786  0.73046  1.0000
  C   C112      1.0  0.76897  0.08534  0.81417  1.0000
  H   H49       1.0  0.78299  0.01091  0.85595  1.0000
  O  Te37      1.0  0.90418  0.14054  0.49385  1.0000
  O  Te38      1.0  0.84821  0.20943  0.54066  1.0000
  H   H50       1.0  0.73417  0.07094  0.89687  1.0000
  Mg  Mg19      1.0  0.91167  0.21543  0.40891  1.0000
  C   C113      1.0  0.99149  0.19539  0.71947  1.0000
  C   C114      1.0  0.99202  0.14822  0.64186  1.0000
  C  Sn39      1.0  0.03735  0.15947  0.54143  1.0000
  C  Sn40      1.0  0.08295  0.21910  0.51853  1.0000
  C   C115      1.0  0.08204  0.26598  0.59680  1.0000
  C   C116      1.0  0.03646  0.25421  0.69700  1.0000
  H   H51       1.0  0.95624  0.18629  0.79706  1.0000
  O  Te39      1.0  0.03719  0.11183  0.46477  1.0000
  O  Te40      1.0  0.12879  0.23162  0.41885  1.0000
  H   H52       1.0  0.03608  0.29074  0.75714  1.0000
  Mg  Mg20      1.0  0.10919  0.15158  0.34067  1.0000
  C   C117      1.0  0.64919  0.36582  0.52894  1.0000
  C   C118      1.0  0.63881  0.40979  0.58931  1.0000
  C  Sn41      1.0  0.59616  0.39516  0.70120  1.0000
  C  Sn42      1.0  0.56339  0.33538  0.75342  1.0000
  C   C119      1.0  0.57413  0.29173  0.69238  1.0000
  C   C120      1.0  0.61690  0.30685  0.58042  1.0000
  H   H53       1.0  0.68230  0.37752  0.44237  1.0000
  O  Te41      1.0  0.58634  0.43963  0.76026  1.0000
  O  Te42      1.0  0.52052  0.31954  0.86519  1.0000
  H   H54       1.0  0.62495  0.27282  0.53377  1.0000
  Mg  Mg21      1.0  0.52320  0.39599  0.91065  1.0000
  C   C121      1.0  0.67708  0.22602  0.76117  1.0000
  C   C122      1.0  0.66065  0.16575  0.77488  1.0000
  C  Sn43      1.0  0.60146  0.12158  0.76105  1.0000
  C  Sn44      1.0  0.55803  0.13820  0.73294  1.0000
  C   C123      1.0  0.57492  0.19862  0.71930  1.0000
  C   C124      1.0  0.63427  0.24245  0.73338  1.0000
  H   H55       1.0  0.72300  0.25994  0.77197  1.0000
  O  Te43      1.0  0.58580  0.06157  0.77512  1.0000
  O  Te44      1.0  0.49856  0.09497  0.71858  1.0000
  H   H56       1.0  0.64698  0.28912  0.72266  1.0000
  Mg  Mg22      1.0  0.49910  0.01907  0.74671  1.0000
  C   C125      1.0  0.32918  0.61059  0.96697  1.0000
  C   C126      1.0  0.28741  0.62637  0.91942  1.0000
  C  Sn45      1.0  0.30419  0.68625  0.89476  1.0000
  C  Sn46      1.0  0.36392  0.73108  0.91820  1.0000
  C   C127      1.0  0.40537  0.71483  0.96567  1.0000
  C   C128      1.0  0.38810  0.65477  0.99006  1.0000
  H   H57       1.0  0.31583  0.56412  0.98575  1.0000
  O  Te45      1.0  0.26189  0.70124  0.84732  1.0000
  O  Te46      1.0  0.38189  0.79127  0.89435  1.0000
  H   H58       1.0  0.40985  0.63884  0.02678  1.0000
  Mg  Mg23      1.0  0.30794  0.78936  0.82999  1.0000
  C   C129      1.0  0.11316  0.59384  0.80194  1.0000
  C   C130      1.0  0.16935  0.60465  0.76730  1.0000
  C  Sn47      1.0  0.20344  0.64899  0.66132  1.0000
  C  Sn48      1.0  0.18074  0.68307  0.58890  1.0000
  C   C131      1.0  0.12449  0.67193  0.62442  1.0000
  C   C132      1.0  0.09074  0.62744  0.73060  1.0000
  H   H59       1.0  0.08706  0.55944  0.88415  1.0000
  O  Te47      1.0  0.25949  0.65920  0.62800  1.0000
  O  Te48      1.0  0.21388  0.72767  0.48259  1.0000
  H   H60       1.0  0.04725  0.61911  0.75748  1.0000
  Mg  Mg24      1.0  0.28782  0.72485  0.47519  1.0000
