data_image0
_chemical_formula_structural       H23C39N14H37C69N14C2Sn2C2HTe2HMgC2Sn2C2HTe2HMgC2Sn2C2HTe2HMgC2Sn2C2HTe2HMgC2Sn2C2HTe2HMgC2Sn2C2HTe2HMgC2Sn2C2HTe2HMgC2Sn2C2HTe2HMgC2Sn2C2HTe2HMgC2Sn2C2HTe2HMgC2Sn2C2HTe2HMgC2Sn2C2HTe2HMg
_chemical_formula_sum              "H84 C156 N28 Sn24 Te24 Mg12"
_cell_length_a       26.2395
_cell_length_b       25.8146
_cell_length_c       8.59272
_cell_angle_alpha    89.7165
_cell_angle_beta     91.5358
_cell_angle_gamma    119.9

_symmetry_space_group_name_H-M    'P1'
_space_group_IT_number       1

loop_
  _space_group_symop_operation_xyz
  'x, y, z'

loop_
  _atom_site_type_symbol
  _atom_site_label
  _atom_site_symmetry_multiplicity
  _atom_site_fract_x
  _atom_site_fract_y
  _atom_site_fract_z
  _atom_site_occupancy
  H   H1        1.0  0.67280  0.69633  0.20905  1.0000
  H   H2        1.0  0.63123  0.58912  0.26922  1.0000
  H   H3        1.0  0.68634  0.85822  0.16991  1.0000
  H   H4        1.0  0.57862  0.82303  0.16104  1.0000
  H   H5        1.0  0.90003  0.15116  0.01626  1.0000
  H   H6        1.0  0.83780  0.19496  0.07874  1.0000
  H   H7        1.0  0.73835  0.04965  0.38945  1.0000
  H   H8        1.0  0.80034  0.00549  0.32602  1.0000
  H   H9        1.0  0.05526  0.13056  0.46809  1.0000
  H   H10       1.0  0.12384  0.23949  0.44746  1.0000
  H   H11       1.0  0.66944  0.07089  0.25144  1.0000
  H   H12       1.0  0.14254  0.32550  0.36352  1.0000
  H   H13       1.0  0.27790  0.10433  0.07684  1.0000
  H   H14       1.0  0.11333  0.73209  0.49377  1.0000
  H   H15       1.0  0.68991  0.49243  0.96124  1.0000
  H   H16       1.0  0.48616  0.79222  0.98202  1.0000
  H   H17       1.0  0.39461  0.08013  0.40171  1.0000
  H   H18       1.0  0.50028  0.14210  0.48155  1.0000
  H   H19       1.0  0.21609  0.41881  0.24523  1.0000
  H   H20       1.0  0.25411  0.52637  0.19117  1.0000
  H   H21       1.0  0.63166  0.29028  0.49758  1.0000
  H   H22       1.0  0.68495  0.39959  0.45087  1.0000
  H   H23       1.0  0.39925  0.62633  0.04200  1.0000
  C   C1        1.0  0.85666  0.85417  0.50279  1.0000
  C   C2        1.0  0.91547  0.88090  0.44234  1.0000
  C   C3        1.0  0.95507  0.94323  0.45700  1.0000
  C   C4        1.0  0.93348  0.97775  0.01387  1.0000
  C   C5        1.0  0.87364  0.95111  0.05704  1.0000
  C   C6        1.0  0.83397  0.88714  0.03673  1.0000
  C   C7        1.0  0.94939  0.07033  0.09672  1.0000
  C   C8        1.0  0.88749  0.04407  0.12649  1.0000
  C   C9        1.0  0.74123  0.80350  0.04870  1.0000
  C   C10       1.0  0.76756  0.76608  0.02898  1.0000
  C   C11       1.0  0.98671  0.86752  0.32568  1.0000
  C   C12       1.0  0.02945  0.92959  0.35721  1.0000
  C   C13       1.0  0.85508  0.07527  0.16834  1.0000
  C   C14       1.0  0.67758  0.78230  0.04413  1.0000
  C   C15       1.0  0.74023  0.70153  0.06200  1.0000
  C   C16       1.0  0.69214  0.67182  0.15977  1.0000
  C   C17       1.0  0.66826  0.61156  0.19261  1.0000
  C   C18       1.0  0.69100  0.57793  0.12571  1.0000
  C   C19       1.0  0.74053  0.60781  0.03132  1.0000
  C   C20       1.0  0.76464  0.66831  0.00056  1.0000
  C   C21       1.0  0.65542  0.81669  0.11048  1.0000
  C   C22       1.0  0.59541  0.79744  0.10293  1.0000
  C   C23       1.0  0.86523  0.12904  0.09934  1.0000
  C   C24       1.0  0.83050  0.15388  0.13385  1.0000
  C   C25       1.0  0.78271  0.12461  0.23375  1.0000
  C   C26       1.0  0.77254  0.07093  0.30404  1.0000
  C   C27       1.0  0.80810  0.04675  0.27088  1.0000
  C   C28       1.0  0.69228  0.11992  0.26324  1.0000
  C   C29       1.0  0.13215  0.35031  0.44845  1.0000
  C   C30       1.0  0.30546  0.09175  0.01037  1.0000
  C   C31       1.0  0.09500  0.70713  0.10868  1.0000
  C   C32       1.0  0.66583  0.47905  0.07041  1.0000
  C   C33       1.0  0.46549  0.74353  0.99737  1.0000
  C   C34       1.0  0.15529  0.41376  0.41793  1.0000
  C   C35       1.0  0.40850  0.11538  0.48901  1.0000
  C   C36       1.0  0.19936  0.44337  0.30848  1.0000
  C   C37       1.0  0.22080  0.50359  0.27762  1.0000
  C   C38       1.0  0.19957  0.53578  0.35773  1.0000
  C   C39       1.0  0.15642  0.50691  0.46910  1.0000
  N   N1        1.0  0.97006  0.03638  0.03858  1.0000
  N   N2        1.0  0.85220  0.98487  0.11104  1.0000
  N   N3        1.0  0.77631  0.86272  0.06321  1.0000
  N   N4        1.0  0.82351  0.79454  0.50837  1.0000
  N   N5        1.0  0.93157  0.84526  0.37307  1.0000
  N   N6        1.0  0.01123  0.96567  0.41616  1.0000
  N   N7        1.0  0.74890  0.15198  0.25627  1.0000
  N   N8        1.0  0.09605  0.32074  0.06605  1.0000
  N   N9        1.0  0.28076  0.05063  0.40444  1.0000
  N   N10       1.0  0.04255  0.69092  0.15465  1.0000
  N   N11       1.0  0.66241  0.51687  0.16157  1.0000
  N   N12       1.0  0.49679  0.72028  0.51033  1.0000
  N   N13       1.0  0.22444  0.59873  0.32792  1.0000
  N   N14       1.0  0.54905  0.22812  0.19721  1.0000
  H   H24       1.0  0.10392  0.87809  0.88259  1.0000
  H   H25       1.0  0.21178  0.93217  0.91077  1.0000
  H   H26       1.0  0.21466  0.09871  0.84675  1.0000
  H   H27       1.0  0.10526  0.04379  0.82034  1.0000
  H   H28       1.0  0.92311  0.75042  0.83816  1.0000
  H   H29       1.0  0.94909  0.67245  0.76941  1.0000
  H   H30       1.0  0.10243  0.80656  0.53969  1.0000
  H   H31       1.0  0.07622  0.88233  0.60646  1.0000
  H   H32       1.0  0.76012  0.58350  0.98075  1.0000
  H   H33       1.0  0.80254  0.69112  0.92697  1.0000
  H   H34       1.0  0.54706  0.66730  0.90203  1.0000
  H   H35       1.0  0.65364  0.70127  0.91650  1.0000
  H   H36       1.0  0.90037  0.15598  0.51204  1.0000
  H   H37       1.0  0.83726  0.19882  0.57014  1.0000
  H   H38       1.0  0.73697  0.05365  0.87961  1.0000
  H   H39       1.0  0.80044  0.01078  0.82335  1.0000
  H   H40       1.0  0.01700  0.27275  0.75668  1.0000
  H   H41       1.0  0.95027  0.16386  0.78326  1.0000
  H   H42       1.0  0.66855  0.07404  0.73797  1.0000
  H   H43       1.0  0.14232  0.32219  0.86710  1.0000
  H   H44       1.0  0.27514  0.10535  0.57204  1.0000
  H   H45       1.0  0.12434  0.75187  0.06220  1.0000
  H   H46       1.0  0.69168  0.49675  0.47793  1.0000
  H   H47       1.0  0.48779  0.79674  0.48995  1.0000
  H   H48       1.0  0.45543  0.24032  0.80051  1.0000
  H   H49       1.0  0.35233  0.18206  0.71296  1.0000
  H   H50       1.0  0.14202  0.53230  0.53750  1.0000
  H   H51       1.0  0.10036  0.42352  0.58304  1.0000
  H   H52       1.0  0.57617  0.42116  0.77935  1.0000
  H   H53       1.0  0.52721  0.31310  0.83812  1.0000
  H   H54       1.0  0.29493  0.56149  0.97062  1.0000
  H   H55       1.0  0.38754  0.78067  0.91109  1.0000
  H   H56       1.0  0.28328  0.71710  0.84197  1.0000
  H   H57       1.0  0.25551  0.67686  0.61877  1.0000
  H   H58       1.0  0.19791  0.71904  0.49933  1.0000
  H   H59       1.0  0.04941  0.60041  0.76930  1.0000
  H   H60       1.0  0.10566  0.55682  0.88496  1.0000
  C   C40       1.0  0.85585  0.85111  0.97838  1.0000
  C   C41       1.0  0.91521  0.87875  0.92113  1.0000
  C   C42       1.0  0.95485  0.94067  0.94477  1.0000
  C   C43       1.0  0.93439  0.98125  0.52486  1.0000
  C   C44       1.0  0.87515  0.95513  0.57331  1.0000
  C   C45       1.0  0.83533  0.89091  0.55947  1.0000
  C   C46       1.0  0.95059  0.07503  0.59895  1.0000
  C   C47       1.0  0.88880  0.04917  0.62999  1.0000
  C   C48       1.0  0.74231  0.80797  0.57045  1.0000
  C   C49       1.0  0.76772  0.76974  0.55158  1.0000
  C   C50       1.0  0.98816  0.86695  0.80895  1.0000
  C   C51       1.0  0.03062  0.92800  0.85217  1.0000
  C   C52       1.0  0.85572  0.08029  0.66582  1.0000
  C   C53       1.0  0.99491  0.13930  0.61524  1.0000
  C   C54       1.0  0.09591  0.95696  0.85012  1.0000
  C   C55       1.0  0.99962  0.82234  0.73515  1.0000
  C   C56       1.0  0.12737  0.92635  0.87419  1.0000
  C   C57       1.0  0.18837  0.95651  0.88958  1.0000
  C   C58       1.0  0.22078  0.01929  0.88586  1.0000
  C   C59       1.0  0.19001  0.05028  0.85659  1.0000
  C   C60       1.0  0.12898  0.01968  0.83923  1.0000
  C   C61       1.0  0.96168  0.76165  0.77066  1.0000
  C   C62       1.0  0.97584  0.71841  0.73168  1.0000
  C   C63       1.0  0.02845  0.73395  0.65564  1.0000
  C   C64       1.0  0.06265  0.79335  0.60384  1.0000
  C   C65       1.0  0.04816  0.83650  0.64267  1.0000
  C   C66       1.0  0.55577  0.74295  0.02794  1.0000
  C   C67       1.0  0.57814  0.70896  0.96051  1.0000
  C   C68       1.0  0.63764  0.72852  0.96768  1.0000
  C   C69       1.0  0.86553  0.13367  0.59482  1.0000
  C   C70       1.0  0.83022  0.15809  0.62662  1.0000
  C   C71       1.0  0.78200  0.12873  0.72482  1.0000
  C   C72       1.0  0.77186  0.07531  0.79631  1.0000
  C   C73       1.0  0.80818  0.05175  0.76674  1.0000
  C   C74       1.0  0.04720  0.16221  0.53063  1.0000
  C   C75       1.0  0.08534  0.22330  0.51914  1.0000
  C   C76       1.0  0.07184  0.26394  0.59086  1.0000
  C   C77       1.0  0.02439  0.24103  0.69239  1.0000
  C   C78       1.0  0.98692  0.17991  0.70557  1.0000
  C   C79       1.0  0.69110  0.12305  0.75027  1.0000
  C   C80       1.0  0.12990  0.34605  0.94971  1.0000
  C   C81       1.0  0.30335  0.09312  0.50754  1.0000
  C   C82       1.0  0.09145  0.69801  0.58355  1.0000
  C   C83       1.0  0.66486  0.48226  0.58249  1.0000
  C   C84       1.0  0.46725  0.74775  0.49508  1.0000
  C   C85       1.0  0.36584  0.12676  0.55101  1.0000
  C   C86       1.0  0.46744  0.14976  0.53472  1.0000
  C   C87       1.0  0.48585  0.19561  0.64738  1.0000
  C   C88       1.0  0.44345  0.20710  0.70923  1.0000
  C   C89       1.0  0.38473  0.17346  0.66054  1.0000
  C   C90       1.0  0.13370  0.44627  0.49643  1.0000
  C   C91       1.0  0.18650  0.61600  0.76771  1.0000
  C   C92       1.0  0.28093  0.63334  0.89005  1.0000
  C   C93       1.0  0.57551  0.29384  0.66939  1.0000
  C   C94       1.0  0.62059  0.31938  0.56153  1.0000
  C   C95       1.0  0.65020  0.38064  0.53548  1.0000
  C   C96       1.0  0.63429  0.41811  0.61329  1.0000
  C   C97       1.0  0.58812  0.39207  0.71848  1.0000
  C   C98       1.0  0.55979  0.33110  0.74843  1.0000
  C   C99       1.0  0.31472  0.60933  0.95561  1.0000
  C   C100      1.0  0.37332  0.64563  0.99699  1.0000
  C   C101      1.0  0.40184  0.70797  0.97694  1.0000
  C   C102      1.0  0.36743  0.73244  0.92342  1.0000
  C   C103      1.0  0.30834  0.69629  0.88142  1.0000
  C   C104      1.0  0.21065  0.66042  0.65362  1.0000
  C   C105      1.0  0.17793  0.68386  0.58552  1.0000
  C   C106      1.0  0.11991  0.66405  0.62961  1.0000
  C   C107      1.0  0.09439  0.61640  0.73486  1.0000
  C   C108      1.0  0.12670  0.59246  0.80169  1.0000
  N   N15       1.0  0.97086  0.04027  0.54360  1.0000
  N   N16       1.0  0.85397  0.98971  0.62260  1.0000
  N   N17       1.0  0.77766  0.86707  0.58611  1.0000
  N   N18       1.0  0.82311  0.79142  0.98315  1.0000
  N   N19       1.0  0.93207  0.84437  0.84882  1.0000
  N   N20       1.0  0.01182  0.96345  0.91169  1.0000
  N   N21       1.0  0.74769  0.15560  0.74483  1.0000
  N   N22       1.0  0.09939  0.32569  0.56695  1.0000
  N   N23       1.0  0.28205  0.04803  0.91112  1.0000
  N   N24       1.0  0.04652  0.69149  0.65828  1.0000
  N   N25       1.0  0.65881  0.51907  0.67138  1.0000
  N   N26       1.0  0.49496  0.71623  0.01918  1.0000
  N   N27       1.0  0.22164  0.59517  0.84458  1.0000
  N   N28       1.0  0.54676  0.23027  0.69584  1.0000
  C   C109      1.0  0.42673  0.11981  0.97786  1.0000
  C   C110      1.0  0.36688  0.11533  0.03850  1.0000
  C  Sn1       1.0  0.37368  0.15613  0.15473  1.0000
  C  Sn2       1.0  0.43092  0.19843  0.21104  1.0000
  C   C111      1.0  0.47991  0.19885  0.14955  1.0000
  C   C112      1.0  0.47260  0.15781  0.03330  1.0000
  H   H61       1.0  0.42108  0.08808  0.88786  1.0000
  O  Te1       1.0  0.32400  0.15475  0.21406  1.0000
  O  Te2       1.0  0.43898  0.23973  0.32711  1.0000
  H   H62       1.0  0.52134  0.16215  0.98631  1.0000
  Mg  Mg1       1.0  0.35763  0.22012  0.37119  1.0000
  C   C113      1.0  0.56306  0.34389  0.24983  1.0000
  C   C114      1.0  0.57087  0.29901  0.18402  1.0000
  C  Sn3       1.0  0.61430  0.31332  0.07468  1.0000
  C  Sn4       1.0  0.65053  0.37371  0.03067  1.0000
  C   C115      1.0  0.64240  0.41829  0.09727  1.0000
  C   C116      1.0  0.59879  0.40347  0.20653  1.0000
  H   H63       1.0  0.52935  0.33244  0.33443  1.0000
  O  Te3       1.0  0.62149  0.26793  0.01003  1.0000
  O  Te4       1.0  0.70488  0.39299  0.92170  1.0000
  H   H64       1.0  0.59279  0.43823  0.25754  1.0000
  Mg  Mg2       1.0  0.69769  0.31521  0.86628  1.0000
  C   C117      1.0  0.11368  0.59115  0.27169  1.0000
  C   C118      1.0  0.17193  0.60700  0.24462  1.0000
  C  Sn5       1.0  0.20801  0.65851  0.16106  1.0000
  C  Sn6       1.0  0.18522  0.69475  0.10371  1.0000
  C   C119      1.0  0.12689  0.67854  0.13150  1.0000
  C   C120      1.0  0.09117  0.62689  0.21521  1.0000
  H   H65       1.0  0.08604  0.55121  0.33653  1.0000
  O  Te5       1.0  0.26611  0.67367  0.13502  1.0000
  O  Te6       1.0  0.22032  0.74649  0.01989  1.0000
  H   H66       1.0  0.04608  0.61465  0.23624  1.0000
  Mg  Mg3       1.0  0.29665  0.74843  0.01442  1.0000
  C   C121      1.0  0.57718  0.11292  0.74622  1.0000
  C   C122      1.0  0.63845  0.13973  0.75039  1.0000
  C  Sn7       1.0  0.67347  0.20193  0.75457  1.0000
  C  Sn8       1.0  0.64652  0.23785  0.75463  1.0000
  C   C123      1.0  0.58519  0.21059  0.75056  1.0000
  C   C124      1.0  0.55056  0.14831  0.74634  1.0000
  H   H67       1.0  0.55039  0.06473  0.74304  1.0000
  O  Te7       1.0  0.73462  0.22799  0.75864  1.0000
  O  Te8       1.0  0.68047  0.30012  0.75883  1.0000
  H   H68       1.0  0.50313  0.12756  0.74322  1.0000
  Mg  Mg4       1.0  0.76208  0.31471  0.76343  1.0000
  C   C125      1.0  0.65910  0.23710  0.27460  1.0000
  C   C126      1.0  0.59917  0.21062  0.23596  1.0000
  C  Sn9       1.0  0.56447  0.14848  0.22458  1.0000
  C  Sn10      1.0  0.59036  0.11231  0.25251  1.0000
  C   C127      1.0  0.65035  0.13923  0.29120  1.0000
  C   C128      1.0  0.68467  0.20144  0.30222  1.0000
  H   H69       1.0  0.68566  0.28523  0.28321  1.0000
  O  Te9       1.0  0.50467  0.12276  0.18580  1.0000
  O  Te10      1.0  0.55669  0.05010  0.24198  1.0000
  H   H70       1.0  0.73107  0.22193  0.33224  1.0000
  Mg  Mg5       1.0  0.47709  0.03601  0.18558  1.0000
  C   C129      1.0  0.99054  0.18991  0.22339  1.0000
  C   C130      1.0  0.99098  0.14310  0.14365  1.0000
  C  Sn11      1.0  0.03527  0.15496  0.03897  1.0000
  C  Sn12      1.0  0.07990  0.21485  0.01394  1.0000
  C   C131      1.0  0.07910  0.26137  0.09438  1.0000
  C   C132      1.0  0.03456  0.24900  0.19882  1.0000
  H   H71       1.0  0.95610  0.18034  0.30427  1.0000
  O  Te11      1.0  0.04564  0.11138  0.96022  1.0000
  O  Te12      1.0  0.13531  0.23170  0.91003  1.0000
  H   H72       1.0  0.03425  0.28525  0.26062  1.0000
  Mg  Mg6       1.0  0.11602  0.15194  0.83035  1.0000
  C   C133      1.0  0.04808  0.82966  0.11727  1.0000
  C   C134      1.0  0.00499  0.82469  0.21813  1.0000
  C  Sn13      1.0  0.96993  0.77103  0.29476  1.0000
  C  Sn14      1.0  0.97828  0.72150  0.26975  1.0000
  C   C135      1.0  0.02154  0.72694  0.16870  1.0000
  C   C136      1.0  0.05636  0.78085  0.09258  1.0000
  H   H73       1.0  0.07505  0.87138  0.05843  1.0000
  O  Te13      1.0  0.92706  0.76682  0.39510  1.0000
  O  Te14      1.0  0.94387  0.66735  0.34489  1.0000
  H   H74       1.0  0.08975  0.78469  0.01457  1.0000
  Mg  Mg7       1.0  0.89114  0.68361  0.47058  1.0000
  C   C137      1.0  0.20710  0.45396  0.79146  1.0000
  C   C138      1.0  0.16693  0.41677  0.90094  1.0000
  C  Sn15      1.0  0.13880  0.43829  0.99503  1.0000
  C  Sn16      1.0  0.15120  0.49817  0.97891  1.0000
  C   C139      1.0  0.19142  0.53500  0.86896  1.0000
  C   C140      1.0  0.21933  0.51302  0.77544  1.0000
  H   H75       1.0  0.22867  0.43695  0.71904  1.0000
  O  Te15      1.0  0.08821  0.39681  0.10386  1.0000
  O  Te16      1.0  0.11309  0.51709  0.07141  1.0000
  H   H76       1.0  0.25040  0.54181  0.69062  1.0000
  Mg  Mg8       1.0  0.06196  0.44830  0.20311  1.0000
  C   C141      1.0  0.17393  0.94500  0.37068  1.0000
  C   C142      1.0  0.72237  0.00640  0.35984  1.0000
  C  Sn17      1.0  0.70083  0.04602  0.34549  1.0000
  C  Sn18      1.0  0.63924  0.02363  0.34200  1.0000
  C   C143      1.0  0.09115  0.96213  0.35304  1.0000
  C   C144      1.0  0.11318  0.92288  0.36731  1.0000
  H   H77       1.0  0.19097  0.91463  0.38182  1.0000
  O  Te17      1.0  0.74026  0.10724  0.33473  1.0000
  O  Te18      1.0  0.61652  0.06223  0.32781  1.0000
  H   H78       1.0  0.08309  0.87534  0.37581  1.0000
  Mg  Mg9       1.0  0.68797  0.14197  0.31692  1.0000
  C   C145      1.0  0.64165  0.81964  0.64524  1.0000
  C   C146      1.0  0.67355  0.79475  0.58406  1.0000
  C  Sn19      1.0  0.64589  0.74503  0.48469  1.0000
  C  Sn20      1.0  0.58516  0.71987  0.44603  1.0000
  C   C147      1.0  0.55364  0.74513  0.50776  1.0000
  C   C148      1.0  0.58175  0.79487  0.60713  1.0000
  H   H79       1.0  0.66340  0.85814  0.72205  1.0000
  O  Te19      1.0  0.67841  0.72071  0.42464  1.0000
  O  Te20      1.0  0.55642  0.67020  0.34695  1.0000
  H   H80       1.0  0.55705  0.81415  0.65440  1.0000
  Mg  Mg10      1.0  0.61958  0.65302  0.29457  1.0000
  C   C149      1.0  0.35428  0.73497  0.41108  1.0000
  C   C150      1.0  0.39501  0.71962  0.47072  1.0000
  C  Sn21      1.0  0.37960  0.65962  0.48406  1.0000
  C  Sn22      1.0  0.32233  0.61425  0.43669  1.0000
  C   C151      1.0  0.28191  0.63007  0.37707  1.0000
  C   C152      1.0  0.29778  0.69025  0.36427  1.0000
  H   H81       1.0  0.36656  0.78153  0.40109  1.0000
  O  Te21      1.0  0.42083  0.64507  0.54394  1.0000
  O  Te22      1.0  0.30578  0.55393  0.44870  1.0000
  H   H82       1.0  0.26625  0.70212  0.31800  1.0000
  Mg  Mg11      1.0  0.37745  0.55657  0.53758  1.0000
  C   C153      1.0  0.66267  0.62750  0.70474  1.0000
  C   C154      1.0  0.68003  0.58763  0.65229  1.0000
  C  Sn23      1.0  0.73052  0.60817  0.56471  1.0000
  C  Sn24      1.0  0.76418  0.66981  0.52920  1.0000
  C   C155      1.0  0.74647  0.70934  0.58231  1.0000
  C   C156      1.0  0.69586  0.68830  0.66982  1.0000
  H   H83       1.0  0.62353  0.61123  0.77252  1.0000
  O  Te23      1.0  0.74723  0.56773  0.51317  1.0000
  O  Te24      1.0  0.81485  0.69154  0.44192  1.0000
  H   H84       1.0  0.68245  0.71919  0.71050  1.0000
  Mg  Mg12      1.0  0.81966  0.61891  0.39792  1.0000
