data_image0
_chemical_formula_structural       C6OCOC3N2C10OCOC3N2C10OCOC3N2C6NCNC6OH52C6OCOC3N2C10OCOC3N2C10OCOC3N2C6NCNC6OH52SnCSn2CSnTe4Mg2SnCSn2CSnTe4Mg2SnCSn2CSnTe4Mg2SnCSn2CSnTe4Mg2SnCSn2CSnTe4Mg2SnCSn2CSnTe4Mg2SnCSn2CSnTe4Mg2SnCSn2CSnTe4Mg2SnCSn2CSnTe4Mg2SnCSn2CSnTe4Mg2SnCSn2CSnTe4Mg2SnCSn2CSnTe4Mg2
_chemical_formula_sum              "C126 O14 N16 H104 Sn48 Te48 Mg24"
_cell_length_a       36.9176
_cell_length_b       36.5748
_cell_length_c       8.47881
_cell_angle_alpha    66.6546
_cell_angle_beta     115.138
_cell_angle_gamma    118.136

_symmetry_space_group_name_H-M    'P1'
_space_group_IT_number       1

loop_
  _space_group_symop_operation_xyz
  'x, y, z'

loop_
  _atom_site_type_symbol
  _atom_site_label
  _atom_site_symmetry_multiplicity
  _atom_site_fract_x
  _atom_site_fract_y
  _atom_site_fract_z
  _atom_site_occupancy
  C   C1        1.0  0.49165  0.50984  0.09783  1.0000
  C   C2        1.0  0.47783  0.46516  0.12141  1.0000
  C   C3        1.0  0.50263  0.44883  0.10245  1.0000
  C   C4        1.0  0.54229  0.47561  0.06748  1.0000
  C   C5        1.0  0.55756  0.51991  0.05789  1.0000
  C   C6        1.0  0.53206  0.53640  0.06962  1.0000
  O   O1        1.0  0.59794  0.54450  0.03565  1.0000
  C   C7        1.0  0.61555  0.58749  0.05253  1.0000
  O   O2        1.0  0.43920  0.44050  0.15860  1.0000
  C   C8        1.0  0.42991  0.39522  0.22763  1.0000
  C   C9        1.0  0.56755  0.45879  0.04215  1.0000
  C   C10       1.0  0.46393  0.52860  0.09231  1.0000
  N   N1        1.0  0.47620  0.56971  0.06163  1.0000
  N   N2        1.0  0.55627  0.41823  0.06137  1.0000
  C   C11       1.0  0.66256  0.35085  0.01256  1.0000
  C   C12       1.0  0.36690  0.65237  0.95915  1.0000
  C   C13       1.0  0.70543  0.37538  0.01282  1.0000
  C   C14       1.0  0.31346  0.69359  0.90393  1.0000
  C   C15       1.0  0.48401  0.96431  0.92111  1.0000
  C   C16       1.0  0.52701  0.99016  0.91674  1.0000
  C   C17       1.0  0.54482  0.03175  0.93494  1.0000
  C   C18       1.0  0.52145  0.04920  0.96021  1.0000
  C   C19       1.0  0.47794  0.02403  0.95803  1.0000
  C   C20       1.0  0.46013  0.98223  0.93999  1.0000
  O   O3        1.0  0.45612  0.04302  0.97650  1.0000
  C   C21       1.0  0.41204  0.01816  0.97341  1.0000
  O   O4        1.0  0.54913  0.97145  0.89723  1.0000
  C   C22       1.0  0.59082  0.99875  0.87502  1.0000
  C   C23       1.0  0.54261  0.09188  0.99131  1.0000
  C   C24       1.0  0.46605  0.92006  0.91069  1.0000
  N   N3        1.0  0.42616  0.89603  0.90221  1.0000
  N   N4        1.0  0.58378  0.11165  0.01603  1.0000
  C   C25       1.0  0.67252  0.29038  0.99424  1.0000
  C   C26       1.0  0.35723  0.71776  0.91840  1.0000
  C   C27       1.0  0.64748  0.30861  0.00324  1.0000
  C   C28       1.0  0.32331  0.62922  0.94833  1.0000
  C   C29       1.0  0.05110  0.53795  0.90920  1.0000
  C   C30       1.0  0.02327  0.55609  0.89877  1.0000
  C   C31       1.0  0.98283  0.52997  0.92132  1.0000
  C   C32       1.0  0.96879  0.48523  0.95723  1.0000
  C   C33       1.0  0.99721  0.46711  0.97672  1.0000
  C   C34       1.0  0.03718  0.49316  0.94928  1.0000
  O   O5        1.0  0.98576  0.42282  0.03239  1.0000
  C   C35       1.0  0.96921  0.40264  0.88799  1.0000
  O   O6        1.0  0.03877  0.59995  0.86733  1.0000
  C   C36       1.0  0.01433  0.61751  0.89034  1.0000
  C   C37       1.0  0.92556  0.45837  0.97287  1.0000
  C   C38       1.0  0.09367  0.56501  0.88784  1.0000
  N   N5        1.0  0.12045  0.54884  0.90835  1.0000
  N   N6        1.0  0.89708  0.47484  0.92503  1.0000
  C   C39       1.0  0.73136  0.35888  0.00218  1.0000
  C   C40       1.0  0.29598  0.64922  0.92134  1.0000
  C   C41       1.0  0.71577  0.31591  0.99207  1.0000
  C   C42       1.0  0.38350  0.69649  0.94589  1.0000
  C   C43       1.0  0.74389  0.30221  0.95510  1.0000
  C   C44       1.0  0.78307  0.29287  0.11136  1.0000
  N   N7        1.0  0.77764  0.24707  0.19143  1.0000
  C   C45       1.0  0.80682  0.23817  0.14604  1.0000
  N   N8        1.0  0.83848  0.28066  0.09510  1.0000
  C   C46       1.0  0.82327  0.31253  0.04870  1.0000
  C   C47       1.0  0.82628  0.20580  0.30173  1.0000
  C   C48       1.0  0.78913  0.16661  0.36436  1.0000
  C   C49       1.0  0.86045  0.22741  0.45402  1.0000
  C   C50       1.0  0.84741  0.18865  0.23806  1.0000
  C   C51       1.0  0.87174  0.28918  0.02270  1.0000
  O   O7        1.0  0.83972  0.34976  0.97071  1.0000
  H   H1        1.0  0.49276  0.41496  0.11559  1.0000
  H   H2        1.0  0.54154  0.57029  0.05424  1.0000
  H   H3        1.0  0.61636  0.58805  0.18287  1.0000
  H   H4        1.0  0.59700  0.60660  0.94384  1.0000
  H   H5        1.0  0.64830  0.60085  0.04332  1.0000
  H   H6        1.0  0.42409  0.38026  0.12504  1.0000
  H   H7        1.0  0.40061  0.38233  0.26640  1.0000
  H   H8        1.0  0.45654  0.38914  0.34552  1.0000
  H   H9        1.0  0.59647  0.48271  0.00372  1.0000
  H   H10       1.0  0.43201  0.50646  0.10655  1.0000
  H   H11       1.0  0.71998  0.40849  0.02049  1.0000
  H   H12       1.0  0.29228  0.70981  0.87461  1.0000
  H   H13       1.0  0.57765  0.05231  0.93401  1.0000
  H   H14       1.0  0.42760  0.96150  0.94519  1.0000
  H   H15       1.0  0.40910  0.98881  0.08254  1.0000
  H   H16       1.0  0.39262  0.01005  0.84306  1.0000
  H   H17       1.0  0.40114  0.03865  0.99378  1.0000
  H   H18       1.0  0.58875  0.02579  0.75668  1.0000
  H   H19       1.0  0.60252  0.97873  0.85611  1.0000
  H   H20       1.0  0.61316  0.01113  0.99437  1.0000
  H   H21       1.0  0.52248  0.10596  0.99386  1.0000
  H   H22       1.0  0.48884  0.90827  0.91482  1.0000
  H   H23       1.0  0.61524  0.28775  0.01136  1.0000
  H   H24       1.0  0.31054  0.59497  0.96140  1.0000
  H   H25       1.0  0.96074  0.54276  0.91363  1.0000
  H   H26       1.0  0.05903  0.47942  0.96158  1.0000
  H   H27       1.0  0.96406  0.36868  0.95066  1.0000
  H   H28       1.0  0.99223  0.41654  0.81084  1.0000
  H   H29       1.0  0.93857  0.40613  0.79637  1.0000
  H   H30       1.0  0.98289  0.61296  0.78708  1.0000
  H   H31       1.0  0.03345  0.65175  0.87576  1.0000
  H   H32       1.0  0.00946  0.60295  0.02445  1.0000
  H   H33       1.0  0.91791  0.42372  0.02104  1.0000
  H   H34       1.0  0.10175  0.59960  0.85450  1.0000
  H   H35       1.0  0.41779  0.71394  0.96458  1.0000
  H   H36       1.0  0.75756  0.32901  0.85236  1.0000
  H   H37       1.0  0.72435  0.27454  0.89626  1.0000
  H   H38       1.0  0.79066  0.30768  0.21689  1.0000
  H   H39       1.0  0.78650  0.24179  0.32770  1.0000
  H   H40       1.0  0.78866  0.22448  0.02758  1.0000
  H   H41       1.0  0.80163  0.14312  0.47607  1.0000
  H   H42       1.0  0.76654  0.15098  0.25407  1.0000
  H   H43       1.0  0.77046  0.17480  0.40768  1.0000
  H   H44       1.0  0.88944  0.25041  0.41360  1.0000
  H   H45       1.0  0.86971  0.20358  0.57521  1.0000
  H   H46       1.0  0.84937  0.24521  0.49013  1.0000
  H   H47       1.0  0.86097  0.16624  0.35241  1.0000
  H   H48       1.0  0.87351  0.21381  0.18306  1.0000
  H   H49       1.0  0.82361  0.17085  0.13598  1.0000
  H   H50       1.0  0.85926  0.26964  0.92782  1.0000
  H   H51       1.0  0.90007  0.28368  0.12957  1.0000
  H   H52       1.0  0.88097  0.32302  0.94985  1.0000
  C   C52       1.0  0.46487  0.50524  0.59539  1.0000
  C   C53       1.0  0.44838  0.46184  0.59239  1.0000
  C   C54       1.0  0.47409  0.44452  0.58779  1.0000
  C   C55       1.0  0.51629  0.46966  0.57874  1.0000
  C   C56       1.0  0.53283  0.51343  0.58076  1.0000
  C   C57       1.0  0.50744  0.53052  0.59019  1.0000
  O   O8        1.0  0.57416  0.53671  0.57085  1.0000
  C   C58       1.0  0.58996  0.58154  0.55878  1.0000
  O   O9        1.0  0.40540  0.43693  0.58299  1.0000
  C   C59       1.0  0.39875  0.41288  0.75634  1.0000
  C   C60       1.0  0.54207  0.45214  0.56129  1.0000
  C   C61       1.0  0.43743  0.52411  0.59153  1.0000
  N   N9        1.0  0.45118  0.56425  0.58568  1.0000
  N   N10       1.0  0.52757  0.41251  0.55661  1.0000
  C   C62       1.0  0.62822  0.33995  0.50162  1.0000
  C   C63       1.0  0.33516  0.63932  0.48047  1.0000
  C   C64       1.0  0.67093  0.36276  0.49892  1.0000
  C   C65       1.0  0.28070  0.68055  0.41329  1.0000
  C   C66       1.0  0.45359  0.94889  0.43878  1.0000
  C   C67       1.0  0.49638  0.97413  0.43166  1.0000
  C   C68       1.0  0.51277  0.01743  0.42505  1.0000
  C   C69       1.0  0.48793  0.03661  0.42799  1.0000
  C   C70       1.0  0.44527  0.01132  0.43616  1.0000
  C   C71       1.0  0.42878  0.96806  0.44194  1.0000
  O   O10       1.0  0.42225  0.03181  0.43697  1.0000
  C   C72       1.0  0.38117  0.00514  0.46728  1.0000
  O   O11       1.0  0.51879  0.95340  0.42897  1.0000
  C   C73       1.0  0.56066  0.97917  0.40531  1.0000
  C   C74       1.0  0.50673  0.08183  0.42768  1.0000
  C   C75       1.0  0.43520  0.90390  0.43979  1.0000
  N   N11       1.0  0.39433  0.88241  0.41423  1.0000
  N   N12       1.0  0.54723  0.10289  0.44708  1.0000
  C   C76       1.0  0.63394  0.27833  0.47855  1.0000
  C   C77       1.0  0.32471  0.70442  0.43688  1.0000
  C   C78       1.0  0.61044  0.29728  0.49125  1.0000
  C   C79       1.0  0.29117  0.61608  0.46213  1.0000
  C   C80       1.0  0.01809  0.52806  0.40248  1.0000
  C   C81       1.0  0.99187  0.54569  0.40888  1.0000
  C   C82       1.0  0.95168  0.51919  0.43380  1.0000
  C   C83       1.0  0.93609  0.47501  0.44986  1.0000
  C   C84       1.0  0.96209  0.45751  0.44057  1.0000
  C   C85       1.0  0.00245  0.48385  0.41828  1.0000
  O   O12       1.0  0.94469  0.41418  0.45402  1.0000
  C   C86       1.0  0.97073  0.39550  0.44922  1.0000
  O   O13       1.0  0.00880  0.58928  0.38979  1.0000
  C   C87       1.0  0.98381  0.60696  0.40809  1.0000
  C   C88       1.0  0.89346  0.44752  0.46862  1.0000
  C   C89       1.0  0.06074  0.55503  0.38333  1.0000
  N   N13       1.0  0.08629  0.53894  0.39094  1.0000
  N   N14       1.0  0.86585  0.46208  0.45321  1.0000
  C   C90       1.0  0.69584  0.34508  0.48574  1.0000
  C   C91       1.0  0.26337  0.63628  0.42822  1.0000
  C   C92       1.0  0.67724  0.30161  0.47610  1.0000
  C   C93       1.0  0.35143  0.68323  0.46960  1.0000
  C   C94       1.0  0.69916  0.28121  0.43703  1.0000
  C   C95       1.0  0.70932  0.24173  0.57935  1.0000
  N   N15       1.0  0.68745  0.20292  0.51186  1.0000
  C   C96       1.0  0.71657  0.18040  0.56943  1.0000
  N   N16       1.0  0.75878  0.21135  0.64268  1.0000
  C   C97       1.0  0.75640  0.24674  0.65053  1.0000
  C   C98       1.0  0.70233  0.13584  0.70190  1.0000
  C   C99       1.0  0.70010  0.14132  0.86739  1.0000
  C   C100      1.0  0.73225  0.11153  0.75900  1.0000
  C   C101      1.0  0.65754  0.10975  0.59735  1.0000
  C   C102      1.0  0.79969  0.20559  0.72167  1.0000
  O   O14       1.0  0.78785  0.27608  0.71263  1.0000
  H   H53       1.0  0.46140  0.41113  0.58597  1.0000
  H   H54       1.0  0.51878  0.56388  0.58935  1.0000
  H   H55       1.0  0.59166  0.58680  0.68111  1.0000
  H   H56       1.0  0.56954  0.59710  0.44018  1.0000
  H   H57       1.0  0.62236  0.59453  0.54625  1.0000
  H   H58       1.0  0.41703  0.39145  0.82623  1.0000
  H   H59       1.0  0.36426  0.39390  0.73169  1.0000
  H   H60       1.0  0.40849  0.43421  0.84079  1.0000
  H   H61       1.0  0.57389  0.47459  0.54749  1.0000
  H   H62       1.0  0.40388  0.50294  0.58364  1.0000
  H   H63       1.0  0.68565  0.39604  0.50459  1.0000
  H   H64       1.0  0.25931  0.69695  0.37874  1.0000
  H   H65       1.0  0.54503  0.03814  0.41583  1.0000
  H   H66       1.0  0.39641  0.94730  0.44913  1.0000
  H   H67       1.0  0.38432  0.98020  0.59350  1.0000
  H   H68       1.0  0.35846  0.98990  0.35577  1.0000
  H   H69       1.0  0.36935  0.02650  0.47591  1.0000
  H   H70       1.0  0.58278  0.99374  0.51900  1.0000
  H   H71       1.0  0.55897  0.00430  0.27966  1.0000
  H   H72       1.0  0.57206  0.95727  0.39848  1.0000
  H   H73       1.0  0.48533  0.09639  0.41542  1.0000
  H   H74       1.0  0.45779  0.88938  0.46480  1.0000
  H   H75       1.0  0.57755  0.27767  0.49452  1.0000
  H   H76       1.0  0.27850  0.58191  0.47321  1.0000
  H   H77       1.0  0.93061  0.53125  0.43997  1.0000
  H   H78       1.0  0.02343  0.47181  0.41118  1.0000
  H   H79       1.0  0.97763  0.40824  0.31958  1.0000
  H   H80       1.0  0.95148  0.36123  0.46714  1.0000
  H   H81       1.0  0.00101  0.40060  0.55936  1.0000
  H   H82       1.0  0.00343  0.64097  0.39885  1.0000
  H   H83       1.0  0.97744  0.59181  0.53922  1.0000
  H   H84       1.0  0.95321  0.60323  0.29989  1.0000
  H   H85       1.0  0.88517  0.41335  0.48958  1.0000
  H   H86       1.0  0.07005  0.58936  0.36462  1.0000
  H   H87       1.0  0.38583  0.70069  0.49314  1.0000
  H   H88       1.0  0.72819  0.30560  0.40102  1.0000
  H   H89       1.0  0.67719  0.27021  0.31489  1.0000
  H   H90       1.0  0.70029  0.23583  0.69825  1.0000
  H   H91       1.0  0.67473  0.20977  0.37550  1.0000
  H   H92       1.0  0.71674  0.17466  0.45157  1.0000
  H   H93       1.0  0.68879  0.11012  0.95929  1.0000
  H   H94       1.0  0.67782  0.15742  0.82794  1.0000
  H   H95       1.0  0.73175  0.16038  0.94251  1.0000
  H   H96       1.0  0.73794  0.11126  0.64231  1.0000
  H   H97       1.0  0.71706  0.07806  0.82586  1.0000
  H   H98       1.0  0.76349  0.12462  0.85367  1.0000
  H   H99       1.0  0.64479  0.07829  0.68466  1.0000
  H   H100      1.0  0.65893  0.10444  0.48150  1.0000
  H   H101      1.0  0.63493  0.12600  0.54749  1.0000
  H   H102      1.0  0.82493  0.23736  0.70327  1.0000
  H   H103      1.0  0.80084  0.18589  0.65654  1.0000
  H   H104      1.0  0.80593  0.19072  0.86643  1.0000
  C  Sn1       1.0  0.65240  0.41030  0.11018  1.0000
  C   C103      1.0  0.63922  0.37157  0.06980  1.0000
  C  Sn2       1.0  0.59560  0.34867  0.00112  1.0000
  C  Sn3       1.0  0.63478  0.30641  0.97209  1.0000
  C   C104      1.0  0.57770  0.40353  0.01244  1.0000
  C  Sn4       1.0  0.62131  0.42645  0.08115  1.0000
  O  Te1       1.0  0.69617  0.43266  0.17870  1.0000
  O  Te2       1.0  0.65348  0.25160  0.96183  1.0000
  O  Te3       1.0  0.59098  0.28401  0.90352  1.0000
  O  Te4       1.0  0.63371  0.46508  0.12040  1.0000
  Mg  Mg1       1.0  0.59004  0.23288  0.87083  1.0000
  Mg  Mg2       1.0  0.69714  0.48385  0.21132  1.0000
  C  Sn5       1.0  0.42771  0.64403  0.86557  1.0000
  C   C105      1.0  0.39398  0.62910  0.93705  1.0000
  C  Sn6       1.0  0.31924  0.65215  0.08417  1.0000
  C  Sn7       1.0  0.34911  0.63128  0.16155  1.0000
  C   C106      1.0  0.38281  0.64621  0.09010  1.0000
  C  Sn8       1.0  0.45758  0.62316  0.94294  1.0000
  O  Te5       1.0  0.43156  0.67944  0.71845  1.0000
  O  Te6       1.0  0.28526  0.63781  0.15325  1.0000
  O  Te7       1.0  0.34523  0.59584  0.30877  1.0000
  O  Te8       1.0  0.49154  0.63750  0.87390  1.0000
  Mg  Mg3       1.0  0.29359  0.58832  0.35493  1.0000
  Mg  Mg4       1.0  0.48325  0.68700  0.67229  1.0000
  C  Sn9       1.0  0.65403  0.17818  0.14535  1.0000
  C   C107      1.0  0.61021  0.15753  0.06875  1.0000
  C  Sn10      1.0  0.65560  0.12256  0.93518  1.0000
  C  Sn11      1.0  0.67492  0.16759  0.87687  1.0000
  C   C108      1.0  0.71871  0.18821  0.95342  1.0000
  C  Sn12      1.0  0.67335  0.22320  0.08703  1.0000
  O  Te9       1.0  0.67829  0.15410  0.27867  1.0000
  O  Te10      1.0  0.61185  0.10121  0.86066  1.0000
  O  Te11      1.0  0.65062  0.19166  0.74343  1.0000
  O  Te12      1.0  0.71707  0.24453  0.16151  1.0000
  Mg  Mg5       1.0  0.59228  0.14801  0.68290  1.0000
  Mg  Mg6       1.0  0.73667  0.19776  0.33920  1.0000
  C  Sn13      1.0  0.42642  0.79856  0.90943  1.0000
  C   C109      1.0  0.38816  0.76781  0.94590  1.0000
  C  Sn14      1.0  0.35759  0.78021  0.94493  1.0000
  C  Sn15      1.0  0.36542  0.82427  0.90660  1.0000
  C   C110      1.0  0.40365  0.85499  0.87013  1.0000
  C  Sn16      1.0  0.43425  0.84262  0.87110  1.0000
  O  Te13      1.0  0.45653  0.78543  0.91111  1.0000
  O  Te14      1.0  0.31958  0.74888  0.98186  1.0000
  O  Te15      1.0  0.33527  0.83738  0.90495  1.0000
  O  Te16      1.0  0.47223  0.87392  0.83417  1.0000
  Mg  Mg7       1.0  0.28840  0.78272  0.96350  1.0000
  Mg  Mg8       1.0  0.50342  0.84012  0.85240  1.0000
  C  Sn17      1.0  0.84543  0.40108  0.11572  1.0000
  C   C111      1.0  0.92571  0.37385  0.96299  1.0000
  C  Sn18      1.0  0.89435  0.38856  0.82314  1.0000
  C  Sn19      1.0  0.85210  0.37175  0.83627  1.0000
  C   C112      1.0  0.84211  0.34059  0.98894  1.0000
  C  Sn20      1.0  0.80319  0.38428  0.12885  1.0000
  O  Te17      1.0  0.87729  0.38685  0.25390  1.0000
  O  Te18      1.0  0.90511  0.41974  0.67176  1.0000
  O  Te19      1.0  0.82023  0.38601  0.69792  1.0000
  O  Te20      1.0  0.79244  0.35311  0.28017  1.0000
  Mg  Mg9       1.0  0.85058  0.42890  0.51900  1.0000
  Mg  Mg10      1.0  0.84695  0.34395  0.43304  1.0000
  C  Sn21      1.0  0.15148  0.68799  0.01143  1.0000
  C   C113      1.0  0.24840  0.62025  0.96740  1.0000
  C  Sn22      1.0  0.23085  0.58938  0.87115  1.0000
  C  Sn23      1.0  0.18572  0.56740  0.81768  1.0000
  C   C114      1.0  0.15910  0.57674  0.86168  1.0000
  C  Sn24      1.0  0.17662  0.60759  0.95797  1.0000
  O  Te21      1.0  0.16973  0.71897  0.10774  1.0000
  O  Te22      1.0  0.25814  0.58060  0.82875  1.0000
  O  Te23      1.0  0.16749  0.53640  0.72131  1.0000
  O  Te24      1.0  0.07909  0.67480  0.00033  1.0000
  Mg  Mg11      1.0  0.21798  0.53573  0.69549  1.0000
  Mg  Mg12      1.0  0.11921  0.71968  0.13350  1.0000
  C  Sn25      1.0  0.60693  0.42058  0.54805  1.0000
  C   C115      1.0  0.56230  0.40732  0.50237  1.0000
  C  Sn26      1.0  0.53586  0.36658  0.47297  1.0000
  C  Sn27      1.0  0.55442  0.33848  0.48969  1.0000
  C   C116      1.0  0.59902  0.35173  0.53537  1.0000
  C  Sn28      1.0  0.62549  0.39248  0.56477  1.0000
  O  Te25      1.0  0.63274  0.46145  0.57684  1.0000
  O  Te26      1.0  0.49133  0.35406  0.42738  1.0000
  O  Te27      1.0  0.52857  0.29759  0.46085  1.0000
  O  Te28      1.0  0.66999  0.40500  0.61037  1.0000
  Mg  Mg13      1.0  0.46966  0.29522  0.40159  1.0000
  Mg  Mg14      1.0  0.69170  0.46382  0.63628  1.0000
  C  Sn29      1.0  0.43023  0.63462  0.49100  1.0000
  C   C117      1.0  0.43097  0.59427  0.59725  1.0000
  C  Sn30      1.0  0.39523  0.56304  0.65313  1.0000
  C  Sn31      1.0  0.35795  0.57231  0.60165  1.0000
  C   C118      1.0  0.35722  0.61263  0.49544  1.0000
  C  Sn32      1.0  0.39296  0.64389  0.43952  1.0000
  O  Te29      1.0  0.46633  0.66535  0.43667  1.0000
  O  Te30      1.0  0.39674  0.52295  0.75935  1.0000
  O  Te31      1.0  0.32184  0.54153  0.65608  1.0000
  O  Te32      1.0  0.39146  0.68395  0.33334  1.0000
  Mg  Mg15      1.0  0.33945  0.49166  0.79961  1.0000
  Mg  Mg16      1.0  0.44872  0.71525  0.29293  1.0000
  C  Sn33      1.0  0.57115  0.18954  0.27225  1.0000
  C   C119      1.0  0.57346  0.15302  0.41108  1.0000
  C  Sn34      1.0  0.59182  0.15562  0.59007  1.0000
  C  Sn35      1.0  0.60818  0.19555  0.63118  1.0000
  C   C120      1.0  0.60586  0.23204  0.49241  1.0000
  C  Sn36      1.0  0.58751  0.22947  0.31336  1.0000
  O  Te33      1.0  0.55265  0.18620  0.09428  1.0000
  O  Te34      1.0  0.59379  0.11868  0.72656  1.0000
  O  Te35      1.0  0.62668  0.19887  0.80933  1.0000
  O  Te36      1.0  0.58553  0.26639  0.17694  1.0000
  Mg  Mg17      1.0  0.62194  0.13954  0.94810  1.0000
  Mg  Mg18      1.0  0.62763  0.18715  0.95537  1.0000
  C  Sn37      1.0  0.39360  0.78509  0.42381  1.0000
  C   C121      1.0  0.35631  0.75426  0.46871  1.0000
  C  Sn38      1.0  0.32618  0.76657  0.47217  1.0000
  C  Sn39      1.0  0.33346  0.81062  0.42975  1.0000
  C   C122      1.0  0.37073  0.84143  0.38485  1.0000
  C  Sn40      1.0  0.40088  0.82914  0.38139  1.0000
  O  Te37      1.0  0.42328  0.77206  0.42120  1.0000
  O  Te38      1.0  0.28914  0.73516  0.51752  1.0000
  O  Te39      1.0  0.30374  0.82364  0.43240  1.0000
  O  Te40      1.0  0.43790  0.86053  0.33604  1.0000
  Mg  Mg19      1.0  0.25821  0.76889  0.50235  1.0000
  Mg  Mg20      1.0  0.46883  0.82684  0.35108  1.0000
  C  Sn41      1.0  0.80749  0.37826  0.52500  1.0000
  C   C123      1.0  0.82168  0.42223  0.44745  1.0000
  C  Sn42      1.0  0.79491  0.44495  0.39037  1.0000
  C  Sn43      1.0  0.75308  0.42328  0.41135  1.0000
  C   C124      1.0  0.73891  0.37934  0.48889  1.0000
  C  Sn44      1.0  0.76566  0.35659  0.54598  1.0000
  O  Te41      1.0  0.83480  0.35619  0.58111  1.0000
  O  Te42      1.0  0.80981  0.48889  0.31317  1.0000
  O  Te43      1.0  0.72577  0.44539  0.35517  1.0000
  O  Te44      1.0  0.75078  0.31268  0.62317  1.0000
  Mg  Mg21      1.0  0.76067  0.50495  0.25788  1.0000
  Mg  Mg22      1.0  0.79990  0.29659  0.67859  1.0000
  C  Sn45      1.0  0.18226  0.57176  0.30493  1.0000
  C   C125      1.0  0.20916  0.61048  0.35383  1.0000
  C  Sn46      1.0  0.19735  0.62597  0.44381  1.0000
  C  Sn47      1.0  0.15783  0.60224  0.48589  1.0000
  C   C126      1.0  0.13095  0.56354  0.43703  1.0000
  C  Sn48      1.0  0.14274  0.54803  0.34701  1.0000
  O  Te45      1.0  0.19472  0.55689  0.21506  1.0000
  O  Te46      1.0  0.22477  0.66477  0.49127  1.0000
  O  Te47      1.0  0.14538  0.61715  0.57583  1.0000
  O  Te48      1.0  0.11535  0.50926  0.29959  1.0000
  Mg  Mg23      1.0  0.19364  0.67169  0.61230  1.0000
  Mg  Mg24      1.0  0.14645  0.50230  0.17864  1.0000
