data_image0
_chemical_formula_structural       C6OCOC3N2C16OCOC3N2C10OCOC3N2C21NCO3H57C6OCOC3N2C16OCOC3N2C16OCOC3N2C15NCO3H57SnCSn2CSnTe4Mg2SnCSn2CSnTe4Mg2SnCSn2CSnTe4Mg2SnCSn2CSnTe4Mg2SnCSn2CSnTe4Mg2SnCSn2CSnTe4Mg2
_chemical_formula_sum              "C144 O18 N14 H114 Sn24 Te24 Mg12"
_cell_length_a       36.6699
_cell_length_b       35.9964
_cell_length_c       8.02336
_cell_angle_alpha    87.3695
_cell_angle_beta     88.7238
_cell_angle_gamma    119.64

_symmetry_space_group_name_H-M    'P1'
_space_group_IT_number       1

loop_
  _space_group_symop_operation_xyz
  'x, y, z'

loop_
  _atom_site_type_symbol
  _atom_site_label
  _atom_site_symmetry_multiplicity
  _atom_site_fract_x
  _atom_site_fract_y
  _atom_site_fract_z
  _atom_site_occupancy
  C   C1        1.0  0.46752  0.50301  0.87567  1.0000
  C   C2        1.0  0.45438  0.45994  0.84369  1.0000
  C   C3        1.0  0.47934  0.44207  0.88140  1.0000
  C   C4        1.0  0.51880  0.46663  0.94862  1.0000
  C   C5        1.0  0.53211  0.50976  0.97952  1.0000
  C   C6        1.0  0.50662  0.52732  0.94532  1.0000
  O   O1        1.0  0.57083  0.53364  0.04894  1.0000
  C   C7        1.0  0.60040  0.57042  0.94343  1.0000
  O   O2        1.0  0.41595  0.43514  0.77360  1.0000
  C   C8        1.0  0.38075  0.41687  0.89395  1.0000
  C   C9        1.0  0.54548  0.44846  0.98896  1.0000
  C   C10       1.0  0.44129  0.52188  0.83596  1.0000
  N   N1        1.0  0.44669  0.55571  0.90682  1.0000
  N   N2        1.0  0.53284  0.40813  0.98053  1.0000
  C   C11       1.0  0.56128  0.39381  0.01475  1.0000
  C   C12       1.0  0.54635  0.35460  0.10838  1.0000
  C   C13       1.0  0.57327  0.33893  0.14567  1.0000
  C   C14       1.0  0.61571  0.36116  0.08748  1.0000
  C   C15       1.0  0.63027  0.39987  0.99098  1.0000
  C   C16       1.0  0.60364  0.41609  0.95480  1.0000
  C   C17       1.0  0.64377  0.34377  0.12465  1.0000
  C   C18       1.0  0.35055  0.63990  0.81543  1.0000
  C   C19       1.0  0.68542  0.37055  0.16381  1.0000
  C   C20       1.0  0.30502  0.68362  0.81140  1.0000
  C   C21       1.0  0.48608  0.95671  0.83704  1.0000
  C   C22       1.0  0.52964  0.98081  0.86316  1.0000
  C   C23       1.0  0.54616  0.02061  0.92929  1.0000
  C   C24       1.0  0.52056  0.03816  0.96972  1.0000
  C   C25       1.0  0.47691  0.01393  0.94414  1.0000
  C   C26       1.0  0.46042  0.97416  0.87775  1.0000
  O   O3        1.0  0.45279  0.03169  0.99171  1.0000
  C   C27       1.0  0.41070  0.01147  0.93682  1.0000
  O   O4        1.0  0.55374  0.96271  0.81898  1.0000
  C   C28       1.0  0.59248  0.97762  0.90146  1.0000
  C   C29       1.0  0.53919  0.08149  0.02519  1.0000
  C   C30       1.0  0.46781  0.91310  0.78608  1.0000
  N   N3        1.0  0.42764  0.88888  0.77491  1.0000
  N   N4        1.0  0.57916  0.10391  0.04566  1.0000
  C   C31       1.0  0.65605  0.28289  0.15238  1.0000
  C   C32       1.0  0.34879  0.70690  0.78228  1.0000
  C   C33       1.0  0.62965  0.29998  0.11969  1.0000
  C   C34       1.0  0.30673  0.61748  0.84355  1.0000
  C   C35       1.0  0.04271  0.54065  0.11129  1.0000
  C   C36       1.0  0.01818  0.56103  0.12385  1.0000
  C   C37       1.0  0.97612  0.53740  0.17810  1.0000
  C   C38       1.0  0.95739  0.49336  0.22364  1.0000
  C   C39       1.0  0.98272  0.47368  0.22256  1.0000
  C   C40       1.0  0.02438  0.49706  0.16334  1.0000
  O   O5        1.0  0.96372  0.43143  0.28138  1.0000
  C   C41       1.0  0.98276  0.40730  0.22473  1.0000
  O   O6        1.0  0.03808  0.60418  0.07524  1.0000
  C   C42       1.0  0.01842  0.62727  0.13493  1.0000
  C   C43       1.0  0.91218  0.46674  0.25019  1.0000
  C   C44       1.0  0.08628  0.56434  0.04820  1.0000
  N   N5        1.0  0.10834  0.54553  0.03004  1.0000
  N   N6        1.0  0.88648  0.48169  0.24260  1.0000
  C   C45       1.0  0.15099  0.57019  0.98165  1.0000
  C   C46       1.0  0.84347  0.45141  0.25119  1.0000
  C   C47       1.0  0.81670  0.46021  0.15550  1.0000
  C   C48       1.0  0.77499  0.42891  0.14112  1.0000
  C   C49       1.0  0.75741  0.38814  0.22688  1.0000
  C   C50       1.0  0.78355  0.38146  0.33525  1.0000
  C   C51       1.0  0.82554  0.41201  0.34636  1.0000
  C   C52       1.0  0.16933  0.55128  0.88626  1.0000
  C   C53       1.0  0.21191  0.57374  0.83883  1.0000
  C   C54       1.0  0.23804  0.61553  0.88799  1.0000
  C   C55       1.0  0.21971  0.63403  0.98567  1.0000
  C   C56       1.0  0.17705  0.61195  0.03210  1.0000
  C   C57       1.0  0.71333  0.35533  0.19736  1.0000
  C   C58       1.0  0.28355  0.63897  0.84353  1.0000
  C   C59       1.0  0.69825  0.31050  0.19297  1.0000
  C   C60       1.0  0.37106  0.68450  0.78343  1.0000
  C   C61       1.0  0.72466  0.29084  0.24199  1.0000
  C   C62       1.0  0.77046  0.24057  0.16041  1.0000
  C   C63       1.0  0.78722  0.28849  0.18958  1.0000
  C   C64       1.0  0.83104  0.31166  0.09835  1.0000
  C   C65       1.0  0.83975  0.27442  0.05692  1.0000
  N   N7        1.0  0.80731  0.23488  0.14755  1.0000
  C   C66       1.0  0.88456  0.28598  0.08498  1.0000
  O   O7        1.0  0.88837  0.26292  0.21649  1.0000
  O   O8        1.0  0.91500  0.31358  0.00087  1.0000
  O   O9        1.0  0.76126  0.30493  0.12905  1.0000
  H   H1        1.0  0.46881  0.40881  0.85830  1.0000
  H   H2        1.0  0.51628  0.56022  0.97135  1.0000
  H   H3        1.0  0.62937  0.58593  0.01113  1.0000
  H   H4        1.0  0.58898  0.59314  0.91960  1.0000
  H   H5        1.0  0.60630  0.56024  0.82341  1.0000
  H   H6        1.0  0.38220  0.39320  0.98113  1.0000
  H   H7        1.0  0.35250  0.40134  0.82198  1.0000
  H   H8        1.0  0.38004  0.44173  0.96651  1.0000
  H   H9        1.0  0.57661  0.47077  0.03195  1.0000
  H   H10       1.0  0.41777  0.50600  0.74317  1.0000
  H   H11       1.0  0.51375  0.33777  0.15553  1.0000
  H   H12       1.0  0.56176  0.30946  0.22416  1.0000
  H   H13       1.0  0.66249  0.41654  0.93886  1.0000
  H   H14       1.0  0.61486  0.44514  0.87395  1.0000
  H   H15       1.0  0.69631  0.40446  0.17285  1.0000
  H   H16       1.0  0.28751  0.70073  0.81417  1.0000
  H   H17       1.0  0.57944  0.04019  0.94890  1.0000
  H   H18       1.0  0.42710  0.95421  0.86002  1.0000
  H   H19       1.0  0.39171  0.97870  0.99416  1.0000
  H   H20       1.0  0.41099  0.01067  0.79997  1.0000
  H   H21       1.0  0.39744  0.03118  0.97733  1.0000
  H   H22       1.0  0.61592  0.01040  0.85547  1.0000
  H   H23       1.0  0.60384  0.95562  0.87104  1.0000
  H   H24       1.0  0.58707  0.97643  0.03763  1.0000
  H   H25       1.0  0.51804  0.09467  0.03946  1.0000
  H   H26       1.0  0.48972  0.90112  0.76564  1.0000
  H   H27       1.0  0.59793  0.27881  0.08263  1.0000
  H   H28       1.0  0.29074  0.58323  0.87700  1.0000
  H   H29       1.0  0.95575  0.55133  0.17957  1.0000
  H   H30       1.0  0.04442  0.48284  0.15647  1.0000
  H   H31       1.0  0.96100  0.37407  0.26900  1.0000
  H   H32       1.0  0.01341  0.41793  0.27892  1.0000
  H   H33       1.0  0.98659  0.41027  0.08770  1.0000
  H   H34       1.0  0.98954  0.61938  0.07028  1.0000
  H   H35       1.0  0.04139  0.66126  0.10851  1.0000
  H   H36       1.0  0.01104  0.62038  0.27019  1.0000
  H   H37       1.0  0.90065  0.43220  0.26388  1.0000
  H   H38       1.0  0.09926  0.59861  0.01513  1.0000
  H   H39       1.0  0.83006  0.49066  0.08239  1.0000
  H   H40       1.0  0.75639  0.43549  0.05344  1.0000
  H   H41       1.0  0.77113  0.35287  0.41852  1.0000
  H   H42       1.0  0.84440  0.40616  0.43529  1.0000
  H   H43       1.0  0.14908  0.51924  0.84618  1.0000
  H   H44       1.0  0.22513  0.55927  0.75891  1.0000
  H   H45       1.0  0.23971  0.66534  0.03267  1.0000
  H   H46       1.0  0.16406  0.62587  0.11589  1.0000
  H   H47       1.0  0.40491  0.70200  0.75790  1.0000
  H   H48       1.0  0.70554  0.25592  0.24434  1.0000
  H   H49       1.0  0.73534  0.29887  0.36875  1.0000
  H   H50       1.0  0.75440  0.23360  0.04201  1.0000
  H   H51       1.0  0.74798  0.21825  0.25834  1.0000
  H   H52       1.0  0.79037  0.29335  0.32390  1.0000
  H   H53       1.0  0.85507  0.33504  0.17529  1.0000
  H   H54       1.0  0.83065  0.32951  0.98439  1.0000
  H   H55       1.0  0.83647  0.27007  0.92195  1.0000
  H   H56       1.0  0.81614  0.23166  0.26530  1.0000
  H   H57       1.0  0.91853  0.27567  0.23208  1.0000
  C   C67       1.0  0.47099  0.50576  0.37515  1.0000
  C   C68       1.0  0.45738  0.46278  0.34003  1.0000
  C   C69       1.0  0.48159  0.44404  0.37817  1.0000
  C   C70       1.0  0.52079  0.46765  0.44858  1.0000
  C   C71       1.0  0.53473  0.51086  0.48075  1.0000
  C   C72       1.0  0.50991  0.52922  0.44699  1.0000
  O   O10       1.0  0.57356  0.53422  0.54985  1.0000
  C   C73       1.0  0.60326  0.57120  0.44578  1.0000
  O   O11       1.0  0.41932  0.43901  0.26599  1.0000
  C   C74       1.0  0.38361  0.42046  0.38388  1.0000
  C   C75       1.0  0.54670  0.44862  0.48988  1.0000
  C   C76       1.0  0.44541  0.52541  0.33611  1.0000
  N   N8        1.0  0.45087  0.55891  0.40982  1.0000
  N   N9        1.0  0.53379  0.40828  0.47896  1.0000
  C   C77       1.0  0.56205  0.39373  0.51420  1.0000
  C   C78       1.0  0.54708  0.35439  0.60708  1.0000
  C   C79       1.0  0.57412  0.33892  0.64558  1.0000
  C   C80       1.0  0.61672  0.36143  0.58932  1.0000
  C   C81       1.0  0.63129  0.40020  0.49338  1.0000
  C   C82       1.0  0.60453  0.41619  0.45588  1.0000
  C   C83       1.0  0.64486  0.34413  0.62687  1.0000
  C   C84       1.0  0.35336  0.64171  0.32081  1.0000
  C   C85       1.0  0.68647  0.37068  0.66762  1.0000
  C   C86       1.0  0.30694  0.68446  0.31244  1.0000
  C   C87       1.0  0.48608  0.95768  0.34142  1.0000
  C   C88       1.0  0.52950  0.98139  0.37157  1.0000
  C   C89       1.0  0.54591  0.02129  0.43643  1.0000
  C   C90       1.0  0.52026  0.03895  0.47420  1.0000
  C   C91       1.0  0.47676  0.01506  0.44614  1.0000
  C   C92       1.0  0.46045  0.97536  0.37923  1.0000
  O   O12       1.0  0.45279  0.03316  0.49150  1.0000
  C   C93       1.0  0.41089  0.01324  0.43480  1.0000
  O   O13       1.0  0.55329  0.96257  0.33371  1.0000
  C   C94       1.0  0.59494  0.98241  0.39403  1.0000
  C   C95       1.0  0.53911  0.08227  0.52924  1.0000
  C   C96       1.0  0.46804  0.91431  0.28846  1.0000
  N   N10       1.0  0.42795  0.88998  0.27525  1.0000
  N   N11       1.0  0.57907  0.10418  0.55048  1.0000
  C   C97       1.0  0.59704  0.14695  0.58946  1.0000
  C   C98       1.0  0.63856  0.17460  0.52713  1.0000
  C   C99       1.0  0.65803  0.21823  0.54913  1.0000
  C   C100      1.0  0.63774  0.23617  0.63811  1.0000
  C   C101      1.0  0.59696  0.20794  0.70743  1.0000
  C   C102      1.0  0.57679  0.16428  0.68313  1.0000
  C   C103      1.0  0.65677  0.28310  0.65351  1.0000
  C   C104      1.0  0.35071  0.70818  0.28432  1.0000
  C   C105      1.0  0.63061  0.30038  0.62026  1.0000
  C   C106      1.0  0.30951  0.61886  0.34822  1.0000
  C   C107      1.0  0.04378  0.53896  0.60084  1.0000
  C   C108      1.0  0.01877  0.55874  0.61557  1.0000
  C   C109      1.0  0.97694  0.53461  0.67240  1.0000
  C   C110      1.0  0.95878  0.49060  0.71679  1.0000
  C   C111      1.0  0.98446  0.47132  0.71104  1.0000
  C   C112      1.0  0.02600  0.49527  0.65088  1.0000
  O   O14       1.0  0.96567  0.42893  0.76696  1.0000
  C   C113      1.0  0.98646  0.40583  0.71968  1.0000
  O   O15       1.0  0.03784  0.60186  0.56689  1.0000
  C   C114      1.0  0.01761  0.62412  0.62979  1.0000
  C   C115      1.0  0.91367  0.46383  0.74762  1.0000
  C   C116      1.0  0.08738  0.56338  0.53851  1.0000
  N   N12       1.0  0.11014  0.54528  0.52208  1.0000
  N   N13       1.0  0.88817  0.47908  0.74515  1.0000
  C   C117      1.0  0.84504  0.44944  0.75643  1.0000
  C   C118      1.0  0.81842  0.45944  0.66524  1.0000
  C   C119      1.0  0.77645  0.42885  0.65084  1.0000
  C   C120      1.0  0.75841  0.38759  0.73271  1.0000
  C   C121      1.0  0.78446  0.37987  0.83802  1.0000
  C   C122      1.0  0.82671  0.40964  0.84889  1.0000
  C   C123      1.0  0.71423  0.35523  0.70147  1.0000
  C   C124      1.0  0.28587  0.63987  0.34590  1.0000
  C   C125      1.0  0.69888  0.31036  0.69556  1.0000
  C   C126      1.0  0.37344  0.68625  0.28776  1.0000
  C   C127      1.0  0.72472  0.29007  0.74437  1.0000
  C   C128      1.0  0.77313  0.24221  0.61855  1.0000
  C   C129      1.0  0.78678  0.28646  0.68841  1.0000
  C   C130      1.0  0.83291  0.31541  0.62459  1.0000
  C   C131      1.0  0.84511  0.28552  0.53261  1.0000
  N   N14       1.0  0.81148  0.24093  0.57137  1.0000
  C   C132      1.0  0.88832  0.29388  0.57436  1.0000
  O   O16       1.0  0.88733  0.26632  0.69956  1.0000
  O   O17       1.0  0.92111  0.32276  0.50848  1.0000
  O   O18       1.0  0.76187  0.30485  0.63421  1.0000
  H   H58       1.0  0.47074  0.41088  0.35233  1.0000
  H   H59       1.0  0.52002  0.56212  0.47441  1.0000
  H   H60       1.0  0.59270  0.59482  0.42845  1.0000
  H   H61       1.0  0.60802  0.56148  0.32288  1.0000
  H   H62       1.0  0.63268  0.58546  0.51090  1.0000
  H   H63       1.0  0.35568  0.40579  0.30976  1.0000
  H   H64       1.0  0.38301  0.44507  0.45853  1.0000
  H   H65       1.0  0.38427  0.39604  0.46936  1.0000
  H   H66       1.0  0.57762  0.47033  0.53615  1.0000
  H   H67       1.0  0.42222  0.51031  0.24152  1.0000
  H   H68       1.0  0.51437  0.33725  0.65298  1.0000
  H   H69       1.0  0.56254  0.30939  0.72374  1.0000
  H   H70       1.0  0.66365  0.41712  0.44294  1.0000
  H   H71       1.0  0.61580  0.44530  0.37537  1.0000
  H   H72       1.0  0.69738  0.40455  0.67781  1.0000
  H   H73       1.0  0.28905  0.70119  0.31314  1.0000
  H   H74       1.0  0.57906  0.04092  0.45800  1.0000
  H   H75       1.0  0.42727  0.95585  0.35802  1.0000
  H   H76       1.0  0.39153  0.98058  0.49251  1.0000
  H   H77       1.0  0.41144  0.01228  0.29806  1.0000
  H   H78       1.0  0.39788  0.03330  0.47348  1.0000
  H   H79       1.0  0.61543  0.01370  0.32704  1.0000
  H   H80       1.0  0.60690  0.96056  0.36974  1.0000
  H   H81       1.0  0.59415  0.98639  0.52913  1.0000
  H   H82       1.0  0.51838  0.09596  0.54249  1.0000
  H   H83       1.0  0.49010  0.90252  0.26803  1.0000
  H   H84       1.0  0.65415  0.16118  0.45459  1.0000
  H   H85       1.0  0.68932  0.23905  0.49334  1.0000
  H   H86       1.0  0.58130  0.22056  0.78426  1.0000
  H   H87       1.0  0.54560  0.14312  0.74066  1.0000
  H   H88       1.0  0.59900  0.27938  0.58164  1.0000
  H   H89       1.0  0.29388  0.58464  0.38213  1.0000
  H   H90       1.0  0.95626  0.54814  0.67729  1.0000
  H   H91       1.0  0.04645  0.48159  0.64077  1.0000
  H   H92       1.0  0.96563  0.37275  0.76828  1.0000
  H   H93       1.0  0.01722  0.41850  0.77499  1.0000
  H   H94       1.0  0.99029  0.40713  0.58308  1.0000
  H   H95       1.0  0.03937  0.65818  0.59783  1.0000
  H   H96       1.0  0.01199  0.61810  0.76617  1.0000
  H   H97       1.0  0.98763  0.61464  0.57130  1.0000
  H   H98       1.0  0.90208  0.42926  0.75994  1.0000
  H   H99       1.0  0.09970  0.59754  0.50524  1.0000
  H   H100      1.0  0.83213  0.49024  0.59446  1.0000
  H   H101      1.0  0.75801  0.43642  0.56585  1.0000
  H   H102      1.0  0.77183  0.35089  0.91893  1.0000
  H   H103      1.0  0.84546  0.40274  0.93483  1.0000
  H   H104      1.0  0.40732  0.70404  0.26303  1.0000
  H   H105      1.0  0.70545  0.25523  0.74259  1.0000
  H   H106      1.0  0.73465  0.29708  0.87254  1.0000
  H   H107      1.0  0.75484  0.23938  0.50859  1.0000
  H   H108      1.0  0.75312  0.21511  0.70730  1.0000
  H   H109      1.0  0.78465  0.28333  0.82561  1.0000
  H   H110      1.0  0.85334  0.33022  0.72792  1.0000
  H   H111      1.0  0.83558  0.34156  0.54003  1.0000
  H   H112      1.0  0.84736  0.29343  0.39783  1.0000
  H   H113      1.0  0.81973  0.22772  0.66824  1.0000
  H   H114      1.0  0.91616  0.27795  0.73458  1.0000
  C  Sn1       1.0  0.38238  0.56236  0.74039  1.0000
  C   C133      1.0  0.42000  0.57590  0.82014  1.0000
  C  Sn2       1.0  0.43461  0.61013  0.92333  1.0000
  C  Sn3       1.0  0.41112  0.63126  0.94740  1.0000
  C   C134      1.0  0.37353  0.61771  0.86770  1.0000
  C  Sn4       1.0  0.35889  0.58349  0.76446  1.0000
  O  Te1       1.0  0.36837  0.52806  0.63780  1.0000
  O  Te2       1.0  0.48535  0.63989  0.00168  1.0000
  O  Te3       1.0  0.43820  0.68237  0.05009  1.0000
  O  Te4       1.0  0.32120  0.57052  0.68617  1.0000
  Mg  Mg1       1.0  0.49138  0.68820  0.12961  1.0000
  Mg  Mg2       1.0  0.31513  0.52220  0.55829  1.0000
  C  Sn5       1.0  0.21466  0.62742  0.53858  1.0000
  C   C135      1.0  0.23789  0.61443  0.44119  1.0000
  C  Sn6       1.0  0.21755  0.57937  0.34334  1.0000
  C  Sn7       1.0  0.17305  0.55685  0.34272  1.0000
  C   C136      1.0  0.14985  0.56985  0.44004  1.0000
  C  Sn8       1.0  0.17017  0.60490  0.53797  1.0000
  O  Te5       1.0  0.23566  0.66256  0.63545  1.0000
  O  Te6       1.0  0.24144  0.56697  0.24705  1.0000
  O  Te7       1.0  0.15206  0.52168  0.24575  1.0000
  O  Te8       1.0  0.14630  0.61730  0.63418  1.0000
  Mg  Mg3       1.0  0.19840  0.51710  0.13569  1.0000
  Mg  Mg4       1.0  0.18931  0.66718  0.74552  1.0000
  C  Sn9       1.0  0.36259  0.78757  0.63403  1.0000
  C   C137      1.0  0.37469  0.76007  0.71150  1.0000
  C  Sn10      1.0  0.40414  0.77452  0.83458  1.0000
  C  Sn11      1.0  0.42186  0.81734  0.88128  1.0000
  C   C138      1.0  0.40976  0.84481  0.80385  1.0000
  C  Sn12      1.0  0.38031  0.83039  0.68073  1.0000
  O  Te9       1.0  0.33309  0.77244  0.51130  1.0000
  O  Te10      1.0  0.41575  0.74644  0.91022  1.0000
  O  Te11      1.0  0.46440  0.84925  0.00411  1.0000
  O  Te12      1.0  0.36869  0.85844  0.60513  1.0000
  Mg  Mg5       1.0  0.47013  0.79883  0.07087  1.0000
  Mg  Mg6       1.0  0.32732  0.82288  0.44454  1.0000
  C  Sn13      1.0  0.59437  0.19561  0.24811  1.0000
  C   C139      1.0  0.63425  0.22769  0.18773  1.0000
  C  Sn14      1.0  0.65551  0.22012  0.05882  1.0000
  C  Sn15      1.0  0.62348  0.16288  0.98872  1.0000
  C   C140      1.0  0.59665  0.14763  0.04907  1.0000
  C  Sn16      1.0  0.57537  0.15516  0.17800  1.0000
  O  Te13      1.0  0.57370  0.20388  0.37706  1.0000
  O  Te14      1.0  0.69535  0.25268  0.00058  1.0000
  O  Te15      1.0  0.64419  0.15463  0.85967  1.0000
  O  Te16      1.0  0.53555  0.12263  0.23621  1.0000
  Mg  Mg7       1.0  0.69791  0.20916  0.82282  1.0000
  Mg  Mg8       1.0  0.51992  0.14933  0.41390  1.0000
  C  Sn17      1.0  0.43076  0.61980  0.48165  1.0000
  C   C141      1.0  0.42186  0.58004  0.42649  1.0000
  C  Sn18      1.0  0.39195  0.56059  0.30759  1.0000
  C  Sn19      1.0  0.37052  0.58133  0.24236  1.0000
  C   C142      1.0  0.37943  0.62106  0.29749  1.0000
  C  Sn20      1.0  0.40932  0.64053  0.41642  1.0000
  O  Te17      1.0  0.46078  0.63865  0.60060  1.0000
  O  Te18      1.0  0.38358  0.52083  0.25441  1.0000
  O  Te19      1.0  0.34048  0.56244  0.12333  1.0000
  O  Te20      1.0  0.41771  0.68028  0.46957  1.0000
  Mg  Mg9       1.0  0.34004  0.50807  0.09019  1.0000
  Mg  Mg10      1.0  0.46125  0.69307  0.63372  1.0000
  C  Sn21      1.0  0.36329  0.78840  0.13545  1.0000
  C   C143      1.0  0.37597  0.76125  0.21175  1.0000
  C  Sn22      1.0  0.40580  0.77606  0.33336  1.0000
  C  Sn23      1.0  0.42330  0.81889  0.37975  1.0000
  C   C144      1.0  0.41062  0.84600  0.30349  1.0000
  C  Sn24      1.0  0.38079  0.83122  0.18184  1.0000
  O  Te21      1.0  0.33342  0.77291  0.01419  1.0000
  O  Te22      1.0  0.41800  0.74833  0.40785  1.0000
  O  Te23      1.0  0.45320  0.83436  0.50112  1.0000
  O  Te24      1.0  0.36859  0.85892  0.10740  1.0000
  Mg  Mg11      1.0  0.45969  0.78434  0.56669  1.0000
  Mg  Mg12      1.0  0.31387  0.80615  0.94861  1.0000
