data_image0
_chemical_formula_structural       C6OCOC3N2C10OCOC3N2C10OCOC3N2C4OC5NH45C6OCOC3N2C10OCOC3N2C10OCOC3N2C4OC5NH45C2Sn2C2HTe2HMgC2Sn2C2HTe2HMgC2Sn2C2HTe2HMgC2Sn2C2HTe2HMgC2Sn2C2HTe2HMgC2Sn2C2HTe2HMgC2Sn2C2HTe2HMgC2Sn2C2HTe2HMgC2Sn2C2HTe2HMgC2Sn2C2HTe2HMgC2Sn2C2HTe2HMgC2Sn2C2HTe2HMg
_chemical_formula_sum              "C142 O14 N14 H114 Sn24 Te24 Mg12"
_cell_length_a       36.9028
_cell_length_b       36.709
_cell_length_c       8.08171
_cell_angle_alpha    94.4101
_cell_angle_beta     87.657
_cell_angle_gamma    119.777

_symmetry_space_group_name_H-M    'P1'
_space_group_IT_number       1

loop_
  _space_group_symop_operation_xyz
  'x, y, z'

loop_
  _atom_site_type_symbol
  _atom_site_label
  _atom_site_symmetry_multiplicity
  _atom_site_fract_x
  _atom_site_fract_y
  _atom_site_fract_z
  _atom_site_occupancy
  C   C1        1.0  0.47740  0.51451  0.01520  1.0000
  C   C2        1.0  0.45930  0.47067  0.03382  1.0000
  C   C3        1.0  0.48347  0.45419  0.08356  1.0000
  C   C4        1.0  0.52641  0.48049  0.11456  1.0000
  C   C5        1.0  0.54449  0.52402  0.09421  1.0000
  C   C6        1.0  0.52033  0.54043  0.04449  1.0000
  O   O1        1.0  0.58624  0.55097  0.13352  1.0000
  C   C7        1.0  0.61419  0.55990  0.99342  1.0000
  O   O2        1.0  0.41721  0.44644  0.00001  1.0000
  C   C8        1.0  0.39622  0.40556  0.06462  1.0000
  C   C9        1.0  0.55234  0.46336  0.15958  1.0000
  C   C10       1.0  0.45146  0.53257  0.98077  1.0000
  N   N1        1.0  0.46727  0.57275  0.97326  1.0000
  N   N2        1.0  0.53786  0.42350  0.17263  1.0000
  C   C11       1.0  0.64615  0.35460  0.18557  1.0000
  C   C12       1.0  0.36034  0.64214  0.91437  1.0000
  C   C13       1.0  0.68973  0.37902  0.18163  1.0000
  C   C14       1.0  0.30830  0.67761  0.90997  1.0000
  C   C15       1.0  0.47270  0.95406  0.91618  1.0000
  C   C16       1.0  0.51378  0.98248  0.86419  1.0000
  C   C17       1.0  0.53079  0.02544  0.89630  1.0000
  C   C18       1.0  0.50757  0.04223  0.97949  1.0000
  C   C19       1.0  0.46615  0.01389  0.02809  1.0000
  C   C20       1.0  0.44934  0.97082  0.99848  1.0000
  O   O3        1.0  0.44191  0.02939  0.10813  1.0000
  C   C21       1.0  0.41829  0.03718  0.99196  1.0000
  O   O4        1.0  0.53776  0.96708  0.78142  1.0000
  C   C22       1.0  0.56246  0.95976  0.89349  1.0000
  C   C23       1.0  0.52618  0.08736  0.01689  1.0000
  C   C24       1.0  0.45556  0.90892  0.88599  1.0000
  N   N3        1.0  0.42129  0.88257  0.95736  1.0000
  N   N4        1.0  0.56475  0.11251  0.97793  1.0000
  C   C25       1.0  0.65230  0.29115  0.12031  1.0000
  C   C26       1.0  0.35171  0.70415  0.91445  1.0000
  C   C27       1.0  0.62846  0.31101  0.15858  1.0000
  C   C28       1.0  0.31667  0.61644  0.91050  1.0000
  C   C29       1.0  0.04414  0.52453  0.92795  1.0000
  C   C30       1.0  0.01942  0.54442  0.94167  1.0000
  C   C31       1.0  0.97714  0.52118  0.97873  1.0000
  C   C32       1.0  0.95787  0.47772  0.99738  1.0000
  C   C33       1.0  0.98220  0.45754  0.97736  1.0000
  C   C34       1.0  0.02469  0.48100  0.94490  1.0000
  O   O5        1.0  0.96151  0.41488  0.99612  1.0000
  C   C35       1.0  0.98187  0.39209  0.93111  1.0000
  O   O6        1.0  0.03977  0.58685  0.91687  1.0000
  C   C36       1.0  0.01710  0.60853  0.96078  1.0000
  C   C37       1.0  0.91346  0.45335  0.03195  1.0000
  C   C38       1.0  0.08922  0.54902  0.90746  1.0000
  N   N5        1.0  0.11248  0.53164  0.90101  1.0000
  N   N6        1.0  0.89024  0.47054  0.05913  1.0000
  C   C39       1.0  0.71523  0.36123  0.14457  1.0000
  C   C40       1.0  0.29026  0.63377  0.90896  1.0000
  C   C41       1.0  0.69634  0.31715  0.11104  1.0000
  C   C42       1.0  0.37726  0.68589  0.91601  1.0000
  O   O7        1.0  0.72218  0.30173  0.05092  1.0000
  C   C43       1.0  0.72849  0.27472  0.15401  1.0000
  C   C44       1.0  0.75450  0.25892  0.05487  1.0000
  C   C45       1.0  0.80023  0.29297  0.02247  1.0000
  C   C46       1.0  0.82743  0.27516  0.07958  1.0000
  C   C47       1.0  0.79655  0.22805  0.08923  1.0000
  N   N7        1.0  0.75805  0.22759  0.14886  1.0000
  H   H1        1.0  0.47051  0.42089  0.09972  1.0000
  H   H2        1.0  0.53400  0.57406  0.03292  1.0000
  H   H3        1.0  0.60494  0.57202  0.89257  1.0000
  H   H4        1.0  0.61485  0.53133  0.94499  1.0000
  H   H5        1.0  0.64520  0.58353  0.03997  1.0000
  H   H6        1.0  0.40600  0.38432  0.00021  1.0000
  H   H7        1.0  0.36292  0.39324  0.04259  1.0000
  H   H8        1.0  0.40209  0.40808  0.19851  1.0000
  H   H9        1.0  0.58551  0.48629  0.17891  1.0000
  H   H10       1.0  0.41780  0.51065  0.97059  1.0000
  H   H11       1.0  0.70452  0.41290  0.20725  1.0000
  H   H12       1.0  0.28814  0.69117  0.90196  1.0000
  H   H13       1.0  0.56251  0.04704  0.85774  1.0000
  H   H14       1.0  0.41774  0.94923  0.03854  1.0000
  H   H15       1.0  0.40201  0.05113  0.06495  1.0000
  H   H16       1.0  0.39543  0.00769  0.92561  1.0000
  H   H17       1.0  0.43888  0.05901  0.89992  1.0000
  H   H18       1.0  0.58628  0.98956  0.95477  1.0000
  H   H19       1.0  0.57774  0.94513  0.81788  1.0000
  H   H20       1.0  0.54276  0.93873  0.98938  1.0000
  H   H21       1.0  0.50588  0.09800  0.08022  1.0000
  H   H22       1.0  0.47370  0.89931  0.80109  1.0000
  H   H23       1.0  0.59465  0.29188  0.15453  1.0000
  H   H24       1.0  0.30294  0.58260  0.91610  1.0000
  H   H25       1.0  0.95727  0.53525  0.99383  1.0000
  H   H26       1.0  0.04469  0.46703  0.93504  1.0000
  H   H27       1.0  0.95880  0.35879  0.94122  1.0000
  H   H28       1.0  0.00963  0.40006  0.00431  1.0000
  H   H29       1.0  0.99046  0.39815  0.79999  1.0000
  H   H30       1.0  0.98967  0.59731  0.88072  1.0000
  H   H31       1.0  0.03894  0.64176  0.94262  1.0000
  H   H32       1.0  0.00706  0.60466  0.09136  1.0000
  H   H33       1.0  0.90038  0.41920  0.03075  1.0000
  H   H34       1.0  0.10249  0.58305  0.90129  1.0000
  H   H35       1.0  0.41098  0.70606  0.92001  1.0000
  H   H36       1.0  0.69825  0.24793  0.18601  1.0000
  H   H37       1.0  0.74406  0.29257  0.26896  1.0000
  H   H38       1.0  0.73956  0.24476  0.93419  1.0000
  H   H39       1.0  0.80451  0.29811  0.88960  1.0000
  H   H40       1.0  0.80790  0.32314  0.08799  1.0000
  H   H41       1.0  0.84066  0.28909  0.20281  1.0000
  H   H42       1.0  0.85352  0.28122  0.99464  1.0000
  H   H43       1.0  0.80635  0.21306  0.17633  1.0000
  H   H44       1.0  0.79291  0.21179  0.96535  1.0000
  H   H45       1.0  0.73254  0.19850  0.12731  1.0000
  C   C48       1.0  0.47767  0.51851  0.50860  1.0000
  C   C49       1.0  0.46019  0.47476  0.52788  1.0000
  C   C50       1.0  0.48528  0.45888  0.57344  1.0000
  C   C51       1.0  0.52845  0.48536  0.59927  1.0000
  C   C52       1.0  0.54617  0.52866  0.57284  1.0000
  C   C53       1.0  0.52093  0.54453  0.52938  1.0000
  O   O8        1.0  0.58803  0.55695  0.60315  1.0000
  C   C54       1.0  0.61842  0.55377  0.49388  1.0000
  O   O9        1.0  0.41782  0.45000  0.50041  1.0000
  C   C55       1.0  0.39840  0.40886  0.56281  1.0000
  C   C56       1.0  0.55407  0.46823  0.65017  1.0000
  C   C57       1.0  0.45111  0.53637  0.47957  1.0000
  N   N8        1.0  0.46649  0.57650  0.47163  1.0000
  N   N9        1.0  0.53985  0.42822  0.65711  1.0000
  C   C58       1.0  0.64596  0.35682  0.67975  1.0000
  C   C59       1.0  0.35978  0.64680  0.42526  1.0000
  C   C60       1.0  0.68960  0.38101  0.67754  1.0000
  C   C61       1.0  0.30625  0.68074  0.42658  1.0000
  C   C62       1.0  0.47165  0.95667  0.43158  1.0000
  C   C63       1.0  0.51499  0.98334  0.40412  1.0000
  C   C64       1.0  0.53209  0.02666  0.42406  1.0000
  C   C65       1.0  0.50707  0.04497  0.46689  1.0000
  C   C66       1.0  0.46344  0.01838  0.48649  1.0000
  C   C67       1.0  0.44644  0.97496  0.46952  1.0000
  O   O10       1.0  0.44034  0.03804  0.52536  1.0000
  C   C68       1.0  0.39601  0.01235  0.50767  1.0000
  O   O11       1.0  0.53774  0.96372  0.35806  1.0000
  C   C69       1.0  0.58222  0.98977  0.35847  1.0000
  C   C70       1.0  0.52599  0.09040  0.49149  1.0000
  C   C71       1.0  0.45437  0.91140  0.42691  1.0000
  N   N10       1.0  0.41499  0.88582  0.45105  1.0000
  N   N11       1.0  0.56612  0.11438  0.48231  1.0000
  C   C72       1.0  0.65193  0.29304  0.61882  1.0000
  C   C73       1.0  0.34957  0.70794  0.43115  1.0000
  C   C74       1.0  0.62816  0.31313  0.65436  1.0000
  C   C75       1.0  0.31629  0.62053  0.42032  1.0000
  C   C76       1.0  0.04319  0.51775  0.41354  1.0000
  C   C77       1.0  0.01844  0.53744  0.41317  1.0000
  C   C78       1.0  0.97648  0.51577  0.45653  1.0000
  C   C79       1.0  0.95730  0.47348  0.49573  1.0000
  C   C80       1.0  0.98164  0.45337  0.49014  1.0000
  C   C81       1.0  0.02376  0.47530  0.45068  1.0000
  O   O12       1.0  0.96368  0.41183  0.53361  1.0000
  C   C82       1.0  0.94993  0.38177  0.39215  1.0000
  O   O13       1.0  0.03801  0.57858  0.36799  1.0000
  C   C83       1.0  0.02845  0.60640  0.47187  1.0000
  C   C84       1.0  0.91315  0.45042  0.53797  1.0000
  C   C85       1.0  0.08817  0.54256  0.39142  1.0000
  N   N12       1.0  0.11259  0.52682  0.39877  1.0000
  N   N13       1.0  0.89021  0.46813  0.55060  1.0000
  C   C86       1.0  0.71493  0.36294  0.64311  1.0000
  C   C87       1.0  0.28911  0.63691  0.42041  1.0000
  C   C88       1.0  0.69601  0.31887  0.61049  1.0000
  C   C89       1.0  0.37593  0.69050  0.42950  1.0000
  O   O14       1.0  0.72202  0.30354  0.55129  1.0000
  C   C90       1.0  0.72871  0.27676  0.65442  1.0000
  C   C91       1.0  0.75470  0.26107  0.55427  1.0000
  C   C92       1.0  0.80023  0.29518  0.51868  1.0000
  C   C93       1.0  0.82787  0.27814  0.57811  1.0000
  C   C94       1.0  0.79746  0.23096  0.58888  1.0000
  N   N14       1.0  0.75879  0.23011  0.64853  1.0000
  H   H46       1.0  0.47271  0.42583  0.59318  1.0000
  H   H47       1.0  0.53436  0.57800  0.51477  1.0000
  H   H48       1.0  0.62804  0.57664  0.39851  1.0000
  H   H49       1.0  0.60583  0.52220  0.43187  1.0000
  H   H50       1.0  0.64518  0.56057  0.57081  1.0000
  H   H51       1.0  0.40896  0.38859  0.49525  1.0000
  H   H52       1.0  0.36484  0.39550  0.54357  1.0000
  H   H53       1.0  0.40491  0.41122  0.69601  1.0000
  H   H54       1.0  0.58664  0.49112  0.68129  1.0000
  H   H55       1.0  0.41741  0.51429  0.47326  1.0000
  H   H56       1.0  0.70459  0.41490  0.70298  1.0000
  H   H57       1.0  0.28562  0.69389  0.42187  1.0000
  H   H58       1.0  0.56520  0.04817  0.40796  1.0000
  H   H59       1.0  0.41340  0.95342  0.48742  1.0000
  H   H60       1.0  0.38813  0.99821  0.38011  1.0000
  H   H61       1.0  0.38322  0.03348  0.53460  1.0000
  H   H62       1.0  0.38285  0.98745  0.59580  1.0000
  H   H63       1.0  0.59269  0.01372  0.26661  1.0000
  H   H64       1.0  0.59447  0.96845  0.32459  1.0000
  H   H65       1.0  0.59327  0.00514  0.48276  1.0000
  H   H66       1.0  0.50461  0.10282  0.51726  1.0000
  H   H67       1.0  0.47688  0.90024  0.40719  1.0000
  H   H68       1.0  0.59434  0.29395  0.64994  1.0000
  H   H69       1.0  0.30327  0.58674  0.42365  1.0000
  H   H70       1.0  0.95700  0.53034  0.45918  1.0000
  H   H71       1.0  0.04287  0.46042  0.45416  1.0000
  H   H72       1.0  0.93795  0.35075  0.44097  1.0000
  H   H73       1.0  0.97591  0.38808  0.30576  1.0000
  H   H74       1.0  0.92504  0.38258  0.32463  1.0000
  H   H75       1.0  0.05003  0.63813  0.43356  1.0000
  H   H76       1.0  0.03360  0.60413  0.60286  1.0000
  H   H77       1.0  0.99618  0.59958  0.45558  1.0000
  H   H78       1.0  0.90024  0.41686  0.55557  1.0000
  H   H79       1.0  0.10049  0.57599  0.37307  1.0000
  H   H80       1.0  0.40955  0.71139  0.43292  1.0000
  H   H81       1.0  0.69858  0.24982  0.68649  1.0000
  H   H82       1.0  0.74433  0.29462  0.76936  1.0000
  H   H83       1.0  0.73929  0.24644  0.43486  1.0000
  H   H84       1.0  0.80415  0.29935  0.38501  1.0000
  H   H85       1.0  0.80784  0.32570  0.58081  1.0000
  H   H86       1.0  0.84090  0.29247  0.70120  1.0000
  H   H87       1.0  0.85412  0.28437  0.49386  1.0000
  H   H88       1.0  0.80762  0.21638  0.67645  1.0000
  H   H89       1.0  0.79385  0.21453  0.46540  1.0000
  H   H90       1.0  0.73343  0.20091  0.62742  1.0000
  C   C95       1.0  0.55518  0.36329  0.28106  1.0000
  C   C96       1.0  0.56283  0.40050  0.21449  1.0000
  C  Sn1       1.0  0.60016  0.42480  0.13034  1.0000
  C  Sn2       1.0  0.63032  0.41152  0.11266  1.0000
  C   C97       1.0  0.62237  0.37423  0.17960  1.0000
  C   C98       1.0  0.58492  0.35015  0.26362  1.0000
  H   H91       1.0  0.52620  0.34465  0.34598  1.0000
  O  Te1       1.0  0.60730  0.46191  0.06465  1.0000
  O  Te2       1.0  0.66789  0.43520  0.02909  1.0000
  H   H92       1.0  0.57899  0.32133  0.31505  1.0000
  Mg  Mg1       1.0  0.66245  0.49995  0.96132  1.0000
  C   C99       1.0  0.39350  0.56599  0.84001  1.0000
  C   C100      1.0  0.43229  0.58313  0.91727  1.0000
  C  Sn3       1.0  0.44969  0.60537  0.00826  1.0000
  C  Sn4       1.0  0.42698  0.62732  0.02197  1.0000
  C   C101      1.0  0.38740  0.62643  0.94431  1.0000
  C   C102      1.0  0.37107  0.58761  0.85352  1.0000
  H   H93       1.0  0.38084  0.53595  0.76984  1.0000
  O  Te3       1.0  0.48850  0.62205  0.08462  1.0000
  O  Te4       1.0  0.44286  0.66613  0.11219  1.0000
  H   H94       1.0  0.34102  0.57434  0.79381  1.0000
  Mg  Mg2       1.0  0.49704  0.67591  0.19389  1.0000
  C   C103      1.0  0.63154  0.19116  0.92995  1.0000
  C   C104      1.0  0.59612  0.14471  0.00643  1.0000
  C  Sn5       1.0  0.57495  0.15742  0.12314  1.0000
  C  Sn6       1.0  0.59039  0.20092  0.16376  1.0000
  C   C105      1.0  0.62663  0.23061  0.08646  1.0000
  C   C106      1.0  0.64679  0.23407  0.96989  1.0000
  H   H95       1.0  0.64774  0.18105  0.83968  1.0000
  O  Te5       1.0  0.53883  0.12712  0.19843  1.0000
  O  Te6       1.0  0.56985  0.21451  0.27992  1.0000
  H   H96       1.0  0.67481  0.25724  0.91061  1.0000
  Mg  Mg3       1.0  0.52185  0.16122  0.34899  1.0000
  C   C107      1.0  0.42786  0.80990  0.84230  1.0000
  C   C108      1.0  0.41143  0.83500  0.90813  1.0000
  C  Sn7       1.0  0.37289  0.81687  0.98980  1.0000
  C  Sn8       1.0  0.35125  0.75625  0.00571  1.0000
  C   C109      1.0  0.36719  0.74796  0.93953  1.0000
  C   C110      1.0  0.40577  0.76642  0.85800  1.0000
  H   H97       1.0  0.45773  0.82419  0.77930  1.0000
  O  Te7       1.0  0.35770  0.82587  0.05478  1.0000
  O  Te8       1.0  0.31267  0.73731  0.08679  1.0000
  H   H98       1.0  0.41850  0.74699  0.80714  1.0000
  Mg  Mg4       1.0  0.30390  0.78537  0.15450  1.0000
  C   C111      1.0  0.78489  0.43755  0.03852  1.0000
  C   C112      1.0  0.76391  0.39832  0.10630  1.0000
  C  Sn9       1.0  0.78625  0.38282  0.18321  1.0000
  C  Sn10      1.0  0.83042  0.40713  0.19228  1.0000
  C   C113      1.0  0.85112  0.44636  0.12420  1.0000
  C   C114      1.0  0.82845  0.46156  0.04748  1.0000
  H   H99       1.0  0.76658  0.46586  0.97923  1.0000
  O  Te9       1.0  0.76480  0.34355  0.25022  1.0000
  O  Te10      1.0  0.85352  0.39240  0.26850  1.0000
  H   H100      1.0  0.84392  0.50848  0.99511  1.0000
  Mg  Mg5       1.0  0.81011  0.33701  0.34146  1.0000
  C   C115      1.0  0.19104  0.54514  0.79913  1.0000
  C   C116      1.0  0.16167  0.55118  0.89366  1.0000
  C  Sn11      1.0  0.17432  0.58774  0.99688  1.0000
  C  Sn12      1.0  0.21799  0.60224  0.00531  1.0000
  C   C117      1.0  0.24635  0.61246  0.91015  1.0000
  C   C118      1.0  0.23335  0.57575  0.80732  1.0000
  H   H101      1.0  0.18099  0.51676  0.71950  1.0000
  O  Te11      1.0  0.14535  0.57672  0.09054  1.0000
  O  Te12      1.0  0.23149  0.63908  0.10739  1.0000
  H   H102      1.0  0.25610  0.57110  0.73406  1.0000
  Mg  Mg6       1.0  0.17910  0.63218  0.21124  1.0000
  C   C119      1.0  0.61909  0.43439  0.60348  1.0000
  C   C120      1.0  0.57797  0.41923  0.65831  1.0000
  C  Sn13      1.0  0.55778  0.38251  0.74371  1.0000
  C  Sn14      1.0  0.57924  0.36063  0.77466  1.0000
  C   C121      1.0  0.62038  0.37607  0.71940  1.0000
  C   C122      1.0  0.64028  0.41284  0.63401  1.0000
  H   H103      1.0  0.63450  0.46284  0.53749  1.0000
  O  Te13      1.0  0.51668  0.36779  0.79757  1.0000
  O  Te14      1.0  0.55981  0.32387  0.85978  1.0000
  H   H104      1.0  0.67213  0.42458  0.59167  1.0000
  Mg  Mg7       1.0  0.50354  0.31630  0.90833  1.0000
  C   C123      1.0  0.43453  0.65015  0.53892  1.0000
  C   C124      1.0  0.39821  0.63584  0.44642  1.0000
  C  Sn15      1.0  0.38147  0.59742  0.35273  1.0000
  C  Sn16      1.0  0.40153  0.57296  0.35192  1.0000
  C   C125      1.0  0.43783  0.58755  0.44498  1.0000
  C   C126      1.0  0.45432  0.62604  0.53824  1.0000
  H   H105      1.0  0.44727  0.67992  0.61116  1.0000
  O  Te15      1.0  0.34518  0.58359  0.26097  1.0000
  O  Te16      1.0  0.38546  0.53444  0.25943  1.0000
  H   H106      1.0  0.48242  0.63710  0.60994  1.0000
  Mg  Mg8       1.0  0.33530  0.52901  0.15451  1.0000
  C   C127      1.0  0.58045  0.21118  0.66280  1.0000
  C   C128      1.0  0.62029  0.24056  0.60980  1.0000
  C  Sn17      1.0  0.64236  0.22807  0.49690  1.0000
  C  Sn18      1.0  0.62412  0.18536  0.43611  1.0000
  C   C129      1.0  0.58423  0.15621  0.48981  1.0000
  C   C130      1.0  0.56243  0.16905  0.60286  1.0000
  H   H107      1.0  0.56357  0.22112  0.75020  1.0000
  O  Te17      1.0  0.68214  0.25782  0.44529  1.0000
  O  Te18      1.0  0.64548  0.17202  0.32314  1.0000
  H   H108      1.0  0.53157  0.14630  0.64379  1.0000
  Mg  Mg9       1.0  0.69888  0.22433  0.28987  1.0000
  C   C131      1.0  0.41065  0.78960  0.32634  1.0000
  C   C132      1.0  0.37778  0.76015  0.41935  1.0000
  C  Sn19      1.0  0.35418  0.77247  0.52409  1.0000
  C  Sn20      1.0  0.36372  0.81509  0.53564  1.0000
  C   C133      1.0  0.39664  0.84430  0.44199  1.0000
  C   C134      1.0  0.42007  0.83164  0.33761  1.0000
  H   H109      1.0  0.42876  0.77980  0.24551  1.0000
  O  Te19      1.0  0.32146  0.74264  0.61619  1.0000
  O  Te20      1.0  0.34062  0.82825  0.63931  1.0000
  H   H110      1.0  0.44550  0.85444  0.26553  1.0000
  Mg  Mg10      1.0  0.29904  0.77589  0.74004  1.0000
  C   C135      1.0  0.79991  0.38419  0.71180  1.0000
  C   C136      1.0  0.76734  0.38987  0.66177  1.0000
  C  Sn21      1.0  0.77561  0.42303  0.56450  1.0000
  C  Sn22      1.0  0.81729  0.45098  0.51659  1.0000
  C   C137      1.0  0.84965  0.44502  0.56719  1.0000
  C   C138      1.0  0.84103  0.41173  0.66455  1.0000
  H   H111      1.0  0.79324  0.35843  0.78706  1.0000
  O  Te21      1.0  0.74270  0.42826  0.51564  1.0000
  O  Te22      1.0  0.82643  0.48438  0.41935  1.0000
  H   H112      1.0  0.86625  0.40733  0.70319  1.0000
  Mg  Mg11      1.0  0.77094  0.47847  0.38375  1.0000
  C   C139      1.0  0.21667  0.55848  0.31482  1.0000
  C   C140      1.0  0.23961  0.59951  0.38564  1.0000
  C  Sn23      1.0  0.21953  0.61781  0.48007  1.0000
  C  Sn24      1.0  0.17567  0.59452  0.50387  1.0000
  C   C141      1.0  0.15301  0.55349  0.43260  1.0000
  C   C142      1.0  0.17341  0.53549  0.33828  1.0000
  H   H113      1.0  0.23246  0.54454  0.24193  1.0000
  O  Te23      1.0  0.24293  0.65883  0.54989  1.0000
  O  Te24      1.0  0.15482  0.61204  0.59773  1.0000
  H   H114      1.0  0.15564  0.50372  0.28356  1.0000
  Mg  Mg12      1.0  0.20032  0.66901  0.66764  1.0000
