data_image0
_chemical_formula_structural       C6OCOC3N2C10OCOC3N2C10OCOC3N2C4OC2NC4OC4O2C5NCOC4OH70C6OCOC3N2C10OCOC3N2C10OCOC3N2C4OC2NC4OC4O2C5NCOC4OH70C2Sn2C2HTe2HMgC2Sn2C2HTe2HMgC2Sn2C2HTe2HMgC2Sn2C2HTe2HMgC2Sn2C2HTe2HMgC2Sn2C2HTe2HMgC2Sn2C2HTe2HMgC2Sn2C2HTe2HMgC2Sn2C2HTe2HMgC2Sn2C2HTe2HMgC2Sn2C2HTe2HMgC2Sn2C2HTe2HMg
_chemical_formula_sum              "C172 O24 N16 H164 Sn24 Te24 Mg12"
_cell_length_a       35.3862
_cell_length_b       36.691
_cell_length_c       9.57039
_cell_angle_alpha    99.2475
_cell_angle_beta     105.018
_cell_angle_gamma    116.18

_symmetry_space_group_name_H-M    'P1'
_space_group_IT_number       1

loop_
  _space_group_symop_operation_xyz
  'x, y, z'

loop_
  _atom_site_type_symbol
  _atom_site_label
  _atom_site_symmetry_multiplicity
  _atom_site_fract_x
  _atom_site_fract_y
  _atom_site_fract_z
  _atom_site_occupancy
  C   C1        1.0  0.49029  0.53100  0.19551  1.0000
  C   C2        1.0  0.47998  0.49617  0.25505  1.0000
  C   C3        1.0  0.50691  0.47747  0.26765  1.0000
  C   C4        1.0  0.54435  0.49227  0.22219  1.0000
  C   C5        1.0  0.55490  0.52734  0.16387  1.0000
  C   C6        1.0  0.52774  0.54580  0.14999  1.0000
  O   O1        1.0  0.59236  0.54101  0.12431  1.0000
  C   C7        1.0  0.60225  0.57511  0.05878  1.0000
  O   O2        1.0  0.44198  0.48208  0.29117  1.0000
  C   C8        1.0  0.43040  0.44651  0.34914  1.0000
  C   C9        1.0  0.57100  0.47113  0.22853  1.0000
  C   C10       1.0  0.46178  0.55021  0.17753  1.0000
  N   N1        1.0  0.46584  0.57619  0.09760  1.0000
  N   N2        1.0  0.56028  0.43685  0.26848  1.0000
  C   C11       1.0  0.66380  0.35681  0.19774  1.0000
  C   C12       1.0  0.35384  0.65017  0.96320  1.0000
  C   C13       1.0  0.70521  0.37931  0.17943  1.0000
  C   C14       1.0  0.29864  0.68753  0.89289  1.0000
  C   C15       1.0  0.49379  0.95472  0.97161  1.0000
  C   C16       1.0  0.53775  0.98049  0.97179  1.0000
  C   C17       1.0  0.55312  0.02314  0.98028  1.0000
  C   C18       1.0  0.52538  0.04108  0.98357  1.0000
  C   C19       1.0  0.48045  0.01454  0.97349  1.0000
  C   C20       1.0  0.46561  0.97236  0.96986  1.0000
  O   O3        1.0  0.45400  0.03316  0.97196  1.0000
  C   C21       1.0  0.40627  0.00431  0.92521  1.0000
  O   O4        1.0  0.56324  0.96116  0.96604  1.0000
  C   C22       1.0  0.60723  0.98672  0.96220  1.0000
  C   C23       1.0  0.54350  0.08658  0.00308  1.0000
  C   C24       1.0  0.47767  0.91107  0.97629  1.0000
  N   N3        1.0  0.44026  0.89069  0.99844  1.0000
  N   N4        1.0  0.58656  0.11189  0.04084  1.0000
  C   C25       1.0  0.66725  0.29127  0.13026  1.0000
  C   C26       1.0  0.34638  0.71313  0.93934  1.0000
  C   C27       1.0  0.64578  0.31274  0.17387  1.0000
  C   C28       1.0  0.30676  0.62637  0.92516  1.0000
  C   C29       1.0  0.03595  0.52699  0.93419  1.0000
  C   C30       1.0  0.01311  0.54540  0.99354  1.0000
  C   C31       1.0  0.97609  0.52048  0.02848  1.0000
  C   C32       1.0  0.95994  0.47646  0.00445  1.0000
  C   C33       1.0  0.98293  0.45835  0.94712  1.0000
  C   C34       1.0  0.02004  0.48328  0.91270  1.0000
  O   O5        1.0  0.96926  0.41555  0.93092  1.0000
  C   C35       1.0  0.94598  0.38829  0.77438  1.0000
  O   O6        1.0  0.03026  0.58851  0.01384  1.0000
  C   C36       1.0  0.01339  0.60936  0.09881  1.0000
  C   C37       1.0  0.91980  0.44979  0.03403  1.0000
  C   C38       1.0  0.07644  0.55364  0.90679  1.0000
  N   N5        1.0  0.09883  0.53816  0.85715  1.0000
  N   N6        1.0  0.89745  0.46521  0.08381  1.0000
  C   C39       1.0  0.72826  0.35929  0.13635  1.0000
  C   C40       1.0  0.27932  0.64427  0.89268  1.0000
  C   C41       1.0  0.70856  0.31460  0.11112  1.0000
  C   C42       1.0  0.37237  0.69324  0.97067  1.0000
  O   O7        1.0  0.72768  0.29232  0.05569  1.0000
  C   C43       1.0  0.76586  0.29447  0.16600  1.0000
  C   C44       1.0  0.79524  0.28629  0.08589  1.0000
  N   N7        1.0  0.79745  0.24702  0.09007  1.0000
  C   C45       1.0  0.84414  0.25479  0.13234  1.0000
  C   C46       1.0  0.87083  0.29946  0.11939  1.0000
  C   C47       1.0  0.84557  0.32153  0.16167  1.0000
  C   C48       1.0  0.75918  0.20756  0.03882  1.0000
  O   O8        1.0  0.76973  0.17540  0.04098  1.0000
  C   C49       1.0  0.75117  0.14621  0.12786  1.0000
  C   C50       1.0  0.69936  0.11944  0.06086  1.0000
  C   C51       1.0  0.77197  0.11766  0.11684  1.0000
  C   C52       1.0  0.76874  0.17382  0.29262  1.0000
  O   O9        1.0  0.72056  0.20171  0.99393  1.0000
  O   O10       1.0  0.26588  0.69756  0.83490  1.0000
  C   C53       1.0  0.27242  0.73941  0.83575  1.0000
  C   C54       1.0  0.22674  0.73102  0.72755  1.0000
  C   C55       1.0  0.18563  0.69743  0.75304  1.0000
  C   C56       1.0  0.15314  0.71492  0.74126  1.0000
  C   C57       1.0  0.18561  0.76332  0.81095  1.0000
  N   N8        1.0  0.22276  0.76974  0.75665  1.0000
  C   C58       1.0  0.24365  0.80267  0.70362  1.0000
  O   O11       1.0  0.23457  0.83444  0.74996  1.0000
  C   C59       1.0  0.25200  0.87387  0.70608  1.0000
  C   C60       1.0  0.22772  0.86227  0.53512  1.0000
  C   C61       1.0  0.30363  0.89700  0.75456  1.0000
  C   C62       1.0  0.23840  0.90116  0.79638  1.0000
  O   O12       1.0  0.26716  0.80353  0.62777  1.0000
  H   H1        1.0  0.49997  0.45069  0.31195  1.0000
  H   H2        1.0  0.53412  0.57210  0.10340  1.0000
  H   H3        1.0  0.57325  0.56678  0.95688  1.0000
  H   H4        1.0  0.63085  0.57894  0.02571  1.0000
  H   H5        1.0  0.61179  0.60508  0.14213  1.0000
  H   H6        1.0  0.42153  0.41748  0.26247  1.0000
  H   H7        1.0  0.40083  0.44185  0.37715  1.0000
  H   H8        1.0  0.45819  0.45342  0.45251  1.0000
  H   H9        1.0  0.59948  0.48458  0.19039  1.0000
  H   H10       1.0  0.43747  0.54125  0.23473  1.0000
  H   H11       1.0  0.71912  0.41314  0.19112  1.0000
  H   H12       1.0  0.58709  0.04449  0.98651  1.0000
  H   H13       1.0  0.43207  0.95141  0.96800  1.0000
  H   H14       1.0  0.39823  0.98857  0.01073  1.0000
  H   H15       1.0  0.39324  0.97963  0.81550  1.0000
  H   H16       1.0  0.39040  0.02397  0.91283  1.0000
  H   H17       1.0  0.62123  0.96550  0.95367  1.0000
  H   H18       1.0  0.62950  0.01435  0.06687  1.0000
  H   H19       1.0  0.60464  0.99797  0.86220  1.0000
  H   H20       1.0  0.51948  0.09823  0.99068  1.0000
  H   H21       1.0  0.49900  0.89730  0.96403  1.0000
  H   H22       1.0  0.61461  0.29430  0.19203  1.0000
  H   H23       1.0  0.29069  0.59313  0.92264  1.0000
  H   H24       1.0  0.95817  0.53371  0.07448  1.0000
  H   H25       1.0  0.03809  0.46941  0.87064  1.0000
  H   H26       1.0  0.94250  0.35714  0.77521  1.0000
  H   H27       1.0  0.96520  0.40101  0.70305  1.0000
  H   H28       1.0  0.91214  0.38461  0.72694  1.0000
  H   H29       1.0  0.03274  0.64329  0.10937  1.0000
  H   H30       1.0  0.01902  0.60544  0.21273  1.0000
  H   H31       1.0  0.97705  0.59705  0.03852  1.0000
  H   H32       1.0  0.90964  0.41584  0.01121  1.0000
  H   H33       1.0  0.08757  0.58782  0.93392  1.0000
  H   H34       1.0  0.40900  0.71345  0.00849  1.0000
  H   H35       1.0  0.75351  0.27073  0.22423  1.0000
  H   H36       1.0  0.78629  0.32664  0.24967  1.0000
  H   H37       1.0  0.78121  0.28423  0.96625  1.0000
  H   H38       1.0  0.84499  0.22962  0.05659  1.0000
  H   H39       1.0  0.85687  0.25451  0.24986  1.0000
  H   H40       1.0  0.86893  0.29709  0.00162  1.0000
  H   H41       1.0  0.90679  0.31635  0.19334  1.0000
  H   H42       1.0  0.85205  0.34990  0.12550  1.0000
  H   H43       1.0  0.85514  0.33162  0.28617  1.0000
  H   H44       1.0  0.68802  0.09778  0.12701  1.0000
  H   H45       1.0  0.68709  0.10014  0.94194  1.0000
  H   H46       1.0  0.68392  0.13948  0.06503  1.0000
  H   H47       1.0  0.76021  0.09818  0.99841  1.0000
  H   H48       1.0  0.76178  0.09589  0.18364  1.0000
  H   H49       1.0  0.80915  0.13683  0.16180  1.0000
  H   H50       1.0  0.75365  0.19414  0.30146  1.0000
  H   H51       1.0  0.80582  0.19406  0.33688  1.0000
  H   H52       1.0  0.75960  0.15343  0.36421  1.0000
  H   H53       1.0  0.29971  0.75653  0.79645  1.0000
  H   H54       1.0  0.28046  0.75845  0.95141  1.0000
  H   H55       1.0  0.22439  0.72148  0.60949  1.0000
  H   H56       1.0  0.17032  0.66566  0.67118  1.0000
  H   H57       1.0  0.19685  0.69462  0.86674  1.0000
  H   H58       1.0  0.13013  0.70222  0.80137  1.0000
  H   H59       1.0  0.13246  0.70711  0.62148  1.0000
  H   H60       1.0  0.19834  0.77322  0.93602  1.0000
  H   H61       1.0  0.17125  0.78262  0.77337  1.0000
  H   H62       1.0  0.23869  0.84443  0.46908  1.0000
  H   H63       1.0  0.23517  0.89162  0.50463  1.0000
  H   H64       1.0  0.19086  0.84315  0.50315  1.0000
  H   H65       1.0  0.31432  0.87729  0.69651  1.0000
  H   H66       1.0  0.32002  0.90510  0.87789  1.0000
  H   H67       1.0  0.31494  0.92691  0.72589  1.0000
  H   H68       1.0  0.24845  0.93122  0.76921  1.0000
  H   H69       1.0  0.25544  0.90898  0.91934  1.0000
  H   H70       1.0  0.20160  0.88436  0.76800  1.0000
  C   C63       1.0  0.49215  0.53734  0.69058  1.0000
  C   C64       1.0  0.48179  0.50152  0.74468  1.0000
  C   C65       1.0  0.50761  0.48178  0.74599  1.0000
  C   C66       1.0  0.54425  0.49688  0.69660  1.0000
  C   C67       1.0  0.55609  0.53403  0.65037  1.0000
  C   C68       1.0  0.52962  0.55311  0.64532  1.0000
  O   O13       1.0  0.59363  0.54866  0.61128  1.0000
  C   C69       1.0  0.60455  0.58496  0.55746  1.0000
  O   O14       1.0  0.44463  0.48708  0.78546  1.0000
  C   C70       1.0  0.43509  0.45200  0.84603  1.0000
  C   C71       1.0  0.56840  0.47373  0.68609  1.0000
  C   C72       1.0  0.46352  0.55649  0.67581  1.0000
  N   N9        1.0  0.46669  0.58214  0.59480  1.0000
  N   N10       1.0  0.55341  0.43586  0.70038  1.0000
  C   C73       1.0  0.65488  0.35330  0.63635  1.0000
  C   C74       1.0  0.34968  0.65139  0.46275  1.0000
  C   C75       1.0  0.69799  0.37627  0.63116  1.0000
  C   C76       1.0  0.29230  0.68705  0.41758  1.0000
  C   C77       1.0  0.48625  0.95995  0.55375  1.0000
  C   C78       1.0  0.53049  0.98430  0.55339  1.0000
  C   C79       1.0  0.54602  0.02561  0.54478  1.0000
  C   C80       1.0  0.51787  0.04360  0.53128  1.0000
  C   C81       1.0  0.47330  0.01872  0.52549  1.0000
  C   C82       1.0  0.45847  0.97814  0.53980  1.0000
  O   O15       1.0  0.44408  0.03505  0.50828  1.0000
  C   C83       1.0  0.41648  0.02332  0.35062  1.0000
  O   O16       1.0  0.55585  0.96450  0.56255  1.0000
  C   C84       1.0  0.59613  0.98403  0.52916  1.0000
  C   C85       1.0  0.53551  0.08787  0.53008  1.0000
  C   C86       1.0  0.46898  0.91627  0.55882  1.0000
  N   N11       1.0  0.42835  0.89403  0.55643  1.0000
  N   N12       1.0  0.57835  0.11261  0.56468  1.0000
  C   C87       1.0  0.66140  0.28871  0.59670  1.0000
  C   C88       1.0  0.33963  0.71382  0.45830  1.0000
  C   C89       1.0  0.63751  0.30964  0.61946  1.0000
  C   C90       1.0  0.30260  0.62588  0.42230  1.0000
  C   C91       1.0  0.02999  0.52285  0.41620  1.0000
  C   C92       1.0  0.00911  0.54249  0.48097  1.0000
  C   C93       1.0  0.97346  0.51839  0.52311  1.0000
  C   C94       1.0  0.95784  0.47473  0.50437  1.0000
  C   C95       1.0  0.97931  0.45533  0.44187  1.0000
  C   C96       1.0  0.01433  0.47923  0.39699  1.0000
  O   O17       1.0  0.96386  0.41283  0.43051  1.0000
  C   C97       1.0  0.98839  0.39471  0.37927  1.0000
  O   O18       1.0  0.02643  0.58555  0.49912  1.0000
  C   C98       1.0  0.01147  0.60734  0.58965  1.0000
  C   C99       1.0  0.91928  0.44947  0.54233  1.0000
  C   C100      1.0  0.06937  0.54810  0.38192  1.0000
  N   N13       1.0  0.09175  0.53190  0.33615  1.0000
  N   N14       1.0  0.89767  0.46550  0.59486  1.0000
  C   C101      1.0  0.72356  0.35717  0.60945  1.0000
  C   C102      1.0  0.27397  0.64285  0.40158  1.0000
  C   C103      1.0  0.70464  0.31266  0.59031  1.0000
  C   C104      1.0  0.36690  0.69490  0.47824  1.0000
  O   O19       1.0  0.72981  0.29501  0.55584  1.0000
  C   C105      1.0  0.73787  0.26703  0.63356  1.0000
  C   C106      1.0  0.77065  0.25801  0.57902  1.0000
  N   N15       1.0  0.77445  0.22329  0.62858  1.0000
  C   C107      1.0  0.82176  0.23313  0.69091  1.0000
  C   C108      1.0  0.84766  0.27244  0.64516  1.0000
  C   C109      1.0  0.82004  0.29511  0.64338  1.0000
  C   C110      1.0  0.73742  0.18260  0.57153  1.0000
  O   O20       1.0  0.74900  0.15441  0.61795  1.0000
  C   C111      1.0  0.71198  0.11042  0.59213  1.0000
  C   C112      1.0  0.68836  0.08496  0.42201  1.0000
  C   C113      1.0  0.73852  0.09219  0.67795  1.0000
  C   C114      1.0  0.67883  0.11311  0.66237  1.0000
  O   O21       1.0  0.69942  0.17344  0.48884  1.0000
  O   O22       1.0  0.26059  0.69983  0.39181  1.0000
  C   C115      1.0  0.26665  0.73445  0.32936  1.0000
  C   C116      1.0  0.22048  0.72337  0.21782  1.0000
  C   C117      1.0  0.18053  0.70124  0.26847  1.0000
  C   C118      1.0  0.14683  0.71377  0.18773  1.0000
  C   C119      1.0  0.17790  0.76123  0.21142  1.0000
  N   N16       1.0  0.21966  0.76274  0.20463  1.0000
  C   C120      1.0  0.25655  0.79771  0.20531  1.0000
  O   O23       1.0  0.24981  0.83188  0.21550  1.0000
  C   C121      1.0  0.28812  0.87469  0.23583  1.0000
  C   C122      1.0  0.26579  0.90216  0.22962  1.0000
  C   C123      1.0  0.30499  0.87282  0.10542  1.0000
  C   C124      1.0  0.32620  0.89100  0.39003  1.0000
  O   O24       1.0  0.29060  0.79768  0.19527  1.0000
  H   H71       1.0  0.49997  0.45355  0.78191  1.0000
  H   H72       1.0  0.53622  0.58038  0.60416  1.0000
  H   H73       1.0  0.61351  0.61351  0.64707  1.0000
  H   H74       1.0  0.57625  0.57828  0.45613  1.0000
  H   H75       1.0  0.63385  0.59032  0.52659  1.0000
  H   H76       1.0  0.40588  0.44669  0.87738  1.0000
  H   H77       1.0  0.46393  0.46003  0.94807  1.0000
  H   H78       1.0  0.42650  0.42290  0.76019  1.0000
  H   H79       1.0  0.59862  0.48897  0.65775  1.0000
  H   H80       1.0  0.43969  0.54761  0.73496  1.0000
  H   H81       1.0  0.71162  0.40978  0.63823  1.0000
  H   H82       1.0  0.58009  0.04552  0.54868  1.0000
  H   H83       1.0  0.42447  0.95919  0.53837  1.0000
  H   H84       1.0  0.39488  0.98825  0.29991  1.0000
  H   H85       1.0  0.43757  0.03555  0.28364  1.0000
  H   H86       1.0  0.39512  0.03777  0.34870  1.0000
  H   H87       1.0  0.60839  0.96135  0.52663  1.0000
  H   H88       1.0  0.62235  0.01468  0.61792  1.0000
  H   H89       1.0  0.58862  0.98935  0.41776  1.0000
  H   H90       1.0  0.51128  0.09922  0.50654  1.0000
  H   H91       1.0  0.49175  0.90335  0.56273  1.0000
  H   H92       1.0  0.60459  0.29090  0.62651  1.0000
  H   H93       1.0  0.28754  0.59188  0.40867  1.0000
  H   H94       1.0  0.95627  0.53200  0.57198  1.0000
  H   H95       1.0  0.03172  0.46583  0.34840  1.0000
  H   H96       1.0  0.02465  0.41336  0.45228  1.0000
  H   H97       1.0  0.98447  0.39298  0.26002  1.0000
  H   H98       1.0  0.97370  0.36241  0.38891  1.0000
  H   H99       1.0  0.03137  0.64121  0.60022  1.0000
  H   H100      1.0  0.01786  0.60327  0.70344  1.0000
  H   H101      1.0  0.97516  0.59587  0.53318  1.0000
  H   H102      1.0  0.90860  0.41548  0.51972  1.0000
  H   H103      1.0  0.08053  0.58218  0.40354  1.0000
  H   H104      1.0  0.40337  0.71604  0.51566  1.0000
  H   H105      1.0  0.70659  0.23684  0.60448  1.0000
  H   H106      1.0  0.75266  0.28288  0.75752  1.0000
  H   H107      1.0  0.75688  0.24800  0.45342  1.0000
  H   H108      1.0  0.82438  0.20556  0.64280  1.0000
  H   H109      1.0  0.83347  0.24023  0.81541  1.0000
  H   H110      1.0  0.84722  0.26205  0.53012  1.0000
  H   H111      1.0  0.88321  0.29266  0.72334  1.0000
  H   H112      1.0  0.82567  0.31705  0.57562  1.0000
  H   H113      1.0  0.82827  0.31380  0.75996  1.0000
  H   H114      1.0  0.66274  0.05217  0.40767  1.0000
  H   H115      1.0  0.71266  0.08300  0.37391  1.0000
  H   H116      1.0  0.67127  0.09932  0.35903  1.0000
  H   H117      1.0  0.76268  0.09095  0.62771  1.0000
  H   H118      1.0  0.71508  0.05958  0.67267  1.0000
  H   H119      1.0  0.75733  0.11240  0.79764  1.0000
  H   H120      1.0  0.65510  0.12002  0.58983  1.0000
  H   H121      1.0  0.69709  0.13792  0.77414  1.0000
  H   H122      1.0  0.65904  0.08242  0.67923  1.0000
  H   H123      1.0  0.29110  0.74007  0.27371  1.0000
  H   H124      1.0  0.27947  0.76372  0.42178  1.0000
  H   H125      1.0  0.21324  0.70350  0.10464  1.0000
  H   H126      1.0  0.16725  0.66672  0.24151  1.0000
  H   H127      1.0  0.19195  0.71482  0.39259  1.0000
  H   H128      1.0  0.12035  0.70855  0.23460  1.0000
  H   H129      1.0  0.13016  0.69542  0.06555  1.0000
  H   H130      1.0  0.18467  0.78124  0.32345  1.0000
  H   H131      1.0  0.16467  0.77318  0.12441  1.0000
  H   H132      1.0  0.23685  0.88866  0.12152  1.0000
  H   H133      1.0  0.29059  0.93472  0.23897  1.0000
  H   H134      1.0  0.25368  0.90424  0.32333  1.0000
  H   H135      1.0  0.27671  0.85858  0.99583  1.0000
  H   H136      1.0  0.32193  0.85410  0.10906  1.0000
  H   H137      1.0  0.32924  0.90566  0.11517  1.0000
  H   H138      1.0  0.35204  0.92417  0.40955  1.0000
  H   H139      1.0  0.34279  0.87188  0.39416  1.0000
  H   H140      1.0  0.31359  0.89097  0.48293  1.0000
  C   C125      1.0  0.56566  0.36407  0.17924  1.0000
  C   C126      1.0  0.58120  0.40606  0.26398  1.0000
  C  Sn1       1.0  0.62770  0.43572  0.33154  1.0000
  C  Sn2       1.0  0.65913  0.42303  0.31370  1.0000
  C   C127      1.0  0.64323  0.38096  0.22860  1.0000
  C   C128      1.0  0.59664  0.35153  0.16153  1.0000
  H   H141      1.0  0.52960  0.34131  0.12727  1.0000
  O  Te1       1.0  0.64265  0.47754  0.41588  1.0000
  O  Te2       1.0  0.70578  0.45203  0.37995  1.0000
  H   H142      1.0  0.58461  0.31904  0.09584  1.0000
  Mg  Mg1       1.0  0.70954  0.50539  0.48430  1.0000
  C   C129      1.0  0.37203  0.58976  0.08217  1.0000
  C   C130      1.0  0.38019  0.62424  0.02579  1.0000
  C  Sn3       1.0  0.52829  0.73148  0.98247  1.0000
  C  Sn4       1.0  0.55787  0.71474  0.99593  1.0000
  C   C131      1.0  0.43857  0.59114  0.05236  1.0000
  C   C132      1.0  0.40118  0.57322  0.09542  1.0000
  H   H143      1.0  0.34309  0.57587  0.11541  1.0000
  O  Te3       1.0  0.53595  0.76593  0.92643  1.0000
  O  Te4       1.0  0.59536  0.73227  0.95341  1.0000
  H   H144      1.0  0.39486  0.54650  0.13897  1.0000
  Mg  Mg2       1.0  0.59155  0.77892  0.88344  1.0000
  C   C133      1.0  0.66593  0.21896  0.21592  1.0000
  C   C134      1.0  0.65246  0.24108  0.12762  1.0000
  C  Sn5       1.0  0.61183  0.21900  0.00054  1.0000
  C  Sn6       1.0  0.69507  0.26303  0.96143  1.0000
  C   C135      1.0  0.59801  0.15213  0.05055  1.0000
  C   C136      1.0  0.63874  0.17453  0.17745  1.0000
  H   H145      1.0  0.69743  0.23629  0.31415  1.0000
  O  Te5       1.0  0.70971  0.33067  0.91354  1.0000
  O  Te6       1.0  0.65429  0.24017  0.83504  1.0000
  H   H146      1.0  0.64915  0.15740  0.24585  1.0000
  Mg  Mg3       1.0  0.65120  0.28527  0.75190  1.0000
  C   C137      1.0  0.37222  0.80137  0.07740  1.0000
  C   C138      1.0  0.48073  0.85539  0.98451  1.0000
  C  Sn7       1.0  0.50721  0.86160  0.89510  1.0000
  C  Sn8       1.0  0.53654  0.90372  0.89903  1.0000
  C   C139      1.0  0.53864  0.93859  0.99242  1.0000
  C   C140      1.0  0.40116  0.84293  0.08139  1.0000
  H   H147      1.0  0.35162  0.79629  0.14631  1.0000
  O  Te7       1.0  0.50446  0.82621  0.80289  1.0000
  O  Te8       1.0  0.56339  0.91084  0.81086  1.0000
  H   H148      1.0  0.40299  0.87009  0.15338  1.0000
  Mg  Mg4       1.0  0.54774  0.85232  0.70342  1.0000
  C   C141      1.0  0.79057  0.37293  0.97640  1.0000
  C   C142      1.0  0.66416  0.29137  0.09184  1.0000
  C  Sn9       1.0  0.68980  0.33026  0.21055  1.0000
  C  Sn10      1.0  0.73180  0.36215  0.21340  1.0000
  C   C143      1.0  0.74708  0.35433  0.09731  1.0000
  C   C144      1.0  0.83199  0.40437  0.97909  1.0000
  H   H149      1.0  0.77050  0.34274  0.88488  1.0000
  O  Te9       1.0  0.67374  0.33724  0.32501  1.0000
  O  Te10      1.0  0.75811  0.40130  0.33067  1.0000
  H   H150      1.0  0.84405  0.39857  0.88967  1.0000
  Mg  Mg5       1.0  0.72180  0.39572  0.46074  1.0000
  C   C145      1.0  0.16615  0.55368  0.73582  1.0000
  C   C146      1.0  0.14594  0.56073  0.83678  1.0000
  C  Sn11      1.0  0.16898  0.59919  0.95666  1.0000
  C  Sn12      1.0  0.21307  0.63113  0.97551  1.0000
  C   C147      1.0  0.23299  0.62379  0.87383  1.0000
  C   C148      1.0  0.20963  0.58518  0.75429  1.0000
  H   H151      1.0  0.14807  0.52382  0.64328  1.0000
  O  Te11      1.0  0.03747  0.51662  0.05652  1.0000
  O  Te12      1.0  0.12603  0.58079  0.09431  1.0000
  H   H152      1.0  0.22528  0.57975  0.67609  1.0000
  Mg  Mg6       1.0  0.08354  0.57465  0.20082  1.0000
  C   C149      1.0  0.55672  0.36316  0.58494  1.0000
  C   C150      1.0  0.57217  0.40389  0.68086  1.0000
  C  Sn13      1.0  0.61850  0.43170  0.76472  1.0000
  C  Sn14      1.0  0.64987  0.41840  0.75206  1.0000
  C   C151      1.0  0.63407  0.37760  0.65570  1.0000
  C   C152      1.0  0.58764  0.35002  0.57234  1.0000
  H   H153      1.0  0.52080  0.34182  0.52037  1.0000
  O  Te13      1.0  0.63336  0.47227  0.86006  1.0000
  O  Te14      1.0  0.69636  0.44556  0.83454  1.0000
  H   H154      1.0  0.57569  0.31850  0.49801  1.0000
  Mg  Mg7       1.0  0.70004  0.49775  0.94929  1.0000
  C   C153      1.0  0.36881  0.58946  0.56414  1.0000
  C   C154      1.0  0.37714  0.62584  0.51952  1.0000
  C  Sn15      1.0  0.41620  0.64778  0.48861  1.0000
  C  Sn16      1.0  0.44742  0.63293  0.50269  1.0000
  C   C155      1.0  0.43875  0.59648  0.54729  1.0000
  C   C156      1.0  0.39958  0.57478  0.57800  1.0000
  H   H155      1.0  0.33849  0.57265  0.58782  1.0000
  O  Te15      1.0  0.42401  0.68409  0.44421  1.0000
  O  Te16      1.0  0.48671  0.65424  0.47243  1.0000
  H   H156      1.0  0.39312  0.54659  0.61244  1.0000
  Mg  Mg8       1.0  0.48237  0.70221  0.41556  1.0000
  C   C157      1.0  0.64186  0.19800  0.72286  1.0000
  C   C158      1.0  0.60530  0.16235  0.60326  1.0000
  C  Sn17      1.0  0.58565  0.16710  0.46576  1.0000
  C  Sn18      1.0  0.60302  0.20835  0.44799  1.0000
  C   C159      1.0  0.63963  0.24381  0.56828  1.0000
  C   C160      1.0  0.65902  0.23869  0.70540  1.0000
  H   H157      1.0  0.65688  0.19404  0.82892  1.0000
  O  Te17      1.0  0.54913  0.13115  0.34745  1.0000
  O  Te18      1.0  0.58404  0.21401  0.31176  1.0000
  H   H158      1.0  0.68735  0.26629  0.79795  1.0000
  Mg  Mg9       1.0  0.53476  0.15522  0.18367  1.0000
  C   C161      1.0  0.40418  0.78871  0.41565  1.0000
  C   C162      1.0  0.37342  0.76504  0.47743  1.0000
  C  Sn19      1.0  0.35903  0.78512  0.57059  1.0000
  C  Sn20      1.0  0.37579  0.82972  0.60223  1.0000
  C   C163      1.0  0.40652  0.85311  0.53979  1.0000
  C   C164      1.0  0.42071  0.83271  0.44676  1.0000
  H   H159      1.0  0.41514  0.77292  0.34361  1.0000
  O  Te19      1.0  0.32830  0.76099  0.63142  1.0000
  O  Te20      1.0  0.36196  0.85059  0.69492  1.0000
  H   H160      1.0  0.44450  0.85104  0.39886  1.0000
  Mg  Mg10      1.0  0.31958  0.80393  0.75124  1.0000
  C   C165      1.0  0.83082  0.45217  0.71766  1.0000
  C   C166      1.0  0.85334  0.44195  0.63190  1.0000
  C  Sn21      1.0  0.83174  0.40150  0.52390  1.0000
  C  Sn22      1.0  0.78675  0.37078  0.50156  1.0000
  C   C167      1.0  0.76450  0.38132  0.58786  1.0000
  C   C168      1.0  0.78644  0.42189  0.69566  1.0000
  H   H161      1.0  0.84778  0.48356  0.80101  1.0000
  O  Te21      1.0  0.85474  0.39181  0.43923  1.0000
  O  Te22      1.0  0.76436  0.33011  0.39434  1.0000
  H   H162      1.0  0.76898  0.42980  0.76197  1.0000
  Mg  Mg11      1.0  0.80990  0.33209  0.30678  1.0000
  C   C169      1.0  0.19733  0.62558  0.48487  1.0000
  C   C170      1.0  0.22193  0.61859  0.40144  1.0000
  C  Sn23      1.0  0.20109  0.58124  0.27813  1.0000
  C  Sn24      1.0  0.15475  0.55038  0.23784  1.0000
  C   C171      1.0  0.13042  0.55769  0.32196  1.0000
  C   C172      1.0  0.15162  0.59517  0.44518  1.0000
  H   H163      1.0  0.21371  0.65459  0.58015  1.0000
  O  Te23      1.0  0.22617  0.57476  0.19602  1.0000
  O  Te24      1.0  0.13308  0.51278  0.11509  1.0000
  H   H164      1.0  0.13255  0.60059  0.50969  1.0000
  Mg  Mg12      1.0  0.18159  0.51848  0.03811  1.0000
