data_image0
_chemical_formula_structural       C6OCOC3N2C10OCOC3N2C10OCOC3N2C4OC4NCO2H43C6OCOC3N2C10OCOC3N2C10OCOC3N2C4OC4NCO2H43C2Sn2C2HTe2HMgC2Sn2C2HTe2HMgC2Sn2C2HTe2HMgC2Sn2C2HTe2HMgC2Sn2C2HTe2HMgC2Sn2C2HTe2HMgC2Sn2C2HTe2HMgC2Sn2C2HTe2HMgC2Sn2C2HTe2HMgC2Sn2C2HTe2HMgC2Sn2C2HTe2HMgC2Sn2C2HTe2HMg
_chemical_formula_sum              "C142 O18 N14 H110 Sn24 Te24 Mg12"
_cell_length_a       35.4704
_cell_length_b       37.2093
_cell_length_c       8.17401
_cell_angle_alpha    115.899
_cell_angle_beta     90.4692
_cell_angle_gamma    117.815

_symmetry_space_group_name_H-M    'P1'
_space_group_IT_number       1

loop_
  _space_group_symop_operation_xyz
  'x, y, z'

loop_
  _atom_site_type_symbol
  _atom_site_label
  _atom_site_symmetry_multiplicity
  _atom_site_fract_x
  _atom_site_fract_y
  _atom_site_fract_z
  _atom_site_occupancy
  C   C1        1.0  0.48034  0.53244  0.04498  1.0000
  C   C2        1.0  0.46194  0.49018  0.05103  1.0000
  C   C3        1.0  0.48945  0.47663  0.09304  1.0000
  C   C4        1.0  0.53564  0.50441  0.13188  1.0000
  C   C5        1.0  0.55404  0.54704  0.12894  1.0000
  C   C6        1.0  0.52651  0.56012  0.08356  1.0000
  O   O1        1.0  0.59962  0.57361  0.17448  1.0000
  C   C7        1.0  0.61850  0.61625  0.16794  1.0000
  O   O2        1.0  0.41647  0.46418  0.01084  1.0000
  C   C8        1.0  0.39787  0.42292  0.02821  1.0000
  C   C9        1.0  0.56434  0.48997  0.17257  1.0000
  C   C10       1.0  0.45288  0.54817  0.00275  1.0000
  N   N1        1.0  0.47084  0.58675  0.99619  1.0000
  N   N2        1.0  0.54924  0.44980  0.16374  1.0000
  C   C11       1.0  0.66232  0.38127  0.19421  1.0000
  C   C12       1.0  0.36778  0.65437  0.84389  1.0000
  C   C13       1.0  0.70789  0.40780  0.21949  1.0000
  C   C14       1.0  0.31500  0.69114  0.83424  1.0000
  C   C15       1.0  0.48390  0.95747  0.83305  1.0000
  C   C16       1.0  0.52155  0.97860  0.77325  1.0000
  C   C17       1.0  0.53924  0.02410  0.80868  1.0000
  C   C18       1.0  0.51954  0.05009  0.89919  1.0000
  C   C19       1.0  0.48140  0.02865  0.95588  1.0000
  C   C20       1.0  0.46458  0.98361  0.92559  1.0000
  O   O3        1.0  0.46239  0.05448  0.04630  1.0000
  C   C21       1.0  0.41523  0.03026  0.97194  1.0000
  O   O4        1.0  0.54083  0.95341  0.67350  1.0000
  C   C22       1.0  0.57238  0.95546  0.79390  1.0000
  C   C23       1.0  0.53804  0.09782  0.93613  1.0000
  C   C24       1.0  0.46556  0.91012  0.80144  1.0000
  N   N3        1.0  0.43480  0.89367  0.87820  1.0000
  N   N4        1.0  0.57450  0.11860  0.89503  1.0000
  C   C25       1.0  0.67009  0.31357  0.11734  1.0000
  C   C26       1.0  0.35928  0.71472  0.83032  1.0000
  C   C27       1.0  0.64456  0.33448  0.14630  1.0000
  C   C28       1.0  0.32350  0.63178  0.84764  1.0000
  C   C29       1.0  0.05547  0.54855  0.98243  1.0000
  C   C30       1.0  0.03026  0.57037  0.03134  1.0000
  C   C31       1.0  0.99098  0.54951  0.07614  1.0000
  C   C32       1.0  0.97477  0.50619  0.06815  1.0000
  C   C33       1.0  0.99916  0.48352  0.01366  1.0000
  C   C34       1.0  0.03920  0.50520  0.97408  1.0000
  O   O5        1.0  0.98089  0.44072  0.00272  1.0000
  C   C35       1.0  0.00472  0.41687  0.94322  1.0000
  O   O6        1.0  0.04719  0.61221  0.03223  1.0000
  C   C36       1.0  0.02383  0.63612  0.09847  1.0000
  C   C37       1.0  0.93243  0.48362  0.10460  1.0000
  C   C38       1.0  0.09795  0.57134  0.94564  1.0000
  N   N5        1.0  0.12297  0.55379  0.91475  1.0000
  N   N6        1.0  0.90949  0.50350  0.15921  1.0000
  C   C39       1.0  0.73505  0.38879  0.18530  1.0000
  C   C40       1.0  0.29680  0.64978  0.84293  1.0000
  C   C41       1.0  0.71598  0.34099  0.13570  1.0000
  C   C42       1.0  0.38508  0.69550  0.83358  1.0000
  O   O7        1.0  0.74100  0.32004  0.08038  1.0000
  C   C43       1.0  0.74205  0.26456  0.17448  1.0000
  C   C44       1.0  0.76341  0.31491  0.21413  1.0000
  C   C45       1.0  0.81005  0.32607  0.18573  1.0000
  C   C46       1.0  0.80862  0.27945  0.09515  1.0000
  N   N7        1.0  0.76068  0.24349  0.02609  1.0000
  C   C47       1.0  0.83382  0.27492  0.22944  1.0000
  O   O8        1.0  0.82508  0.23004  0.14825  1.0000
  O   O9        1.0  0.85878  0.30559  0.38684  1.0000
  H   H1        1.0  0.47681  0.44451  0.09853  1.0000
  H   H2        1.0  0.53901  0.59212  0.07736  1.0000
  H   H3        1.0  0.60801  0.60915  0.02475  1.0000
  H   H4        1.0  0.65435  0.63194  0.20805  1.0000
  H   H5        1.0  0.60944  0.64037  0.26808  1.0000
  H   H6        1.0  0.40571  0.39739  0.92925  1.0000
  H   H7        1.0  0.36205  0.40778  0.99273  1.0000
  H   H8        1.0  0.40947  0.43145  0.17290  1.0000
  H   H9        1.0  0.59983  0.51509  0.20944  1.0000
  H   H10       1.0  0.41724  0.52664  0.98122  1.0000
  H   H11       1.0  0.72326  0.44477  0.26424  1.0000
  H   H12       1.0  0.29415  0.70481  0.82790  1.0000
  H   H13       1.0  0.56832  0.04030  0.76371  1.0000
  H   H14       1.0  0.43589  0.96705  0.97161  1.0000
  H   H15       1.0  0.40720  0.01893  0.82093  1.0000
  H   H16       1.0  0.40575  0.05576  0.05201  1.0000
  H   H17       1.0  0.39738  0.99975  0.99173  1.0000
  H   H18       1.0  0.59881  0.99195  0.89103  1.0000
  H   H19       1.0  0.58648  0.93633  0.70073  1.0000
  H   H20       1.0  0.55630  0.93866  0.87645  1.0000
  H   H21       1.0  0.51969  0.11473  0.00187  1.0000
  H   H22       1.0  0.47941  0.89026  0.71112  1.0000
  H   H23       1.0  0.60909  0.31224  0.11900  1.0000
  H   H24       1.0  0.31047  0.60177  0.86896  1.0000
  H   H25       1.0  0.97052  0.56473  0.11327  1.0000
  H   H26       1.0  0.05946  0.48971  0.93666  1.0000
  H   H27       1.0  0.03686  0.43662  0.04640  1.0000
  H   H28       1.0  0.00910  0.41103  0.80253  1.0000
  H   H29       1.0  0.98378  0.38309  0.93620  1.0000
  H   H30       1.0  0.04173  0.66793  0.08813  1.0000
  H   H31       1.0  0.02368  0.64558  0.24602  1.0000
  H   H32       1.0  0.98945  0.61465  0.01141  1.0000
  H   H33       1.0  0.91989  0.44783  0.07619  1.0000
  H   H34       1.0  0.10768  0.60407  0.94644  1.0000
  H   H35       1.0  0.41965  0.71374  0.83470  1.0000
  H   H36       1.0  0.70605  0.24497  0.13106  1.0000
  H   H37       1.0  0.75216  0.26664  0.30715  1.0000
  H   H38       1.0  0.76432  0.33809  0.35662  1.0000
  H   H39       1.0  0.83556  0.35124  0.32067  1.0000
  H   H40       1.0  0.81753  0.34131  0.09353  1.0000
  H   H41       1.0  0.82372  0.27505  0.97618  1.0000
  H   H42       1.0  0.75560  0.21295  0.01396  1.0000
  H   H43       1.0  0.83738  0.22671  0.24606  1.0000
  C   C48       1.0  0.47545  0.50894  0.54645  1.0000
  C   C49       1.0  0.45669  0.46676  0.55317  1.0000
  C   C50       1.0  0.48380  0.45302  0.59736  1.0000
  C   C51       1.0  0.53002  0.48032  0.63555  1.0000
  C   C52       1.0  0.54881  0.52247  0.62796  1.0000
  C   C53       1.0  0.52165  0.53599  0.58269  1.0000
  O   O10       1.0  0.59426  0.54781  0.66723  1.0000
  C   C54       1.0  0.61378  0.58904  0.64958  1.0000
  O   O11       1.0  0.41107  0.44086  0.50905  1.0000
  C   C55       1.0  0.39171  0.39812  0.51507  1.0000
  C   C56       1.0  0.55801  0.46514  0.67735  1.0000
  C   C57       1.0  0.44735  0.52381  0.50283  1.0000
  N   N8        1.0  0.46302  0.56027  0.48177  1.0000
  N   N9        1.0  0.54145  0.42501  0.67076  1.0000
  C   C58       1.0  0.64352  0.34452  0.69009  1.0000
  C   C59       1.0  0.34845  0.61790  0.33791  1.0000
  C   C60       1.0  0.68944  0.36909  0.72255  1.0000
  C   C61       1.0  0.29386  0.65245  0.32282  1.0000
  C   C62       1.0  0.45882  0.92185  0.34235  1.0000
  C   C63       1.0  0.49794  0.94334  0.29054  1.0000
  C   C64       1.0  0.51499  0.98828  0.31944  1.0000
  C   C65       1.0  0.49395  0.01334  0.39995  1.0000
  C   C66       1.0  0.45486  0.99176  0.45068  1.0000
  C   C67       1.0  0.43783  0.94697  0.42221  1.0000
  O   O12       1.0  0.43299  0.01557  0.53085  1.0000
  C   C68       1.0  0.40336  0.01016  0.38856  1.0000
  O   O13       1.0  0.51769  0.91776  0.21387  1.0000
  C   C69       1.0  0.56507  0.94426  0.25619  1.0000
  C   C70       1.0  0.51256  0.06070  0.43351  1.0000
  C   C71       1.0  0.44164  0.87539  0.31697  1.0000
  N   N10       1.0  0.40978  0.85803  0.38799  1.0000
  N   N11       1.0  0.54673  0.07943  0.37631  1.0000
  C   C72       1.0  0.64594  0.27308  0.59158  1.0000
  C   C73       1.0  0.33859  0.67817  0.32923  1.0000
  C   C74       1.0  0.62289  0.29680  0.63004  1.0000
  C   C75       1.0  0.30347  0.59310  0.33120  1.0000
  C   C76       1.0  0.03374  0.50983  0.46527  1.0000
  C   C77       1.0  0.00812  0.53107  0.52506  1.0000
  C   C78       1.0  0.97043  0.50989  0.57953  1.0000
  C   C79       1.0  0.95619  0.46676  0.57183  1.0000
  C   C80       1.0  0.98139  0.44539  0.50906  1.0000
  C   C81       1.0  0.01943  0.46697  0.45841  1.0000
  O   O14       1.0  0.96762  0.40345  0.50567  1.0000
  C   C82       1.0  0.96035  0.36552  0.32457  1.0000
  O   O15       1.0  0.02325  0.57241  0.52596  1.0000
  C   C83       1.0  0.99576  0.59214  0.56591  1.0000
  C   C84       1.0  0.91505  0.44277  0.61554  1.0000
  C   C85       1.0  0.07479  0.53283  0.41967  1.0000
  N   N12       1.0  0.09869  0.51401  0.36962  1.0000
  N   N13       1.0  0.89095  0.46108  0.67236  1.0000
  C   C86       1.0  0.71426  0.34742  0.67931  1.0000
  C   C87       1.0  0.27583  0.61006  0.32348  1.0000
  C   C88       1.0  0.69223  0.29833  0.61091  1.0000
  C   C89       1.0  0.36521  0.65996  0.33461  1.0000
  O   O16       1.0  0.71426  0.27464  0.53584  1.0000
  C   C90       1.0  0.71401  0.20942  0.56022  1.0000
  C   C91       1.0  0.73570  0.26310  0.64306  1.0000
  C   C92       1.0  0.78424  0.27880  0.63014  1.0000
  C   C93       1.0  0.78470  0.23302  0.53652  1.0000
  N   N14       1.0  0.74972  0.20119  0.58811  1.0000
  C   C94       1.0  0.82885  0.23934  0.59429  1.0000
  O   O17       1.0  0.84059  0.21473  0.44249  1.0000
  O   O18       1.0  0.85308  0.26219  0.75301  1.0000
  H   H44       1.0  0.47082  0.42096  0.60353  1.0000
  H   H45       1.0  0.53460  0.56764  0.57331  1.0000
  H   H46       1.0  0.60717  0.61544  0.75083  1.0000
  H   H47       1.0  0.60188  0.58079  0.50576  1.0000
  H   H48       1.0  0.64941  0.60289  0.68126  1.0000
  H   H49       1.0  0.35590  0.38277  0.47516  1.0000
  H   H50       1.0  0.40210  0.40513  0.65816  1.0000
  H   H51       1.0  0.40052  0.37379  0.41456  1.0000
  H   H52       1.0  0.59367  0.48953  0.71365  1.0000
  H   H53       1.0  0.41221  0.50288  0.49218  1.0000
  H   H54       1.0  0.70700  0.40673  0.77948  1.0000
  H   H55       1.0  0.27202  0.66466  0.31147  1.0000
  H   H56       1.0  0.54507  0.00579  0.28284  1.0000
  H   H57       1.0  0.40804  0.93041  0.46272  1.0000
  H   H58       1.0  0.42178  0.02605  0.30695  1.0000
  H   H59       1.0  0.38642  0.02816  0.46241  1.0000
  H   H60       1.0  0.37901  0.97282  0.29187  1.0000
  H   H61       1.0  0.57507  0.91833  0.20562  1.0000
  H   H62       1.0  0.57947  0.96776  0.40933  1.0000
  H   H63       1.0  0.57668  0.96469  0.18340  1.0000
  H   H64       1.0  0.49603  0.07894  0.50965  1.0000
  H   H65       1.0  0.45741  0.85673  0.23631  1.0000
  H   H66       1.0  0.58708  0.27610  0.59867  1.0000
  H   H67       1.0  0.29037  0.56165  0.34263  1.0000
  H   H68       1.0  0.95019  0.52518  0.62533  1.0000
  H   H69       1.0  0.03979  0.45169  0.41519  1.0000
  H   H70       1.0  0.99145  0.37126  0.28555  1.0000
  H   H71       1.0  0.93776  0.36094  0.21431  1.0000
  H   H72       1.0  0.94484  0.33404  0.33810  1.0000
  H   H73       1.0  0.01339  0.62395  0.55531  1.0000
  H   H74       1.0  0.99158  0.60129  0.70892  1.0000
  H   H75       1.0  0.96335  0.56799  0.46120  1.0000
  H   H76       1.0  0.90482  0.40744  0.58790  1.0000
  H   H77       1.0  0.08428  0.56661  0.43154  1.0000
  H   H78       1.0  0.39984  0.67896  0.33809  1.0000
  H   H79       1.0  0.69929  0.19165  0.40834  1.0000
  H   H80       1.0  0.68819  0.19441  0.62297  1.0000
  H   H81       1.0  0.73514  0.28039  0.79008  1.0000
  H   H82       1.0  0.80726  0.30188  0.77154  1.0000
  H   H83       1.0  0.79466  0.29802  0.55326  1.0000
  H   H84       1.0  0.77492  0.21629  0.38209  1.0000
  H   H85       1.0  0.75932  0.21465  0.73151  1.0000
  H   H86       1.0  0.86905  0.22084  0.49718  1.0000
  C   C95       1.0  0.64593  0.44524  0.14734  1.0000
  C   C96       1.0  0.63947  0.41244  0.20163  1.0000
  C  Sn1       1.0  0.59997  0.38927  0.24268  1.0000
  C  Sn2       1.0  0.56637  0.39918  0.22895  1.0000
  C   C97       1.0  0.57315  0.43203  0.17439  1.0000
  C   C98       1.0  0.61281  0.45503  0.13369  1.0000
  H   H87       1.0  0.67660  0.46301  0.11575  1.0000
  O  Te1       1.0  0.59406  0.35661  0.29679  1.0000
  O  Te2       1.0  0.52657  0.37652  0.26910  1.0000
  H   H88       1.0  0.61779  0.48040  0.09154  1.0000
  Mg  Mg1       1.0  0.53411  0.33485  0.33704  1.0000
  C   C99       1.0  0.37725  0.57767  0.78910  1.0000
  C   C100      1.0  0.38947  0.62421  0.85627  1.0000
  C  Sn3       1.0  0.43221  0.66072  0.96843  1.0000
  C  Sn4       1.0  0.40078  0.52661  0.01389  1.0000
  C   C101      1.0  0.45070  0.60367  0.94589  1.0000
  C   C102      1.0  0.40783  0.56741  0.83382  1.0000
  H   H89       1.0  0.34409  0.54961  0.70231  1.0000
  O  Te3       1.0  0.38141  0.58329  0.03442  1.0000
  O  Te4       1.0  0.44373  0.56243  0.12566  1.0000
  H   H90       1.0  0.39839  0.53138  0.78173  1.0000
  Mg  Mg2       1.0  0.44387  0.61995  0.18201  1.0000
  C   C103      1.0  0.60172  0.23638  0.14370  1.0000
  C   C104      1.0  0.63841  0.25957  0.08781  1.0000
  C  Sn5       1.0  0.71485  0.35790  0.94780  1.0000
  C  Sn6       1.0  0.69162  0.30836  0.86237  1.0000
  C   C105      1.0  0.65494  0.28548  0.91918  1.0000
  C   C106      1.0  0.57877  0.18751  0.05947  1.0000
  H   H91       1.0  0.59109  0.25630  0.25217  1.0000
  O  Te5       1.0  0.75158  0.38163  0.89368  1.0000
  O  Te6       1.0  0.70488  0.28211  0.72204  1.0000
  H   H92       1.0  0.55035  0.16954  0.10262  1.0000
  Mg  Mg3       1.0  0.75691  0.33042  0.69640  1.0000
  C   C107      1.0  0.36257  0.80089  0.93421  1.0000
  C   C108      1.0  0.37254  0.76583  0.84868  1.0000
  C  Sn7       1.0  0.40824  0.77341  0.76865  1.0000
  C  Sn8       1.0  0.43438  0.81693  0.77462  1.0000
  C   C109      1.0  0.42415  0.85178  0.86064  1.0000
  C   C110      1.0  0.38835  0.84382  0.94023  1.0000
  H   H93       1.0  0.33489  0.79474  0.99589  1.0000
  O  Te7       1.0  0.41773  0.73801  0.68369  1.0000
  O  Te8       1.0  0.47025  0.82544  0.69579  1.0000
  H   H94       1.0  0.31820  0.74725  0.00655  1.0000
  Mg  Mg4       1.0  0.47000  0.76630  0.59578  1.0000
  C   C111      1.0  0.79838  0.46321  0.12765  1.0000
  C   C112      1.0  0.78249  0.42665  0.16777  1.0000
  C  Sn9       1.0  0.81179  0.41764  0.23335  1.0000
  C  Sn10      1.0  0.85781  0.44583  0.25914  1.0000
  C   C113      1.0  0.87338  0.48234  0.21872  1.0000
  C   C114      1.0  0.84377  0.49103  0.15312  1.0000
  H   H95       1.0  0.77548  0.46996  0.07699  1.0000
  O  Te9       1.0  0.79536  0.38097  0.27269  1.0000
  O  Te10      1.0  0.88782  0.43760  0.32457  1.0000
  H   H96       1.0  0.85608  0.51936  0.12218  1.0000
  Mg  Mg5       1.0  0.84938  0.38353  0.35866  1.0000
  C   C115      1.0  0.22459  0.65227  0.99584  1.0000
  C   C116      1.0  0.24820  0.63320  0.89336  1.0000
  C  Sn11      1.0  0.22824  0.58468  0.78126  1.0000
  C  Sn12      1.0  0.18382  0.55478  0.77183  1.0000
  C   C117      1.0  0.16048  0.57421  0.87479  1.0000
  C   C118      1.0  0.18077  0.62281  0.98656  1.0000
  H   H97       1.0  0.17783  0.56615  0.08224  1.0000
  O  Te11      1.0  0.25230  0.56621  0.67984  1.0000
  O  Te12      1.0  0.16307  0.50616  0.66086  1.0000
  H   H98       1.0  0.10003  0.51384  0.06579  1.0000
  Mg  Mg6       1.0  0.20959  0.49771  0.54859  1.0000
  C   C119      1.0  0.56618  0.35248  0.74225  1.0000
  C   C120      1.0  0.60672  0.36103  0.70149  1.0000
  C  Sn13      1.0  0.63057  0.39674  0.65956  1.0000
  C  Sn14      1.0  0.61345  0.42434  0.65859  1.0000
  C   C121      1.0  0.57289  0.41553  0.69970  1.0000
  C   C122      1.0  0.54928  0.37970  0.74140  1.0000
  H   H99       1.0  0.54793  0.32478  0.77462  1.0000
  O  Te13      1.0  0.67101  0.40480  0.61908  1.0000
  O  Te14      1.0  0.63662  0.46027  0.61723  1.0000
  H   H100      1.0  0.51791  0.37311  0.77308  1.0000
  Mg  Mg7       1.0  0.69028  0.45775  0.57118  1.0000
  C   C123      1.0  0.36406  0.54400  0.28088  1.0000
  C   C124      1.0  0.37298  0.58954  0.34929  1.0000
  C  Sn15      1.0  0.41526  0.62802  0.45800  1.0000
  C  Sn16      1.0  0.44918  0.62067  0.49868  1.0000
  C   C125      1.0  0.43994  0.57498  0.42947  1.0000
  C   C126      1.0  0.39750  0.53672  0.32088  1.0000
  H   H101      1.0  0.33124  0.51439  0.19677  1.0000
  O  Te15      1.0  0.42360  0.67328  0.52530  1.0000
  O  Te16      1.0  0.49174  0.65851  0.60693  1.0000
  H   H102      1.0  0.39062  0.50147  0.26782  1.0000
  Mg  Mg8       1.0  0.48685  0.71354  0.66682  1.0000
  C   C127      1.0  0.56086  0.17171  0.58592  1.0000
  C   C128      1.0  0.56001  0.13302  0.44021  1.0000
  C  Sn17      1.0  0.59085  0.13938  0.33452  1.0000
  C  Sn18      1.0  0.62312  0.18537  0.37585  1.0000
  C   C129      1.0  0.62371  0.22385  0.52200  1.0000
  C   C130      1.0  0.59268  0.21708  0.62683  1.0000
  H   H103      1.0  0.53686  0.16648  0.66711  1.0000
  O  Te17      1.0  0.58953  0.10034  0.18938  1.0000
  O  Te18      1.0  0.65435  0.19273  0.27249  1.0000
  H   H104      1.0  0.59336  0.24704  0.73972  1.0000
  Mg  Mg9       1.0  0.63908  0.12837  0.08841  1.0000
  C   C131      1.0  0.33745  0.76196  0.42516  1.0000
  C   C132      1.0  0.35008  0.72892  0.34697  1.0000
  C  Sn19      1.0  0.38797  0.73943  0.28135  1.0000
  C  Sn20      1.0  0.41364  0.78387  0.29448  1.0000
  C   C133      1.0  0.40074  0.81669  0.37306  1.0000
  C   C134      1.0  0.36275  0.80581  0.43824  1.0000
  H   H105      1.0  0.30807  0.75356  0.47569  1.0000
  O  Te19      1.0  0.40011  0.70600  0.20356  1.0000
  O  Te20      1.0  0.45167  0.79529  0.23004  1.0000
  H   H106      1.0  0.35300  0.83141  0.49888  1.0000
  Mg  Mg10      1.0  0.45465  0.73803  0.13520  1.0000
  C   C135      1.0  0.80435  0.43762  0.63781  1.0000
  C   C136      1.0  0.84284  0.44255  0.71571  1.0000
  C  Sn21      1.0  0.84016  0.41235  0.77923  1.0000
  C  Sn22      1.0  0.79811  0.37658  0.76426  1.0000
  C   C137      1.0  0.75980  0.37192  0.68600  1.0000
  C   C138      1.0  0.76287  0.40233  0.62293  1.0000
  H   H107      1.0  0.80672  0.46114  0.58891  1.0000
  O  Te21      1.0  0.87894  0.41778  0.85675  1.0000
  O  Te22      1.0  0.79447  0.34591  0.82659  1.0000
  H   H108      1.0  0.73306  0.39849  0.56251  1.0000
  Mg  Mg11      1.0  0.85686  0.36738  0.92190  1.0000
  C   C139      1.0  0.16751  0.51273  0.21277  1.0000
  C   C140      1.0  0.14576  0.53177  0.33078  1.0000
  C  Sn23      1.0  0.16621  0.58028  0.44563  1.0000
  C  Sn24      1.0  0.20922  0.61019  0.44193  1.0000
  C   C141      1.0  0.23069  0.59080  0.32328  1.0000
  C   C142      1.0  0.20994  0.54221  0.20898  1.0000
  H   H109      1.0  0.15145  0.47514  0.12425  1.0000
  O  Te23      1.0  0.14401  0.59871  0.56275  1.0000
  O  Te24      1.0  0.23041  0.65880  0.55521  1.0000
  H   H110      1.0  0.22677  0.52749  0.11753  1.0000
  Mg  Mg12      1.0  0.18664  0.66720  0.69114  1.0000
