data_image0
_chemical_formula_structural       C6OCOC3N2C10OCOC3N2C10OCOC3N2C4OC5NH45C6OCOC3N2C10OCOC3N2C10OCOC3N2C4OC5NH45SnCSn2CSnTe4Mg2SnCSn2CSnTe4Mg2SnCSn2CSnTe4Mg2SnCSn2CSnTe4Mg2SnCSn2CSnTe4Mg2SnCSn2CSnTe4Mg2SnCSn2CSnTe4Mg2SnCSn2CSnTe4Mg2SnCSn2CSnTe4Mg2SnCSn2CSnTe4Mg2SnCSn2CSnTe4Mg2SnCSn2CSnTe4Mg2
_chemical_formula_sum              "C118 O14 N14 H90 Sn48 Te48 Mg24"
_cell_length_a       36.9028
_cell_length_b       36.709
_cell_length_c       8.08171
_cell_angle_alpha    94.4101
_cell_angle_beta     87.657
_cell_angle_gamma    119.777

_symmetry_space_group_name_H-M    'P1'
_space_group_IT_number       1

loop_
  _space_group_symop_operation_xyz
  'x, y, z'

loop_
  _atom_site_type_symbol
  _atom_site_label
  _atom_site_symmetry_multiplicity
  _atom_site_fract_x
  _atom_site_fract_y
  _atom_site_fract_z
  _atom_site_occupancy
  C   C1        1.0  0.47740  0.51451  0.01520  1.0000
  C   C2        1.0  0.45930  0.47067  0.03382  1.0000
  C   C3        1.0  0.48347  0.45419  0.08356  1.0000
  C   C4        1.0  0.52641  0.48049  0.11456  1.0000
  C   C5        1.0  0.54449  0.52402  0.09421  1.0000
  C   C6        1.0  0.52033  0.54043  0.04449  1.0000
  O   O1        1.0  0.58624  0.55097  0.13352  1.0000
  C   C7        1.0  0.61419  0.55990  0.99342  1.0000
  O   O2        1.0  0.41721  0.44644  0.00001  1.0000
  C   C8        1.0  0.39622  0.40556  0.06462  1.0000
  C   C9        1.0  0.55234  0.46336  0.15958  1.0000
  C   C10       1.0  0.45146  0.53257  0.98077  1.0000
  N   N1        1.0  0.46727  0.57275  0.97326  1.0000
  N   N2        1.0  0.53786  0.42350  0.17263  1.0000
  C   C11       1.0  0.64615  0.35460  0.18557  1.0000
  C   C12       1.0  0.36034  0.64214  0.91437  1.0000
  C   C13       1.0  0.68973  0.37902  0.18163  1.0000
  C   C14       1.0  0.30830  0.67761  0.90997  1.0000
  C   C15       1.0  0.47270  0.95406  0.91618  1.0000
  C   C16       1.0  0.51378  0.98248  0.86419  1.0000
  C   C17       1.0  0.53079  0.02544  0.89630  1.0000
  C   C18       1.0  0.50757  0.04223  0.97949  1.0000
  C   C19       1.0  0.46615  0.01389  0.02809  1.0000
  C   C20       1.0  0.44934  0.97082  0.99848  1.0000
  O   O3        1.0  0.44191  0.02939  0.10813  1.0000
  C   C21       1.0  0.41829  0.03718  0.99196  1.0000
  O   O4        1.0  0.53776  0.96708  0.78142  1.0000
  C   C22       1.0  0.56246  0.95976  0.89349  1.0000
  C   C23       1.0  0.52618  0.08736  0.01689  1.0000
  C   C24       1.0  0.45556  0.90892  0.88599  1.0000
  N   N3        1.0  0.42129  0.88257  0.95736  1.0000
  N   N4        1.0  0.56475  0.11251  0.97793  1.0000
  C   C25       1.0  0.65230  0.29115  0.12031  1.0000
  C   C26       1.0  0.35171  0.70415  0.91445  1.0000
  C   C27       1.0  0.62846  0.31101  0.15858  1.0000
  C   C28       1.0  0.31667  0.61644  0.91050  1.0000
  C   C29       1.0  0.04414  0.52453  0.92795  1.0000
  C   C30       1.0  0.01942  0.54442  0.94167  1.0000
  C   C31       1.0  0.97714  0.52118  0.97873  1.0000
  C   C32       1.0  0.95787  0.47772  0.99738  1.0000
  C   C33       1.0  0.98220  0.45754  0.97736  1.0000
  C   C34       1.0  0.02469  0.48100  0.94490  1.0000
  O   O5        1.0  0.96151  0.41488  0.99612  1.0000
  C   C35       1.0  0.98187  0.39209  0.93111  1.0000
  O   O6        1.0  0.03977  0.58685  0.91687  1.0000
  C   C36       1.0  0.01710  0.60853  0.96078  1.0000
  C   C37       1.0  0.91346  0.45335  0.03195  1.0000
  C   C38       1.0  0.08922  0.54902  0.90746  1.0000
  N   N5        1.0  0.11248  0.53164  0.90101  1.0000
  N   N6        1.0  0.89024  0.47054  0.05913  1.0000
  C   C39       1.0  0.71523  0.36123  0.14457  1.0000
  C   C40       1.0  0.29026  0.63377  0.90896  1.0000
  C   C41       1.0  0.69634  0.31715  0.11104  1.0000
  C   C42       1.0  0.37726  0.68589  0.91601  1.0000
  O   O7        1.0  0.72218  0.30173  0.05092  1.0000
  C   C43       1.0  0.72849  0.27472  0.15401  1.0000
  C   C44       1.0  0.75450  0.25892  0.05487  1.0000
  C   C45       1.0  0.80023  0.29297  0.02247  1.0000
  C   C46       1.0  0.82743  0.27516  0.07958  1.0000
  C   C47       1.0  0.79655  0.22805  0.08923  1.0000
  N   N7        1.0  0.75805  0.22759  0.14886  1.0000
  H   H1        1.0  0.47051  0.42089  0.09972  1.0000
  H   H2        1.0  0.53400  0.57406  0.03292  1.0000
  H   H3        1.0  0.60494  0.57202  0.89257  1.0000
  H   H4        1.0  0.61485  0.53133  0.94499  1.0000
  H   H5        1.0  0.64520  0.58353  0.03997  1.0000
  H   H6        1.0  0.40600  0.38432  0.00021  1.0000
  H   H7        1.0  0.36292  0.39324  0.04259  1.0000
  H   H8        1.0  0.40209  0.40808  0.19851  1.0000
  H   H9        1.0  0.58551  0.48629  0.17891  1.0000
  H   H10       1.0  0.41780  0.51065  0.97059  1.0000
  H   H11       1.0  0.70452  0.41290  0.20725  1.0000
  H   H12       1.0  0.28814  0.69117  0.90196  1.0000
  H   H13       1.0  0.56251  0.04704  0.85774  1.0000
  H   H14       1.0  0.41774  0.94923  0.03854  1.0000
  H   H15       1.0  0.40201  0.05113  0.06495  1.0000
  H   H16       1.0  0.39543  0.00769  0.92561  1.0000
  H   H17       1.0  0.43888  0.05901  0.89992  1.0000
  H   H18       1.0  0.58628  0.98956  0.95477  1.0000
  H   H19       1.0  0.57774  0.94513  0.81788  1.0000
  H   H20       1.0  0.54276  0.93873  0.98938  1.0000
  H   H21       1.0  0.50588  0.09800  0.08022  1.0000
  H   H22       1.0  0.47370  0.89931  0.80109  1.0000
  H   H23       1.0  0.59465  0.29188  0.15453  1.0000
  H   H24       1.0  0.30294  0.58260  0.91610  1.0000
  H   H25       1.0  0.95727  0.53525  0.99383  1.0000
  H   H26       1.0  0.04469  0.46703  0.93504  1.0000
  H   H27       1.0  0.95880  0.35879  0.94122  1.0000
  H   H28       1.0  0.00963  0.40006  0.00431  1.0000
  H   H29       1.0  0.99046  0.39815  0.79999  1.0000
  H   H30       1.0  0.98967  0.59731  0.88072  1.0000
  H   H31       1.0  0.03894  0.64176  0.94262  1.0000
  H   H32       1.0  0.00706  0.60466  0.09136  1.0000
  H   H33       1.0  0.90038  0.41920  0.03075  1.0000
  H   H34       1.0  0.10249  0.58305  0.90129  1.0000
  H   H35       1.0  0.41098  0.70606  0.92001  1.0000
  H   H36       1.0  0.69825  0.24793  0.18601  1.0000
  H   H37       1.0  0.74406  0.29257  0.26896  1.0000
  H   H38       1.0  0.73956  0.24476  0.93419  1.0000
  H   H39       1.0  0.80451  0.29811  0.88960  1.0000
  H   H40       1.0  0.80790  0.32314  0.08799  1.0000
  H   H41       1.0  0.84066  0.28909  0.20281  1.0000
  H   H42       1.0  0.85352  0.28122  0.99464  1.0000
  H   H43       1.0  0.80635  0.21306  0.17633  1.0000
  H   H44       1.0  0.79291  0.21179  0.96535  1.0000
  H   H45       1.0  0.73254  0.19850  0.12731  1.0000
  C   C48       1.0  0.47767  0.51851  0.50860  1.0000
  C   C49       1.0  0.46019  0.47476  0.52788  1.0000
  C   C50       1.0  0.48528  0.45888  0.57344  1.0000
  C   C51       1.0  0.52845  0.48536  0.59927  1.0000
  C   C52       1.0  0.54617  0.52866  0.57284  1.0000
  C   C53       1.0  0.52093  0.54453  0.52938  1.0000
  O   O8        1.0  0.58803  0.55695  0.60315  1.0000
  C   C54       1.0  0.61842  0.55377  0.49388  1.0000
  O   O9        1.0  0.41782  0.45000  0.50041  1.0000
  C   C55       1.0  0.39840  0.40886  0.56281  1.0000
  C   C56       1.0  0.55407  0.46823  0.65017  1.0000
  C   C57       1.0  0.45111  0.53637  0.47957  1.0000
  N   N8        1.0  0.46649  0.57650  0.47163  1.0000
  N   N9        1.0  0.53985  0.42822  0.65711  1.0000
  C   C58       1.0  0.64596  0.35682  0.67975  1.0000
  C   C59       1.0  0.35978  0.64680  0.42526  1.0000
  C   C60       1.0  0.68960  0.38101  0.67754  1.0000
  C   C61       1.0  0.30625  0.68074  0.42658  1.0000
  C   C62       1.0  0.47165  0.95667  0.43158  1.0000
  C   C63       1.0  0.51499  0.98334  0.40412  1.0000
  C   C64       1.0  0.53209  0.02666  0.42406  1.0000
  C   C65       1.0  0.50707  0.04497  0.46689  1.0000
  C   C66       1.0  0.46344  0.01838  0.48649  1.0000
  C   C67       1.0  0.44644  0.97496  0.46952  1.0000
  O   O10       1.0  0.44034  0.03804  0.52536  1.0000
  C   C68       1.0  0.39601  0.01235  0.50767  1.0000
  O   O11       1.0  0.53774  0.96372  0.35806  1.0000
  C   C69       1.0  0.58222  0.98977  0.35847  1.0000
  C   C70       1.0  0.52599  0.09040  0.49149  1.0000
  C   C71       1.0  0.45437  0.91140  0.42691  1.0000
  N   N10       1.0  0.41499  0.88582  0.45105  1.0000
  N   N11       1.0  0.56612  0.11438  0.48231  1.0000
  C   C72       1.0  0.65193  0.29304  0.61882  1.0000
  C   C73       1.0  0.34957  0.70794  0.43115  1.0000
  C   C74       1.0  0.62816  0.31313  0.65436  1.0000
  C   C75       1.0  0.31629  0.62053  0.42032  1.0000
  C   C76       1.0  0.04319  0.51775  0.41354  1.0000
  C   C77       1.0  0.01844  0.53744  0.41317  1.0000
  C   C78       1.0  0.97648  0.51577  0.45653  1.0000
  C   C79       1.0  0.95730  0.47348  0.49573  1.0000
  C   C80       1.0  0.98164  0.45337  0.49014  1.0000
  C   C81       1.0  0.02376  0.47530  0.45068  1.0000
  O   O12       1.0  0.96368  0.41183  0.53361  1.0000
  C   C82       1.0  0.94993  0.38177  0.39215  1.0000
  O   O13       1.0  0.03801  0.57858  0.36799  1.0000
  C   C83       1.0  0.02845  0.60640  0.47187  1.0000
  C   C84       1.0  0.91315  0.45042  0.53797  1.0000
  C   C85       1.0  0.08817  0.54256  0.39142  1.0000
  N   N12       1.0  0.11259  0.52682  0.39877  1.0000
  N   N13       1.0  0.89021  0.46813  0.55060  1.0000
  C   C86       1.0  0.71493  0.36294  0.64311  1.0000
  C   C87       1.0  0.28911  0.63691  0.42041  1.0000
  C   C88       1.0  0.69601  0.31887  0.61049  1.0000
  C   C89       1.0  0.37593  0.69050  0.42950  1.0000
  O   O14       1.0  0.72202  0.30354  0.55129  1.0000
  C   C90       1.0  0.72871  0.27676  0.65442  1.0000
  C   C91       1.0  0.75470  0.26107  0.55427  1.0000
  C   C92       1.0  0.80023  0.29518  0.51868  1.0000
  C   C93       1.0  0.82787  0.27814  0.57811  1.0000
  C   C94       1.0  0.79746  0.23096  0.58888  1.0000
  N   N14       1.0  0.75879  0.23011  0.64853  1.0000
  H   H46       1.0  0.47271  0.42583  0.59318  1.0000
  H   H47       1.0  0.53436  0.57800  0.51477  1.0000
  H   H48       1.0  0.62804  0.57664  0.39851  1.0000
  H   H49       1.0  0.60583  0.52220  0.43187  1.0000
  H   H50       1.0  0.64518  0.56057  0.57081  1.0000
  H   H51       1.0  0.40896  0.38859  0.49525  1.0000
  H   H52       1.0  0.36484  0.39550  0.54357  1.0000
  H   H53       1.0  0.40491  0.41122  0.69601  1.0000
  H   H54       1.0  0.58664  0.49112  0.68129  1.0000
  H   H55       1.0  0.41741  0.51429  0.47326  1.0000
  H   H56       1.0  0.70459  0.41490  0.70298  1.0000
  H   H57       1.0  0.28562  0.69389  0.42187  1.0000
  H   H58       1.0  0.56520  0.04817  0.40796  1.0000
  H   H59       1.0  0.41340  0.95342  0.48742  1.0000
  H   H60       1.0  0.38813  0.99821  0.38011  1.0000
  H   H61       1.0  0.38322  0.03348  0.53460  1.0000
  H   H62       1.0  0.38285  0.98745  0.59580  1.0000
  H   H63       1.0  0.59269  0.01372  0.26661  1.0000
  H   H64       1.0  0.59447  0.96845  0.32459  1.0000
  H   H65       1.0  0.59327  0.00514  0.48276  1.0000
  H   H66       1.0  0.50461  0.10282  0.51726  1.0000
  H   H67       1.0  0.47688  0.90024  0.40719  1.0000
  H   H68       1.0  0.59434  0.29395  0.64994  1.0000
  H   H69       1.0  0.30327  0.58674  0.42365  1.0000
  H   H70       1.0  0.95700  0.53034  0.45918  1.0000
  H   H71       1.0  0.04287  0.46042  0.45416  1.0000
  H   H72       1.0  0.93795  0.35075  0.44097  1.0000
  H   H73       1.0  0.97591  0.38808  0.30576  1.0000
  H   H74       1.0  0.92504  0.38258  0.32463  1.0000
  H   H75       1.0  0.05003  0.63813  0.43356  1.0000
  H   H76       1.0  0.03360  0.60413  0.60286  1.0000
  H   H77       1.0  0.99618  0.59958  0.45558  1.0000
  H   H78       1.0  0.90024  0.41686  0.55557  1.0000
  H   H79       1.0  0.10049  0.57599  0.37307  1.0000
  H   H80       1.0  0.40955  0.71139  0.43292  1.0000
  H   H81       1.0  0.69858  0.24982  0.68649  1.0000
  H   H82       1.0  0.74433  0.29462  0.76936  1.0000
  H   H83       1.0  0.73929  0.24644  0.43486  1.0000
  H   H84       1.0  0.80415  0.29935  0.38501  1.0000
  H   H85       1.0  0.80784  0.32570  0.58081  1.0000
  H   H86       1.0  0.84090  0.29247  0.70120  1.0000
  H   H87       1.0  0.85412  0.28437  0.49386  1.0000
  H   H88       1.0  0.80762  0.21638  0.67645  1.0000
  H   H89       1.0  0.79385  0.21453  0.46540  1.0000
  H   H90       1.0  0.73343  0.20091  0.62742  1.0000
  C  Sn1       1.0  0.60877  0.42030  0.06798  1.0000
  C   C95       1.0  0.56951  0.40642  0.14137  1.0000
  C  Sn2       1.0  0.55595  0.37784  0.26520  1.0000
  C  Sn3       1.0  0.58218  0.36285  0.31685  1.0000
  C   C96       1.0  0.62141  0.37674  0.24350  1.0000
  C  Sn4       1.0  0.63500  0.40531  0.11962  1.0000
  O  Te1       1.0  0.62090  0.46541  0.94442  1.0000
  O  Te2       1.0  0.51657  0.36441  0.33670  1.0000
  O  Te3       1.0  0.56923  0.33425  0.44051  1.0000
  O  Te4       1.0  0.67435  0.41874  0.04817  1.0000
  Mg  Mg1       1.0  0.51296  0.32527  0.50042  1.0000
  Mg  Mg2       1.0  0.67722  0.47443  0.88451  1.0000
  C  Sn5       1.0  0.44179  0.62862  0.06870  1.0000
  C   C97       1.0  0.43650  0.60790  0.98979  1.0000
  C  Sn6       1.0  0.40850  0.58766  0.85851  1.0000
  C  Sn7       1.0  0.38452  0.60503  0.80488  1.0000
  C   C98       1.0  0.38904  0.64227  0.88374  1.0000
  C  Sn8       1.0  0.41781  0.64599  0.01507  1.0000
  O  Te5       1.0  0.46997  0.64832  0.19968  1.0000
  O  Te6       1.0  0.40452  0.55044  0.78160  1.0000
  O  Te7       1.0  0.35632  0.58530  0.67379  1.0000
  O  Te8       1.0  0.42180  0.68319  0.09194  1.0000
  Mg  Mg3       1.0  0.36201  0.53528  0.60854  1.0000
  Mg  Mg4       1.0  0.46431  0.69839  0.26495  1.0000
  C  Sn9       1.0  0.63602  0.21636  0.92069  1.0000
  C   C99       1.0  0.62665  0.22491  0.02948  1.0000
  C  Sn10      1.0  0.59621  0.20679  0.15187  1.0000
  C  Sn11      1.0  0.57549  0.16267  0.16590  1.0000
  C   C100      1.0  0.58565  0.13761  0.05717  1.0000
  C  Sn12      1.0  0.61531  0.17224  0.93472  1.0000
  O  Te9       1.0  0.66656  0.23515  0.79928  1.0000
  O  Te10      1.0  0.58658  0.23252  0.25917  1.0000
  O  Te11      1.0  0.54493  0.14389  0.28744  1.0000
  O  Te12      1.0  0.62494  0.14654  0.82749  1.0000
  Mg  Mg5       1.0  0.54275  0.19217  0.40437  1.0000
  Mg  Mg6       1.0  0.66878  0.18685  0.68230  1.0000
  C  Sn13      1.0  0.41940  0.80958  0.80260  1.0000
  C   C101      1.0  0.40425  0.83430  0.88420  1.0000
  C  Sn14      1.0  0.37291  0.80065  0.00102  1.0000
  C  Sn15      1.0  0.35559  0.75794  0.03713  1.0000
  C   C102      1.0  0.36996  0.74978  0.95559  1.0000
  C  Sn16      1.0  0.40208  0.76687  0.83871  1.0000
  O  Te13      1.0  0.45153  0.82735  0.68627  1.0000
  O  Te14      1.0  0.35826  0.82598  0.08096  1.0000
  O  Te15      1.0  0.32343  0.74018  0.15357  1.0000
  O  Te16      1.0  0.41672  0.74156  0.75883  1.0000
  Mg  Mg7       1.0  0.31406  0.78740  0.22976  1.0000
  Mg  Mg8       1.0  0.46094  0.78011  0.61008  1.0000
  C  Sn17      1.0  0.82376  0.39330  0.15069  1.0000
  C   C103      1.0  0.84409  0.43045  0.06791  1.0000
  C  Sn18      1.0  0.82256  0.45089  0.02769  1.0000
  C  Sn19      1.0  0.77981  0.43387  0.07120  1.0000
  C   C104      1.0  0.75950  0.39675  0.15396  1.0000
  C  Sn20      1.0  0.78101  0.37628  0.19421  1.0000
  O  Te17      1.0  0.84590  0.37339  0.18967  1.0000
  O  Te18      1.0  0.84277  0.50452  0.94485  1.0000
  O  Te19      1.0  0.75768  0.45381  0.03214  1.0000
  O  Te20      1.0  0.76004  0.33922  0.27702  1.0000
  Mg  Mg9       1.0  0.79916  0.52009  0.91879  1.0000
  Mg  Mg10      1.0  0.80362  0.32363  0.30321  1.0000
  C  Sn21      1.0  0.21454  0.56644  0.77196  1.0000
  C   C105      1.0  0.23931  0.60485  0.86039  1.0000
  C  Sn22      1.0  0.22247  0.61848  0.99261  1.0000
  C  Sn23      1.0  0.18076  0.57664  0.03745  1.0000
  C   C106      1.0  0.15522  0.55479  0.94907  1.0000
  C  Sn24      1.0  0.17205  0.54113  0.81680  1.0000
  O  Te21      1.0  0.23204  0.55343  0.64022  1.0000
  O  Te22      1.0  0.24863  0.64047  0.07913  1.0000
  O  Te23      1.0  0.16327  0.58968  0.16930  1.0000
  O  Te24      1.0  0.14669  0.50263  0.73033  1.0000
  Mg  Mg11      1.0  0.21045  0.64458  0.24931  1.0000
  Mg  Mg12      1.0  0.18484  0.49848  0.56019  1.0000
  C  Sn25      1.0  0.56256  0.37718  0.80827  1.0000
  C   C107      1.0  0.57032  0.41275  0.72791  1.0000
  C  Sn26      1.0  0.60275  0.42989  0.61235  1.0000
  C  Sn27      1.0  0.62794  0.41106  0.57628  1.0000
  C   C108      1.0  0.62018  0.37551  0.65660  1.0000
  C  Sn28      1.0  0.58775  0.35835  0.77221  1.0000
  O  Te25      1.0  0.52997  0.36058  0.92335  1.0000
  O  Te26      1.0  0.60991  0.46548  0.53364  1.0000
  O  Te27      1.0  0.66055  0.42770  0.46111  1.0000
  O  Te28      1.0  0.58058  0.32279  0.85087  1.0000
  Mg  Mg13      1.0  0.65800  0.47646  0.38629  1.0000
  Mg  Mg14      1.0  0.53249  0.31176  0.99816  1.0000
  C  Sn29      1.0  0.40161  0.57893  0.30862  1.0000
  C   C109      1.0  0.43842  0.59444  0.39911  1.0000
  C  Sn30      1.0  0.44892  0.62655  0.52385  1.0000
  C  Sn31      1.0  0.42206  0.64349  0.55897  1.0000
  C   C110      1.0  0.38528  0.62797  0.46853  1.0000
  C  Sn32      1.0  0.37475  0.59587  0.34373  1.0000
  O  Te29      1.0  0.39173  0.54682  0.18447  1.0000
  O  Te30      1.0  0.48590  0.64156  0.61261  1.0000
  O  Te31      1.0  0.43197  0.67563  0.68323  1.0000
  O  Te32      1.0  0.33780  0.58085  0.25504  1.0000
  Mg  Mg15      1.0  0.48576  0.68558  0.76994  1.0000
  Mg  Mg16      1.0  0.33790  0.53682  0.09774  1.0000
  C  Sn33      1.0  0.63667  0.19126  0.47910  1.0000
  C   C111      1.0  0.59833  0.16200  0.54468  1.0000
  C  Sn34      1.0  0.57201  0.17521  0.62324  1.0000
  C  Sn35      1.0  0.58425  0.21856  0.63646  1.0000
  C   C112      1.0  0.62257  0.24779  0.57088  1.0000
  C  Sn36      1.0  0.64891  0.23461  0.49231  1.0000
  O  Te33      1.0  0.66248  0.17735  0.40107  1.0000
  O  Te34      1.0  0.53384  0.14537  0.68789  1.0000
  O  Te35      1.0  0.55840  0.23245  0.71458  1.0000
  O  Te36      1.0  0.68706  0.26442  0.42767  1.0000
  Mg  Mg17      1.0  0.50946  0.17980  0.78291  1.0000
  Mg  Mg18      1.0  0.71145  0.23002  0.33256  1.0000
  C  Sn37      1.0  0.41613  0.79039  0.37641  1.0000
  C   C113      1.0  0.38053  0.76094  0.45761  1.0000
  C  Sn38      1.0  0.35130  0.77171  0.52398  1.0000
  C  Sn39      1.0  0.35777  0.81276  0.50880  1.0000
  C   C114      1.0  0.39334  0.84218  0.42763  1.0000
  C  Sn40      1.0  0.42260  0.83144  0.36123  1.0000
  O  Te37      1.0  0.44494  0.77894  0.31099  1.0000
  O  Te38      1.0  0.31596  0.74174  0.60467  1.0000
  O  Te39      1.0  0.32892  0.82420  0.57431  1.0000
  O  Te40      1.0  0.45792  0.86139  0.28057  1.0000
  Mg  Mg19      1.0  0.28568  0.77237  0.67311  1.0000
  Mg  Mg20      1.0  0.48820  0.83079  0.21200  1.0000
  C  Sn41      1.0  0.82287  0.39352  0.65694  1.0000
  C   C115      1.0  0.84386  0.42967  0.56835  1.0000
  C  Sn42      1.0  0.82303  0.45021  0.52083  1.0000
  C  Sn43      1.0  0.78033  0.43430  0.56281  1.0000
  C   C116      1.0  0.75936  0.39818  0.65136  1.0000
  C  Sn44      1.0  0.78017  0.37762  0.69892  1.0000
  O  Te41      1.0  0.84432  0.37350  0.70317  1.0000
  O  Te42      1.0  0.84467  0.48629  0.43229  1.0000
  O  Te43      1.0  0.75889  0.45436  0.51648  1.0000
  O  Te44      1.0  0.75856  0.34157  0.78743  1.0000
  Mg  Mg21      1.0  0.80188  0.50246  0.39725  1.0000
  Mg  Mg22      1.0  0.80132  0.32538  0.82260  1.0000
  C  Sn45      1.0  0.18142  0.60722  0.46295  1.0000
  C   C117      1.0  0.15893  0.56740  0.38123  1.0000
  C  Sn46      1.0  0.17912  0.54525  0.32312  1.0000
  C  Sn47      1.0  0.22270  0.56326  0.34727  1.0000
  C   C118      1.0  0.24517  0.60305  0.42896  1.0000
  C  Sn48      1.0  0.22501  0.62523  0.48710  1.0000
  O  Te45      1.0  0.16060  0.62880  0.52001  1.0000
  O  Te46      1.0  0.15597  0.50549  0.24174  1.0000
  O  Te47      1.0  0.24352  0.54165  0.29012  1.0000
  O  Te48      1.0  0.24813  0.66496  0.56846  1.0000
  Mg  Mg23      1.0  0.19843  0.48843  0.18669  1.0000
  Mg  Mg24      1.0  0.20571  0.68204  0.62363  1.0000
