data_image0
_chemical_formula_structural       C6OCOC3N2C10OCOC3N2C10OCOC3N2C9NCO3H45C6OCOC3N2C10OCOC3N2C10OCOC3N2C9NCO3H45C2Sn2C2HTe2HMgC2Sn2C2HTe2HMgC2Sn2C2HTe2HMgC2Sn2C2HTe2HMgC2Sn2C2HTe2HMgC2Sn2C2HTe2HMgC2Sn2C2HTe2HMgC2Sn2C2HTe2HMgC2Sn2C2HTe2HMgC2Sn2C2HTe2HMgC2Sn2C2HTe2HMgC2Sn2C2HTe2HMg
_chemical_formula_sum              "C144 O18 N14 H114 Sn24 Te24 Mg12"
_cell_length_a       36.6699
_cell_length_b       35.9964
_cell_length_c       8.02336
_cell_angle_alpha    87.3695
_cell_angle_beta     88.7238
_cell_angle_gamma    119.64

_symmetry_space_group_name_H-M    'P1'
_space_group_IT_number       1

loop_
  _space_group_symop_operation_xyz
  'x, y, z'

loop_
  _atom_site_type_symbol
  _atom_site_label
  _atom_site_symmetry_multiplicity
  _atom_site_fract_x
  _atom_site_fract_y
  _atom_site_fract_z
  _atom_site_occupancy
  C   C1        1.0  0.46752  0.50301  0.87567  1.0000
  C   C2        1.0  0.45438  0.45994  0.84369  1.0000
  C   C3        1.0  0.47934  0.44207  0.88140  1.0000
  C   C4        1.0  0.51880  0.46663  0.94862  1.0000
  C   C5        1.0  0.53211  0.50976  0.97952  1.0000
  C   C6        1.0  0.50662  0.52732  0.94532  1.0000
  O   O1        1.0  0.57083  0.53364  0.04894  1.0000
  C   C7        1.0  0.60040  0.57042  0.94343  1.0000
  O   O2        1.0  0.41595  0.43514  0.77360  1.0000
  C   C8        1.0  0.38075  0.41687  0.89395  1.0000
  C   C9        1.0  0.54548  0.44846  0.98896  1.0000
  C   C10       1.0  0.44129  0.52188  0.83596  1.0000
  N   N1        1.0  0.44669  0.55571  0.90682  1.0000
  N   N2        1.0  0.53284  0.40813  0.98053  1.0000
  C   C11       1.0  0.64377  0.34377  0.12465  1.0000
  C   C12       1.0  0.35055  0.63990  0.81543  1.0000
  C   C13       1.0  0.68542  0.37055  0.16381  1.0000
  C   C14       1.0  0.30502  0.68362  0.81140  1.0000
  C   C15       1.0  0.48608  0.95671  0.83704  1.0000
  C   C16       1.0  0.52964  0.98081  0.86316  1.0000
  C   C17       1.0  0.54616  0.02061  0.92929  1.0000
  C   C18       1.0  0.52056  0.03816  0.96972  1.0000
  C   C19       1.0  0.47691  0.01393  0.94414  1.0000
  C   C20       1.0  0.46042  0.97416  0.87775  1.0000
  O   O3        1.0  0.45279  0.03169  0.99171  1.0000
  C   C21       1.0  0.41070  0.01147  0.93682  1.0000
  O   O4        1.0  0.55374  0.96271  0.81898  1.0000
  C   C22       1.0  0.59248  0.97762  0.90146  1.0000
  C   C23       1.0  0.53919  0.08149  0.02519  1.0000
  C   C24       1.0  0.46781  0.91310  0.78608  1.0000
  N   N3        1.0  0.42764  0.88888  0.77491  1.0000
  N   N4        1.0  0.57916  0.10391  0.04566  1.0000
  C   C25       1.0  0.65605  0.28289  0.15238  1.0000
  C   C26       1.0  0.34879  0.70690  0.78228  1.0000
  C   C27       1.0  0.62965  0.29998  0.11969  1.0000
  C   C28       1.0  0.30673  0.61748  0.84355  1.0000
  C   C29       1.0  0.04271  0.54065  0.11129  1.0000
  C   C30       1.0  0.01818  0.56103  0.12385  1.0000
  C   C31       1.0  0.97612  0.53740  0.17810  1.0000
  C   C32       1.0  0.95739  0.49336  0.22364  1.0000
  C   C33       1.0  0.98272  0.47368  0.22256  1.0000
  C   C34       1.0  0.02438  0.49706  0.16334  1.0000
  O   O5        1.0  0.96372  0.43143  0.28138  1.0000
  C   C35       1.0  0.98276  0.40730  0.22473  1.0000
  O   O6        1.0  0.03808  0.60418  0.07524  1.0000
  C   C36       1.0  0.01842  0.62727  0.13493  1.0000
  C   C37       1.0  0.91218  0.46674  0.25019  1.0000
  C   C38       1.0  0.08628  0.56434  0.04820  1.0000
  N   N5        1.0  0.10834  0.54553  0.03004  1.0000
  N   N6        1.0  0.88648  0.48169  0.24260  1.0000
  C   C39       1.0  0.71333  0.35533  0.19736  1.0000
  C   C40       1.0  0.28355  0.63897  0.84353  1.0000
  C   C41       1.0  0.69825  0.31050  0.19297  1.0000
  C   C42       1.0  0.37106  0.68450  0.78343  1.0000
  C   C43       1.0  0.72466  0.29084  0.24199  1.0000
  C   C44       1.0  0.77046  0.24057  0.16041  1.0000
  C   C45       1.0  0.78722  0.28849  0.18958  1.0000
  C   C46       1.0  0.83104  0.31166  0.09835  1.0000
  C   C47       1.0  0.83975  0.27442  0.05692  1.0000
  N   N7        1.0  0.80731  0.23488  0.14755  1.0000
  C   C48       1.0  0.88456  0.28598  0.08498  1.0000
  O   O7        1.0  0.88837  0.26292  0.21649  1.0000
  O   O8        1.0  0.91500  0.31358  0.00087  1.0000
  O   O9        1.0  0.76126  0.30493  0.12905  1.0000
  H   H1        1.0  0.46881  0.40881  0.85830  1.0000
  H   H2        1.0  0.51628  0.56022  0.97135  1.0000
  H   H3        1.0  0.62937  0.58593  0.01113  1.0000
  H   H4        1.0  0.58898  0.59314  0.91960  1.0000
  H   H5        1.0  0.60630  0.56024  0.82341  1.0000
  H   H6        1.0  0.38220  0.39320  0.98113  1.0000
  H   H7        1.0  0.35250  0.40134  0.82198  1.0000
  H   H8        1.0  0.38004  0.44173  0.96651  1.0000
  H   H9        1.0  0.57661  0.47077  0.03195  1.0000
  H   H10       1.0  0.41777  0.50600  0.74317  1.0000
  H   H11       1.0  0.69631  0.40446  0.17285  1.0000
  H   H12       1.0  0.28751  0.70073  0.81417  1.0000
  H   H13       1.0  0.57944  0.04019  0.94890  1.0000
  H   H14       1.0  0.42710  0.95421  0.86002  1.0000
  H   H15       1.0  0.39171  0.97870  0.99416  1.0000
  H   H16       1.0  0.41099  0.01067  0.79997  1.0000
  H   H17       1.0  0.39744  0.03118  0.97733  1.0000
  H   H18       1.0  0.61592  0.01040  0.85547  1.0000
  H   H19       1.0  0.60384  0.95562  0.87104  1.0000
  H   H20       1.0  0.58707  0.97643  0.03763  1.0000
  H   H21       1.0  0.51804  0.09467  0.03946  1.0000
  H   H22       1.0  0.48972  0.90112  0.76564  1.0000
  H   H23       1.0  0.59793  0.27881  0.08263  1.0000
  H   H24       1.0  0.29074  0.58323  0.87700  1.0000
  H   H25       1.0  0.95575  0.55133  0.17957  1.0000
  H   H26       1.0  0.04442  0.48284  0.15647  1.0000
  H   H27       1.0  0.96100  0.37407  0.26900  1.0000
  H   H28       1.0  0.01341  0.41793  0.27892  1.0000
  H   H29       1.0  0.98659  0.41027  0.08770  1.0000
  H   H30       1.0  0.98954  0.61938  0.07028  1.0000
  H   H31       1.0  0.04139  0.66126  0.10851  1.0000
  H   H32       1.0  0.01104  0.62038  0.27019  1.0000
  H   H33       1.0  0.90065  0.43220  0.26388  1.0000
  H   H34       1.0  0.09926  0.59861  0.01513  1.0000
  H   H35       1.0  0.40491  0.70200  0.75790  1.0000
  H   H36       1.0  0.70554  0.25592  0.24434  1.0000
  H   H37       1.0  0.73534  0.29887  0.36875  1.0000
  H   H38       1.0  0.75440  0.23360  0.04201  1.0000
  H   H39       1.0  0.74798  0.21825  0.25834  1.0000
  H   H40       1.0  0.79037  0.29335  0.32390  1.0000
  H   H41       1.0  0.85507  0.33504  0.17529  1.0000
  H   H42       1.0  0.83065  0.32951  0.98439  1.0000
  H   H43       1.0  0.83647  0.27007  0.92195  1.0000
  H   H44       1.0  0.81614  0.23166  0.26530  1.0000
  H   H45       1.0  0.91853  0.27567  0.23208  1.0000
  C   C49       1.0  0.47099  0.50576  0.37515  1.0000
  C   C50       1.0  0.45738  0.46278  0.34003  1.0000
  C   C51       1.0  0.48159  0.44404  0.37817  1.0000
  C   C52       1.0  0.52079  0.46765  0.44858  1.0000
  C   C53       1.0  0.53473  0.51086  0.48075  1.0000
  C   C54       1.0  0.50991  0.52922  0.44699  1.0000
  O   O10       1.0  0.57356  0.53422  0.54985  1.0000
  C   C55       1.0  0.60326  0.57120  0.44578  1.0000
  O   O11       1.0  0.41932  0.43901  0.26599  1.0000
  C   C56       1.0  0.38361  0.42046  0.38388  1.0000
  C   C57       1.0  0.54670  0.44862  0.48988  1.0000
  C   C58       1.0  0.44541  0.52541  0.33611  1.0000
  N   N8        1.0  0.45087  0.55891  0.40982  1.0000
  N   N9        1.0  0.53379  0.40828  0.47896  1.0000
  C   C59       1.0  0.64486  0.34413  0.62687  1.0000
  C   C60       1.0  0.35336  0.64171  0.32081  1.0000
  C   C61       1.0  0.68647  0.37068  0.66762  1.0000
  C   C62       1.0  0.30694  0.68446  0.31244  1.0000
  C   C63       1.0  0.48608  0.95768  0.34142  1.0000
  C   C64       1.0  0.52950  0.98139  0.37157  1.0000
  C   C65       1.0  0.54591  0.02129  0.43643  1.0000
  C   C66       1.0  0.52026  0.03895  0.47420  1.0000
  C   C67       1.0  0.47676  0.01506  0.44614  1.0000
  C   C68       1.0  0.46045  0.97536  0.37923  1.0000
  O   O12       1.0  0.45279  0.03316  0.49150  1.0000
  C   C69       1.0  0.41089  0.01324  0.43480  1.0000
  O   O13       1.0  0.55329  0.96257  0.33371  1.0000
  C   C70       1.0  0.59494  0.98241  0.39403  1.0000
  C   C71       1.0  0.53911  0.08227  0.52924  1.0000
  C   C72       1.0  0.46804  0.91431  0.28846  1.0000
  N   N10       1.0  0.42795  0.88998  0.27525  1.0000
  N   N11       1.0  0.57907  0.10418  0.55048  1.0000
  C   C73       1.0  0.65677  0.28310  0.65351  1.0000
  C   C74       1.0  0.35071  0.70818  0.28432  1.0000
  C   C75       1.0  0.63061  0.30038  0.62026  1.0000
  C   C76       1.0  0.30951  0.61886  0.34822  1.0000
  C   C77       1.0  0.04378  0.53896  0.60084  1.0000
  C   C78       1.0  0.01877  0.55874  0.61557  1.0000
  C   C79       1.0  0.97694  0.53461  0.67240  1.0000
  C   C80       1.0  0.95878  0.49060  0.71679  1.0000
  C   C81       1.0  0.98446  0.47132  0.71104  1.0000
  C   C82       1.0  0.02600  0.49527  0.65088  1.0000
  O   O14       1.0  0.96567  0.42893  0.76696  1.0000
  C   C83       1.0  0.98646  0.40583  0.71968  1.0000
  O   O15       1.0  0.03784  0.60186  0.56689  1.0000
  C   C84       1.0  0.01761  0.62412  0.62979  1.0000
  C   C85       1.0  0.91367  0.46383  0.74762  1.0000
  C   C86       1.0  0.08738  0.56338  0.53851  1.0000
  N   N12       1.0  0.11014  0.54528  0.52208  1.0000
  N   N13       1.0  0.88817  0.47908  0.74515  1.0000
  C   C87       1.0  0.71423  0.35523  0.70147  1.0000
  C   C88       1.0  0.28587  0.63987  0.34590  1.0000
  C   C89       1.0  0.69888  0.31036  0.69556  1.0000
  C   C90       1.0  0.37344  0.68625  0.28776  1.0000
  C   C91       1.0  0.72472  0.29007  0.74437  1.0000
  C   C92       1.0  0.77313  0.24221  0.61855  1.0000
  C   C93       1.0  0.78678  0.28646  0.68841  1.0000
  C   C94       1.0  0.83291  0.31541  0.62459  1.0000
  C   C95       1.0  0.84511  0.28552  0.53261  1.0000
  N   N14       1.0  0.81148  0.24093  0.57137  1.0000
  C   C96       1.0  0.88832  0.29388  0.57436  1.0000
  O   O16       1.0  0.88733  0.26632  0.69956  1.0000
  O   O17       1.0  0.92111  0.32276  0.50848  1.0000
  O   O18       1.0  0.76187  0.30485  0.63421  1.0000
  H   H46       1.0  0.47074  0.41088  0.35233  1.0000
  H   H47       1.0  0.52002  0.56212  0.47441  1.0000
  H   H48       1.0  0.59270  0.59482  0.42845  1.0000
  H   H49       1.0  0.60802  0.56148  0.32288  1.0000
  H   H50       1.0  0.63268  0.58546  0.51090  1.0000
  H   H51       1.0  0.35568  0.40579  0.30976  1.0000
  H   H52       1.0  0.38301  0.44507  0.45853  1.0000
  H   H53       1.0  0.38427  0.39604  0.46936  1.0000
  H   H54       1.0  0.57762  0.47033  0.53615  1.0000
  H   H55       1.0  0.42222  0.51031  0.24152  1.0000
  H   H56       1.0  0.69738  0.40455  0.67781  1.0000
  H   H57       1.0  0.28905  0.70119  0.31314  1.0000
  H   H58       1.0  0.57906  0.04092  0.45800  1.0000
  H   H59       1.0  0.42727  0.95585  0.35802  1.0000
  H   H60       1.0  0.39153  0.98058  0.49251  1.0000
  H   H61       1.0  0.41144  0.01228  0.29806  1.0000
  H   H62       1.0  0.39788  0.03330  0.47348  1.0000
  H   H63       1.0  0.61543  0.01370  0.32704  1.0000
  H   H64       1.0  0.60690  0.96056  0.36974  1.0000
  H   H65       1.0  0.59415  0.98639  0.52913  1.0000
  H   H66       1.0  0.51838  0.09596  0.54249  1.0000
  H   H67       1.0  0.49010  0.90252  0.26803  1.0000
  H   H68       1.0  0.59900  0.27938  0.58164  1.0000
  H   H69       1.0  0.29388  0.58464  0.38213  1.0000
  H   H70       1.0  0.95626  0.54814  0.67729  1.0000
  H   H71       1.0  0.04645  0.48159  0.64077  1.0000
  H   H72       1.0  0.96563  0.37275  0.76828  1.0000
  H   H73       1.0  0.01722  0.41850  0.77499  1.0000
  H   H74       1.0  0.99029  0.40713  0.58308  1.0000
  H   H75       1.0  0.03937  0.65818  0.59783  1.0000
  H   H76       1.0  0.01199  0.61810  0.76617  1.0000
  H   H77       1.0  0.98763  0.61464  0.57130  1.0000
  H   H78       1.0  0.90208  0.42926  0.75994  1.0000
  H   H79       1.0  0.09970  0.59754  0.50524  1.0000
  H   H80       1.0  0.40732  0.70404  0.26303  1.0000
  H   H81       1.0  0.70545  0.25523  0.74259  1.0000
  H   H82       1.0  0.73465  0.29708  0.87254  1.0000
  H   H83       1.0  0.75484  0.23938  0.50859  1.0000
  H   H84       1.0  0.75312  0.21511  0.70730  1.0000
  H   H85       1.0  0.78465  0.28333  0.82561  1.0000
  H   H86       1.0  0.85334  0.33022  0.72792  1.0000
  H   H87       1.0  0.83558  0.34156  0.54003  1.0000
  H   H88       1.0  0.84736  0.29343  0.39783  1.0000
  H   H89       1.0  0.81973  0.22772  0.66824  1.0000
  H   H90       1.0  0.91616  0.27795  0.73458  1.0000
  C   C97       1.0  0.61461  0.41788  0.95379  1.0000
  C   C98       1.0  0.57152  0.39945  0.99181  1.0000
  C  Sn1       1.0  0.56314  0.37781  0.09024  1.0000
  C  Sn2       1.0  0.58537  0.35753  0.15161  1.0000
  C   C99       1.0  0.62848  0.37624  0.11298  1.0000
  C   C100      1.0  0.64959  0.41470  0.01433  1.0000
  H   H91       1.0  0.63095  0.44765  0.87754  1.0000
  O  Te1       1.0  0.52008  0.35982  0.12698  1.0000
  O  Te2       1.0  0.56475  0.31911  0.25031  1.0000
  H   H92       1.0  0.66993  0.41219  0.98500  1.0000
  Mg  Mg1       1.0  0.50590  0.30711  0.26628  1.0000
  C   C101      1.0  0.37302  0.55450  0.78301  1.0000
  C   C102      1.0  0.41267  0.56908  0.84661  1.0000
  C  Sn3       1.0  0.43376  0.60929  0.91233  1.0000
  C  Sn4       1.0  0.41470  0.63530  0.91428  1.0000
  C   C103      1.0  0.37501  0.62041  0.85046  1.0000
  C   C104      1.0  0.35420  0.58013  0.78494  1.0000
  H   H93       1.0  0.35691  0.52332  0.73240  1.0000
  O  Te3       1.0  0.47336  0.62337  0.97532  1.0000
  O  Te4       1.0  0.43507  0.67561  0.97929  1.0000
  H   H94       1.0  0.32349  0.56883  0.73580  1.0000
  Mg  Mg2       1.0  0.50163  0.69748  0.05066  1.0000
  C   C105      1.0  0.57636  0.17266  0.20201  1.0000
  C   C106      1.0  0.58982  0.15037  0.10285  1.0000
  C  Sn5       1.0  0.62982  0.17150  0.02282  1.0000
  C  Sn6       1.0  0.65678  0.21576  0.04271  1.0000
  C   C107      1.0  0.64303  0.23776  0.14228  1.0000
  C   C108      1.0  0.60293  0.21630  0.22175  1.0000
  H   H95       1.0  0.54535  0.15606  0.26358  1.0000
  O  Te5       1.0  0.62974  0.13196  0.92414  1.0000
  O  Te6       1.0  0.68389  0.22086  0.96419  1.0000
  H   H96       1.0  0.59253  0.23356  0.29861  1.0000
  Mg  Mg3       1.0  0.68726  0.17593  0.84253  1.0000
  C   C109      1.0  0.41886  0.78804  0.85009  1.0000
  C   C110      1.0  0.38031  0.75939  0.78735  1.0000
  C  Sn7       1.0  0.35734  0.77465  0.69986  1.0000
  C  Sn8       1.0  0.37336  0.81945  0.67488  1.0000
  C   C111      1.0  0.41198  0.84784  0.73804  1.0000
  C   C112      1.0  0.43469  0.83223  0.82545  1.0000
  H   H97       1.0  0.43645  0.77596  0.91764  1.0000
  O  Te7       1.0  0.31887  0.74559  0.63807  1.0000
  O  Te8       1.0  0.35107  0.83557  0.58784  1.0000
  H   H98       1.0  0.46455  0.85441  0.87392  1.0000
  Mg  Mg4       1.0  0.30012  0.78316  0.52765  1.0000
  C   C113      1.0  0.78354  0.44027  0.13221  1.0000
  C   C114      1.0  0.76160  0.39806  0.20073  1.0000
  C  Sn9       1.0  0.78062  0.38298  0.31316  1.0000
  C  Sn10      1.0  0.82236  0.41075  0.35760  1.0000
  C   C115      1.0  0.84402  0.45294  0.28846  1.0000
  C   C116      1.0  0.82470  0.46769  0.17603  1.0000
  H   H99       1.0  0.76858  0.45170  0.04530  1.0000
  O  Te9       1.0  0.75826  0.34071  0.38040  1.0000
  O  Te10      1.0  0.84211  0.39651  0.46972  1.0000
  H   H100      1.0  0.84168  0.50039  0.12309  1.0000
  Mg  Mg5       1.0  0.79869  0.33620  0.52787  1.0000
  C   C117      1.0  0.20176  0.56334  0.84131  1.0000
  C   C118      1.0  0.23176  0.60559  0.86776  1.0000
  C  Sn11      1.0  0.22126  0.63033  0.96591  1.0000
  C  Sn12      1.0  0.19296  0.62915  0.03881  1.0000
  C   C119      1.0  0.16318  0.58685  0.01169  1.0000
  C   C120      1.0  0.16100  0.54559  0.91321  1.0000
  H   H101      1.0  0.21015  0.54440  0.76519  1.0000
  O  Te11      1.0  0.25161  0.67249  0.99102  1.0000
  O  Te12      1.0  0.18162  0.65316  0.13750  1.0000
  H   H102      1.0  0.13777  0.51287  0.89284  1.0000
  Mg  Mg6       1.0  0.23403  0.70916  0.13522  1.0000
  C   C121      1.0  0.54834  0.34535  0.62523  1.0000
  C   C122      1.0  0.55752  0.38399  0.54019  1.0000
  C  Sn13      1.0  0.59789  0.41150  0.46985  1.0000
  C  Sn14      1.0  0.62959  0.40003  0.48509  1.0000
  C   C123      1.0  0.62008  0.36129  0.57031  1.0000
  C   C124      1.0  0.57959  0.33400  0.64027  1.0000
  H   H103      1.0  0.51701  0.32422  0.67928  1.0000
  O  Te13      1.0  0.60653  0.44999  0.38535  1.0000
  O  Te14      1.0  0.67019  0.42692  0.41593  1.0000
  H   H104      1.0  0.57248  0.30407  0.70601  1.0000
  Mg  Mg7       1.0  0.66660  0.47595  0.31257  1.0000
  C   C125      1.0  0.43938  0.62856  0.43871  1.0000
  C   C126      1.0  0.42905  0.58712  0.40021  1.0000
  C  Sn15      1.0  0.39240  0.56176  0.31829  1.0000
  C  Sn16      1.0  0.36567  0.57830  0.27421  1.0000
  C   C127      1.0  0.37630  0.61981  0.31318  1.0000
  C   C128      1.0  0.41304  0.64490  0.39522  1.0000
  H   H105      1.0  0.46781  0.64798  0.50211  1.0000
  O  Te15      1.0  0.38254  0.52042  0.28082  1.0000
  O  Te16      1.0  0.32887  0.55365  0.19222  1.0000
  H   H106      1.0  0.42104  0.67699  0.42491  1.0000
  Mg  Mg8       1.0  0.32894  0.49919  0.16806  1.0000
  C   C129      1.0  0.65888  0.20891  0.53490  1.0000
  C   C130      1.0  0.64288  0.23254  0.60977  1.0000
  C  Sn17      1.0  0.60269  0.21173  0.68814  1.0000
  C  Sn18      1.0  0.57815  0.16643  0.69145  1.0000
  C   C131      1.0  0.59445  0.14308  0.61630  1.0000
  C   C132      1.0  0.63470  0.16423  0.53817  1.0000
  H   H107      1.0  0.69003  0.22527  0.47452  1.0000
  O  Te17      1.0  0.58718  0.23582  0.76227  1.0000
  O  Te18      1.0  0.53789  0.14481  0.76898  1.0000
  H   H108      1.0  0.64709  0.14593  0.48031  1.0000
  Mg  Mg9       1.0  0.53055  0.19174  0.85255  1.0000
  C   C133      1.0  0.42989  0.81357  0.35537  1.0000
  C   C134      1.0  0.41921  0.84154  0.27214  1.0000
  C  Sn19      1.0  0.38270  0.82545  0.18309  1.0000
  C  Sn20      1.0  0.35646  0.78051  0.17753  1.0000
  C   C135      1.0  0.36741  0.75281  0.26131  1.0000
  C   C136      1.0  0.40402  0.76925  0.35000  1.0000
  H   H109      1.0  0.45821  0.82629  0.42407  1.0000
  O  Te19      1.0  0.37249  0.85384  0.10060  1.0000
  O  Te20      1.0  0.31978  0.76357  0.08951  1.0000
  H   H110      1.0  0.41227  0.74759  0.41452  1.0000
  Mg  Mg10      1.0  0.30623  0.79847  0.99724  1.0000
  C   C137      1.0  0.78513  0.44018  0.64253  1.0000
  C   C138      1.0  0.76269  0.39769  0.70779  1.0000
  C  Sn21      1.0  0.78146  0.38142  0.81624  1.0000
  C  Sn22      1.0  0.82347  0.40828  0.85998  1.0000
  C   C139      1.0  0.84564  0.45075  0.79412  1.0000
  C   C140      1.0  0.82656  0.46669  0.68567  1.0000
  H   H111      1.0  0.77036  0.45252  0.55869  1.0000
  O  Te21      1.0  0.75860  0.33889  0.88024  1.0000
  O  Te22      1.0  0.84298  0.39285  0.96816  1.0000
  H   H112      1.0  0.84393  0.49960  0.63525  1.0000
  Mg  Mg11      1.0  0.81190  0.34943  0.02290  1.0000
  C   C141      1.0  0.21173  0.63480  0.49908  1.0000
  C   C142      1.0  0.23639  0.62093  0.41683  1.0000
  C  Sn23      1.0  0.21774  0.58028  0.35444  1.0000
  C  Sn24      1.0  0.17358  0.55309  0.37492  1.0000
  C   C143      1.0  0.14918  0.56728  0.45729  1.0000
  C   C144      1.0  0.16817  0.60801  0.51927  1.0000
  H   H113      1.0  0.22641  0.66632  0.54696  1.0000
  O  Te23      1.0  0.24285  0.56691  0.27264  1.0000
  O  Te24      1.0  0.15413  0.51231  0.31374  1.0000
  H   H114      1.0  0.14906  0.61875  0.58285  1.0000
  Mg  Mg12      1.0  0.20173  0.50857  0.21123  1.0000
