data_image0
_chemical_formula_structural       C6OCOC3N2C16OCOC3N2C16OCOC3N2C10OC4NCO2H55C6OCOC3N2C16OCOC3N2C16OCOC3N2C10OC4NCO2H55SnCSn2CSnTe4Mg2SnCSn2CSnTe4Mg2SnCSn2CSnTe4Mg2SnCSn2CSnTe4Mg2SnCSn2CSnTe4Mg2SnCSn2CSnTe4Mg2
_chemical_formula_sum              "C142 O18 N14 H110 Sn24 Te24 Mg12"
_cell_length_a       35.4704
_cell_length_b       37.2093
_cell_length_c       8.17401
_cell_angle_alpha    115.899
_cell_angle_beta     90.4692
_cell_angle_gamma    117.815

_symmetry_space_group_name_H-M    'P1'
_space_group_IT_number       1

loop_
  _space_group_symop_operation_xyz
  'x, y, z'

loop_
  _atom_site_type_symbol
  _atom_site_label
  _atom_site_symmetry_multiplicity
  _atom_site_fract_x
  _atom_site_fract_y
  _atom_site_fract_z
  _atom_site_occupancy
  C   C1        1.0  0.48034  0.53244  0.04498  1.0000
  C   C2        1.0  0.46194  0.49018  0.05103  1.0000
  C   C3        1.0  0.48945  0.47663  0.09304  1.0000
  C   C4        1.0  0.53564  0.50441  0.13188  1.0000
  C   C5        1.0  0.55404  0.54704  0.12894  1.0000
  C   C6        1.0  0.52651  0.56012  0.08356  1.0000
  O   O1        1.0  0.59962  0.57361  0.17448  1.0000
  C   C7        1.0  0.61850  0.61625  0.16794  1.0000
  O   O2        1.0  0.41647  0.46418  0.01084  1.0000
  C   C8        1.0  0.39787  0.42292  0.02821  1.0000
  C   C9        1.0  0.56434  0.48997  0.17257  1.0000
  C   C10       1.0  0.45288  0.54817  0.00275  1.0000
  N   N1        1.0  0.47084  0.58675  0.99619  1.0000
  N   N2        1.0  0.54924  0.44980  0.16374  1.0000
  C   C11       1.0  0.44445  0.60111  0.94951  1.0000
  C   C12       1.0  0.46413  0.64932  0.01294  1.0000
  C   C13       1.0  0.43993  0.66667  0.97546  1.0000
  C   C14       1.0  0.39533  0.63650  0.87011  1.0000
  C   C15       1.0  0.37657  0.58813  0.79878  1.0000
  C   C16       1.0  0.40034  0.57061  0.83729  1.0000
  C   C17       1.0  0.66232  0.38127  0.19421  1.0000
  C   C18       1.0  0.36778  0.65437  0.84389  1.0000
  C   C19       1.0  0.70789  0.40780  0.21949  1.0000
  C   C20       1.0  0.31500  0.69114  0.83424  1.0000
  C   C21       1.0  0.48390  0.95747  0.83305  1.0000
  C   C22       1.0  0.52155  0.97860  0.77325  1.0000
  C   C23       1.0  0.53924  0.02410  0.80868  1.0000
  C   C24       1.0  0.51954  0.05009  0.89919  1.0000
  C   C25       1.0  0.48140  0.02865  0.95588  1.0000
  C   C26       1.0  0.46458  0.98361  0.92559  1.0000
  O   O3        1.0  0.46239  0.05448  0.04630  1.0000
  C   C27       1.0  0.41523  0.03026  0.97194  1.0000
  O   O4        1.0  0.54083  0.95341  0.67350  1.0000
  C   C28       1.0  0.57238  0.95546  0.79390  1.0000
  C   C29       1.0  0.53804  0.09782  0.93613  1.0000
  C   C30       1.0  0.46556  0.91012  0.80144  1.0000
  N   N3        1.0  0.43480  0.89367  0.87820  1.0000
  N   N4        1.0  0.57450  0.11860  0.89503  1.0000
  C   C31       1.0  0.59494  0.16606  0.94890  1.0000
  C   C32       1.0  0.62903  0.18299  0.86686  1.0000
  C   C33       1.0  0.65326  0.23012  0.91817  1.0000
  C   C34       1.0  0.64565  0.26301  0.05888  1.0000
  C   C35       1.0  0.61157  0.24603  0.14146  1.0000
  C   C36       1.0  0.58651  0.19877  0.08802  1.0000
  C   C37       1.0  0.67009  0.31357  0.11734  1.0000
  C   C38       1.0  0.35928  0.71472  0.83032  1.0000
  C   C39       1.0  0.64456  0.33448  0.14630  1.0000
  C   C40       1.0  0.32350  0.63178  0.84764  1.0000
  C   C41       1.0  0.05547  0.54855  0.98243  1.0000
  C   C42       1.0  0.03026  0.57037  0.03134  1.0000
  C   C43       1.0  0.99098  0.54951  0.07614  1.0000
  C   C44       1.0  0.97477  0.50619  0.06815  1.0000
  C   C45       1.0  0.99916  0.48352  0.01366  1.0000
  C   C46       1.0  0.03920  0.50520  0.97408  1.0000
  O   O5        1.0  0.98089  0.44072  0.00272  1.0000
  C   C47       1.0  0.00472  0.41687  0.94322  1.0000
  O   O6        1.0  0.04719  0.61221  0.03223  1.0000
  C   C48       1.0  0.02383  0.63612  0.09847  1.0000
  C   C49       1.0  0.93243  0.48362  0.10460  1.0000
  C   C50       1.0  0.09795  0.57134  0.94564  1.0000
  N   N5        1.0  0.12297  0.55379  0.91475  1.0000
  N   N6        1.0  0.90949  0.50350  0.15921  1.0000
  C   C51       1.0  0.86816  0.47742  0.18221  1.0000
  C   C52       1.0  0.83321  0.48203  0.13258  1.0000
  C   C53       1.0  0.79055  0.45288  0.13247  1.0000
  C   C54       1.0  0.78108  0.41954  0.18989  1.0000
  C   C55       1.0  0.81702  0.41818  0.25311  1.0000
  C   C56       1.0  0.85958  0.44603  0.24845  1.0000
  C   C57       1.0  0.73505  0.38879  0.18530  1.0000
  C   C58       1.0  0.29680  0.64978  0.84293  1.0000
  C   C59       1.0  0.71598  0.34099  0.13570  1.0000
  C   C60       1.0  0.38508  0.69550  0.83358  1.0000
  O   O7        1.0  0.74100  0.32004  0.08038  1.0000
  C   C61       1.0  0.74205  0.26456  0.17448  1.0000
  C   C62       1.0  0.76341  0.31491  0.21413  1.0000
  C   C63       1.0  0.81005  0.32607  0.18573  1.0000
  C   C64       1.0  0.80862  0.27945  0.09515  1.0000
  N   N7        1.0  0.76068  0.24349  0.02609  1.0000
  C   C65       1.0  0.83382  0.27492  0.22944  1.0000
  O   O8        1.0  0.82508  0.23004  0.14825  1.0000
  O   O9        1.0  0.85878  0.30559  0.38684  1.0000
  H   H1        1.0  0.47681  0.44451  0.09853  1.0000
  H   H2        1.0  0.53901  0.59212  0.07736  1.0000
  H   H3        1.0  0.60801  0.60915  0.02475  1.0000
  H   H4        1.0  0.65435  0.63194  0.20805  1.0000
  H   H5        1.0  0.60944  0.64037  0.26808  1.0000
  H   H6        1.0  0.40571  0.39739  0.92925  1.0000
  H   H7        1.0  0.36205  0.40778  0.99273  1.0000
  H   H8        1.0  0.40947  0.43145  0.17290  1.0000
  H   H9        1.0  0.59983  0.51509  0.20944  1.0000
  H   H10       1.0  0.41724  0.52664  0.98122  1.0000
  H   H11       1.0  0.49847  0.67257  0.09588  1.0000
  H   H12       1.0  0.45548  0.70421  0.03064  1.0000
  H   H13       1.0  0.34294  0.56405  0.70828  1.0000
  H   H14       1.0  0.38520  0.53299  0.77740  1.0000
  H   H15       1.0  0.72326  0.44477  0.26424  1.0000
  H   H16       1.0  0.29415  0.70481  0.82790  1.0000
  H   H17       1.0  0.56832  0.04030  0.76371  1.0000
  H   H18       1.0  0.43589  0.96705  0.97161  1.0000
  H   H19       1.0  0.40720  0.01893  0.82093  1.0000
  H   H20       1.0  0.40575  0.05576  0.05201  1.0000
  H   H21       1.0  0.39738  0.99975  0.99173  1.0000
  H   H22       1.0  0.59881  0.99195  0.89103  1.0000
  H   H23       1.0  0.58648  0.93633  0.70073  1.0000
  H   H24       1.0  0.55630  0.93866  0.87645  1.0000
  H   H25       1.0  0.51969  0.11473  0.00187  1.0000
  H   H26       1.0  0.47941  0.89026  0.71112  1.0000
  H   H27       1.0  0.63525  0.15767  0.75921  1.0000
  H   H28       1.0  0.67901  0.24198  0.85132  1.0000
  H   H29       1.0  0.60604  0.27083  0.25590  1.0000
  H   H30       1.0  0.56176  0.18763  0.16087  1.0000
  H   H31       1.0  0.60909  0.31224  0.11900  1.0000
  H   H32       1.0  0.31047  0.60177  0.86896  1.0000
  H   H33       1.0  0.97052  0.56473  0.11327  1.0000
  H   H34       1.0  0.05946  0.48971  0.93666  1.0000
  H   H35       1.0  0.03686  0.43662  0.04640  1.0000
  H   H36       1.0  0.00910  0.41103  0.80253  1.0000
  H   H37       1.0  0.98378  0.38309  0.93620  1.0000
  H   H38       1.0  0.04173  0.66793  0.08813  1.0000
  H   H39       1.0  0.02368  0.64558  0.24602  1.0000
  H   H40       1.0  0.98945  0.61465  0.01141  1.0000
  H   H41       1.0  0.91989  0.44783  0.07619  1.0000
  H   H42       1.0  0.10768  0.60407  0.94644  1.0000
  H   H43       1.0  0.83973  0.50645  0.08224  1.0000
  H   H44       1.0  0.76358  0.45458  0.07935  1.0000
  H   H45       1.0  0.81183  0.39596  0.31217  1.0000
  H   H46       1.0  0.88669  0.44436  0.30038  1.0000
  H   H47       1.0  0.41965  0.71374  0.83470  1.0000
  H   H48       1.0  0.70605  0.24497  0.13106  1.0000
  H   H49       1.0  0.75216  0.26664  0.30715  1.0000
  H   H50       1.0  0.76432  0.33809  0.35662  1.0000
  H   H51       1.0  0.83556  0.35124  0.32067  1.0000
  H   H52       1.0  0.81753  0.34131  0.09353  1.0000
  H   H53       1.0  0.82372  0.27505  0.97618  1.0000
  H   H54       1.0  0.75560  0.21295  0.01396  1.0000
  H   H55       1.0  0.83738  0.22671  0.24606  1.0000
  C   C66       1.0  0.47545  0.50894  0.54645  1.0000
  C   C67       1.0  0.45669  0.46676  0.55317  1.0000
  C   C68       1.0  0.48380  0.45302  0.59736  1.0000
  C   C69       1.0  0.53002  0.48032  0.63555  1.0000
  C   C70       1.0  0.54881  0.52247  0.62796  1.0000
  C   C71       1.0  0.52165  0.53599  0.58269  1.0000
  O   O10       1.0  0.59426  0.54781  0.66723  1.0000
  C   C72       1.0  0.61378  0.58904  0.64958  1.0000
  O   O11       1.0  0.41107  0.44086  0.50905  1.0000
  C   C73       1.0  0.39171  0.39812  0.51507  1.0000
  C   C74       1.0  0.55801  0.46514  0.67735  1.0000
  C   C75       1.0  0.44735  0.52381  0.50283  1.0000
  N   N8        1.0  0.46302  0.56027  0.48177  1.0000
  N   N9        1.0  0.54145  0.42501  0.67076  1.0000
  C   C76       1.0  0.43390  0.57195  0.43540  1.0000
  C   C77       1.0  0.45038  0.61953  0.49711  1.0000
  C   C78       1.0  0.42294  0.63404  0.46341  1.0000
  C   C79       1.0  0.37808  0.60183  0.36246  1.0000
  C   C80       1.0  0.36243  0.55395  0.29129  1.0000
  C   C81       1.0  0.38951  0.53917  0.32670  1.0000
  C   C82       1.0  0.64352  0.34452  0.69009  1.0000
  C   C83       1.0  0.34845  0.61790  0.33791  1.0000
  C   C84       1.0  0.68944  0.36909  0.72255  1.0000
  C   C85       1.0  0.29386  0.65245  0.32282  1.0000
  C   C86       1.0  0.45882  0.92185  0.34235  1.0000
  C   C87       1.0  0.49794  0.94334  0.29054  1.0000
  C   C88       1.0  0.51499  0.98828  0.31944  1.0000
  C   C89       1.0  0.49395  0.01334  0.39995  1.0000
  C   C90       1.0  0.45486  0.99176  0.45068  1.0000
  C   C91       1.0  0.43783  0.94697  0.42221  1.0000
  O   O12       1.0  0.43299  0.01557  0.53085  1.0000
  C   C92       1.0  0.40336  0.01016  0.38856  1.0000
  O   O13       1.0  0.51769  0.91776  0.21387  1.0000
  C   C93       1.0  0.56507  0.94426  0.25619  1.0000
  C   C94       1.0  0.51256  0.06070  0.43351  1.0000
  C   C95       1.0  0.44164  0.87539  0.31697  1.0000
  N   N10       1.0  0.40978  0.85803  0.38799  1.0000
  N   N11       1.0  0.54673  0.07943  0.37631  1.0000
  C   C96       1.0  0.56649  0.12620  0.42081  1.0000
  C   C97       1.0  0.60018  0.14173  0.33499  1.0000
  C   C98       1.0  0.62531  0.18868  0.38368  1.0000
  C   C99       1.0  0.61882  0.22235  0.52562  1.0000
  C   C100      1.0  0.58336  0.20619  0.60382  1.0000
  C   C101      1.0  0.55735  0.15928  0.55182  1.0000
  C   C102      1.0  0.64594  0.27308  0.59158  1.0000
  C   C103      1.0  0.33859  0.67817  0.32923  1.0000
  C   C104      1.0  0.62289  0.29680  0.63004  1.0000
  C   C105      1.0  0.30347  0.59310  0.33120  1.0000
  C   C106      1.0  0.03374  0.50983  0.46527  1.0000
  C   C107      1.0  0.00812  0.53107  0.52506  1.0000
  C   C108      1.0  0.97043  0.50989  0.57953  1.0000
  C   C109      1.0  0.95619  0.46676  0.57183  1.0000
  C   C110      1.0  0.98139  0.44539  0.50906  1.0000
  C   C111      1.0  0.01943  0.46697  0.45841  1.0000
  O   O14       1.0  0.96762  0.40345  0.50567  1.0000
  C   C112      1.0  0.96035  0.36552  0.32457  1.0000
  O   O15       1.0  0.02325  0.57241  0.52596  1.0000
  C   C113      1.0  0.99576  0.59214  0.56591  1.0000
  C   C114      1.0  0.91505  0.44277  0.61554  1.0000
  C   C115      1.0  0.07479  0.53283  0.41967  1.0000
  N   N12       1.0  0.09869  0.51401  0.36962  1.0000
  N   N13       1.0  0.89095  0.46108  0.67236  1.0000
  C   C116      1.0  0.84971  0.43451  0.69495  1.0000
  C   C117      1.0  0.81634  0.44231  0.65576  1.0000
  C   C118      1.0  0.77275  0.41294  0.64550  1.0000
  C   C119      1.0  0.76120  0.37760  0.69270  1.0000
  C   C120      1.0  0.79576  0.37420  0.75534  1.0000
  C   C121      1.0  0.83879  0.40054  0.74963  1.0000
  C   C122      1.0  0.71426  0.34742  0.67931  1.0000
  C   C123      1.0  0.27583  0.61006  0.32348  1.0000
  C   C124      1.0  0.69223  0.29833  0.61091  1.0000
  C   C125      1.0  0.36521  0.65996  0.33461  1.0000
  O   O16       1.0  0.71426  0.27464  0.53584  1.0000
  C   C126      1.0  0.71401  0.20942  0.56022  1.0000
  C   C127      1.0  0.73570  0.26310  0.64306  1.0000
  C   C128      1.0  0.78424  0.27880  0.63014  1.0000
  C   C129      1.0  0.78470  0.23302  0.53652  1.0000
  N   N14       1.0  0.74972  0.20119  0.58811  1.0000
  C   C130      1.0  0.82885  0.23934  0.59429  1.0000
  O   O17       1.0  0.84059  0.21473  0.44249  1.0000
  O   O18       1.0  0.85308  0.26219  0.75301  1.0000
  H   H56       1.0  0.47082  0.42096  0.60353  1.0000
  H   H57       1.0  0.53460  0.56764  0.57331  1.0000
  H   H58       1.0  0.60717  0.61544  0.75083  1.0000
  H   H59       1.0  0.60188  0.58079  0.50576  1.0000
  H   H60       1.0  0.64941  0.60289  0.68126  1.0000
  H   H61       1.0  0.35590  0.38277  0.47516  1.0000
  H   H62       1.0  0.40210  0.40513  0.65816  1.0000
  H   H63       1.0  0.40052  0.37379  0.41456  1.0000
  H   H64       1.0  0.59367  0.48953  0.71365  1.0000
  H   H65       1.0  0.41221  0.50288  0.49218  1.0000
  H   H66       1.0  0.48475  0.64481  0.57799  1.0000
  H   H67       1.0  0.43619  0.67126  0.52003  1.0000
  H   H68       1.0  0.32860  0.52798  0.20417  1.0000
  H   H69       1.0  0.37692  0.50197  0.26631  1.0000
  H   H70       1.0  0.70700  0.40673  0.77948  1.0000
  H   H71       1.0  0.27202  0.66466  0.31147  1.0000
  H   H72       1.0  0.54507  0.00579  0.28284  1.0000
  H   H73       1.0  0.40804  0.93041  0.46272  1.0000
  H   H74       1.0  0.42178  0.02605  0.30695  1.0000
  H   H75       1.0  0.38642  0.02816  0.46241  1.0000
  H   H76       1.0  0.37901  0.97282  0.29187  1.0000
  H   H77       1.0  0.57507  0.91833  0.20562  1.0000
  H   H78       1.0  0.57947  0.96776  0.40933  1.0000
  H   H79       1.0  0.57668  0.96469  0.18340  1.0000
  H   H80       1.0  0.49603  0.07894  0.50965  1.0000
  H   H81       1.0  0.45741  0.85673  0.23631  1.0000
  H   H82       1.0  0.60628  0.11592  0.23010  1.0000
  H   H83       1.0  0.65060  0.19978  0.31355  1.0000
  H   H84       1.0  0.57808  0.23158  0.71638  1.0000
  H   H85       1.0  0.53187  0.14896  0.62287  1.0000
  H   H86       1.0  0.58708  0.27610  0.59867  1.0000
  H   H87       1.0  0.29037  0.56165  0.34263  1.0000
  H   H88       1.0  0.95019  0.52518  0.62533  1.0000
  H   H89       1.0  0.03979  0.45169  0.41519  1.0000
  H   H90       1.0  0.99145  0.37126  0.28555  1.0000
  H   H91       1.0  0.93776  0.36094  0.21431  1.0000
  H   H92       1.0  0.94484  0.33404  0.33810  1.0000
  H   H93       1.0  0.01339  0.62395  0.55531  1.0000
  H   H94       1.0  0.99158  0.60129  0.70892  1.0000
  H   H95       1.0  0.96335  0.56799  0.46120  1.0000
  H   H96       1.0  0.90482  0.40744  0.58790  1.0000
  H   H97       1.0  0.08428  0.56661  0.43154  1.0000
  H   H98       1.0  0.82510  0.46978  0.62106  1.0000
  H   H99       1.0  0.74702  0.41658  0.59471  1.0000
  H   H100      1.0  0.78874  0.35148  0.81428  1.0000
  H   H101      1.0  0.86444  0.39585  0.79343  1.0000
  H   H102      1.0  0.39984  0.67896  0.33809  1.0000
  H   H103      1.0  0.69929  0.19165  0.40834  1.0000
  H   H104      1.0  0.68819  0.19441  0.62297  1.0000
  H   H105      1.0  0.73514  0.28039  0.79008  1.0000
  H   H106      1.0  0.80726  0.30188  0.77154  1.0000
  H   H107      1.0  0.79466  0.29802  0.55326  1.0000
  H   H108      1.0  0.77492  0.21629  0.38209  1.0000
  H   H109      1.0  0.75932  0.21465  0.73151  1.0000
  H   H110      1.0  0.86905  0.22084  0.49718  1.0000
  C  Sn1       1.0  0.17213  0.51468  0.26940  1.0000
  C   C131      1.0  0.14948  0.53487  0.37400  1.0000
  C  Sn2       1.0  0.16547  0.58246  0.44585  1.0000
  C  Sn3       1.0  0.20489  0.61046  0.41237  1.0000
  C   C132      1.0  0.22751  0.59028  0.30780  1.0000
  C  Sn4       1.0  0.21155  0.54269  0.23591  1.0000
  O  Te1       1.0  0.15554  0.46703  0.19891  1.0000
  O  Te2       1.0  0.14227  0.60185  0.55007  1.0000
  O  Te3       1.0  0.22147  0.65814  0.48297  1.0000
  O  Te4       1.0  0.23472  0.52330  0.13173  1.0000
  Mg  Mg1       1.0  0.17808  0.66840  0.61652  1.0000
  Mg  Mg2       1.0  0.19893  0.45674  0.06513  1.0000
  C  Sn5       1.0  0.57854  0.37423  0.17756  1.0000
  C   C133      1.0  0.62118  0.38896  0.15330  1.0000
  C  Sn6       1.0  0.64614  0.43164  0.15709  1.0000
  C  Sn7       1.0  0.62813  0.46021  0.18585  1.0000
  C   C134      1.0  0.58552  0.44548  0.21013  1.0000
  C  Sn8       1.0  0.56053  0.40280  0.20632  1.0000
  O  Te5       1.0  0.55418  0.33143  0.17327  1.0000
  O  Te6       1.0  0.68868  0.44561  0.13243  1.0000
  O  Te7       1.0  0.65253  0.50303  0.19013  1.0000
  O  Te8       1.0  0.51802  0.38883  0.23099  1.0000
  Mg  Mg3       1.0  0.70894  0.50686  0.14971  1.0000
  Mg  Mg4       1.0  0.49775  0.32759  0.21384  1.0000
  C  Sn9       1.0  0.19634  0.55490  0.80734  1.0000
  C   C135      1.0  0.17435  0.57479  0.91941  1.0000
  C  Sn10      1.0  0.18956  0.62224  0.99208  1.0000
  C  Sn11      1.0  0.22752  0.65041  0.95181  1.0000
  C   C136      1.0  0.24949  0.63052  0.83979  1.0000
  C  Sn12      1.0  0.23430  0.58307  0.76708  1.0000
  O  Te9       1.0  0.18055  0.50738  0.73618  1.0000
  O  Te10      1.0  0.10458  0.51760  0.10382  1.0000
  O  Te11      1.0  0.18085  0.57423  0.02310  1.0000
  O  Te12      1.0  0.25681  0.56398  0.65538  1.0000
  Mg  Mg5       1.0  0.13886  0.58408  0.16816  1.0000
  Mg  Mg6       1.0  0.22255  0.49750  0.59089  1.0000
  C  Sn13      1.0  0.40992  0.75845  0.33575  1.0000
  C   C137      1.0  0.37127  0.73444  0.37978  1.0000
  C  Sn14      1.0  0.34049  0.74850  0.40505  1.0000
  C  Sn15      1.0  0.34848  0.78735  0.38581  1.0000
  C   C138      1.0  0.38711  0.81133  0.34178  1.0000
  C  Sn16      1.0  0.41792  0.79730  0.31651  1.0000
  O  Te13      1.0  0.44024  0.74378  0.31109  1.0000
  O  Te14      1.0  0.30209  0.72396  0.44906  1.0000
  O  Te15      1.0  0.31812  0.80201  0.41051  1.0000
  O  Te16      1.0  0.45629  0.82182  0.27250  1.0000
  Mg  Mg7       1.0  0.27074  0.75733  0.46903  1.0000
  Mg  Mg8       1.0  0.48765  0.78846  0.25239  1.0000
  C  Sn17      1.0  0.35557  0.79292  0.87218  1.0000
  C   C139      1.0  0.36904  0.76046  0.80315  1.0000
  C  Sn18      1.0  0.41093  0.77356  0.77169  1.0000
  C  Sn19      1.0  0.43998  0.82008  0.81014  1.0000
  C   C140      1.0  0.42651  0.85251  0.87916  1.0000
  C  Sn20      1.0  0.38462  0.83944  0.91063  1.0000
  O  Te17      1.0  0.31354  0.77906  0.90259  1.0000
  O  Te18      1.0  0.42365  0.74049  0.70255  1.0000
  O  Te19      1.0  0.48203  0.83393  0.77966  1.0000
  O  Te20      1.0  0.37190  0.87249  0.97976  1.0000
  Mg  Mg9       1.0  0.48422  0.77622  0.68417  1.0000
  Mg  Mg10      1.0  0.31135  0.83680  0.99828  1.0000
  C  Sn21      1.0  0.63869  0.42128  0.72091  1.0000
  C   C141      1.0  0.62589  0.38323  0.74928  1.0000
  C  Sn22      1.0  0.58166  0.35444  0.73644  1.0000
  C  Sn23      1.0  0.54953  0.36385  0.69425  1.0000
  C   C142      1.0  0.56233  0.40187  0.66588  1.0000
  C  Sn24      1.0  0.60657  0.43069  0.67872  1.0000
  O  Te21      1.0  0.68310  0.44959  0.73442  1.0000
  O  Te22      1.0  0.56966  0.31661  0.76544  1.0000
  O  Te23      1.0  0.50509  0.33549  0.68077  1.0000
  O  Te24      1.0  0.61857  0.46849  0.64971  1.0000
  Mg  Mg11      1.0  0.50505  0.28816  0.73188  1.0000
  Mg  Mg12      1.0  0.68316  0.49695  0.68314  1.0000
