data_image0
_chemical_formula_structural       C6OCOC3N2C22OCOC3N2C10OCOC3N2C16OC5NH61C6OCOC3N2C10OCOC3N2C16OCOC3N2C10OC5NH53C2Sn2C2HTe2HMgC2Sn2C2HTe2HMgC2Sn2C2HTe2HMgC2Sn2C2HTe2HMgC2Sn2C2HTe2HMgC2Sn2C2HTe2HMg
_chemical_formula_sum              "C154 O14 N14 H126 Sn12 Te12 Mg6"
_cell_length_a       36.9028
_cell_length_b       36.709
_cell_length_c       8.08171
_cell_angle_alpha    94.4101
_cell_angle_beta     87.657
_cell_angle_gamma    119.777

_symmetry_space_group_name_H-M    'P1'
_space_group_IT_number       1

loop_
  _space_group_symop_operation_xyz
  'x, y, z'

loop_
  _atom_site_type_symbol
  _atom_site_label
  _atom_site_symmetry_multiplicity
  _atom_site_fract_x
  _atom_site_fract_y
  _atom_site_fract_z
  _atom_site_occupancy
  C   C1        1.0  0.47740  0.51451  0.01520  1.0000
  C   C2        1.0  0.45930  0.47067  0.03382  1.0000
  C   C3        1.0  0.48347  0.45419  0.08356  1.0000
  C   C4        1.0  0.52641  0.48049  0.11456  1.0000
  C   C5        1.0  0.54449  0.52402  0.09421  1.0000
  C   C6        1.0  0.52033  0.54043  0.04449  1.0000
  O   O1        1.0  0.58624  0.55097  0.13352  1.0000
  C   C7        1.0  0.61419  0.55990  0.99342  1.0000
  O   O2        1.0  0.41721  0.44644  0.00001  1.0000
  C   C8        1.0  0.39622  0.40556  0.06462  1.0000
  C   C9        1.0  0.55234  0.46336  0.15958  1.0000
  C   C10       1.0  0.45146  0.53257  0.98077  1.0000
  N   N1        1.0  0.46727  0.57275  0.97326  1.0000
  N   N2        1.0  0.53786  0.42350  0.17263  1.0000
  C   C11       1.0  0.44066  0.58868  0.94784  1.0000
  C   C12       1.0  0.56638  0.40935  0.18908  1.0000
  C   C13       1.0  0.55379  0.37223  0.26993  1.0000
  C   C14       1.0  0.58014  0.35537  0.27638  1.0000
  C   C15       1.0  0.61969  0.37436  0.19960  1.0000
  C   C16       1.0  0.63235  0.41175  0.12101  1.0000
  C   C17       1.0  0.60635  0.42891  0.11528  1.0000
  C   C18       1.0  0.45182  0.62869  0.02314  1.0000
  C   C19       1.0  0.42567  0.64559  0.01305  1.0000
  C   C20       1.0  0.38806  0.62398  0.92334  1.0000
  C   C21       1.0  0.37809  0.58486  0.84155  1.0000
  C   C22       1.0  0.40369  0.56735  0.85372  1.0000
  C   C23       1.0  0.64615  0.35460  0.18557  1.0000
  C   C24       1.0  0.36034  0.64214  0.91437  1.0000
  C   C25       1.0  0.68973  0.37902  0.18163  1.0000
  C   C26       1.0  0.30830  0.67761  0.90997  1.0000
  C   C27       1.0  0.47270  0.95406  0.91618  1.0000
  C   C28       1.0  0.51378  0.98248  0.86419  1.0000
  C   C29       1.0  0.53079  0.02544  0.89630  1.0000
  C   C30       1.0  0.50757  0.04223  0.97949  1.0000
  C   C31       1.0  0.46615  0.01389  0.02809  1.0000
  C   C32       1.0  0.44934  0.97082  0.99848  1.0000
  O   O3        1.0  0.44191  0.02939  0.10813  1.0000
  C   C33       1.0  0.41829  0.03718  0.99196  1.0000
  O   O4        1.0  0.53776  0.96708  0.78142  1.0000
  C   C34       1.0  0.56246  0.95976  0.89349  1.0000
  C   C35       1.0  0.52618  0.08736  0.01689  1.0000
  C   C36       1.0  0.45556  0.90892  0.88599  1.0000
  N   N3        1.0  0.42129  0.88257  0.95736  1.0000
  N   N4        1.0  0.56475  0.11251  0.97793  1.0000
  C   C37       1.0  0.65230  0.29115  0.12031  1.0000
  C   C38       1.0  0.35171  0.70415  0.91445  1.0000
  C   C39       1.0  0.62846  0.31101  0.15858  1.0000
  C   C40       1.0  0.31667  0.61644  0.91050  1.0000
  C   C41       1.0  0.04414  0.52453  0.92795  1.0000
  C   C42       1.0  0.01942  0.54442  0.94167  1.0000
  C   C43       1.0  0.97714  0.52118  0.97873  1.0000
  C   C44       1.0  0.95787  0.47772  0.99738  1.0000
  C   C45       1.0  0.98220  0.45754  0.97736  1.0000
  C   C46       1.0  0.02469  0.48100  0.94490  1.0000
  O   O5        1.0  0.96151  0.41488  0.99612  1.0000
  C   C47       1.0  0.98187  0.39209  0.93111  1.0000
  O   O6        1.0  0.03977  0.58685  0.91687  1.0000
  C   C48       1.0  0.01710  0.60853  0.96078  1.0000
  C   C49       1.0  0.91346  0.45335  0.03195  1.0000
  C   C50       1.0  0.08922  0.54902  0.90746  1.0000
  N   N5        1.0  0.11248  0.53164  0.90101  1.0000
  N   N6        1.0  0.89024  0.47054  0.05913  1.0000
  C   C51       1.0  0.15589  0.55744  0.90477  1.0000
  C   C52       1.0  0.84786  0.44399  0.09278  1.0000
  C   C53       1.0  0.81892  0.45429  0.03409  1.0000
  C   C54       1.0  0.77625  0.42711  0.05074  1.0000
  C   C55       1.0  0.76083  0.38957  0.13166  1.0000
  C   C56       1.0  0.78997  0.38128  0.20210  1.0000
  C   C57       1.0  0.83263  0.40758  0.18165  1.0000
  C   C58       1.0  0.18084  0.54319  0.81792  1.0000
  C   C59       1.0  0.22416  0.56784  0.81861  1.0000
  C   C60       1.0  0.24431  0.60713  0.90857  1.0000
  C   C61       1.0  0.21930  0.62040  0.00095  1.0000
  C   C62       1.0  0.17597  0.59613  0.99969  1.0000
  C   C63       1.0  0.71523  0.36123  0.14457  1.0000
  C   C64       1.0  0.29026  0.63377  0.90896  1.0000
  C   C65       1.0  0.69634  0.31715  0.11104  1.0000
  C   C66       1.0  0.37726  0.68589  0.91601  1.0000
  O   O7        1.0  0.72218  0.30173  0.05092  1.0000
  C   C67       1.0  0.72849  0.27472  0.15401  1.0000
  C   C68       1.0  0.75450  0.25892  0.05487  1.0000
  C   C69       1.0  0.80023  0.29297  0.02247  1.0000
  C   C70       1.0  0.82743  0.27516  0.07958  1.0000
  C   C71       1.0  0.79655  0.22805  0.08923  1.0000
  N   N7        1.0  0.75805  0.22759  0.14886  1.0000
  H   H1        1.0  0.47051  0.42089  0.09972  1.0000
  H   H2        1.0  0.53400  0.57406  0.03292  1.0000
  H   H3        1.0  0.60494  0.57202  0.89257  1.0000
  H   H4        1.0  0.61485  0.53133  0.94499  1.0000
  H   H5        1.0  0.64520  0.58353  0.03997  1.0000
  H   H6        1.0  0.40600  0.38432  0.00021  1.0000
  H   H7        1.0  0.36292  0.39324  0.04259  1.0000
  H   H8        1.0  0.40209  0.40808  0.19851  1.0000
  H   H9        1.0  0.58551  0.48629  0.17891  1.0000
  H   H10       1.0  0.41780  0.51065  0.97059  1.0000
  H   H11       1.0  0.52325  0.35742  0.32925  1.0000
  H   H12       1.0  0.57024  0.32723  0.34301  1.0000
  H   H13       1.0  0.66185  0.42587  0.05376  1.0000
  H   H14       1.0  0.61566  0.45587  0.04215  1.0000
  H   H15       1.0  0.48033  0.64496  0.09604  1.0000
  H   H16       1.0  0.43387  0.67549  0.08024  1.0000
  H   H17       1.0  0.35057  0.56869  0.76288  1.0000
  H   H18       1.0  0.39606  0.53769  0.78553  1.0000
  H   H19       1.0  0.70452  0.41290  0.20725  1.0000
  H   H20       1.0  0.28814  0.69117  0.90196  1.0000
  H   H21       1.0  0.56251  0.04704  0.85774  1.0000
  H   H22       1.0  0.41774  0.94923  0.03854  1.0000
  H   H23       1.0  0.40201  0.05113  0.06495  1.0000
  H   H24       1.0  0.39543  0.00769  0.92561  1.0000
  H   H25       1.0  0.43888  0.05901  0.89992  1.0000
  H   H26       1.0  0.58628  0.98956  0.95477  1.0000
  H   H27       1.0  0.57774  0.94513  0.81788  1.0000
  H   H28       1.0  0.54276  0.93873  0.98938  1.0000
  H   H29       1.0  0.50588  0.09800  0.08022  1.0000
  H   H30       1.0  0.47370  0.89931  0.80109  1.0000
  H   H31       1.0  0.59465  0.29188  0.15453  1.0000
  H   H32       1.0  0.30294  0.58260  0.91610  1.0000
  H   H33       1.0  0.95727  0.53525  0.99383  1.0000
  H   H34       1.0  0.04469  0.46703  0.93504  1.0000
  H   H35       1.0  0.95880  0.35879  0.94122  1.0000
  H   H36       1.0  0.00963  0.40006  0.00431  1.0000
  H   H37       1.0  0.99046  0.39815  0.79999  1.0000
  H   H38       1.0  0.98967  0.59731  0.88072  1.0000
  H   H39       1.0  0.03894  0.64176  0.94262  1.0000
  H   H40       1.0  0.00706  0.60466  0.09136  1.0000
  H   H41       1.0  0.90038  0.41920  0.03075  1.0000
  H   H42       1.0  0.10249  0.58305  0.90129  1.0000
  H   H43       1.0  0.83064  0.48249  0.96624  1.0000
  H   H44       1.0  0.75435  0.43410  0.99396  1.0000
  H   H45       1.0  0.77893  0.35477  0.27921  1.0000
  H   H46       1.0  0.85455  0.40096  0.24062  1.0000
  H   H47       1.0  0.16543  0.51319  0.74588  1.0000
  H   H48       1.0  0.24282  0.55714  0.74471  1.0000
  H   H49       1.0  0.23421  0.64927  0.08049  1.0000
  H   H50       1.0  0.15732  0.60581  0.07913  1.0000
  H   H51       1.0  0.41098  0.70606  0.92001  1.0000
  H   H52       1.0  0.69825  0.24793  0.18601  1.0000
  H   H53       1.0  0.74406  0.29257  0.26896  1.0000
  H   H54       1.0  0.73956  0.24476  0.93419  1.0000
  H   H55       1.0  0.80451  0.29811  0.88960  1.0000
  H   H56       1.0  0.80790  0.32314  0.08799  1.0000
  H   H57       1.0  0.84066  0.28909  0.20281  1.0000
  H   H58       1.0  0.85352  0.28122  0.99464  1.0000
  H   H59       1.0  0.80635  0.21306  0.17633  1.0000
  H   H60       1.0  0.79291  0.21179  0.96535  1.0000
  H   H61       1.0  0.73254  0.19850  0.12731  1.0000
  C   C72       1.0  0.47767  0.51851  0.50860  1.0000
  C   C73       1.0  0.46019  0.47476  0.52788  1.0000
  C   C74       1.0  0.48528  0.45888  0.57344  1.0000
  C   C75       1.0  0.52845  0.48536  0.59927  1.0000
  C   C76       1.0  0.54617  0.52866  0.57284  1.0000
  C   C77       1.0  0.52093  0.54453  0.52938  1.0000
  O   O8        1.0  0.58803  0.55695  0.60315  1.0000
  C   C78       1.0  0.61842  0.55377  0.49388  1.0000
  O   O9        1.0  0.41782  0.45000  0.50041  1.0000
  C   C79       1.0  0.39840  0.40886  0.56281  1.0000
  C   C80       1.0  0.55407  0.46823  0.65017  1.0000
  C   C81       1.0  0.45111  0.53637  0.47957  1.0000
  N   N8        1.0  0.46649  0.57650  0.47163  1.0000
  N   N9        1.0  0.53985  0.42822  0.65711  1.0000
  C   C82       1.0  0.64596  0.35682  0.67975  1.0000
  C   C83       1.0  0.35978  0.64680  0.42526  1.0000
  C   C84       1.0  0.68960  0.38101  0.67754  1.0000
  C   C85       1.0  0.30625  0.68074  0.42658  1.0000
  C   C86       1.0  0.47165  0.95667  0.43158  1.0000
  C   C87       1.0  0.51499  0.98334  0.40412  1.0000
  C   C88       1.0  0.53209  0.02666  0.42406  1.0000
  C   C89       1.0  0.50707  0.04497  0.46689  1.0000
  C   C90       1.0  0.46344  0.01838  0.48649  1.0000
  C   C91       1.0  0.44644  0.97496  0.46952  1.0000
  O   O10       1.0  0.44034  0.03804  0.52536  1.0000
  C   C92       1.0  0.39601  0.01235  0.50767  1.0000
  O   O11       1.0  0.53774  0.96372  0.35806  1.0000
  C   C93       1.0  0.58222  0.98977  0.35847  1.0000
  C   C94       1.0  0.52599  0.09040  0.49149  1.0000
  C   C95       1.0  0.45437  0.91140  0.42691  1.0000
  N   N10       1.0  0.41499  0.88582  0.45105  1.0000
  N   N11       1.0  0.56612  0.11438  0.48231  1.0000
  C   C96       1.0  0.40059  0.84247  0.44269  1.0000
  C   C97       1.0  0.36400  0.81701  0.53142  1.0000
  C   C98       1.0  0.34773  0.77370  0.52860  1.0000
  C   C99       1.0  0.36702  0.75398  0.43553  1.0000
  C   C100      1.0  0.40315  0.77942  0.34451  1.0000
  C   C101      1.0  0.41962  0.82273  0.34718  1.0000
  C   C102      1.0  0.65193  0.29304  0.61882  1.0000
  C   C103      1.0  0.34957  0.70794  0.43115  1.0000
  C   C104      1.0  0.62816  0.31313  0.65436  1.0000
  C   C105      1.0  0.31629  0.62053  0.42032  1.0000
  C   C106      1.0  0.04319  0.51775  0.41354  1.0000
  C   C107      1.0  0.01844  0.53744  0.41317  1.0000
  C   C108      1.0  0.97648  0.51577  0.45653  1.0000
  C   C109      1.0  0.95730  0.47348  0.49573  1.0000
  C   C110      1.0  0.98164  0.45337  0.49014  1.0000
  C   C111      1.0  0.02376  0.47530  0.45068  1.0000
  O   O12       1.0  0.96368  0.41183  0.53361  1.0000
  C   C112      1.0  0.94993  0.38177  0.39215  1.0000
  O   O13       1.0  0.03801  0.57858  0.36799  1.0000
  C   C113      1.0  0.02845  0.60640  0.47187  1.0000
  C   C114      1.0  0.91315  0.45042  0.53797  1.0000
  C   C115      1.0  0.08817  0.54256  0.39142  1.0000
  N   N12       1.0  0.11259  0.52682  0.39877  1.0000
  N   N13       1.0  0.89021  0.46813  0.55060  1.0000
  C   C116      1.0  0.15567  0.55469  0.40372  1.0000
  C   C117      1.0  0.18267  0.54235  0.32240  1.0000
  C   C118      1.0  0.22567  0.56917  0.32622  1.0000
  C   C119      1.0  0.24346  0.60868  0.41495  1.0000
  C   C120      1.0  0.21638  0.62027  0.50036  1.0000
  C   C121      1.0  0.17331  0.59397  0.49476  1.0000
  C   C122      1.0  0.71493  0.36294  0.64311  1.0000
  C   C123      1.0  0.28911  0.63691  0.42041  1.0000
  C   C124      1.0  0.69601  0.31887  0.61049  1.0000
  C   C125      1.0  0.37593  0.69050  0.42950  1.0000
  O   O14       1.0  0.72202  0.30354  0.55129  1.0000
  C   C126      1.0  0.72871  0.27676  0.65442  1.0000
  C   C127      1.0  0.75470  0.26107  0.55427  1.0000
  C   C128      1.0  0.80023  0.29518  0.51868  1.0000
  C   C129      1.0  0.82787  0.27814  0.57811  1.0000
  C   C130      1.0  0.79746  0.23096  0.58888  1.0000
  N   N14       1.0  0.75879  0.23011  0.64853  1.0000
  H   H62       1.0  0.47271  0.42583  0.59318  1.0000
  H   H63       1.0  0.53436  0.57800  0.51477  1.0000
  H   H64       1.0  0.62804  0.57664  0.39851  1.0000
  H   H65       1.0  0.60583  0.52220  0.43187  1.0000
  H   H66       1.0  0.64518  0.56057  0.57081  1.0000
  H   H67       1.0  0.40896  0.38859  0.49525  1.0000
  H   H68       1.0  0.36484  0.39550  0.54357  1.0000
  H   H69       1.0  0.40491  0.41122  0.69601  1.0000
  H   H70       1.0  0.58664  0.49112  0.68129  1.0000
  H   H71       1.0  0.41741  0.51429  0.47326  1.0000
  H   H72       1.0  0.70459  0.41490  0.70298  1.0000
  H   H73       1.0  0.28562  0.69389  0.42187  1.0000
  H   H74       1.0  0.56520  0.04817  0.40796  1.0000
  H   H75       1.0  0.41340  0.95342  0.48742  1.0000
  H   H76       1.0  0.38813  0.99821  0.38011  1.0000
  H   H77       1.0  0.38322  0.03348  0.53460  1.0000
  H   H78       1.0  0.38285  0.98745  0.59580  1.0000
  H   H79       1.0  0.59269  0.01372  0.26661  1.0000
  H   H80       1.0  0.59447  0.96845  0.32459  1.0000
  H   H81       1.0  0.59327  0.00514  0.48276  1.0000
  H   H82       1.0  0.50461  0.10282  0.51726  1.0000
  H   H83       1.0  0.47688  0.90024  0.40719  1.0000
  H   H84       1.0  0.34948  0.83223  0.60613  1.0000
  H   H85       1.0  0.32032  0.75486  0.60313  1.0000
  H   H86       1.0  0.41731  0.76465  0.26470  1.0000
  H   H87       1.0  0.44630  0.84120  0.26881  1.0000
  H   H88       1.0  0.59434  0.29395  0.64994  1.0000
  H   H89       1.0  0.30327  0.58674  0.42365  1.0000
  H   H90       1.0  0.95700  0.53034  0.45918  1.0000
  H   H91       1.0  0.04287  0.46042  0.45416  1.0000
  H   H92       1.0  0.93795  0.35075  0.44097  1.0000
  H   H93       1.0  0.97591  0.38808  0.30576  1.0000
  H   H94       1.0  0.92504  0.38258  0.32463  1.0000
  H   H95       1.0  0.05003  0.63813  0.43356  1.0000
  H   H96       1.0  0.03360  0.60413  0.60286  1.0000
  H   H97       1.0  0.99618  0.59958  0.45558  1.0000
  H   H98       1.0  0.90024  0.41686  0.55557  1.0000
  H   H99       1.0  0.10049  0.57599  0.37307  1.0000
  H   H100      1.0  0.16913  0.51213  0.25178  1.0000
  H   H101      1.0  0.24595  0.55993  0.25619  1.0000
  H   H102      1.0  0.22947  0.64954  0.57761  1.0000
  H   H103      1.0  0.15303  0.60257  0.56838  1.0000
  H   H104      1.0  0.40955  0.71139  0.43292  1.0000
  H   H105      1.0  0.69858  0.24982  0.68649  1.0000
  H   H106      1.0  0.74433  0.29462  0.76936  1.0000
  H   H107      1.0  0.73929  0.24644  0.43486  1.0000
  H   H108      1.0  0.80415  0.29935  0.38501  1.0000
  H   H109      1.0  0.80784  0.32570  0.58081  1.0000
  H   H110      1.0  0.84090  0.29247  0.70120  1.0000
  H   H111      1.0  0.85412  0.28437  0.49386  1.0000
  H   H112      1.0  0.80762  0.21638  0.67645  1.0000
  H   H113      1.0  0.79385  0.21453  0.46540  1.0000
  H   H114      1.0  0.73343  0.20091  0.62742  1.0000
  C   C131      1.0  0.37956  0.58102  0.33305  1.0000
  C   C132      1.0  0.38322  0.61760  0.41534  1.0000
  C  Sn1       1.0  0.41795  0.64375  0.51465  1.0000
  C  Sn2       1.0  0.44956  0.63300  0.53163  1.0000
  C   C133      1.0  0.44562  0.59636  0.44870  1.0000
  C   C134      1.0  0.41072  0.57041  0.34968  1.0000
  H   H115      1.0  0.35257  0.56096  0.25636  1.0000
  O  Te1       1.0  0.42111  0.68016  0.59604  1.0000
  O  Te2       1.0  0.48461  0.65858  0.63005  1.0000
  H   H116      1.0  0.40791  0.54211  0.28590  1.0000
  Mg  Mg1       1.0  0.47476  0.70491  0.71619  1.0000
  C   C135      1.0  0.61909  0.43439  0.60348  1.0000
  C   C136      1.0  0.57797  0.41923  0.65831  1.0000
  C  Sn3       1.0  0.55778  0.38251  0.74371  1.0000
  C  Sn4       1.0  0.57924  0.36063  0.77466  1.0000
  C   C137      1.0  0.62038  0.37607  0.71940  1.0000
  C   C138      1.0  0.64028  0.41284  0.63401  1.0000
  H   H117      1.0  0.63450  0.46284  0.53749  1.0000
  O  Te3       1.0  0.51668  0.36779  0.79757  1.0000
  O  Te4       1.0  0.55981  0.32387  0.85978  1.0000
  H   H118      1.0  0.67213  0.42458  0.59167  1.0000
  Mg  Mg2       1.0  0.50354  0.31630  0.90833  1.0000
  C   C139      1.0  0.78548  0.43756  0.52939  1.0000
  C   C140      1.0  0.76380  0.39933  0.60438  1.0000
  C  Sn5       1.0  0.78550  0.38415  0.68789  1.0000
  C  Sn6       1.0  0.82971  0.40776  0.69631  1.0000
  C   C141      1.0  0.85110  0.44599  0.62098  1.0000
  C   C142      1.0  0.82909  0.46088  0.53769  1.0000
  H   H119      1.0  0.76845  0.44910  0.46502  1.0000
  O  Te5       1.0  0.76335  0.34589  0.76208  1.0000
  O  Te6       1.0  0.85217  0.39333  0.77903  1.0000
  H   H120      1.0  0.84587  0.49049  0.47973  1.0000
  Mg  Mg3       1.0  0.80794  0.33939  0.86049  1.0000
  C   C143      1.0  0.34955  0.76296  0.01679  1.0000
  C   C144      1.0  0.36254  0.75402  0.93150  1.0000
  C  Sn7       1.0  0.40079  0.77211  0.84771  1.0000
  C  Sn8       1.0  0.42565  0.81654  0.84961  1.0000
  C   C145      1.0  0.41160  0.84176  0.93540  1.0000
  C   C146      1.0  0.37405  0.80679  0.01879  1.0000
  H   H121      1.0  0.31990  0.74871  0.08139  1.0000
  O  Te7       1.0  0.41407  0.74619  0.76305  1.0000
  O  Te8       1.0  0.46401  0.83545  0.76696  1.0000
  H   H122      1.0  0.36341  0.82653  0.08491  1.0000
  Mg  Mg4       1.0  0.46866  0.78680  0.66903  1.0000
  C   C147      1.0  0.63238  0.19335  0.43087  1.0000
  C   C148      1.0  0.59634  0.16318  0.50739  1.0000
  C  Sn9       1.0  0.57476  0.17557  0.62328  1.0000
  C  Sn10      1.0  0.58959  0.21900  0.66303  1.0000
  C   C149      1.0  0.62566  0.24894  0.58571  1.0000
  C   C150      1.0  0.64703  0.23620  0.46996  1.0000
  H   H123      1.0  0.64890  0.18350  0.34124  1.0000
  O  Te9       1.0  0.53881  0.14500  0.69861  1.0000
  O  Te10      1.0  0.56862  0.23225  0.77837  1.0000
  H   H124      1.0  0.67491  0.25957  0.41066  1.0000
  Mg  Mg5       1.0  0.52108  0.17870  0.84786  1.0000
  C   C151      1.0  0.56948  0.18590  0.15358  1.0000
  C   C152      1.0  0.57741  0.16057  0.03684  1.0000
  C  Sn11      1.0  0.61322  0.19453  0.94207  1.0000
  C  Sn12      1.0  0.64236  0.23812  0.96491  1.0000
  C   C153      1.0  0.63494  0.24665  0.08210  1.0000
  C   C154      1.0  0.59822  0.22890  0.17623  1.0000
  H   H125      1.0  0.54109  0.17216  0.22648  1.0000
  O  Te11      1.0  0.62065  0.16877  0.82594  1.0000
  O  Te12      1.0  0.67919  0.25635  0.87190  1.0000
  H   H126      1.0  0.59210  0.24851  0.26668  1.0000
  Mg  Mg6       1.0  0.67529  0.20825  0.72896  1.0000
