data_image0
_chemical_formula_structural       C6OCOC3N2C10OCOC3N2C10OCOC3N2C4OC4NCO2H43C6OCOC3N2C10OCOC3N2C10OCOC3N2C4OC4NCO2H43SnCSn2CSnTe4Mg2SnCSn2CSnTe4Mg2SnCSn2CSnTe4Mg2SnCSn2CSnTe4Mg2SnCSn2CSnTe4Mg2SnCSn2CSnTe4Mg2SnCSn2CSnTe4Mg2SnCSn2CSnTe4Mg2SnCSn2CSnTe4Mg2SnCSn2CSnTe4Mg2SnCSn2CSnTe4Mg2SnCSn2CSnTe4Mg2
_chemical_formula_sum              "C118 O18 N14 H86 Sn48 Te48 Mg24"
_cell_length_a       35.4704
_cell_length_b       37.2093
_cell_length_c       8.17401
_cell_angle_alpha    115.899
_cell_angle_beta     90.4692
_cell_angle_gamma    117.815

_symmetry_space_group_name_H-M    'P1'
_space_group_IT_number       1

loop_
  _space_group_symop_operation_xyz
  'x, y, z'

loop_
  _atom_site_type_symbol
  _atom_site_label
  _atom_site_symmetry_multiplicity
  _atom_site_fract_x
  _atom_site_fract_y
  _atom_site_fract_z
  _atom_site_occupancy
  C   C1        1.0  0.48034  0.53244  0.04498  1.0000
  C   C2        1.0  0.46194  0.49018  0.05103  1.0000
  C   C3        1.0  0.48945  0.47663  0.09304  1.0000
  C   C4        1.0  0.53564  0.50441  0.13188  1.0000
  C   C5        1.0  0.55404  0.54704  0.12894  1.0000
  C   C6        1.0  0.52651  0.56012  0.08356  1.0000
  O   O1        1.0  0.59962  0.57361  0.17448  1.0000
  C   C7        1.0  0.61850  0.61625  0.16794  1.0000
  O   O2        1.0  0.41647  0.46418  0.01084  1.0000
  C   C8        1.0  0.39787  0.42292  0.02821  1.0000
  C   C9        1.0  0.56434  0.48997  0.17257  1.0000
  C   C10       1.0  0.45288  0.54817  0.00275  1.0000
  N   N1        1.0  0.47084  0.58675  0.99619  1.0000
  N   N2        1.0  0.54924  0.44980  0.16374  1.0000
  C   C11       1.0  0.66232  0.38127  0.19421  1.0000
  C   C12       1.0  0.36778  0.65437  0.84389  1.0000
  C   C13       1.0  0.70789  0.40780  0.21949  1.0000
  C   C14       1.0  0.31500  0.69114  0.83424  1.0000
  C   C15       1.0  0.48390  0.95747  0.83305  1.0000
  C   C16       1.0  0.52155  0.97860  0.77325  1.0000
  C   C17       1.0  0.53924  0.02410  0.80868  1.0000
  C   C18       1.0  0.51954  0.05009  0.89919  1.0000
  C   C19       1.0  0.48140  0.02865  0.95588  1.0000
  C   C20       1.0  0.46458  0.98361  0.92559  1.0000
  O   O3        1.0  0.46239  0.05448  0.04630  1.0000
  C   C21       1.0  0.41523  0.03026  0.97194  1.0000
  O   O4        1.0  0.54083  0.95341  0.67350  1.0000
  C   C22       1.0  0.57238  0.95546  0.79390  1.0000
  C   C23       1.0  0.53804  0.09782  0.93613  1.0000
  C   C24       1.0  0.46556  0.91012  0.80144  1.0000
  N   N3        1.0  0.43480  0.89367  0.87820  1.0000
  N   N4        1.0  0.57450  0.11860  0.89503  1.0000
  C   C25       1.0  0.67009  0.31357  0.11734  1.0000
  C   C26       1.0  0.35928  0.71472  0.83032  1.0000
  C   C27       1.0  0.64456  0.33448  0.14630  1.0000
  C   C28       1.0  0.32350  0.63178  0.84764  1.0000
  C   C29       1.0  0.05547  0.54855  0.98243  1.0000
  C   C30       1.0  0.03026  0.57037  0.03134  1.0000
  C   C31       1.0  0.99098  0.54951  0.07614  1.0000
  C   C32       1.0  0.97477  0.50619  0.06815  1.0000
  C   C33       1.0  0.99916  0.48352  0.01366  1.0000
  C   C34       1.0  0.03920  0.50520  0.97408  1.0000
  O   O5        1.0  0.98089  0.44072  0.00272  1.0000
  C   C35       1.0  0.00472  0.41687  0.94322  1.0000
  O   O6        1.0  0.04719  0.61221  0.03223  1.0000
  C   C36       1.0  0.02383  0.63612  0.09847  1.0000
  C   C37       1.0  0.93243  0.48362  0.10460  1.0000
  C   C38       1.0  0.09795  0.57134  0.94564  1.0000
  N   N5        1.0  0.12297  0.55379  0.91475  1.0000
  N   N6        1.0  0.90949  0.50350  0.15921  1.0000
  C   C39       1.0  0.73505  0.38879  0.18530  1.0000
  C   C40       1.0  0.29680  0.64978  0.84293  1.0000
  C   C41       1.0  0.71598  0.34099  0.13570  1.0000
  C   C42       1.0  0.38508  0.69550  0.83358  1.0000
  O   O7        1.0  0.74100  0.32004  0.08038  1.0000
  C   C43       1.0  0.74205  0.26456  0.17448  1.0000
  C   C44       1.0  0.76341  0.31491  0.21413  1.0000
  C   C45       1.0  0.81005  0.32607  0.18573  1.0000
  C   C46       1.0  0.80862  0.27945  0.09515  1.0000
  N   N7        1.0  0.76068  0.24349  0.02609  1.0000
  C   C47       1.0  0.83382  0.27492  0.22944  1.0000
  O   O8        1.0  0.82508  0.23004  0.14825  1.0000
  O   O9        1.0  0.85878  0.30559  0.38684  1.0000
  H   H1        1.0  0.47681  0.44451  0.09853  1.0000
  H   H2        1.0  0.53901  0.59212  0.07736  1.0000
  H   H3        1.0  0.60801  0.60915  0.02475  1.0000
  H   H4        1.0  0.65435  0.63194  0.20805  1.0000
  H   H5        1.0  0.60944  0.64037  0.26808  1.0000
  H   H6        1.0  0.40571  0.39739  0.92925  1.0000
  H   H7        1.0  0.36205  0.40778  0.99273  1.0000
  H   H8        1.0  0.40947  0.43145  0.17290  1.0000
  H   H9        1.0  0.59983  0.51509  0.20944  1.0000
  H   H10       1.0  0.41724  0.52664  0.98122  1.0000
  H   H11       1.0  0.72326  0.44477  0.26424  1.0000
  H   H12       1.0  0.29415  0.70481  0.82790  1.0000
  H   H13       1.0  0.56832  0.04030  0.76371  1.0000
  H   H14       1.0  0.43589  0.96705  0.97161  1.0000
  H   H15       1.0  0.40720  0.01893  0.82093  1.0000
  H   H16       1.0  0.40575  0.05576  0.05201  1.0000
  H   H17       1.0  0.39738  0.99975  0.99173  1.0000
  H   H18       1.0  0.59881  0.99195  0.89103  1.0000
  H   H19       1.0  0.58648  0.93633  0.70073  1.0000
  H   H20       1.0  0.55630  0.93866  0.87645  1.0000
  H   H21       1.0  0.51969  0.11473  0.00187  1.0000
  H   H22       1.0  0.47941  0.89026  0.71112  1.0000
  H   H23       1.0  0.60909  0.31224  0.11900  1.0000
  H   H24       1.0  0.31047  0.60177  0.86896  1.0000
  H   H25       1.0  0.97052  0.56473  0.11327  1.0000
  H   H26       1.0  0.05946  0.48971  0.93666  1.0000
  H   H27       1.0  0.03686  0.43662  0.04640  1.0000
  H   H28       1.0  0.00910  0.41103  0.80253  1.0000
  H   H29       1.0  0.98378  0.38309  0.93620  1.0000
  H   H30       1.0  0.04173  0.66793  0.08813  1.0000
  H   H31       1.0  0.02368  0.64558  0.24602  1.0000
  H   H32       1.0  0.98945  0.61465  0.01141  1.0000
  H   H33       1.0  0.91989  0.44783  0.07619  1.0000
  H   H34       1.0  0.10768  0.60407  0.94644  1.0000
  H   H35       1.0  0.41965  0.71374  0.83470  1.0000
  H   H36       1.0  0.70605  0.24497  0.13106  1.0000
  H   H37       1.0  0.75216  0.26664  0.30715  1.0000
  H   H38       1.0  0.76432  0.33809  0.35662  1.0000
  H   H39       1.0  0.83556  0.35124  0.32067  1.0000
  H   H40       1.0  0.81753  0.34131  0.09353  1.0000
  H   H41       1.0  0.82372  0.27505  0.97618  1.0000
  H   H42       1.0  0.75560  0.21295  0.01396  1.0000
  H   H43       1.0  0.83738  0.22671  0.24606  1.0000
  C   C48       1.0  0.47545  0.50894  0.54645  1.0000
  C   C49       1.0  0.45669  0.46676  0.55317  1.0000
  C   C50       1.0  0.48380  0.45302  0.59736  1.0000
  C   C51       1.0  0.53002  0.48032  0.63555  1.0000
  C   C52       1.0  0.54881  0.52247  0.62796  1.0000
  C   C53       1.0  0.52165  0.53599  0.58269  1.0000
  O   O10       1.0  0.59426  0.54781  0.66723  1.0000
  C   C54       1.0  0.61378  0.58904  0.64958  1.0000
  O   O11       1.0  0.41107  0.44086  0.50905  1.0000
  C   C55       1.0  0.39171  0.39812  0.51507  1.0000
  C   C56       1.0  0.55801  0.46514  0.67735  1.0000
  C   C57       1.0  0.44735  0.52381  0.50283  1.0000
  N   N8        1.0  0.46302  0.56027  0.48177  1.0000
  N   N9        1.0  0.54145  0.42501  0.67076  1.0000
  C   C58       1.0  0.64352  0.34452  0.69009  1.0000
  C   C59       1.0  0.34845  0.61790  0.33791  1.0000
  C   C60       1.0  0.68944  0.36909  0.72255  1.0000
  C   C61       1.0  0.29386  0.65245  0.32282  1.0000
  C   C62       1.0  0.45882  0.92185  0.34235  1.0000
  C   C63       1.0  0.49794  0.94334  0.29054  1.0000
  C   C64       1.0  0.51499  0.98828  0.31944  1.0000
  C   C65       1.0  0.49395  0.01334  0.39995  1.0000
  C   C66       1.0  0.45486  0.99176  0.45068  1.0000
  C   C67       1.0  0.43783  0.94697  0.42221  1.0000
  O   O12       1.0  0.43299  0.01557  0.53085  1.0000
  C   C68       1.0  0.40336  0.01016  0.38856  1.0000
  O   O13       1.0  0.51769  0.91776  0.21387  1.0000
  C   C69       1.0  0.56507  0.94426  0.25619  1.0000
  C   C70       1.0  0.51256  0.06070  0.43351  1.0000
  C   C71       1.0  0.44164  0.87539  0.31697  1.0000
  N   N10       1.0  0.40978  0.85803  0.38799  1.0000
  N   N11       1.0  0.54673  0.07943  0.37631  1.0000
  C   C72       1.0  0.64594  0.27308  0.59158  1.0000
  C   C73       1.0  0.33859  0.67817  0.32923  1.0000
  C   C74       1.0  0.62289  0.29680  0.63004  1.0000
  C   C75       1.0  0.30347  0.59310  0.33120  1.0000
  C   C76       1.0  0.03374  0.50983  0.46527  1.0000
  C   C77       1.0  0.00812  0.53107  0.52506  1.0000
  C   C78       1.0  0.97043  0.50989  0.57953  1.0000
  C   C79       1.0  0.95619  0.46676  0.57183  1.0000
  C   C80       1.0  0.98139  0.44539  0.50906  1.0000
  C   C81       1.0  0.01943  0.46697  0.45841  1.0000
  O   O14       1.0  0.96762  0.40345  0.50567  1.0000
  C   C82       1.0  0.96035  0.36552  0.32457  1.0000
  O   O15       1.0  0.02325  0.57241  0.52596  1.0000
  C   C83       1.0  0.99576  0.59214  0.56591  1.0000
  C   C84       1.0  0.91505  0.44277  0.61554  1.0000
  C   C85       1.0  0.07479  0.53283  0.41967  1.0000
  N   N12       1.0  0.09869  0.51401  0.36962  1.0000
  N   N13       1.0  0.89095  0.46108  0.67236  1.0000
  C   C86       1.0  0.71426  0.34742  0.67931  1.0000
  C   C87       1.0  0.27583  0.61006  0.32348  1.0000
  C   C88       1.0  0.69223  0.29833  0.61091  1.0000
  C   C89       1.0  0.36521  0.65996  0.33461  1.0000
  O   O16       1.0  0.71426  0.27464  0.53584  1.0000
  C   C90       1.0  0.71401  0.20942  0.56022  1.0000
  C   C91       1.0  0.73570  0.26310  0.64306  1.0000
  C   C92       1.0  0.78424  0.27880  0.63014  1.0000
  C   C93       1.0  0.78470  0.23302  0.53652  1.0000
  N   N14       1.0  0.74972  0.20119  0.58811  1.0000
  C   C94       1.0  0.82885  0.23934  0.59429  1.0000
  O   O17       1.0  0.84059  0.21473  0.44249  1.0000
  O   O18       1.0  0.85308  0.26219  0.75301  1.0000
  H   H44       1.0  0.47082  0.42096  0.60353  1.0000
  H   H45       1.0  0.53460  0.56764  0.57331  1.0000
  H   H46       1.0  0.60717  0.61544  0.75083  1.0000
  H   H47       1.0  0.60188  0.58079  0.50576  1.0000
  H   H48       1.0  0.64941  0.60289  0.68126  1.0000
  H   H49       1.0  0.35590  0.38277  0.47516  1.0000
  H   H50       1.0  0.40210  0.40513  0.65816  1.0000
  H   H51       1.0  0.40052  0.37379  0.41456  1.0000
  H   H52       1.0  0.59367  0.48953  0.71365  1.0000
  H   H53       1.0  0.41221  0.50288  0.49218  1.0000
  H   H54       1.0  0.70700  0.40673  0.77948  1.0000
  H   H55       1.0  0.27202  0.66466  0.31147  1.0000
  H   H56       1.0  0.54507  0.00579  0.28284  1.0000
  H   H57       1.0  0.40804  0.93041  0.46272  1.0000
  H   H58       1.0  0.42178  0.02605  0.30695  1.0000
  H   H59       1.0  0.38642  0.02816  0.46241  1.0000
  H   H60       1.0  0.37901  0.97282  0.29187  1.0000
  H   H61       1.0  0.57507  0.91833  0.20562  1.0000
  H   H62       1.0  0.57947  0.96776  0.40933  1.0000
  H   H63       1.0  0.57668  0.96469  0.18340  1.0000
  H   H64       1.0  0.49603  0.07894  0.50965  1.0000
  H   H65       1.0  0.45741  0.85673  0.23631  1.0000
  H   H66       1.0  0.58708  0.27610  0.59867  1.0000
  H   H67       1.0  0.29037  0.56165  0.34263  1.0000
  H   H68       1.0  0.95019  0.52518  0.62533  1.0000
  H   H69       1.0  0.03979  0.45169  0.41519  1.0000
  H   H70       1.0  0.99145  0.37126  0.28555  1.0000
  H   H71       1.0  0.93776  0.36094  0.21431  1.0000
  H   H72       1.0  0.94484  0.33404  0.33810  1.0000
  H   H73       1.0  0.01339  0.62395  0.55531  1.0000
  H   H74       1.0  0.99158  0.60129  0.70892  1.0000
  H   H75       1.0  0.96335  0.56799  0.46120  1.0000
  H   H76       1.0  0.90482  0.40744  0.58790  1.0000
  H   H77       1.0  0.08428  0.56661  0.43154  1.0000
  H   H78       1.0  0.39984  0.67896  0.33809  1.0000
  H   H79       1.0  0.69929  0.19165  0.40834  1.0000
  H   H80       1.0  0.68819  0.19441  0.62297  1.0000
  H   H81       1.0  0.73514  0.28039  0.79008  1.0000
  H   H82       1.0  0.80726  0.30188  0.77154  1.0000
  H   H83       1.0  0.79466  0.29802  0.55326  1.0000
  H   H84       1.0  0.77492  0.21629  0.38209  1.0000
  H   H85       1.0  0.75932  0.21465  0.73151  1.0000
  H   H86       1.0  0.86905  0.22084  0.49718  1.0000
  C  Sn1       1.0  0.62386  0.44402  0.09552  1.0000
  C   C95       1.0  0.58235  0.43126  0.13107  1.0000
  C  Sn2       1.0  0.56696  0.40536  0.22359  1.0000
  C  Sn3       1.0  0.59363  0.39195  0.28191  1.0000
  C   C96       1.0  0.63512  0.40472  0.24638  1.0000
  C  Sn4       1.0  0.65053  0.43062  0.15383  1.0000
  O  Te1       1.0  0.63857  0.46992  0.00282  1.0000
  O  Te2       1.0  0.52534  0.39300  0.25750  1.0000
  O  Te3       1.0  0.57888  0.36603  0.37466  1.0000
  O  Te4       1.0  0.69213  0.44299  0.11995  1.0000
  Mg  Mg1       1.0  0.51986  0.35761  0.38871  1.0000
  Mg  Mg2       1.0  0.76011  0.60212  0.98885  1.0000
  C  Sn5       1.0  0.39696  0.56987  0.77467  1.0000
  C   C97       1.0  0.44026  0.59493  0.88568  1.0000
  C  Sn6       1.0  0.39909  0.51951  0.00779  1.0000
  C  Sn7       1.0  0.37662  0.54326  0.01928  1.0000
  C   C98       1.0  0.39580  0.64193  0.90835  1.0000
  C  Sn8       1.0  0.37449  0.59362  0.78616  1.0000
  O  Te5       1.0  0.37633  0.52159  0.65359  1.0000
  O  Te6       1.0  0.44239  0.54381  0.11732  1.0000
  O  Te7       1.0  0.39729  0.59158  0.14050  1.0000
  O  Te8       1.0  0.33122  0.56932  0.67671  1.0000
  Mg  Mg3       1.0  0.45645  0.60928  0.26109  1.0000
  Mg  Mg4       1.0  0.31712  0.50385  0.53298  1.0000
  C  Sn9       1.0  0.58130  0.20745  0.06923  1.0000
  C   C99       1.0  0.64751  0.29440  0.93529  1.0000
  C  Sn10      1.0  0.68521  0.30367  0.86853  1.0000
  C  Sn11      1.0  0.71991  0.35068  0.93716  1.0000
  C   C100      1.0  0.65370  0.26370  0.07104  1.0000
  C  Sn12      1.0  0.61600  0.25446  0.13786  1.0000
  O  Te9       1.0  0.54331  0.19737  0.13399  1.0000
  O  Te10      1.0  0.68820  0.26631  0.73457  1.0000
  O  Te11      1.0  0.75792  0.36073  0.87227  1.0000
  O  Te12      1.0  0.61300  0.29179  0.27176  1.0000
  Mg  Mg5       1.0  0.74655  0.29791  0.68966  1.0000
  Mg  Mg6       1.0  0.55468  0.26023  0.31684  1.0000
  C  Sn13      1.0  0.38328  0.83039  0.98189  1.0000
  C   C101      1.0  0.41844  0.85034  0.91186  1.0000
  C  Sn14      1.0  0.43256  0.82284  0.78313  1.0000
  C  Sn15      1.0  0.41107  0.77437  0.72305  1.0000
  C   C102      1.0  0.37593  0.75444  0.79305  1.0000
  C  Sn16      1.0  0.36179  0.78192  0.92181  1.0000
  O  Te13      1.0  0.30727  0.73481  0.11046  1.0000
  O  Te14      1.0  0.46779  0.84358  0.71514  1.0000
  O  Te15      1.0  0.42466  0.74622  0.59438  1.0000
  O  Te16      1.0  0.32658  0.76120  0.98977  1.0000
  Mg  Mg7       1.0  0.47416  0.79062  0.54207  1.0000
  Mg  Mg8       1.0  0.25772  0.69038  0.16275  1.0000
  C  Sn17      1.0  0.82493  0.48708  0.17980  1.0000
  C   C103      1.0  0.86364  0.48927  0.23568  1.0000
  C  Sn18      1.0  0.86144  0.45329  0.25825  1.0000
  C  Sn19      1.0  0.81969  0.41429  0.22416  1.0000
  C   C104      1.0  0.78101  0.41210  0.16829  1.0000
  C  Sn20      1.0  0.78317  0.44807  0.14571  1.0000
  O  Te17      1.0  0.82790  0.52344  0.15810  1.0000
  O  Te18      1.0  0.90060  0.45628  0.31429  1.0000
  O  Te19      1.0  0.81674  0.37791  0.24591  1.0000
  O  Te20      1.0  0.74405  0.44509  0.08967  1.0000
  Mg  Mg9       1.0  0.87938  0.39795  0.32454  1.0000
  Mg  Mg10      1.0  0.76523  0.50339  0.07928  1.0000
  C  Sn21      1.0  0.16800  0.52528  0.03292  1.0000
  C   C105      1.0  0.25165  0.62921  0.91426  1.0000
  C  Sn22      1.0  0.22753  0.58269  0.76796  1.0000
  C  Sn23      1.0  0.18125  0.55539  0.73959  1.0000
  C   C106      1.0  0.16009  0.57519  0.85819  1.0000
  C  Sn24      1.0  0.12173  0.49798  0.00456  1.0000
  O  Te21      1.0  0.19277  0.57186  0.17828  1.0000
  O  Te22      1.0  0.24945  0.56366  0.65120  1.0000
  O  Te23      1.0  0.15649  0.50878  0.59410  1.0000
  O  Te24      1.0  0.09983  0.51701  0.12125  1.0000
  Mg  Mg11      1.0  0.20131  0.49863  0.47243  1.0000
  Mg  Mg12      1.0  0.14793  0.58204  0.29999  1.0000
  C  Sn25      1.0  0.63869  0.42128  0.72091  1.0000
  C   C107      1.0  0.62589  0.38323  0.74928  1.0000
  C  Sn26      1.0  0.58166  0.35444  0.73644  1.0000
  C  Sn27      1.0  0.54953  0.36385  0.69425  1.0000
  C   C108      1.0  0.56233  0.40187  0.66588  1.0000
  C  Sn28      1.0  0.60657  0.43069  0.67872  1.0000
  O  Te25      1.0  0.68310  0.44959  0.73442  1.0000
  O  Te26      1.0  0.56966  0.31661  0.76544  1.0000
  O  Te27      1.0  0.50509  0.33549  0.68077  1.0000
  O  Te28      1.0  0.61857  0.46849  0.64971  1.0000
  Mg  Mg13      1.0  0.50505  0.28816  0.73188  1.0000
  Mg  Mg14      1.0  0.68316  0.49695  0.68314  1.0000
  C  Sn29      1.0  0.38507  0.53812  0.26447  1.0000
  C   C109      1.0  0.42911  0.56564  0.37105  1.0000
  C  Sn30      1.0  0.44819  0.61368  0.49327  1.0000
  C  Sn31      1.0  0.42273  0.63465  0.50941  1.0000
  C   C110      1.0  0.37872  0.60713  0.40290  1.0000
  C  Sn32      1.0  0.35961  0.55909  0.28060  1.0000
  O  Te29      1.0  0.36666  0.49016  0.14318  1.0000
  O  Te30      1.0  0.49229  0.64048  0.59832  1.0000
  O  Te31      1.0  0.44118  0.68265  0.63082  1.0000
  O  Te32      1.0  0.31554  0.53230  0.17562  1.0000
  Mg  Mg15      1.0  0.50252  0.70439  0.74430  1.0000
  Mg  Mg16      1.0  0.30527  0.46838  0.02969  1.0000
  C  Sn33      1.0  0.55265  0.16825  0.53269  1.0000
  C   C111      1.0  0.55546  0.13066  0.39947  1.0000
  C  Sn34      1.0  0.59315  0.13869  0.33311  1.0000
  C  Sn35      1.0  0.62879  0.18526  0.40143  1.0000
  C   C112      1.0  0.62598  0.22282  0.53460  1.0000
  C  Sn36      1.0  0.58830  0.21482  0.60101  1.0000
  O  Te33      1.0  0.51466  0.15940  0.59706  1.0000
  O  Te34      1.0  0.59518  0.10055  0.19987  1.0000
  O  Te35      1.0  0.66680  0.19409  0.33693  1.0000
  O  Te36      1.0  0.58625  0.25293  0.73419  1.0000
  Mg  Mg17      1.0  0.65394  0.13055  0.15528  1.0000
  Mg  Mg18      1.0  0.52752  0.22297  0.77895  1.0000
  C  Sn37      1.0  0.33147  0.75420  0.36218  1.0000
  C   C113      1.0  0.34736  0.72380  0.30132  1.0000
  C  Sn38      1.0  0.39069  0.73973  0.28532  1.0000
  C  Sn39      1.0  0.41873  0.78703  0.33121  1.0000
  C   C114      1.0  0.40284  0.81741  0.39205  1.0000
  C  Sn40      1.0  0.35951  0.80151  0.40807  1.0000
  O  Te37      1.0  0.28804  0.73752  0.37714  1.0000
  O  Te38      1.0  0.40583  0.70867  0.22411  1.0000
  O  Te39      1.0  0.46219  0.80369  0.31619  1.0000
  O  Te40      1.0  0.34437  0.83253  0.46926  1.0000
  Mg  Mg19      1.0  0.46758  0.74797  0.22661  1.0000
  Mg  Mg20      1.0  0.28264  0.79328  0.46691  1.0000
  C  Sn41      1.0  0.80744  0.44677  0.70088  1.0000
  C   C115      1.0  0.84507  0.44779  0.76134  1.0000
  C  Sn42      1.0  0.84103  0.41010  0.77516  1.0000
  C  Sn43      1.0  0.79849  0.37054  0.72744  1.0000
  C   C116      1.0  0.76088  0.36953  0.66700  1.0000
  C  Sn44      1.0  0.76489  0.40721  0.65316  1.0000
  O  Te41      1.0  0.81226  0.48484  0.68810  1.0000
  O  Te42      1.0  0.87913  0.41193  0.83601  1.0000
  O  Te43      1.0  0.79369  0.33246  0.74027  1.0000
  O  Te44      1.0  0.72682  0.40539  0.59232  1.0000
  Mg  Mg21      1.0  0.85546  0.35141  0.83022  1.0000
  Mg  Mg22      1.0  0.75045  0.46587  0.59796  1.0000
  C  Sn45      1.0  0.17213  0.51468  0.26940  1.0000
  C   C117      1.0  0.14948  0.53487  0.37400  1.0000
  C  Sn46      1.0  0.16547  0.58246  0.44585  1.0000
  C  Sn47      1.0  0.20489  0.61046  0.41237  1.0000
  C   C118      1.0  0.22751  0.59028  0.30780  1.0000
  C  Sn48      1.0  0.21155  0.54269  0.23591  1.0000
  O  Te45      1.0  0.15554  0.46703  0.19891  1.0000
  O  Te46      1.0  0.14227  0.60185  0.55007  1.0000
  O  Te47      1.0  0.22147  0.65814  0.48297  1.0000
  O  Te48      1.0  0.23472  0.52330  0.13173  1.0000
  Mg  Mg23      1.0  0.17808  0.66840  0.61652  1.0000
  Mg  Mg24      1.0  0.19893  0.45674  0.06513  1.0000
