data_image0
_chemical_formula_structural       C2NC4OC3NC4OC3NC4OC3NC4OC3NC4OC3NC4OC3NC4OC3NC4OC3NC4OC3NC4OC3NC4OC3NC4OC3NC4OC3NC4OC3NC4OC3NC4OC3NC4OC3NC4OC2OC2NC3OCOCOC3OC2OC2NC3OCOCOC3OC2OC2NC3OCOCOC3OC2OC2NC3OCOCOC3OC2OC2NC3OCOCOC3OC2OC2NC3OCOCOC3OCH222SnCSn2CSnTe4Mg2SnCSn2CSnTe4Mg2SnCSn2CSnTe4Mg2SnCSn2CSnTe4Mg2SnCSn2CSnTe4Mg2SnCSn2CSnTe4Mg2SnCSn2CSnTe4Mg2SnCSn2CSnTe4Mg2SnCSn2CSnTe4Mg2SnCSn2CSnTe4Mg2SnCSn2CSnTe4Mg2SnCSn2CSnTe4Mg2SnCSn2CSnTe4Mg2SnCSn2CSnTe4Mg2SnCSn2CSnTe4Mg2SnCSn2CSnTe4Mg2SnCSn2CSnTe4Mg2SnCSn2CSnTe4Mg2
_chemical_formula_sum              "C234 N24 O48 H222 Sn72 Te72 Mg36"
_cell_length_a       36.4176
_cell_length_b       38.3246
_cell_length_c       8.09783
_cell_angle_alpha    92.8261
_cell_angle_beta     92.6833
_cell_angle_gamma    121.443

_symmetry_space_group_name_H-M    'P1'
_space_group_IT_number       1

loop_
  _space_group_symop_operation_xyz
  'x, y, z'

loop_
  _atom_site_type_symbol
  _atom_site_label
  _atom_site_symmetry_multiplicity
  _atom_site_fract_x
  _atom_site_fract_y
  _atom_site_fract_z
  _atom_site_occupancy
  C   C1        1.0  0.68305  0.89946  0.44684  1.0000
  C   C2        1.0  0.37670  0.68314  0.94232  1.0000
  N   N1        1.0  0.55957  0.77001  0.92133  1.0000
  C   C3        1.0  0.58160  0.79359  0.80945  1.0000
  C   C4        1.0  0.62839  0.82049  0.82680  1.0000
  C   C5        1.0  0.65582  0.82309  0.96422  1.0000
  C   C6        1.0  0.70023  0.84976  0.96297  1.0000
  O   O1        1.0  0.63720  0.79877  0.09006  1.0000
  C   C7        1.0  0.35269  0.64016  0.92123  1.0000
  C   C8        1.0  0.35486  0.22709  0.78249  1.0000
  C   C9        1.0  0.05403  0.01834  0.27542  1.0000
  N   N2        1.0  0.23764  0.10381  0.28260  1.0000
  C   C10       1.0  0.25956  0.12362  0.16245  1.0000
  C   C11       1.0  0.30626  0.15098  0.17482  1.0000
  C   C12       1.0  0.33517  0.15625  0.31196  1.0000
  C   C13       1.0  0.37903  0.18478  0.30635  1.0000
  O   O2        1.0  0.31855  0.13235  0.44095  1.0000
  C   C14       1.0  0.02944  0.97576  0.28172  1.0000
  C   C15       1.0  0.01204  0.57187  0.17776  1.0000
  C   C16       1.0  0.69710  0.33920  0.58938  1.0000
  N   N3        1.0  0.88011  0.42751  0.58199  1.0000
  C   C17       1.0  0.90384  0.45550  0.48641  1.0000
  C   C18       1.0  0.95036  0.48314  0.52102  1.0000
  C   C19       1.0  0.97602  0.48241  0.65707  1.0000
  C   C20       1.0  0.02058  0.50944  0.66783  1.0000
  O   O3        1.0  0.96048  0.45440  0.77514  1.0000
  C   C21       1.0  0.67121  0.29628  0.58529  1.0000
  C   C22       1.0  0.11802  0.78905  0.43098  1.0000
  C   C23       1.0  0.31070  0.68221  0.98645  1.0000
  N   N4        1.0  0.22523  0.77217  0.01741  1.0000
  C   C24       1.0  0.21067  0.77959  0.88340  1.0000
  C   C25       1.0  0.19118  0.80456  0.87823  1.0000
  C   C26       1.0  0.19433  0.83216  0.01036  1.0000
  C   C27       1.0  0.17413  0.85419  0.98553  1.0000
  O   O4        1.0  0.21807  0.83645  0.15432  1.0000
  C   C28       1.0  0.35620  0.70490  0.98169  1.0000
  C   C29       1.0  0.78183  0.12354  0.74369  1.0000
  C   C30       1.0  0.98810  0.01989  0.27789  1.0000
  N   N5        1.0  0.90762  0.11465  0.27829  1.0000
  C   C31       1.0  0.87939  0.11170  0.16642  1.0000
  C   C32       1.0  0.86122  0.13780  0.17010  1.0000
  C   C33       1.0  0.86748  0.16629  0.30474  1.0000
  C   C34       1.0  0.84876  0.18985  0.28811  1.0000
  O   O5        1.0  0.89136  0.16880  0.44481  1.0000
  C   C35       1.0  0.03362  0.04119  0.28115  1.0000
  C   C36       1.0  0.44395  0.45611  0.08172  1.0000
  C   C37       1.0  0.63311  0.34324  0.62227  1.0000
  N   N6        1.0  0.55266  0.43785  0.65715  1.0000
  C   C38       1.0  0.53719  0.44504  0.52509  1.0000
  C   C39       1.0  0.51849  0.47062  0.52297  1.0000
  C   C40       1.0  0.52240  0.49820  0.65679  1.0000
  C   C41       1.0  0.50271  0.52075  0.63472  1.0000
  O   O6        1.0  0.54613  0.50177  0.79971  1.0000
  C   C42       1.0  0.67833  0.36318  0.61419  1.0000
  C   C43       1.0  0.25972  0.32078  0.47436  1.0000
  C   C44       1.0  0.30813  0.61696  0.93739  1.0000
  N   N7        1.0  0.21407  0.44065  0.84919  1.0000
  C   C45       1.0  0.22671  0.41907  0.76960  1.0000
  C   C46       1.0  0.20462  0.37452  0.75944  1.0000
  C   C47       1.0  0.16567  0.34820  0.83284  1.0000
  C   C48       1.0  0.14754  0.30594  0.80845  1.0000
  O   O7        1.0  0.14736  0.36519  0.92312  1.0000
  C   C49       1.0  0.28776  0.63917  0.96671  1.0000
  C   C50       1.0  0.94525  0.66875  0.90772  1.0000
  C   C51       1.0  0.98444  0.95420  0.28628  1.0000
  N   N8        1.0  0.88603  0.77844  0.25182  1.0000
  C   C52       1.0  0.89761  0.75741  0.16247  1.0000
  C   C53       1.0  0.87631  0.71302  0.14658  1.0000
  C   C54       1.0  0.83580  0.68501  0.20569  1.0000
  C   C55       1.0  0.82109  0.64332  0.18719  1.0000
  O   O8        1.0  0.81325  0.69998  0.27538  1.0000
  C   C56       1.0  0.96429  0.97716  0.28070  1.0000
  C   C57       1.0  0.58202  0.98273  0.31208  1.0000
  C   C58       1.0  0.62648  0.27591  0.59746  1.0000
  N   N9        1.0  0.51583  0.10060  0.49254  1.0000
  C   C59       1.0  0.53257  0.07800  0.47822  1.0000
  C   C60       1.0  0.50898  0.03348  0.45809  1.0000
  C   C61       1.0  0.46498  0.00699  0.48771  1.0000
  C   C62       1.0  0.44716  0.96469  0.46418  1.0000
  O   O9        1.0  0.44286  0.02445  0.54119  1.0000
  C   C63       1.0  0.60813  0.30030  0.61326  1.0000
  C   C64       1.0  0.34840  0.13334  0.56659  1.0000
  C   C65       1.0  0.65105  0.32330  0.10752  1.0000
  N   N10       1.0  0.46682  0.24925  0.05926  1.0000
  C   C66       1.0  0.44343  0.23341  0.18145  1.0000
  C   C67       1.0  0.39652  0.20778  0.16931  1.0000
  C   C68       1.0  0.36767  0.20277  0.03274  1.0000
  C   C69       1.0  0.32368  0.17464  0.03900  1.0000
  O   O10       1.0  0.38467  0.22672  0.90389  1.0000
  C   C70       1.0  0.67625  0.36536  0.08454  1.0000
  C   C71       1.0  0.93620  0.46017  0.89735  1.0000
  C   C72       1.0  0.29629  0.64506  0.48577  1.0000
  N   N11       1.0  0.11419  0.58053  0.45787  1.0000
  C   C73       1.0  0.08926  0.56015  0.57047  1.0000
  C   C74       1.0  0.04225  0.53764  0.55020  1.0000
  C   C75       1.0  0.01641  0.53982  0.41814  1.0000
  C   C76       1.0  0.97173  0.51272  0.40616  1.0000
  O   O11       1.0  0.03739  0.56860  0.30944  1.0000
  C   C77       1.0  0.32244  0.68766  0.48449  1.0000
  C   C78       1.0  0.66531  0.79676  0.21383  1.0000
  C   C79       1.0  0.97431  0.98555  0.77570  1.0000
  N   N12       1.0  0.79168  0.91937  0.73854  1.0000
  C   C80       1.0  0.76672  0.89808  0.84955  1.0000
  C   C81       1.0  0.71972  0.87486  0.83308  1.0000
  C   C82       1.0  0.69218  0.87342  0.69849  1.0000
  C   C83       1.0  0.64771  0.84622  0.69818  1.0000
  O   O12       1.0  0.71105  0.89906  0.57620  1.0000
  C   C84       1.0  0.00101  0.02744  0.75599  1.0000
  C   C85       1.0  0.89799  0.19782  0.57916  1.0000
  C   C86       1.0  0.71540  0.31961  0.07611  1.0000
  N   N13       1.0  0.78999  0.22085  0.01600  1.0000
  C   C87       1.0  0.80725  0.21433  0.14466  1.0000
  C   C88       1.0  0.82422  0.18732  0.14295  1.0000
  C   C89       1.0  0.81705  0.15820  0.00997  1.0000
  C   C90       1.0  0.83532  0.13424  0.02719  1.0000
  O   O13       1.0  0.79145  0.15466  0.87327  1.0000
  C   C91       1.0  0.67163  0.30050  0.11013  1.0000
  C   C92       1.0  0.55546  0.53416  0.92321  1.0000
  C   C93       1.0  0.36014  0.64076  0.45850  1.0000
  N   N14       1.0  0.44159  0.54882  0.35915  1.0000
  C   C94       1.0  0.45940  0.54243  0.48664  1.0000
  C   C95       1.0  0.47937  0.51796  0.48526  1.0000
  C   C96       1.0  0.47597  0.49082  0.35086  1.0000
  C   C97       1.0  0.49563  0.46820  0.37283  1.0000
  O   O14       1.0  0.45262  0.48774  0.20788  1.0000
  C   C98       1.0  0.31537  0.62097  0.47604  1.0000
  C   C99       1.0  0.22700  0.86906  0.27589  1.0000
  C   C100      1.0  0.03694  0.97888  0.76159  1.0000
  N   N15       1.0  0.11227  0.88030  0.70366  1.0000
  C   C101      1.0  0.13108  0.87553  0.83247  1.0000
  C   C102      1.0  0.15078  0.85077  0.83509  1.0000
  C   C103      1.0  0.14782  0.82335  0.70264  1.0000
  C   C104      1.0  0.16822  0.80145  0.72709  1.0000
  O   O15       1.0  0.12431  0.81946  0.55866  1.0000
  C   C105      1.0  0.99259  0.96086  0.78621  1.0000
  C   C106      1.0  0.76971  0.67073  0.31052  1.0000
  C   C107      1.0  0.72043  0.38530  0.05972  1.0000
  N   N16       1.0  0.82619  0.55840  0.99798  1.0000
  C   C108      1.0  0.82130  0.58283  0.09800  1.0000
  C   C109      1.0  0.84293  0.62722  0.10461  1.0000
  C   C110      1.0  0.88268  0.65509  0.04097  1.0000
  C   C111      1.0  0.89831  0.69696  0.06396  1.0000
  O   O16       1.0  0.90455  0.63940  0.96585  1.0000
  C   C112      1.0  0.73922  0.36138  0.05323  1.0000
  C   C113      1.0  0.39956  0.99755  0.58486  1.0000
  C   C114      1.0  0.36719  0.70793  0.47283  1.0000
  N   N17       1.0  0.46526  0.88051  0.40200  1.0000
  C   C115      1.0  0.44796  0.90270  0.40526  1.0000
  C   C116      1.0  0.47112  0.94712  0.41616  1.0000
  C   C117      1.0  0.51538  0.97359  0.39018  1.0000
  C   C118      1.0  0.53312  0.01582  0.41169  1.0000
  O   O17       1.0  0.53777  0.95582  0.34176  1.0000
  C   C119      1.0  0.38537  0.68359  0.46042  1.0000
  C   C120      1.0  0.10418  0.33737  0.96757  1.0000
  C   C121      1.0  0.04569  0.04653  0.74318  1.0000
  N   N18       1.0  0.15332  0.21814  0.65044  1.0000
  C   C122      1.0  0.14310  0.24319  0.71557  1.0000
  C   C123      1.0  0.16608  0.28761  0.71818  1.0000
  C   C124      1.0  0.20490  0.31367  0.64490  1.0000
  C   C125      1.0  0.22293  0.35608  0.66578  1.0000
  O   O18       1.0  0.22220  0.29506  0.55827  1.0000
  C   C126      1.0  0.06258  0.02097  0.74310  1.0000
  C   C127      1.0  0.96844  0.91870  0.84739  1.0000
  O   O19       1.0  0.92699  0.89120  0.75953  1.0000
  C   C128      1.0  0.90171  0.85784  0.85926  1.0000
  C   C129      1.0  0.85371  0.83785  0.80590  1.0000
  N   N19       1.0  0.84374  0.80286  0.68909  1.0000
  C   C130      1.0  0.88009  0.79674  0.67710  1.0000
  C   C131      1.0  0.90990  0.82269  0.83249  1.0000
  C   C132      1.0  0.87046  0.75301  0.67785  1.0000
  O   O20       1.0  0.83290  0.72706  0.74168  1.0000
  C   C133      1.0  0.82037  0.68417  0.72936  1.0000
  O   O21       1.0  0.89623  0.74396  0.63269  1.0000
  C   C134      1.0  0.80519  0.77929  0.59688  1.0000
  O   O22       1.0  0.77583  0.78882  0.65049  1.0000
  C   C135      1.0  0.72943  0.75975  0.60018  1.0000
  C   C136      1.0  0.71553  0.71789  0.66302  1.0000
  C   C137      1.0  0.70780  0.77947  0.68962  1.0000
  O   O23       1.0  0.79809  0.75355  0.48347  1.0000
  C   C138      1.0  0.72032  0.75713  0.41229  1.0000
  C   C139      1.0  0.38311  0.75035  0.03350  1.0000
  O   O24       1.0  0.37790  0.77498  0.91690  1.0000
  C   C140      1.0  0.39897  0.81695  0.98708  1.0000
  C   C141      1.0  0.44858  0.84037  0.98291  1.0000
  N   N20       1.0  0.45955  0.87592  0.88956  1.0000
  C   C142      1.0  0.42290  0.87896  0.83294  1.0000
  C   C143      1.0  0.38277  0.83956  0.88303  1.0000
  C   C144      1.0  0.42399  0.91807  0.88908  1.0000
  O   O25       1.0  0.45554  0.94292  0.00677  1.0000
  C   C145      1.0  0.46020  0.98298  0.03827  1.0000
  O   O26       1.0  0.39775  0.92533  0.82490  1.0000
  C   C146      1.0  0.49926  0.90168  0.83555  1.0000
  O   O27       1.0  0.52795  0.89114  0.89289  1.0000
  C   C147      1.0  0.56922  0.90654  0.81661  1.0000
  C   C148      1.0  0.59673  0.95349  0.82771  1.0000
  C   C149      1.0  0.59153  0.88995  0.92326  1.0000
  O   O28       1.0  0.50731  0.93012  0.75005  1.0000
  C   C150      1.0  0.55925  0.88826  0.63634  1.0000
  C   C151      1.0  0.70624  0.40910  0.64345  1.0000
  O   O29       1.0  0.69465  0.42903  0.52376  1.0000
  C   C152      1.0  0.71773  0.47198  0.57044  1.0000
  C   C153      1.0  0.76470  0.49387  0.52548  1.0000
  N   N21       1.0  0.77440  0.53557  0.50835  1.0000
  C   C154      1.0  0.73608  0.53850  0.48388  1.0000
  C   C155      1.0  0.69857  0.49307  0.47420  1.0000
  C   C156      1.0  0.73141  0.56541  0.61656  1.0000
  O   O30       1.0  0.73668  0.55649  0.77287  1.0000
  C   C157      1.0  0.72992  0.57951  0.90278  1.0000
  O   O31       1.0  0.72134  0.59025  0.58359  1.0000
  C   C158      1.0  0.81505  0.56909  0.50026  1.0000
  O   O32       1.0  0.84179  0.55561  0.45908  1.0000
  C   C159      1.0  0.88932  0.57972  0.49761  1.0000
  C   C160      1.0  0.89746  0.57141  0.67404  1.0000
  C   C161      1.0  0.90433  0.55981  0.37095  1.0000
  O   O33       1.0  0.82352  0.60465  0.51711  1.0000
  C   C162      1.0  0.91013  0.62544  0.47509  1.0000
  C   C163      1.0  0.64933  0.25667  0.15127  1.0000
  O   O34       1.0  0.62551  0.22954  0.00601  1.0000
  C   C164      1.0  0.60186  0.18769  0.04390  1.0000
  C   C165      1.0  0.55439  0.17236  0.06870  1.0000
  N   N22       1.0  0.53292  0.12848  0.01750  1.0000
  C   C166      1.0  0.55744  0.11838  0.90768  1.0000
  C   C167      1.0  0.59993  0.15984  0.89736  1.0000
  C   C168      1.0  0.56583  0.08638  0.97316  1.0000
  O   O35       1.0  0.56463  0.06223  0.84204  1.0000
  C   C169      1.0  0.57427  0.03107  0.87842  1.0000
  O   O36       1.0  0.57447  0.08362  0.11776  1.0000
  C   C170      1.0  0.48976  0.10033  0.02059  1.0000
  O   O37       1.0  0.47052  0.11691  0.10767  1.0000
  C   C171      1.0  0.42319  0.09198  0.11976  1.0000
  C   C172      1.0  0.41056  0.05230  0.19971  1.0000
  C   C173      1.0  0.41579  0.12034  0.23346  1.0000
  O   O38       1.0  0.47204  0.06531  0.95174  1.0000
  C   C174      1.0  0.40000  0.08460  0.94734  1.0000
  C   C175      1.0  0.28837  0.57522  0.48459  1.0000
  O   O39       1.0  0.25376  0.55847  0.35621  1.0000
  C   C176      1.0  0.21958  0.51791  0.38019  1.0000
  C   C177      1.0  0.17779  0.51104  0.29187  1.0000
  N   N23       1.0  0.15620  0.46911  0.21153  1.0000
  C   C178      1.0  0.17933  0.44833  0.24943  1.0000
  C   C179      1.0  0.22569  0.48431  0.29943  1.0000
  C   C180      1.0  0.16210  0.42064  0.39137  1.0000
  O   O40       1.0  0.13436  0.42661  0.47644  1.0000
  C   C181      1.0  0.11704  0.40172  0.61562  1.0000
  O   O41       1.0  0.17357  0.39689  0.42539  1.0000
  C   C182      1.0  0.11356  0.44664  0.15478  1.0000
  O   O42       1.0  0.09597  0.47044  0.16583  1.0000
  C   C183      1.0  0.05085  0.45358  0.09583  1.0000
  C   C184      1.0  0.01909  0.41672  0.18635  1.0000
  C   C185      1.0  0.04492  0.48966  0.13429  1.0000
  O   O43       1.0  0.09446  0.41018  0.10092  1.0000
  C   C186      1.0  0.04750  0.44297  0.90928  1.0000
  C   C187      1.0  0.06009  0.08705  0.31542  1.0000
  O   O44       1.0  0.06077  0.10891  0.17467  1.0000
  C   C188      1.0  0.08265  0.15175  0.22802  1.0000
  C   C189      1.0  0.13218  0.17408  0.22307  1.0000
  N   N24       1.0  0.14428  0.21526  0.17824  1.0000
  C   C190      1.0  0.10642  0.21886  0.14272  1.0000
  C   C191      1.0  0.06921  0.17403  0.11195  1.0000
  C   C192      1.0  0.09935  0.24057  0.29031  1.0000
  O   O45       1.0  0.11105  0.27935  0.25940  1.0000
  C   C193      1.0  0.10686  0.30353  0.39344  1.0000
  O   O46       1.0  0.08437  0.22484  0.41747  1.0000
  C   C194      1.0  0.18366  0.24357  0.12711  1.0000
  O   O47       1.0  0.21329  0.23280  0.16729  1.0000
  C   C195      1.0  0.25175  0.24607  0.07261  1.0000
  C   C196      1.0  0.27749  0.29199  0.04743  1.0000
  C   C197      1.0  0.27883  0.23479  0.18165  1.0000
  O   O48       1.0  0.19077  0.27423  0.05920  1.0000
  C   C198      1.0  0.23628  0.22045  0.90553  1.0000
  H   H1        1.0  0.66370  0.86952  0.37397  1.0000
  H   H2        1.0  0.70454  0.92245  0.36624  1.0000
  H   H3        1.0  0.66126  0.90840  0.49704  1.0000
  H   H4        1.0  0.56600  0.79498  0.69195  1.0000
  H   H5        1.0  0.72167  0.85127  0.06474  1.0000
  H   H6        1.0  0.36987  0.62502  0.88805  1.0000
  H   H7        1.0  0.33475  0.19729  0.70948  1.0000
  H   H8        1.0  0.37493  0.25028  0.69974  1.0000
  H   H9        1.0  0.33379  0.23576  0.84137  1.0000
  H   H10       1.0  0.24365  0.12144  0.03979  1.0000
  H   H11       1.0  0.40165  0.18909  0.40923  1.0000
  H   H12       1.0  0.04648  0.95947  0.28291  1.0000
  H   H13       1.0  0.99447  0.54338  0.09482  1.0000
  H   H14       1.0  0.03527  0.59681  0.10835  1.0000
  H   H15       1.0  0.98898  0.57940  0.22552  1.0000
  H   H16       1.0  0.89038  0.46043  0.37138  1.0000
  H   H17       1.0  0.03948  0.50770  0.77164  1.0000
  H   H18       1.0  0.68673  0.27875  0.56916  1.0000
  H   H19       1.0  0.10148  0.75817  0.47529  1.0000
  H   H20       1.0  0.14868  0.79578  0.38351  1.0000
  H   H21       1.0  0.09761  0.79039  0.33090  1.0000
  H   H22       1.0  0.21216  0.76711  0.75992  1.0000
  H   H23       1.0  0.17610  0.87526  0.08540  1.0000
  H   H24       1.0  0.76489  0.09273  0.78864  1.0000
  H   H25       1.0  0.81116  0.12885  0.68804  1.0000
  H   H26       1.0  0.76072  0.12580  0.64965  1.0000
  H   H27       1.0  0.86702  0.08902  0.05740  1.0000
  H   H28       1.0  0.85319  0.21163  0.38980  1.0000
  H   H29       1.0  0.42699  0.42568  0.12989  1.0000
  H   H30       1.0  0.47361  0.46133  0.02955  1.0000
  H   H31       1.0  0.42309  0.45765  0.98415  1.0000
  H   H32       1.0  0.53756  0.43200  0.40113  1.0000
  H   H33       1.0  0.50500  0.54170  0.73586  1.0000
  H   H34       1.0  0.25254  0.33628  0.37864  1.0000
  H   H35       1.0  0.26796  0.29975  0.41509  1.0000
  H   H36       1.0  0.28676  0.34354  0.56184  1.0000
  H   H37       1.0  0.25555  0.43381  0.69935  1.0000
  H   H38       1.0  0.11799  0.28562  0.86437  1.0000
  H   H39       1.0  0.25315  0.62309  0.97739  1.0000
  H   H40       1.0  0.94120  0.68672  0.81467  1.0000
  H   H41       1.0  0.95727  0.65063  0.84989  1.0000
  H   H42       1.0  0.96828  0.68951  0.01112  1.0000
  H   H43       1.0  0.92605  0.77250  0.09013  1.0000
  H   H44       1.0  0.79143  0.62180  0.23973  1.0000
  H   H45       1.0  0.92936  0.96176  0.28029  1.0000
  H   H46       1.0  0.58529  0.00323  0.21583  1.0000
  H   H47       1.0  0.59321  0.96257  0.26892  1.0000
  H   H48       1.0  0.60152  0.00124  0.42634  1.0000
  H   H49       1.0  0.56779  0.09192  0.48410  1.0000
  H   H50       1.0  0.41380  0.94390  0.48904  1.0000
  H   H51       1.0  0.57338  0.28566  0.61650  1.0000
  H   H52       1.0  0.36789  0.16357  0.63702  1.0000
  H   H53       1.0  0.36997  0.12465  0.51274  1.0000
  H   H54       1.0  0.32818  0.11061  0.65059  1.0000
  H   H55       1.0  0.45848  0.23717  0.30764  1.0000
  H   H56       1.0  0.30105  0.17054  0.93648  1.0000
  H   H57       1.0  0.66032  0.38269  0.08762  1.0000
  H   H58       1.0  0.95595  0.49080  0.96425  1.0000
  H   H59       1.0  0.92885  0.43672  0.98416  1.0000
  H   H60       1.0  0.90603  0.45579  0.84006  1.0000
  H   H61       1.0  0.10214  0.55663  0.69026  1.0000
  H   H62       1.0  0.95201  0.51365  0.30369  1.0000
  H   H63       1.0  0.30666  0.70506  0.49217  1.0000
  H   H64       1.0  0.68635  0.82638  0.28723  1.0000
  H   H65       1.0  0.68530  0.78641  0.15778  1.0000
  H   H66       1.0  0.64392  0.77414  0.29577  1.0000
  H   H67       1.0  0.77980  0.89443  0.96846  1.0000
  H   H68       1.0  0.62624  0.84424  0.59537  1.0000
  H   H69       1.0  0.98574  0.04535  0.75451  1.0000
  H   H70       1.0  0.91524  0.22939  0.54194  1.0000
  H   H71       1.0  0.91785  0.19478  0.67629  1.0000
  H   H72       1.0  0.86735  0.19098  0.62745  1.0000
  H   H73       1.0  0.80987  0.22914  0.26859  1.0000
  H   H74       1.0  0.83018  0.11193  0.92652  1.0000
  H   H75       1.0  0.57266  0.56428  0.87241  1.0000
  H   H76       1.0  0.57627  0.53285  0.02163  1.0000
  H   H77       1.0  0.52605  0.52965  0.97539  1.0000
  H   H78       1.0  0.46001  0.55547  0.61191  1.0000
  H   H79       1.0  0.49337  0.44732  0.27154  1.0000
  H   H80       1.0  0.24274  0.89885  0.22231  1.0000
  H   H81       1.0  0.24906  0.86911  0.37277  1.0000
  H   H82       1.0  0.19760  0.86376  0.33082  1.0000
  H   H83       1.0  0.13294  0.89040  0.95533  1.0000
  H   H84       1.0  0.16649  0.78060  0.62682  1.0000
  H   H85       1.0  0.76857  0.65077  0.40561  1.0000
  H   H86       1.0  0.75043  0.65179  0.19677  1.0000
  H   H87       1.0  0.75742  0.68961  0.35734  1.0000
  H   H88       1.0  0.79759  0.57015  0.19106  1.0000
  H   H89       1.0  0.92862  0.71890  0.01619  1.0000
  H   H90       1.0  0.77306  0.37512  0.03193  1.0000
  H   H91       1.0  0.39868  0.97839  0.68318  1.0000
  H   H92       1.0  0.37830  0.97807  0.47539  1.0000
  H   H93       1.0  0.38894  0.01803  0.62965  1.0000
  H   H94       1.0  0.41284  0.88878  0.40864  1.0000
  H   H95       1.0  0.56645  0.03683  0.38726  1.0000
  H   H96       1.0  0.41973  0.69757  0.44844  1.0000
  H   H97       1.0  0.10374  0.31538  0.05051  1.0000
  H   H98       1.0  0.08238  0.32063  0.85540  1.0000
  H   H99       1.0  0.09473  0.35713  0.02972  1.0000
  H   H100      1.0  0.11409  0.23120  0.78405  1.0000
  H   H101      1.0  0.25211  0.37637  0.60723  1.0000
  H   H102      1.0  0.09645  0.03339  0.72551  1.0000
  H   H103      1.0  0.98851  0.90509  0.84688  1.0000
  H   H104      1.0  0.96381  0.92291  0.97900  1.0000
  H   H105      1.0  0.90862  0.86974  0.99058  1.0000
  H   H106      1.0  0.84734  0.85945  0.74647  1.0000
  H   H107      1.0  0.83440  0.82734  0.91315  1.0000
  H   H108      1.0  0.89639  0.80838  0.56382  1.0000
  H   H109      1.0  0.89967  0.80438  0.93989  1.0000
  H   H110      1.0  0.94383  0.83328  0.81855  1.0000
  H   H111      1.0  0.83555  0.67826  0.83535  1.0000
  H   H112      1.0  0.83008  0.67625  0.61444  1.0000
  H   H113      1.0  0.78519  0.66661  0.73075  1.0000
  H   H114      1.0  0.72308  0.72112  0.79774  1.0000
  H   H115      1.0  0.73200  0.70415  0.60342  1.0000
  H   H116      1.0  0.68053  0.69703  0.63597  1.0000
  H   H117      1.0  0.67258  0.76043  0.66351  1.0000
  H   H118      1.0  0.71886  0.81006  0.64893  1.0000
  H   H119      1.0  0.71530  0.78274  0.82428  1.0000
  H   H120      1.0  0.73546  0.74297  0.34613  1.0000
  H   H121      1.0  0.73306  0.78808  0.37237  1.0000
  H   H122      1.0  0.68529  0.73900  0.37993  1.0000
  H   H123      1.0  0.37448  0.75656  0.15506  1.0000
  H   H124      1.0  0.41723  0.75980  0.05181  1.0000
  H   H125      1.0  0.39066  0.81668  0.11627  1.0000
  H   H126      1.0  0.45812  0.82068  0.91975  1.0000
  H   H127      1.0  0.46553  0.85070  0.10742  1.0000
  H   H128      1.0  0.42180  0.87956  0.69754  1.0000
  H   H129      1.0  0.36155  0.84648  0.94993  1.0000
  H   H130      1.0  0.36370  0.81909  0.77280  1.0000
  H   H131      1.0  0.43137  0.97941  0.09052  1.0000
  H   H132      1.0  0.46513  0.99803  0.92309  1.0000
  H   H133      1.0  0.48845  0.00051  0.12733  1.0000
  H   H134      1.0  0.62935  0.96290  0.79441  1.0000
  H   H135      1.0  0.59947  0.96649  0.95466  1.0000
  H   H136      1.0  0.58259  0.96560  0.74342  1.0000
  H   H137      1.0  0.62241  0.89773  0.87569  1.0000
  H   H138      1.0  0.57136  0.85646  0.92329  1.0000
  H   H139      1.0  0.59783  0.90329  0.05207  1.0000
  H   H140      1.0  0.54014  0.85460  0.63040  1.0000
  H   H141      1.0  0.58952  0.89762  0.57938  1.0000
  H   H142      1.0  0.54111  0.89876  0.56375  1.0000
  H   H143      1.0  0.70280  0.41896  0.76852  1.0000
  H   H144      1.0  0.74043  0.41926  0.64179  1.0000
  H   H145      1.0  0.71721  0.47769  0.70495  1.0000
  H   H146      1.0  0.76652  0.47926  0.40829  1.0000
  H   H147      1.0  0.78698  0.49414  0.62202  1.0000
  H   H148      1.0  0.73656  0.55260  0.36823  1.0000
  H   H149      1.0  0.66920  0.48897  0.52382  1.0000
  H   H150      1.0  0.69050  0.48001  0.34453  1.0000
  H   H151      1.0  0.72876  0.56463  0.01608  1.0000
  H   H152      1.0  0.69957  0.57836  0.87421  1.0000
  H   H153      1.0  0.75700  0.61150  0.91685  1.0000
  H   H154      1.0  0.93235  0.58663  0.70782  1.0000
  H   H155      1.0  0.88322  0.53829  0.68097  1.0000
  H   H156      1.0  0.88335  0.58226  0.76484  1.0000
  H   H157      1.0  0.88705  0.52649  0.37919  1.0000
  H   H158      1.0  0.93899  0.57222  0.39800  1.0000
  H   H159      1.0  0.89849  0.56576  0.24417  1.0000
  H   H160      1.0  0.90104  0.63006  0.35074  1.0000
  H   H161      1.0  0.94538  0.63969  0.48891  1.0000
  H   H162      1.0  0.90074  0.64080  0.56589  1.0000
  H   H163      1.0  0.67382  0.25019  0.19870  1.0000
  H   H164      1.0  0.62780  0.25114  0.24946  1.0000
  H   H165      1.0  0.61726  0.18384  0.15578  1.0000
  H   H166      1.0  0.54332  0.18800  0.98845  1.0000
  H   H167      1.0  0.54889  0.17726  0.19708  1.0000
  H   H168      1.0  0.53938  0.10560  0.78613  1.0000
  H   H169      1.0  0.62850  0.15719  0.90088  1.0000
  H   H170      1.0  0.59850  0.17308  0.78218  1.0000
  H   H171      1.0  0.54504  0.00318  0.90953  1.0000
  H   H172      1.0  0.59977  0.04261  0.98004  1.0000
  H   H173      1.0  0.58470  0.02427  0.76335  1.0000
  H   H174      1.0  0.43168  0.05905  0.31320  1.0000
  H   H175      1.0  0.41312  0.03069  0.11477  1.0000
  H   H176      1.0  0.37708  0.03791  0.23273  1.0000
  H   H177      1.0  0.43310  0.12620  0.35605  1.0000
  H   H178      1.0  0.38114  0.10612  0.24760  1.0000
  H   H179      1.0  0.42716  0.14971  0.18021  1.0000
  H   H180      1.0  0.41044  0.11400  0.89528  1.0000
  H   H181      1.0  0.36498  0.06878  0.95674  1.0000
  H   H182      1.0  0.40678  0.06572  0.86328  1.0000
  H   H183      1.0  0.30796  0.56124  0.47264  1.0000
  H   H184      1.0  0.27516  0.56811  0.60649  1.0000
  H   H185      1.0  0.21620  0.51470  0.51417  1.0000
  H   H186      1.0  0.18604  0.53357  0.19985  1.0000
  H   H187      1.0  0.15736  0.51450  0.37795  1.0000
  H   H188      1.0  0.17784  0.42921  0.14052  1.0000
  H   H189      1.0  0.24375  0.47539  0.38080  1.0000
  H   H190      1.0  0.24284  0.49561  0.18789  1.0000
  H   H191      1.0  0.10184  0.36910  0.57418  1.0000
  H   H192      1.0  0.09296  0.40817  0.65854  1.0000
  H   H193      1.0  0.14267  0.41029  0.71436  1.0000
  H   H194      1.0  0.02374  0.42506  0.32051  1.0000
  H   H195      1.0  0.02331  0.39073  0.16222  1.0000
  H   H196      1.0  0.98590  0.40744  0.14365  1.0000
  H   H197      1.0  0.01283  0.48189  0.08385  1.0000
  H   H198      1.0  0.06956  0.51736  0.08136  1.0000
  H   H199      1.0  0.04781  0.49678  0.26877  1.0000
  H   H200      1.0  0.05112  0.41663  0.88404  1.0000
  H   H201      1.0  0.07285  0.46921  0.85093  1.0000
  H   H202      1.0  0.01599  0.43579  0.85377  1.0000
  H   H203      1.0  0.04676  0.09602  0.41626  1.0000
  H   H204      1.0  0.09313  0.09654  0.36061  1.0000
  H   H205      1.0  0.07496  0.15572  0.35467  1.0000
  H   H206      1.0  0.14000  0.15842  0.12656  1.0000
  H   H207      1.0  0.14898  0.17596  0.34202  1.0000
  H   H208      1.0  0.11189  0.23687  0.03583  1.0000
  H   H209      1.0  0.03763  0.16938  0.13547  1.0000
  H   H210      1.0  0.06824  0.16281  0.98362  1.0000
  H   H211      1.0  0.08093  0.28332  0.46837  1.0000
  H   H212      1.0  0.10005  0.32471  0.33339  1.0000
  H   H213      1.0  0.13764  0.32108  0.46966  1.0000
  H   H214      1.0  0.30742  0.29881  0.99327  1.0000
  H   H215      1.0  0.28644  0.31093  0.16530  1.0000
  H   H216      1.0  0.25934  0.30043  0.96443  1.0000
  H   H217      1.0  0.30788  0.24112  0.12184  1.0000
  H   H218      1.0  0.26038  0.20209  0.20268  1.0000
  H   H219      1.0  0.28905  0.25267  0.30283  1.0000
  H   H220      1.0  0.21756  0.18760  0.92381  1.0000
  H   H221      1.0  0.26410  0.22654  0.83689  1.0000
  H   H222      1.0  0.21617  0.22802  0.82856  1.0000
  C  Sn1       1.0  0.48303  0.69953  0.96787  1.0000
  C   C199      1.0  0.50840  0.73453  0.88528  1.0000
  C  Sn2       1.0  0.49153  0.75768  0.82932  1.0000
  C  Sn3       1.0  0.44843  0.74561  0.85658  1.0000
  C   C200      1.0  0.42310  0.71064  0.93915  1.0000
  C  Sn4       1.0  0.43993  0.68747  0.99512  1.0000
  O  Te1       1.0  0.47840  0.65545  0.02274  1.0000
  O  Te2       1.0  0.51751  0.79253  0.74701  1.0000
  O  Te3       1.0  0.43092  0.76832  0.80162  1.0000
  O  Te4       1.0  0.39183  0.63123  0.07741  1.0000
  Mg  Mg1       1.0  0.47905  0.81340  0.69581  1.0000
  Mg  Mg2       1.0  0.43026  0.61036  0.12874  1.0000
  C  Sn5       1.0  0.16049  0.03544  0.34221  1.0000
  C   C201      1.0  0.18664  0.06792  0.24878  1.0000
  C  Sn6       1.0  0.17013  0.08897  0.16895  1.0000
  C  Sn7       1.0  0.12657  0.07732  0.18285  1.0000
  C   C202      1.0  0.10043  0.04485  0.27625  1.0000
  C  Sn8       1.0  0.11692  0.02378  0.35612  1.0000
  O  Te5       1.0  0.17768  0.01483  0.42097  1.0000
  O  Te6       1.0  0.19690  0.12134  0.07620  1.0000
  O  Te7       1.0  0.10939  0.09795  0.10398  1.0000
  O  Te8       1.0  0.63914  0.99144  0.44884  1.0000
  Mg  Mg3       1.0  0.18078  0.16140  0.99190  1.0000
  Mg  Mg4       1.0  0.67739  0.97277  0.53325  1.0000
  C  Sn9       1.0  0.77244  0.38853  0.41432  1.0000
  C   C203      1.0  0.74761  0.35637  0.51136  1.0000
  C  Sn10      1.0  0.76704  0.34933  0.64788  1.0000
  C  Sn11      1.0  0.81223  0.37497  0.68833  1.0000
  C   C204      1.0  0.83703  0.40711  0.59135  1.0000
  C  Sn12      1.0  0.81762  0.41417  0.45478  1.0000
  O  Te9       1.0  0.75233  0.39501  0.27841  1.0000
  O  Te10      1.0  0.74155  0.31698  0.74300  1.0000
  O  Te11      1.0  0.83232  0.36847  0.82437  1.0000
  O  Te12      1.0  0.84309  0.44650  0.35971  1.0000
  Mg  Mg5       1.0  0.78387  0.32051  0.91609  1.0000
  Mg  Mg6       1.0  0.80081  0.44302  0.18666  1.0000
  C  Sn13      1.0  0.22612  0.70154  0.89334  1.0000
  C   C205      1.0  0.20957  0.71085  0.01083  1.0000
  C  Sn14      1.0  0.24609  0.73076  0.12413  1.0000
  C  Sn15      1.0  0.27770  0.71977  0.11985  1.0000
  C   C206      1.0  0.27210  0.68909  0.00240  1.0000
  C  Sn16      1.0  0.25773  0.69055  0.88905  1.0000
  O  Te13      1.0  0.18936  0.68205  0.78126  1.0000
  O  Te14      1.0  0.25097  0.76136  0.24049  1.0000
  O  Te15      1.0  0.31448  0.73930  0.23206  1.0000
  O  Te16      1.0  0.25285  0.65998  0.77274  1.0000
  Mg  Mg7       1.0  0.30661  0.77904  0.36708  1.0000
  Mg  Mg8       1.0  0.19724  0.64230  0.64604  1.0000
  C  Sn17      1.0  0.96440  0.09581  0.41009  1.0000
  C   C207      1.0  0.94013  0.09820  0.27718  1.0000
  C  Sn18      1.0  0.92428  0.06915  0.14018  1.0000
  C  Sn19      1.0  0.93282  0.03701  0.13597  1.0000
  C   C208      1.0  0.95706  0.03462  0.26884  1.0000
  C  Sn20      1.0  0.97294  0.06367  0.40589  1.0000
  O  Te17      1.0  0.97993  0.12518  0.54579  1.0000
  O  Te18      1.0  0.90011  0.07220  0.00876  1.0000
  O  Te19      1.0  0.91726  0.00763  0.00012  1.0000
  O  Te20      1.0  0.99708  0.06063  0.53726  1.0000
  Mg  Mg9       1.0  0.90809  0.04621  0.85145  1.0000
  Mg  Mg10      1.0  0.01125  0.10799  0.69466  1.0000
  C  Sn21      1.0  0.61769  0.42584  0.74431  1.0000
  C   C209      1.0  0.58304  0.42003  0.63926  1.0000
  C  Sn22      1.0  0.55843  0.38388  0.53523  1.0000
  C  Sn23      1.0  0.56864  0.35287  0.53628  1.0000
  C   C210      1.0  0.60326  0.35869  0.64130  1.0000
  C  Sn24      1.0  0.62790  0.39484  0.74537  1.0000
  O  Te21      1.0  0.64185  0.46223  0.84728  1.0000
  O  Te22      1.0  0.52395  0.37877  0.43125  1.0000
  O  Te23      1.0  0.54444  0.31647  0.43320  1.0000
  O  Te24      1.0  0.66236  0.39995  0.84932  1.0000
  Mg  Mg11      1.0  0.50059  0.32383  0.31373  1.0000
  Mg  Mg12      1.0  0.68572  0.45486  0.96695  1.0000
  C  Sn25      1.0  0.30324  0.54177  0.84238  1.0000
  C   C211      1.0  0.28636  0.56688  0.86705  1.0000
  C  Sn26      1.0  0.24383  0.55015  0.90784  1.0000
  C  Sn27      1.0  0.21764  0.50744  0.92441  1.0000
  C   C212      1.0  0.23452  0.48236  0.89978  1.0000
  C  Sn28      1.0  0.27704  0.49907  0.85896  1.0000
  O  Te25      1.0  0.34584  0.55916  0.80170  1.0000
  O  Te26      1.0  0.22767  0.57586  0.93185  1.0000
  O  Te27      1.0  0.17501  0.49007  0.96513  1.0000
  O  Te28      1.0  0.29321  0.47338  0.83498  1.0000
  Mg  Mg13      1.0  0.16767  0.53772  0.98562  1.0000
  Mg  Mg14      1.0  0.35320  0.51148  0.78129  1.0000
  C  Sn29      1.0  0.89145  0.85275  0.26833  1.0000
  C   C213      1.0  0.90573  0.82622  0.22643  1.0000
  C  Sn30      1.0  0.94988  0.84090  0.23084  1.0000
  C  Sn31      1.0  0.98039  0.88298  0.27821  1.0000
  C   C214      1.0  0.96611  0.90948  0.32010  1.0000
  C  Sn32      1.0  0.92197  0.89482  0.31570  1.0000
  O  Te29      1.0  0.84717  0.83740  0.26306  1.0000
  O  Te30      1.0  0.96337  0.81380  0.18836  1.0000
  O  Te31      1.0  0.02471  0.89831  0.28344  1.0000
  O  Te32      1.0  0.90847  0.92190  0.35817  1.0000
  Mg  Mg15      1.0  0.02715  0.84933  0.21467  1.0000
  Mg  Mg16      1.0  0.84470  0.88639  0.33198  1.0000
  C  Sn33      1.0  0.59873  0.17159  0.50638  1.0000
  C   C215      1.0  0.55608  0.14631  0.54479  1.0000
  C  Sn34      1.0  0.53194  0.16332  0.59246  1.0000
  C  Sn35      1.0  0.55081  0.20648  0.60184  1.0000
  C   C216      1.0  0.59343  0.23174  0.56342  1.0000
  C  Sn36      1.0  0.61760  0.21476  0.51576  1.0000
  O  Te33      1.0  0.62226  0.15393  0.45900  1.0000
  O  Te34      1.0  0.48936  0.13742  0.63032  1.0000
  O  Te35      1.0  0.52724  0.22414  0.64927  1.0000
  O  Te36      1.0  0.66015  0.24063  0.47789  1.0000
  Mg  Mg17      1.0  0.47043  0.17608  0.68856  1.0000
  Mg  Mg18      1.0  0.67911  0.20201  0.41956  1.0000
  C  Sn37      1.0  0.54252  0.26724  0.24888  1.0000
  C   C217      1.0  0.51687  0.27361  0.13560  1.0000
  C  Sn38      1.0  0.55631  0.31609  0.99607  1.0000
  C  Sn39      1.0  0.60012  0.33109  0.96914  1.0000
  C   C218      1.0  0.60357  0.30331  0.08236  1.0000
  C  Sn40      1.0  0.58633  0.28224  0.22195  1.0000
  O  Te37      1.0  0.52457  0.24608  0.38751  1.0000
  O  Te38      1.0  0.53004  0.32210  0.88460  1.0000
  O  Te39      1.0  0.61805  0.35226  0.83037  1.0000
  O  Te40      1.0  0.61256  0.27622  0.33337  1.0000
  Mg  Mg19      1.0  0.56929  0.35273  0.71416  1.0000
  Mg  Mg20      1.0  0.57335  0.24558  0.50379  1.0000
  C  Sn41      1.0  0.21141  0.58476  0.56952  1.0000
  C   C219      1.0  0.24165  0.61478  0.47593  1.0000
  C  Sn42      1.0  0.23120  0.63941  0.38858  1.0000
  C  Sn43      1.0  0.18967  0.63394  0.39498  1.0000
  C   C220      1.0  0.15946  0.60394  0.48855  1.0000
  C  Sn44      1.0  0.16988  0.57929  0.57592  1.0000
  O  Te41      1.0  0.22255  0.56049  0.65587  1.0000
  O  Te42      1.0  0.26197  0.66921  0.29582  1.0000
  O  Te43      1.0  0.17855  0.65824  0.30853  1.0000
  O  Te44      1.0  0.13915  0.54951  0.66866  1.0000
  Mg  Mg21      1.0  0.23149  0.69471  0.19963  1.0000
  Mg  Mg22      1.0  0.16959  0.52401  0.76496  1.0000
  C  Sn45      1.0  0.86969  0.94259  0.93586  1.0000
  C   C221      1.0  0.84331  0.94564  0.81380  1.0000
  C  Sn46      1.0  0.85819  0.95841  0.65903  1.0000
  C  Sn47      1.0  0.90030  0.96831  0.62550  1.0000
  C   C222      1.0  0.92665  0.96525  0.74751  1.0000
  C  Sn48      1.0  0.91180  0.95249  0.90234  1.0000
  O  Te45      1.0  0.83199  0.90836  0.08971  1.0000
  O  Te46      1.0  0.83123  0.96124  0.53900  1.0000
  O  Te47      1.0  0.91583  0.98115  0.47151  1.0000
  O  Te48      1.0  0.91657  0.92826  0.02231  1.0000
  Mg  Mg23      1.0  0.86700  0.98015  0.34832  1.0000
  Mg  Mg24      1.0  0.88083  0.90933  0.21299  1.0000
  C  Sn49      1.0  0.78354  0.28197  0.19475  1.0000
  C   C223      1.0  0.77129  0.24796  0.08328  1.0000
  C  Sn50      1.0  0.76490  0.26040  0.94397  1.0000
  C  Sn51      1.0  0.74826  0.28599  0.91541  1.0000
  C   C224      1.0  0.73835  0.29858  0.02682  1.0000
  C  Sn52      1.0  0.76690  0.30756  0.16620  1.0000
  O  Te49      1.0  0.81213  0.29035  0.33319  1.0000
  O  Te50      1.0  0.75311  0.22621  0.83431  1.0000
  O  Te51      1.0  0.71965  0.27758  0.77683  1.0000
  O  Te52      1.0  0.77869  0.34173  0.27579  1.0000
  Mg  Mg25      1.0  0.71326  0.22753  0.66340  1.0000
  Mg  Mg26      1.0  0.81856  0.34045  0.44669  1.0000
  C  Sn53      1.0  0.43375  0.63343  0.50519  1.0000
  C   C225      1.0  0.39628  0.62687  0.41852  1.0000
  C  Sn54      1.0  0.36963  0.59056  0.31758  1.0000
  C  Sn55      1.0  0.38064  0.56015  0.30303  1.0000
  C   C226      1.0  0.41809  0.56671  0.38969  1.0000
  C  Sn56      1.0  0.44476  0.60302  0.49064  1.0000
  O  Te53      1.0  0.45991  0.66996  0.60540  1.0000
  O  Te54      1.0  0.33234  0.58470  0.23211  1.0000
  O  Te55      1.0  0.35444  0.52360  0.20272  1.0000
  O  Te56      1.0  0.48203  0.60888  0.57610  1.0000
  Mg  Mg27      1.0  0.30703  0.52985  0.11110  1.0000
  Mg  Mg28      1.0  0.50734  0.66371  0.69721  1.0000
  C  Sn57      1.0  0.10679  0.94260  0.87720  1.0000
  C   C227      1.0  0.09308  0.90717  0.77237  1.0000
  C  Sn58      1.0  0.06225  0.89610  0.63900  1.0000
  C  Sn59      1.0  0.04478  0.92098  0.60972  1.0000
  C   C228      1.0  0.05849  0.95639  0.71450  1.0000
  C  Sn60      1.0  0.08931  0.96747  0.84793  1.0000
  O  Te57      1.0  0.11548  0.93167  0.00978  1.0000
  O  Te58      1.0  0.04905  0.86053  0.53593  1.0000
  O  Te59      1.0  0.01390  0.91047  0.47702  1.0000
  O  Te60      1.0  0.10252  0.00302  0.95094  1.0000
  Mg  Mg29      1.0  0.00624  0.85915  0.37143  1.0000
  Mg  Mg30      1.0  0.12318  0.98305  0.11542  1.0000
  C  Sn61      1.0  0.72947  0.46324  0.04006  1.0000
  C   C229      1.0  0.74037  0.43370  0.00878  1.0000
  C  Sn62      1.0  0.80518  0.46699  0.98596  1.0000
  C  Sn63      1.0  0.83762  0.50929  0.99468  1.0000
  C   C230      1.0  0.80456  0.51740  0.02597  1.0000
  C  Sn64      1.0  0.76191  0.50554  0.04878  1.0000
  O  Te61      1.0  0.68662  0.45065  0.06249  1.0000
  O  Te62      1.0  0.81529  0.43690  0.95478  1.0000
  O  Te63      1.0  0.88050  0.52187  0.97221  1.0000
  O  Te64      1.0  0.75180  0.53560  0.07997  1.0000
  Mg  Mg31      1.0  0.87824  0.46937  0.93286  1.0000
  Mg  Mg32      1.0  0.68886  0.50317  0.10199  1.0000
  C  Sn65      1.0  0.39608  0.81284  0.53187  1.0000
  C   C231      1.0  0.43624  0.83664  0.46908  1.0000
  C  Sn66      1.0  0.45541  0.81789  0.38825  1.0000
  C  Sn67      1.0  0.43398  0.77446  0.36969  1.0000
  C   C232      1.0  0.39384  0.75069  0.43243  1.0000
  C  Sn68      1.0  0.37465  0.76941  0.51331  1.0000
  O  Te65      1.0  0.37751  0.83223  0.61223  1.0000
  O  Te66      1.0  0.49558  0.84233  0.32657  1.0000
  O  Te67      1.0  0.45258  0.75508  0.28926  1.0000
  O  Te68      1.0  0.33449  0.74499  0.57494  1.0000
  Mg  Mg33      1.0  0.50771  0.80158  0.22648  1.0000
  Mg  Mg34      1.0  0.32232  0.78571  0.67498  1.0000
  C  Sn69      1.0  0.13571  0.13885  0.61898  1.0000
  C   C233      1.0  0.12427  0.16846  0.62588  1.0000
  C  Sn70      1.0  0.08676  0.16062  0.69702  1.0000
  C  Sn71      1.0  0.06013  0.12241  0.76274  1.0000
  C   C234      1.0  0.07158  0.09284  0.75584  1.0000
  C  Sn72      1.0  0.10908  0.10064  0.68469  1.0000
  O  Te69      1.0  0.17336  0.14735  0.54730  1.0000
  O  Te70      1.0  0.07598  0.19069  0.70245  1.0000
  O  Te71      1.0  0.02246  0.11394  0.83445  1.0000
  O  Te72      1.0  0.11987  0.07060  0.67928  1.0000
  Mg  Mg35      1.0  0.02148  0.16467  0.81271  1.0000
  Mg  Mg36      1.0  0.17437  0.09660  0.56913  1.0000
