data_image0
_chemical_formula_structural       C6OCOC3N2C16OCOC3N2C16OCOC3N2C18NCNC6OH68C6OCOC3N2C10OCOC3N2C22OCOC3N2C6NCNC6OH60C2Sn2C2HTe2HMgC2Sn2C2HTe2HMgC2Sn2C2HTe2HMgC2Sn2C2HTe2HMgC2Sn2C2HTe2HMgC2Sn2C2HTe2HMg
_chemical_formula_sum              "C162 O14 N16 H140 Sn12 Te12 Mg6"
_cell_length_a       36.9176
_cell_length_b       36.5748
_cell_length_c       8.47881
_cell_angle_alpha    66.6546
_cell_angle_beta     115.138
_cell_angle_gamma    118.136

_symmetry_space_group_name_H-M    'P1'
_space_group_IT_number       1

loop_
  _space_group_symop_operation_xyz
  'x, y, z'

loop_
  _atom_site_type_symbol
  _atom_site_label
  _atom_site_symmetry_multiplicity
  _atom_site_fract_x
  _atom_site_fract_y
  _atom_site_fract_z
  _atom_site_occupancy
  C   C1        1.0  0.49165  0.50984  0.09783  1.0000
  C   C2        1.0  0.47783  0.46516  0.12141  1.0000
  C   C3        1.0  0.50263  0.44883  0.10245  1.0000
  C   C4        1.0  0.54229  0.47561  0.06748  1.0000
  C   C5        1.0  0.55756  0.51991  0.05789  1.0000
  C   C6        1.0  0.53206  0.53640  0.06962  1.0000
  O   O1        1.0  0.59794  0.54450  0.03565  1.0000
  C   C7        1.0  0.61555  0.58749  0.05253  1.0000
  O   O2        1.0  0.43920  0.44050  0.15860  1.0000
  C   C8        1.0  0.42991  0.39522  0.22763  1.0000
  C   C9        1.0  0.56755  0.45879  0.04215  1.0000
  C   C10       1.0  0.46393  0.52860  0.09231  1.0000
  N   N1        1.0  0.47620  0.56971  0.06163  1.0000
  N   N2        1.0  0.55627  0.41823  0.06137  1.0000
  C   C11       1.0  0.44846  0.58793  0.04485  1.0000
  C   C12       1.0  0.45518  0.63023  0.93938  1.0000
  C   C13       1.0  0.42860  0.65079  0.91011  1.0000
  C   C14       1.0  0.39487  0.63040  0.98830  1.0000
  C   C15       1.0  0.38897  0.58848  0.09780  1.0000
  C   C16       1.0  0.41504  0.56746  0.12526  1.0000
  C   C17       1.0  0.66256  0.35085  0.01256  1.0000
  C   C18       1.0  0.36690  0.65237  0.95915  1.0000
  C   C19       1.0  0.70543  0.37538  0.01282  1.0000
  C   C20       1.0  0.31346  0.69359  0.90393  1.0000
  C   C21       1.0  0.48401  0.96431  0.92111  1.0000
  C   C22       1.0  0.52701  0.99016  0.91674  1.0000
  C   C23       1.0  0.54482  0.03175  0.93494  1.0000
  C   C24       1.0  0.52145  0.04920  0.96021  1.0000
  C   C25       1.0  0.47794  0.02403  0.95803  1.0000
  C   C26       1.0  0.46013  0.98223  0.93999  1.0000
  O   O3        1.0  0.45612  0.04302  0.97650  1.0000
  C   C27       1.0  0.41204  0.01816  0.97341  1.0000
  O   O4        1.0  0.54913  0.97145  0.89723  1.0000
  C   C28       1.0  0.59082  0.99875  0.87502  1.0000
  C   C29       1.0  0.54261  0.09188  0.99131  1.0000
  C   C30       1.0  0.46605  0.92006  0.91069  1.0000
  N   N3        1.0  0.42616  0.89603  0.90221  1.0000
  N   N4        1.0  0.58378  0.11165  0.01603  1.0000
  C   C31       1.0  0.60371  0.15480  0.01850  1.0000
  C   C32       1.0  0.64860  0.17105  0.09447  1.0000
  C   C33       1.0  0.67154  0.21464  0.08517  1.0000
  C   C34       1.0  0.65058  0.24426  0.99616  1.0000
  C   C35       1.0  0.60565  0.22777  0.91592  1.0000
  C   C36       1.0  0.58270  0.18441  0.92726  1.0000
  C   C37       1.0  0.67252  0.29038  0.99424  1.0000
  C   C38       1.0  0.35723  0.71776  0.91840  1.0000
  C   C39       1.0  0.64748  0.30861  0.00324  1.0000
  C   C40       1.0  0.32331  0.62922  0.94833  1.0000
  C   C41       1.0  0.05110  0.53795  0.90920  1.0000
  C   C42       1.0  0.02327  0.55609  0.89877  1.0000
  C   C43       1.0  0.98283  0.52997  0.92132  1.0000
  C   C44       1.0  0.96879  0.48523  0.95723  1.0000
  C   C45       1.0  0.99721  0.46711  0.97672  1.0000
  C   C46       1.0  0.03718  0.49316  0.94928  1.0000
  O   O5        1.0  0.98576  0.42282  0.03239  1.0000
  C   C47       1.0  0.96921  0.40264  0.88799  1.0000
  O   O6        1.0  0.03877  0.59995  0.86733  1.0000
  C   C48       1.0  0.01433  0.61751  0.89034  1.0000
  C   C49       1.0  0.92556  0.45837  0.97287  1.0000
  C   C50       1.0  0.09367  0.56501  0.88784  1.0000
  N   N5        1.0  0.12045  0.54884  0.90835  1.0000
  N   N6        1.0  0.89708  0.47484  0.92503  1.0000
  C   C51       1.0  0.16258  0.57559  0.90502  1.0000
  C   C52       1.0  0.85681  0.44720  0.95133  1.0000
  C   C53       1.0  0.81957  0.45047  0.81110  1.0000
  C   C54       1.0  0.77937  0.42121  0.82915  1.0000
  C   C55       1.0  0.77503  0.38975  0.98972  1.0000
  C   C56       1.0  0.81212  0.38954  0.13499  1.0000
  C   C57       1.0  0.85258  0.41698  0.11442  1.0000
  C   C58       1.0  0.18564  0.56056  0.86455  1.0000
  C   C59       1.0  0.22826  0.58454  0.86643  1.0000
  C   C60       1.0  0.25020  0.62420  0.91280  1.0000
  C   C61       1.0  0.22723  0.63869  0.95674  1.0000
  C   C62       1.0  0.18439  0.61524  0.95221  1.0000
  C   C63       1.0  0.73136  0.35888  0.00218  1.0000
  C   C64       1.0  0.29598  0.64922  0.92134  1.0000
  C   C65       1.0  0.71577  0.31591  0.99207  1.0000
  C   C66       1.0  0.38350  0.69649  0.94589  1.0000
  C   C67       1.0  0.74389  0.30221  0.95510  1.0000
  C   C68       1.0  0.78307  0.29287  0.11136  1.0000
  N   N7        1.0  0.77764  0.24707  0.19143  1.0000
  C   C69       1.0  0.80682  0.23817  0.14604  1.0000
  N   N8        1.0  0.83848  0.28066  0.09510  1.0000
  C   C70       1.0  0.82327  0.31253  0.04870  1.0000
  C   C71       1.0  0.82628  0.20580  0.30173  1.0000
  C   C72       1.0  0.78913  0.16661  0.36436  1.0000
  C   C73       1.0  0.86045  0.22741  0.45402  1.0000
  C   C74       1.0  0.84741  0.18865  0.23806  1.0000
  C   C75       1.0  0.87174  0.28918  0.02270  1.0000
  O   O7        1.0  0.83972  0.34976  0.97071  1.0000
  H   H1        1.0  0.49276  0.41496  0.11559  1.0000
  H   H2        1.0  0.54154  0.57029  0.05424  1.0000
  H   H3        1.0  0.61636  0.58805  0.18287  1.0000
  H   H4        1.0  0.59700  0.60660  0.94384  1.0000
  H   H5        1.0  0.64830  0.60085  0.04332  1.0000
  H   H6        1.0  0.42409  0.38026  0.12504  1.0000
  H   H7        1.0  0.40061  0.38233  0.26640  1.0000
  H   H8        1.0  0.45654  0.38914  0.34552  1.0000
  H   H9        1.0  0.59647  0.48271  0.00372  1.0000
  H   H10       1.0  0.43201  0.50646  0.10655  1.0000
  H   H11       1.0  0.48086  0.64566  0.87698  1.0000
  H   H12       1.0  0.43335  0.68286  0.82259  1.0000
  H   H13       1.0  0.36444  0.57290  0.16660  1.0000
  H   H14       1.0  0.41049  0.53558  0.21422  1.0000
  H   H15       1.0  0.71998  0.40849  0.02049  1.0000
  H   H16       1.0  0.29228  0.70981  0.87461  1.0000
  H   H17       1.0  0.57765  0.05231  0.93401  1.0000
  H   H18       1.0  0.42760  0.96150  0.94519  1.0000
  H   H19       1.0  0.40910  0.98881  0.08254  1.0000
  H   H20       1.0  0.39262  0.01005  0.84306  1.0000
  H   H21       1.0  0.40114  0.03865  0.99378  1.0000
  H   H22       1.0  0.58875  0.02579  0.75668  1.0000
  H   H23       1.0  0.60252  0.97873  0.85611  1.0000
  H   H24       1.0  0.61316  0.01113  0.99437  1.0000
  H   H25       1.0  0.52248  0.10596  0.99386  1.0000
  H   H26       1.0  0.48884  0.90827  0.91482  1.0000
  H   H27       1.0  0.66532  0.14865  0.15946  1.0000
  H   H28       1.0  0.70630  0.22554  0.14422  1.0000
  H   H29       1.0  0.58889  0.24996  0.83582  1.0000
  H   H30       1.0  0.54864  0.17342  0.85492  1.0000
  H   H31       1.0  0.61524  0.28775  0.01136  1.0000
  H   H32       1.0  0.31054  0.59497  0.96140  1.0000
  H   H33       1.0  0.96074  0.54276  0.91363  1.0000
  H   H34       1.0  0.05903  0.47942  0.96158  1.0000
  H   H35       1.0  0.96406  0.36868  0.95066  1.0000
  H   H36       1.0  0.99223  0.41654  0.81084  1.0000
  H   H37       1.0  0.93857  0.40613  0.79637  1.0000
  H   H38       1.0  0.98289  0.61296  0.78708  1.0000
  H   H39       1.0  0.03345  0.65175  0.87576  1.0000
  H   H40       1.0  0.00946  0.60295  0.02445  1.0000
  H   H41       1.0  0.91791  0.42372  0.02104  1.0000
  H   H42       1.0  0.10175  0.59960  0.85450  1.0000
  H   H43       1.0  0.82287  0.47466  0.68658  1.0000
  H   H44       1.0  0.75075  0.42223  0.71649  1.0000
  H   H45       1.0  0.80921  0.36751  0.26454  1.0000
  H   H46       1.0  0.88142  0.41502  0.22345  1.0000
  H   H47       1.0  0.16879  0.53020  0.82685  1.0000
  H   H48       1.0  0.24449  0.57269  0.82753  1.0000
  H   H49       1.0  0.24378  0.66776  0.00417  1.0000
  H   H50       1.0  0.16824  0.62646  0.99461  1.0000
  H   H51       1.0  0.41779  0.71394  0.96458  1.0000
  H   H52       1.0  0.75756  0.32901  0.85236  1.0000
  H   H53       1.0  0.72435  0.27454  0.89626  1.0000
  H   H54       1.0  0.79066  0.30768  0.21689  1.0000
  H   H55       1.0  0.78650  0.24179  0.32770  1.0000
  H   H56       1.0  0.78866  0.22448  0.02758  1.0000
  H   H57       1.0  0.80163  0.14312  0.47607  1.0000
  H   H58       1.0  0.76654  0.15098  0.25407  1.0000
  H   H59       1.0  0.77046  0.17480  0.40768  1.0000
  H   H60       1.0  0.88944  0.25041  0.41360  1.0000
  H   H61       1.0  0.86971  0.20358  0.57521  1.0000
  H   H62       1.0  0.84937  0.24521  0.49013  1.0000
  H   H63       1.0  0.86097  0.16624  0.35241  1.0000
  H   H64       1.0  0.87351  0.21381  0.18306  1.0000
  H   H65       1.0  0.82361  0.17085  0.13598  1.0000
  H   H66       1.0  0.85926  0.26964  0.92782  1.0000
  H   H67       1.0  0.90007  0.28368  0.12957  1.0000
  H   H68       1.0  0.88097  0.32302  0.94985  1.0000
  C   C76       1.0  0.46487  0.50524  0.59539  1.0000
  C   C77       1.0  0.44838  0.46184  0.59239  1.0000
  C   C78       1.0  0.47409  0.44452  0.58779  1.0000
  C   C79       1.0  0.51629  0.46966  0.57874  1.0000
  C   C80       1.0  0.53283  0.51343  0.58076  1.0000
  C   C81       1.0  0.50744  0.53052  0.59019  1.0000
  O   O8        1.0  0.57416  0.53671  0.57085  1.0000
  C   C82       1.0  0.58996  0.58154  0.55878  1.0000
  O   O9        1.0  0.40540  0.43693  0.58299  1.0000
  C   C83       1.0  0.39875  0.41288  0.75634  1.0000
  C   C84       1.0  0.54207  0.45214  0.56129  1.0000
  C   C85       1.0  0.43743  0.52411  0.59153  1.0000
  N   N9        1.0  0.45118  0.56425  0.58568  1.0000
  N   N10       1.0  0.52757  0.41251  0.55661  1.0000
  C   C86       1.0  0.62822  0.33995  0.50162  1.0000
  C   C87       1.0  0.33516  0.63932  0.48047  1.0000
  C   C88       1.0  0.67093  0.36276  0.49892  1.0000
  C   C89       1.0  0.28070  0.68055  0.41329  1.0000
  C   C90       1.0  0.45359  0.94889  0.43878  1.0000
  C   C91       1.0  0.49638  0.97413  0.43166  1.0000
  C   C92       1.0  0.51277  0.01743  0.42505  1.0000
  C   C93       1.0  0.48793  0.03661  0.42799  1.0000
  C   C94       1.0  0.44527  0.01132  0.43616  1.0000
  C   C95       1.0  0.42878  0.96806  0.44194  1.0000
  O   O10       1.0  0.42225  0.03181  0.43697  1.0000
  C   C96       1.0  0.38117  0.00514  0.46728  1.0000
  O   O11       1.0  0.51879  0.95340  0.42897  1.0000
  C   C97       1.0  0.56066  0.97917  0.40531  1.0000
  C   C98       1.0  0.50673  0.08183  0.42768  1.0000
  C   C99       1.0  0.43520  0.90390  0.43979  1.0000
  N   N11       1.0  0.39433  0.88241  0.41423  1.0000
  N   N12       1.0  0.54723  0.10289  0.44708  1.0000
  C   C100      1.0  0.37825  0.83924  0.41464  1.0000
  C   C101      1.0  0.56566  0.14619  0.44996  1.0000
  C   C102      1.0  0.59516  0.15712  0.61077  1.0000
  C   C103      1.0  0.61701  0.19967  0.61812  1.0000
  C   C104      1.0  0.61086  0.23289  0.46573  1.0000
  C   C105      1.0  0.58083  0.22178  0.30586  1.0000
  C   C106      1.0  0.55842  0.17902  0.29666  1.0000
  C   C107      1.0  0.33977  0.81253  0.46042  1.0000
  C   C108      1.0  0.32270  0.76902  0.46941  1.0000
  C   C109      1.0  0.34264  0.75053  0.42886  1.0000
  C   C110      1.0  0.38038  0.77780  0.37757  1.0000
  C   C111      1.0  0.39786  0.82122  0.36980  1.0000
  C   C112      1.0  0.63394  0.27833  0.47855  1.0000
  C   C113      1.0  0.32471  0.70442  0.43688  1.0000
  C   C114      1.0  0.61044  0.29728  0.49125  1.0000
  C   C115      1.0  0.29117  0.61608  0.46213  1.0000
  C   C116      1.0  0.01809  0.52806  0.40248  1.0000
  C   C117      1.0  0.99187  0.54569  0.40888  1.0000
  C   C118      1.0  0.95168  0.51919  0.43380  1.0000
  C   C119      1.0  0.93609  0.47501  0.44986  1.0000
  C   C120      1.0  0.96209  0.45751  0.44057  1.0000
  C   C121      1.0  0.00245  0.48385  0.41828  1.0000
  O   O12       1.0  0.94469  0.41418  0.45402  1.0000
  C   C122      1.0  0.97073  0.39550  0.44922  1.0000
  O   O13       1.0  0.00880  0.58928  0.38979  1.0000
  C   C123      1.0  0.98381  0.60696  0.40809  1.0000
  C   C124      1.0  0.89346  0.44752  0.46862  1.0000
  C   C125      1.0  0.06074  0.55503  0.38333  1.0000
  N   N13       1.0  0.08629  0.53894  0.39094  1.0000
  N   N14       1.0  0.86585  0.46208  0.45321  1.0000
  C   C126      1.0  0.69584  0.34508  0.48574  1.0000
  C   C127      1.0  0.26337  0.63628  0.42822  1.0000
  C   C128      1.0  0.67724  0.30161  0.47610  1.0000
  C   C129      1.0  0.35143  0.68323  0.46960  1.0000
  C   C130      1.0  0.69916  0.28121  0.43703  1.0000
  C   C131      1.0  0.70932  0.24173  0.57935  1.0000
  N   N15       1.0  0.68745  0.20292  0.51186  1.0000
  C   C132      1.0  0.71657  0.18040  0.56943  1.0000
  N   N16       1.0  0.75878  0.21135  0.64268  1.0000
  C   C133      1.0  0.75640  0.24674  0.65053  1.0000
  C   C134      1.0  0.70233  0.13584  0.70190  1.0000
  C   C135      1.0  0.70010  0.14132  0.86739  1.0000
  C   C136      1.0  0.73225  0.11153  0.75900  1.0000
  C   C137      1.0  0.65754  0.10975  0.59735  1.0000
  C   C138      1.0  0.79969  0.20559  0.72167  1.0000
  O   O14       1.0  0.78785  0.27608  0.71263  1.0000
  H   H69       1.0  0.46140  0.41113  0.58597  1.0000
  H   H70       1.0  0.51878  0.56388  0.58935  1.0000
  H   H71       1.0  0.59166  0.58680  0.68111  1.0000
  H   H72       1.0  0.56954  0.59710  0.44018  1.0000
  H   H73       1.0  0.62236  0.59453  0.54625  1.0000
  H   H74       1.0  0.41703  0.39145  0.82623  1.0000
  H   H75       1.0  0.36426  0.39390  0.73169  1.0000
  H   H76       1.0  0.40849  0.43421  0.84079  1.0000
  H   H77       1.0  0.57389  0.47459  0.54749  1.0000
  H   H78       1.0  0.40388  0.50294  0.58364  1.0000
  H   H79       1.0  0.68565  0.39604  0.50459  1.0000
  H   H80       1.0  0.25931  0.69695  0.37874  1.0000
  H   H81       1.0  0.54503  0.03814  0.41583  1.0000
  H   H82       1.0  0.39641  0.94730  0.44913  1.0000
  H   H83       1.0  0.38432  0.98020  0.59350  1.0000
  H   H84       1.0  0.35846  0.98990  0.35577  1.0000
  H   H85       1.0  0.36935  0.02650  0.47591  1.0000
  H   H86       1.0  0.58278  0.99374  0.51900  1.0000
  H   H87       1.0  0.55897  0.00430  0.27966  1.0000
  H   H88       1.0  0.57206  0.95727  0.39848  1.0000
  H   H89       1.0  0.48533  0.09639  0.41542  1.0000
  H   H90       1.0  0.45779  0.88938  0.46480  1.0000
  H   H91       1.0  0.60022  0.13169  0.73010  1.0000
  H   H92       1.0  0.63959  0.20745  0.74415  1.0000
  H   H93       1.0  0.57483  0.24702  0.18694  1.0000
  H   H94       1.0  0.53585  0.17090  0.17095  1.0000
  H   H95       1.0  0.32480  0.82660  0.49504  1.0000
  H   H96       1.0  0.29411  0.74874  0.51368  1.0000
  H   H97       1.0  0.39525  0.76502  0.33597  1.0000
  H   H98       1.0  0.42584  0.84166  0.32137  1.0000
  H   H99       1.0  0.57755  0.27767  0.49452  1.0000
  H   H100      1.0  0.27850  0.58191  0.47321  1.0000
  H   H101      1.0  0.93061  0.53125  0.43997  1.0000
  H   H102      1.0  0.02343  0.47181  0.41118  1.0000
  H   H103      1.0  0.97763  0.40824  0.31958  1.0000
  H   H104      1.0  0.95148  0.36123  0.46714  1.0000
  H   H105      1.0  0.00101  0.40060  0.55936  1.0000
  H   H106      1.0  0.00343  0.64097  0.39885  1.0000
  H   H107      1.0  0.97744  0.59181  0.53922  1.0000
  H   H108      1.0  0.95321  0.60323  0.29989  1.0000
  H   H109      1.0  0.88517  0.41335  0.48958  1.0000
  H   H110      1.0  0.07005  0.58936  0.36462  1.0000
  H   H111      1.0  0.38583  0.70069  0.49314  1.0000
  H   H112      1.0  0.72819  0.30560  0.40102  1.0000
  H   H113      1.0  0.67719  0.27021  0.31489  1.0000
  H   H114      1.0  0.70029  0.23583  0.69825  1.0000
  H   H115      1.0  0.67473  0.20977  0.37550  1.0000
  H   H116      1.0  0.71674  0.17466  0.45157  1.0000
  H   H117      1.0  0.68879  0.11012  0.95929  1.0000
  H   H118      1.0  0.67782  0.15742  0.82794  1.0000
  H   H119      1.0  0.73175  0.16038  0.94251  1.0000
  H   H120      1.0  0.73794  0.11126  0.64231  1.0000
  H   H121      1.0  0.71706  0.07806  0.82586  1.0000
  H   H122      1.0  0.76349  0.12462  0.85367  1.0000
  H   H123      1.0  0.64479  0.07829  0.68466  1.0000
  H   H124      1.0  0.65893  0.10444  0.48150  1.0000
  H   H125      1.0  0.63493  0.12600  0.54749  1.0000
  H   H126      1.0  0.82493  0.23736  0.70327  1.0000
  H   H127      1.0  0.80084  0.18589  0.65654  1.0000
  H   H128      1.0  0.80593  0.19072  0.86643  1.0000
  C   C139      1.0  0.38053  0.55836  0.66620  1.0000
  C   C140      1.0  0.41250  0.57325  0.58485  1.0000
  C  Sn1       1.0  0.42202  0.61371  0.46656  1.0000
  C  Sn2       1.0  0.39907  0.63967  0.42932  1.0000
  C   C141      1.0  0.36717  0.62449  0.51148  1.0000
  C   C142      1.0  0.35789  0.58395  0.62959  1.0000
  H   H129      1.0  0.37336  0.52700  0.75766  1.0000
  O  Te1       1.0  0.45405  0.62809  0.38640  1.0000
  O  Te2       1.0  0.40795  0.68024  0.31168  1.0000
  H   H130      1.0  0.33315  0.57244  0.69264  1.0000
  Mg  Mg1       1.0  0.45445  0.68568  0.23558  1.0000
  C   C143      1.0  0.35463  0.79159  0.95594  1.0000
  C   C144      1.0  0.36828  0.76833  0.91064  1.0000
  C  Sn3       1.0  0.40573  0.78832  0.85845  1.0000
  C  Sn4       1.0  0.42990  0.83241  0.85167  1.0000
  C   C145      1.0  0.41599  0.85539  0.89738  1.0000
  C   C146      1.0  0.37846  0.83507  0.94936  1.0000
  H   H131      1.0  0.32560  0.77587  0.99626  1.0000
  O  Te3       1.0  0.41890  0.76461  0.81356  1.0000
  O  Te4       1.0  0.46746  0.85318  0.80003  1.0000
  H   H132      1.0  0.36791  0.85308  0.98455  1.0000
  Mg  Mg2       1.0  0.47226  0.80722  0.75140  1.0000
  C   C147      1.0  0.63861  0.42772  0.06975  1.0000
  C   C148      1.0  0.59441  0.41128  0.04517  1.0000
  C  Sn5       1.0  0.56897  0.37090  0.01031  1.0000
  C  Sn6       1.0  0.58824  0.34661  0.00000  1.0000
  C   C149      1.0  0.63249  0.36333  0.02492  1.0000
  C   C150      1.0  0.65764  0.40377  0.05967  1.0000
  H   H133      1.0  0.65808  0.45900  0.09674  1.0000
  O  Te5       1.0  0.59513  0.29655  0.98602  1.0000
  O  Te6       1.0  0.63384  0.24775  0.96540  1.0000
  H   H134      1.0  0.69187  0.41648  0.07882  1.0000
  Mg  Mg3       1.0  0.57504  0.23982  0.94190  1.0000
  C   C151      1.0  0.62272  0.40536  0.59102  1.0000
  C   C152      1.0  0.60862  0.36780  0.53987  1.0000
  C  Sn7       1.0  0.56470  0.34473  0.47872  1.0000
  C  Sn8       1.0  0.53440  0.35964  0.46869  1.0000
  C   C153      1.0  0.54883  0.39728  0.52005  1.0000
  C   C154      1.0  0.59286  0.42010  0.58111  1.0000
  H   H135      1.0  0.65678  0.42303  0.63817  1.0000
  O  Te7       1.0  0.55117  0.30725  0.42821  1.0000
  O  Te8       1.0  0.49032  0.33723  0.40799  1.0000
  H   H136      1.0  0.60376  0.44920  0.62059  1.0000
  Mg  Mg4       1.0  0.48770  0.28789  0.35438  1.0000
  C   C155      1.0  0.78690  0.36277  0.57718  1.0000
  C   C156      1.0  0.74862  0.37049  0.50308  1.0000
  C  Sn9       1.0  0.74832  0.41121  0.40128  1.0000
  C  Sn10      1.0  0.78711  0.44476  0.37335  1.0000
  C   C157      1.0  0.82523  0.43670  0.44795  1.0000
  C   C158      1.0  0.82517  0.39583  0.54964  1.0000
  H   H137      1.0  0.78685  0.33114  0.65578  1.0000
  O  Te9       1.0  0.70980  0.41838  0.32827  1.0000
  O  Te10      1.0  0.78773  0.48576  0.27211  1.0000
  H   H138      1.0  0.85481  0.38986  0.60690  1.0000
  Mg  Mg5       1.0  0.72703  0.47969  0.20031  1.0000
  C   C159      1.0  0.18547  0.56243  0.35813  1.0000
  C   C160      1.0  0.21173  0.60314  0.38843  1.0000
  C  Sn11      1.0  0.19646  0.62504  0.43325  1.0000
  C  Sn12      1.0  0.15411  0.60573  0.44797  1.0000
  C   C161      1.0  0.12811  0.56498  0.41752  1.0000
  C   C162      1.0  0.14370  0.54336  0.37268  1.0000
  H   H139      1.0  0.19754  0.54570  0.32353  1.0000
  O  Te11      1.0  0.22311  0.66569  0.46302  1.0000
  O  Te12      1.0  0.13805  0.62689  0.49265  1.0000
  H   H140      1.0  0.12337  0.51183  0.34934  1.0000
  Mg  Mg6       1.0  0.18665  0.68174  0.52047  1.0000
