data_image0
_chemical_formula_structural       C6OCOC3N2C16OCOC3N2C16OCOC3N2C16OCNC4OC4O2C4NCOC4OCOCOCOCOH86C6OCOC3N2C10OCOC3N2C16OCOC3N2C10OCNC4OC4O2C4NCOC4OCOCOCOCOH78SnCSn2CSnTe4Mg2SnCSn2CSnTe4Mg2SnCSn2CSnTe4Mg2SnCSn2CSnTe4Mg2SnCSn2CSnTe4Mg2SnCSn2CSnTe4Mg2
_chemical_formula_sum              "C176 O32 N16 H164 Sn24 Te24 Mg12"
_cell_length_a       37.6532
_cell_length_b       35.8216
_cell_length_c       11.3063
_cell_angle_alpha    88.3131
_cell_angle_beta     59.8922
_cell_angle_gamma    119.749

_symmetry_space_group_name_H-M    'P1'
_space_group_IT_number       1

loop_
  _space_group_symop_operation_xyz
  'x, y, z'

loop_
  _atom_site_type_symbol
  _atom_site_label
  _atom_site_symmetry_multiplicity
  _atom_site_fract_x
  _atom_site_fract_y
  _atom_site_fract_z
  _atom_site_occupancy
  C   C1        1.0  0.48781  0.54087  0.04695  1.0000
  C   C2        1.0  0.48076  0.50081  0.01381  1.0000
  C   C3        1.0  0.50620  0.48419  0.02174  1.0000
  C   C4        1.0  0.53936  0.50643  0.06113  1.0000
  C   C5        1.0  0.54683  0.54675  0.09295  1.0000
  C   C6        1.0  0.52093  0.56315  0.08637  1.0000
  O   O1        1.0  0.57961  0.56678  0.13026  1.0000
  C   C7        1.0  0.58958  0.60865  0.15739  1.0000
  O   O2        1.0  0.44885  0.48125  0.97292  1.0000
  C   C8        1.0  0.44374  0.44246  0.93079  1.0000
  C   C9        1.0  0.56547  0.48822  0.06867  1.0000
  C   C10       1.0  0.46227  0.55905  0.03473  1.0000
  N   N1        1.0  0.46873  0.59632  0.05896  1.0000
  N   N2        1.0  0.55434  0.44863  0.05617  1.0000
  C   C11       1.0  0.57885  0.43073  0.06622  1.0000
  C   C12       1.0  0.57753  0.39674  0.00508  1.0000
  C   C13       1.0  0.60105  0.37699  0.00795  1.0000
  C   C14       1.0  0.62592  0.38943  0.07576  1.0000
  C   C15       1.0  0.62627  0.42279  0.13942  1.0000
  C   C16       1.0  0.60316  0.44292  0.13581  1.0000
  C   C17       1.0  0.65051  0.36818  0.08022  1.0000
  C   C18       1.0  0.37217  0.66672  0.97563  1.0000
  C   C19       1.0  0.69293  0.39237  0.08250  1.0000
  C   C20       1.0  0.32776  0.70367  0.92401  1.0000
  C   C21       1.0  0.50009  0.98986  0.88881  1.0000
  C   C22       1.0  0.55011  0.01968  0.84804  1.0000
  C   C23       1.0  0.56344  0.05773  0.89067  1.0000
  C   C24       1.0  0.52812  0.06725  0.97198  1.0000
  C   C25       1.0  0.47870  0.03851  0.00711  1.0000
  C   C26       1.0  0.46530  0.00027  0.96598  1.0000
  O   O3        1.0  0.44606  0.05006  0.08511  1.0000
  C   C27       1.0  0.39521  0.01952  0.12746  1.0000
  O   O4        1.0  0.58262  0.00808  0.76994  1.0000
  C   C28       1.0  0.63020  0.03330  0.75073  1.0000
  C   C29       1.0  0.54353  0.10778  0.01348  1.0000
  C   C30       1.0  0.48295  0.94592  0.86632  1.0000
  N   N3        1.0  0.43528  0.91439  0.92999  1.0000
  N   N4        1.0  0.58163  0.12678  0.01961  1.0000
  C   C31       1.0  0.41938  0.87008  0.92543  1.0000
  C   C32       1.0  0.39169  0.83419  0.05785  1.0000
  C   C33       1.0  0.37539  0.78953  0.06149  1.0000
  C   C34       1.0  0.38413  0.77896  0.93534  1.0000
  C   C35       1.0  0.41069  0.81469  0.80400  1.0000
  C   C36       1.0  0.42869  0.85998  0.79830  1.0000
  C   C37       1.0  0.65797  0.30370  0.07299  1.0000
  C   C38       1.0  0.36568  0.73078  0.94361  1.0000
  C   C39       1.0  0.63372  0.32369  0.07631  1.0000
  C   C40       1.0  0.33521  0.64109  0.95153  1.0000
  C   C41       1.0  0.06585  0.53934  0.96534  1.0000
  C   C42       1.0  0.03308  0.55328  0.02475  1.0000
  C   C43       1.0  0.99071  0.53250  0.02399  1.0000
  C   C44       1.0  0.97988  0.49819  0.96327  1.0000
  C   C45       1.0  0.01318  0.48484  0.90118  1.0000
  C   C46       1.0  0.05511  0.50510  0.90435  1.0000
  O   O5        1.0  0.00110  0.45190  0.84136  1.0000
  C   C47       1.0  0.03339  0.43701  0.78035  1.0000
  O   O6        1.0  0.04617  0.58748  0.07992  1.0000
  C   C48       1.0  0.01399  0.60239  0.13957  1.0000
  C   C49       1.0  0.93432  0.47539  0.96847  1.0000
  C   C50       1.0  0.11017  0.56123  0.96630  1.0000
  N   N5        1.0  0.14266  0.55144  0.90910  1.0000
  N   N6        1.0  0.90223  0.48562  0.02807  1.0000
  C   C51       1.0  0.18312  0.57467  0.92058  1.0000
  C   C52       1.0  0.85883  0.46070  0.03060  1.0000
  C   C53       1.0  0.81285  0.44996  0.15453  1.0000
  C   C54       1.0  0.76731  0.42114  0.17149  1.0000
  C   C55       1.0  0.76677  0.40386  0.06201  1.0000
  C   C56       1.0  0.81340  0.41795  0.93289  1.0000
  C   C57       1.0  0.85883  0.44572  0.91668  1.0000
  C   C58       1.0  0.23228  0.59137  0.79812  1.0000
  C   C59       1.0  0.27424  0.61847  0.79977  1.0000
  C   C60       1.0  0.26800  0.62828  0.92531  1.0000
  C   C61       1.0  0.21846  0.60862  0.05090  1.0000
  C   C62       1.0  0.17643  0.58206  0.04969  1.0000
  C   C63       1.0  0.71917  0.37423  0.07502  1.0000
  C   C64       1.0  0.31159  0.65822  0.93114  1.0000
  C   C65       1.0  0.70147  0.32941  0.07058  1.0000
  C   C66       1.0  0.38576  0.71113  0.97425  1.0000
  O   O7        1.0  0.72536  0.31066  0.07720  1.0000
  C   C67       1.0  0.72988  0.24887  0.99262  1.0000
  N   N7        1.0  0.75259  0.24233  0.05865  1.0000
  C   C68       1.0  0.79371  0.28618  0.03934  1.0000
  C   C69       1.0  0.80563  0.32127  0.91807  1.0000
  C   C70       1.0  0.75322  0.30064  0.95238  1.0000
  C   C71       1.0  0.73328  0.19909  0.13671  1.0000
  O   O8        1.0  0.75805  0.20182  0.19593  1.0000
  C   C72       1.0  0.75133  0.15936  0.25630  1.0000
  C   C73       1.0  0.76648  0.13951  0.13694  1.0000
  C   C74       1.0  0.78910  0.17840  0.29400  1.0000
  C   C75       1.0  0.69677  0.12412  0.39300  1.0000
  O   O9        1.0  0.69841  0.16328  0.14976  1.0000
  O   O10       1.0  0.30759  0.72188  0.88973  1.0000
  C   C76       1.0  0.28195  0.77073  0.00116  1.0000
  C   C77       1.0  0.26637  0.72142  0.01079  1.0000
  C   C78       1.0  0.22205  0.69918  0.99626  1.0000
  C   C79       1.0  0.21380  0.73608  0.97467  1.0000
  N   N8        1.0  0.26054  0.77921  0.93469  1.0000
  C   C80       1.0  0.28028  0.82277  0.85647  1.0000
  O   O11       1.0  0.25218  0.82018  0.81046  1.0000
  C   C81       1.0  0.26358  0.86318  0.73353  1.0000
  C   C82       1.0  0.22255  0.84380  0.70840  1.0000
  C   C83       1.0  0.31678  0.89186  0.58774  1.0000
  C   C84       1.0  0.25583  0.88970  0.83652  1.0000
  O   O12       1.0  0.31819  0.85820  0.83251  1.0000
  C   C85       1.0  0.84074  0.28946  0.99615  1.0000
  O   O13       1.0  0.85415  0.27120  0.89194  1.0000
  C   C86       1.0  0.89973  0.27486  0.84312  1.0000
  O   O14       1.0  0.86515  0.30848  0.04357  1.0000
  C   C87       1.0  0.16875  0.72834  0.11815  1.0000
  O   O15       1.0  0.14099  0.73700  0.09453  1.0000
  C   C88       1.0  0.09925  0.73282  0.22525  1.0000
  O   O16       1.0  0.15917  0.71711  0.23923  1.0000
  H   H1        1.0  0.50192  0.45375  0.99729  1.0000
  H   H2        1.0  0.52521  0.59356  0.11111  1.0000
  H   H3        1.0  0.60682  0.63623  0.05896  1.0000
  H   H4        1.0  0.61650  0.61850  0.18398  1.0000
  H   H5        1.0  0.55472  0.60279  0.25117  1.0000
  H   H6        1.0  0.42568  0.41276  0.02447  1.0000
  H   H7        1.0  0.48097  0.45174  0.83942  1.0000
  H   H8        1.0  0.41969  0.43387  0.89391  1.0000
  H   H9        1.0  0.59485  0.50982  0.08389  1.0000
  H   H10       1.0  0.43833  0.54006  0.99942  1.0000
  H   H11       1.0  0.55800  0.38674  0.95381  1.0000
  H   H12       1.0  0.60072  0.35197  0.95526  1.0000
  H   H13       1.0  0.64334  0.43177  0.19770  1.0000
  H   H14       1.0  0.60239  0.46699  0.19176  1.0000
  H   H15       1.0  0.70802  0.42734  0.08215  1.0000
  H   H16       1.0  0.60152  0.08179  0.86048  1.0000
  H   H17       1.0  0.42727  0.97614  0.99610  1.0000
  H   H18       1.0  0.39512  0.01781  0.03058  1.0000
  H   H19       1.0  0.37554  0.03436  0.18739  1.0000
  H   H20       1.0  0.37575  0.98438  0.19969  1.0000
  H   H21       1.0  0.64945  0.01800  0.69204  1.0000
  H   H22       1.0  0.62400  0.02928  0.85763  1.0000
  H   H23       1.0  0.65346  0.07028  0.68608  1.0000
  H   H24       1.0  0.52153  0.12173  0.03665  1.0000
  H   H25       1.0  0.51184  0.93991  0.80329  1.0000
  H   H26       1.0  0.38398  0.84245  0.15589  1.0000
  H   H27       1.0  0.35442  0.76206  0.16419  1.0000
  H   H28       1.0  0.41728  0.80704  0.70555  1.0000
  H   H29       1.0  0.44916  0.88759  0.69683  1.0000
  H   H30       1.0  0.60020  0.30311  0.07832  1.0000
  H   H31       1.0  0.32382  0.60675  0.94996  1.0000
  H   H32       1.0  0.96434  0.54166  0.07077  1.0000
  H   H33       1.0  0.08133  0.49576  0.85815  1.0000
  H   H34       1.0  0.03454  0.42218  0.86382  1.0000
  H   H35       1.0  0.07209  0.46555  0.68534  1.0000
  H   H36       1.0  0.01592  0.41007  0.74385  1.0000
  H   H37       1.0  0.03228  0.63063  0.17108  1.0000
  H   H38       1.0  0.97547  0.57429  0.23680  1.0000
  H   H39       1.0  0.01156  0.61546  0.05657  1.0000
  H   H40       1.0  0.92756  0.44775  0.92423  1.0000
  H   H41       1.0  0.11545  0.58766  0.01559  1.0000
  H   H42       1.0  0.81335  0.46280  0.23998  1.0000
  H   H43       1.0  0.73169  0.41117  0.27157  1.0000
  H   H44       1.0  0.81384  0.40756  0.84311  1.0000
  H   H45       1.0  0.89449  0.45661  0.81481  1.0000
  H   H46       1.0  0.23722  0.58421  0.70032  1.0000
  H   H47       1.0  0.31222  0.63277  0.70193  1.0000
  H   H48       1.0  0.21310  0.61441  0.15064  1.0000
  H   H49       1.0  0.13825  0.56638  0.14891  1.0000
  H   H50       1.0  0.41298  0.73174  0.99679  1.0000
  H   H51       1.0  0.68839  0.22662  0.07015  1.0000
  H   H52       1.0  0.74076  0.24027  0.89318  1.0000
  H   H53       1.0  0.78066  0.29333  0.14128  1.0000
  H   H54       1.0  0.82999  0.32139  0.80977  1.0000
  H   H55       1.0  0.82394  0.35621  0.91904  1.0000
  H   H56       1.0  0.75548  0.31457  0.85919  1.0000
  H   H57       1.0  0.80444  0.16634  0.03606  1.0000
  H   H58       1.0  0.73916  0.12491  0.11082  1.0000
  H   H59       1.0  0.76758  0.11206  0.17683  1.0000
  H   H60       1.0  0.82802  0.20438  0.19511  1.0000
  H   H61       1.0  0.78765  0.15005  0.34122  1.0000
  H   H62       1.0  0.78015  0.19472  0.37433  1.0000
  H   H63       1.0  0.69297  0.09345  0.43596  1.0000
  H   H64       1.0  0.66974  0.11369  0.36672  1.0000
  H   H65       1.0  0.68721  0.13819  0.47982  1.0000
  H   H66       1.0  0.32319  0.79677  0.93347  1.0000
  H   H67       1.0  0.26542  0.77223  0.11173  1.0000
  H   H68       1.0  0.25519  0.70206  0.11450  1.0000
  H   H69       1.0  0.18729  0.66768  0.09169  1.0000
  H   H70       1.0  0.23368  0.68974  0.89907  1.0000
  H   H71       1.0  0.20892  0.73827  0.88772  1.0000
  H   H72       1.0  0.22737  0.82414  0.63649  1.0000
  H   H73       1.0  0.22517  0.87220  0.65594  1.0000
  H   H74       1.0  0.18468  0.82089  0.81390  1.0000
  H   H75       1.0  0.32348  0.92251  0.53059  1.0000
  H   H76       1.0  0.32034  0.87205  0.51575  1.0000
  H   H77       1.0  0.34608  0.90311  0.60496  1.0000
  H   H78       1.0  0.21700  0.86772  0.93900  1.0000
  H   H79       1.0  0.26144  0.92011  0.78272  1.0000
  H   H80       1.0  0.28276  0.90121  0.86367  1.0000
  H   H81       1.0  0.90599  0.25985  0.75813  1.0000
  H   H82       1.0  0.89410  0.25548  0.93539  1.0000
  H   H83       1.0  0.93206  0.31122  0.79862  1.0000
  H   H84       1.0  0.07159  0.69722  0.30611  1.0000
  H   H85       1.0  0.08210  0.74212  0.18722  1.0000
  H   H86       1.0  0.11332  0.75637  0.27562  1.0000
  C   C89       1.0  0.47083  0.51158  0.48419  1.0000
  C   C90       1.0  0.46261  0.47014  0.46062  1.0000
  C   C91       1.0  0.48568  0.45276  0.48188  1.0000
  C   C92       1.0  0.51629  0.47502  0.52926  1.0000
  C   C93       1.0  0.52343  0.51579  0.55635  1.0000
  C   C94       1.0  0.50094  0.53346  0.53311  1.0000
  O   O17       1.0  0.55198  0.53488  0.60798  1.0000
  C   C95       1.0  0.55532  0.57359  0.64814  1.0000
  O   O18       1.0  0.43232  0.45020  0.41517  1.0000
  C   C96       1.0  0.42359  0.40833  0.39026  1.0000
  C   C97       1.0  0.54067  0.45677  0.54908  1.0000
  C   C98       1.0  0.44910  0.53175  0.45681  1.0000
  N   N9        1.0  0.46365  0.57335  0.45328  1.0000
  N   N10       1.0  0.52986  0.41680  0.54213  1.0000
  C   C99       1.0  0.63426  0.34849  0.57571  1.0000
  C   C100      1.0  0.36832  0.65049  0.40353  1.0000
  C   C101      1.0  0.67475  0.37418  0.58573  1.0000
  C   C102      1.0  0.31717  0.68729  0.40178  1.0000
  C   C103      1.0  0.48976  0.95723  0.47363  1.0000
  C   C104      1.0  0.54032  0.98906  0.42791  1.0000
  C   C105      1.0  0.55265  0.02696  0.47096  1.0000
  C   C106      1.0  0.51586  0.03416  0.56076  1.0000
  C   C107      1.0  0.46493  0.00139  0.61144  1.0000
  C   C108      1.0  0.45271  0.96379  0.56683  1.0000
  O   O19       1.0  0.43025  0.00954  0.70155  1.0000
  C   C109      1.0  0.38071  0.98000  0.73397  1.0000
  O   O20       1.0  0.57487  0.98033  0.34121  1.0000
  C   C110      1.0  0.62562  0.01232  0.29817  1.0000
  C   C111      1.0  0.53125  0.07685  0.59006  1.0000
  C   C112      1.0  0.47496  0.91673  0.43181  1.0000
  N   N11       1.0  0.42816  0.88710  0.48072  1.0000
  N   N12       1.0  0.57882  0.10949  0.52532  1.0000
  C   C113      1.0  0.59372  0.15202  0.54265  1.0000
  C   C114      1.0  0.63357  0.19179  0.41315  1.0000
  C   C115      1.0  0.65062  0.23570  0.41843  1.0000
  C   C116      1.0  0.62988  0.24114  0.55423  1.0000
  C   C117      1.0  0.59033  0.20148  0.68381  1.0000
  C   C118      1.0  0.57195  0.15724  0.67871  1.0000
  C   C119      1.0  0.64809  0.28809  0.56014  1.0000
  C   C120      1.0  0.35989  0.71417  0.40227  1.0000
  C   C121      1.0  0.62177  0.30553  0.56335  1.0000
  C   C122      1.0  0.32535  0.62433  0.40470  1.0000
  C   C123      1.0  0.04485  0.52541  0.48860  1.0000
  C   C124      1.0  0.01976  0.54682  0.51403  1.0000
  C   C125      1.0  0.97589  0.52526  0.52068  1.0000
  C   C126      1.0  0.95587  0.48254  0.50282  1.0000
  C   C127      1.0  0.98043  0.46071  0.48006  1.0000
  C   C128      1.0  0.02452  0.48244  0.47228  1.0000
  O   O21       1.0  0.95741  0.41823  0.46996  1.0000
  C   C129      1.0  0.97556  0.39144  0.47248  1.0000
  O   O22       1.0  0.04170  0.58862  0.52912  1.0000
  C   C130      1.0  0.01491  0.60903  0.56745  1.0000
  C   C131      1.0  0.90954  0.45952  0.51223  1.0000
  C   C132      1.0  0.09111  0.54808  0.47921  1.0000
  N   N13       1.0  0.11663  0.53097  0.45005  1.0000
  N   N14       1.0  0.88186  0.47454  0.54908  1.0000
  C   C133      1.0  0.83871  0.44843  0.55053  1.0000
  C   C134      1.0  0.79173  0.43715  0.67027  1.0000
  C   C135      1.0  0.74748  0.40747  0.68143  1.0000
  C   C136      1.0  0.74916  0.38944  0.57162  1.0000
  C   C137      1.0  0.79670  0.40347  0.44759  1.0000
  C   C138      1.0  0.84096  0.43248  0.43620  1.0000
  C   C139      1.0  0.70319  0.35868  0.57800  1.0000
  C   C140      1.0  0.29875  0.64141  0.40737  1.0000
  C   C141      1.0  0.68950  0.31511  0.56621  1.0000
  C   C142      1.0  0.38461  0.69526  0.40352  1.0000
  O   O23       1.0  0.71473  0.29885  0.57684  1.0000
  C   C143      1.0  0.72007  0.23636  0.50371  1.0000
  N   N15       1.0  0.74307  0.23203  0.57200  1.0000
  C   C144      1.0  0.78389  0.27690  0.54931  1.0000
  C   C145      1.0  0.79534  0.31021  0.42445  1.0000
  C   C146      1.0  0.74302  0.28795  0.45678  1.0000
  C   C147      1.0  0.72338  0.18978  0.65817  1.0000
  O   O24       1.0  0.74948  0.19463  0.71442  1.0000
  C   C148      1.0  0.74564  0.15377  0.77211  1.0000
  C   C149      1.0  0.75950  0.13320  0.65393  1.0000
  C   C150      1.0  0.78662  0.17585  0.79745  1.0000
  C   C151      1.0  0.69260  0.11867  0.91502  1.0000
  O   O25       1.0  0.68764  0.15308  0.67763  1.0000
  O   O26       1.0  0.29718  0.70688  0.37309  1.0000
  C   C152      1.0  0.28441  0.76538  0.46154  1.0000
  C   C153      1.0  0.26124  0.71370  0.48495  1.0000
  C   C154      1.0  0.21842  0.69647  0.46571  1.0000
  C   C155      1.0  0.21036  0.73429  0.46441  1.0000
  N   N16       1.0  0.26036  0.77590  0.41033  1.0000
  C   C156      1.0  0.27907  0.82053  0.34591  1.0000
  O   O27       1.0  0.24983  0.82052  0.30834  1.0000
  C   C157      1.0  0.26153  0.86499  0.24099  1.0000
  C   C158      1.0  0.22165  0.84846  0.21184  1.0000
  C   C159      1.0  0.31534  0.89625  0.09804  1.0000
  C   C160      1.0  0.25303  0.88851  0.35294  1.0000
  O   O28       1.0  0.31722  0.85465  0.32478  1.0000
  C   C161      1.0  0.83178  0.28209  0.50655  1.0000
  O   O29       1.0  0.84496  0.26205  0.40847  1.0000
  C   C162      1.0  0.89199  0.26817  0.35600  1.0000
  O   O30       1.0  0.85713  0.30438  0.54866  1.0000
  C   C163      1.0  0.17088  0.72665  0.62059  1.0000
  O   O31       1.0  0.13867  0.73496  0.62559  1.0000
  C   C164      1.0  0.10152  0.73000  0.77033  1.0000
  O   O32       1.0  0.16891  0.71548  0.72820  1.0000
  H   H87       1.0  0.48164  0.42198  0.46105  1.0000
  H   H88       1.0  0.50572  0.56470  0.55138  1.0000
  H   H89       1.0  0.51724  0.56419  0.73256  1.0000
  H   H90       1.0  0.57529  0.60337  0.55150  1.0000
  H   H91       1.0  0.57684  0.58216  0.69371  1.0000
  H   H92       1.0  0.40499  0.38096  0.49138  1.0000
  H   H93       1.0  0.45925  0.41423  0.30132  1.0000
  H   H94       1.0  0.39807  0.39803  0.35810  1.0000
  H   H95       1.0  0.56921  0.47903  0.56664  1.0000
  H   H96       1.0  0.42120  0.51078  0.43589  1.0000
  H   H97       1.0  0.68672  0.40828  0.59110  1.0000
  H   H98       1.0  0.59125  0.05309  0.43363  1.0000
  H   H99       1.0  0.41415  0.93758  0.60384  1.0000
  H   H100      1.0  0.36250  0.94353  0.78993  1.0000
  H   H101      1.0  0.38305  0.98400  0.63292  1.0000
  H   H102      1.0  0.35847  0.99118  0.80670  1.0000
  H   H103      1.0  0.64649  0.99854  0.23701  1.0000
  H   H104      1.0  0.62565  0.01431  0.39506  1.0000
  H   H105      1.0  0.64379  0.04717  0.22724  1.0000
  H   H106      1.0  0.50125  0.08099  0.66051  1.0000
  H   H107      1.0  0.50452  0.91178  0.36418  1.0000
  H   H108      1.0  0.64920  0.18674  0.30951  1.0000
  H   H109      1.0  0.68013  0.26595  0.31634  1.0000
  H   H110      1.0  0.57417  0.20551  0.78938  1.0000
  H   H111      1.0  0.54146  0.12662  0.77931  1.0000
  H   H112      1.0  0.58965  0.28402  0.55989  1.0000
  H   H113      1.0  0.31185  0.58954  0.40466  1.0000
  H   H114      1.0  0.95538  0.54024  0.54043  1.0000
  H   H115      1.0  0.04487  0.46733  0.45341  1.0000
  H   H116      1.0  0.97567  0.38755  0.56922  1.0000
  H   H117      1.0  0.01411  0.40728  0.37210  1.0000
  H   H118      1.0  0.94853  0.35759  0.47943  1.0000
  H   H119      1.0  0.03866  0.64150  0.57417  1.0000
  H   H120      1.0  0.97732  0.58644  0.67441  1.0000
  H   H121      1.0  0.01014  0.61613  0.48299  1.0000
  H   H122      1.0  0.89808  0.42736  0.49066  1.0000
  H   H123      1.0  0.10408  0.58120  0.49487  1.0000
  H   H124      1.0  0.79000  0.45017  0.75726  1.0000
  H   H125      1.0  0.71111  0.39740  0.77792  1.0000
  H   H126      1.0  0.79876  0.39219  0.35761  1.0000
  H   H127      1.0  0.87761  0.44375  0.33783  1.0000
  H   H128      1.0  0.41628  0.71584  0.40967  1.0000
  H   H129      1.0  0.67856  0.21400  0.58097  1.0000
  H   H130      1.0  0.73094  0.22651  0.40679  1.0000
  H   H131      1.0  0.77056  0.28504  0.64927  1.0000
  H   H132      1.0  0.82063  0.31036  0.31740  1.0000
  H   H133      1.0  0.81243  0.34536  0.42402  1.0000
  H   H134      1.0  0.74542  0.30039  0.36148  1.0000
  H   H135      1.0  0.73109  0.11785  0.63205  1.0000
  H   H136      1.0  0.76159  0.10625  0.69165  1.0000
  H   H137      1.0  0.79677  0.15998  0.55101  1.0000
  H   H138      1.0  0.82412  0.20172  0.69367  1.0000
  H   H139      1.0  0.78792  0.14921  0.84140  1.0000
  H   H140      1.0  0.77879  0.19299  0.87583  1.0000
  H   H141      1.0  0.69116  0.08999  0.96036  1.0000
  H   H142      1.0  0.66354  0.10479  0.89581  1.0000
  H   H143      1.0  0.68396  0.13462  0.99678  1.0000
  H   H144      1.0  0.32573  0.78778  0.37975  1.0000
  H   H145      1.0  0.27557  0.77079  0.56517  1.0000
  H   H146      1.0  0.24729  0.69460  0.59354  1.0000
  H   H147      1.0  0.18339  0.66282  0.54961  1.0000
  H   H148      1.0  0.23253  0.69309  0.35802  1.0000
  H   H149      1.0  0.19994  0.73759  0.39207  1.0000
  H   H150      1.0  0.22715  0.83052  0.13455  1.0000
  H   H151      1.0  0.22512  0.87818  0.16374  1.0000
  H   H152      1.0  0.18318  0.82457  0.31468  1.0000
  H   H153      1.0  0.32069  0.92717  0.04890  1.0000
  H   H154      1.0  0.32112  0.87901  0.01872  1.0000
  H   H155      1.0  0.34407  0.90691  0.11740  1.0000
  H   H156      1.0  0.21448  0.86502  0.45568  1.0000
  H   H157      1.0  0.25743  0.91936  0.30827  1.0000
  H   H158      1.0  0.28079  0.89909  0.37662  1.0000
  H   H159      1.0  0.89606  0.24913  0.28199  1.0000
  H   H160      1.0  0.88984  0.25388  0.44847  1.0000
  H   H161      1.0  0.92400  0.30503  0.29685  1.0000
  H   H162      1.0  0.12067  0.75220  0.81383  1.0000
  H   H163      1.0  0.07552  0.69391  0.84657  1.0000
  H   H164      1.0  0.08101  0.74039  0.75377  1.0000
  C  Sn1       1.0  0.57613  0.17943  0.19675  1.0000
  C   C165      1.0  0.58676  0.16977  0.06899  1.0000
  C  Sn2       1.0  0.42221  0.08838  0.93052  1.0000
  C  Sn3       1.0  0.45335  0.13415  0.91950  1.0000
  C   C166      1.0  0.64836  0.26033  0.04720  1.0000
  C  Sn4       1.0  0.60726  0.22519  0.18573  1.0000
  O  Te1       1.0  0.53485  0.14373  0.33404  1.0000
  O  Te2       1.0  0.43208  0.07789  0.80436  1.0000
  O  Te3       1.0  0.49465  0.16985  0.78206  1.0000
  O  Te4       1.0  0.59739  0.23566  0.31183  1.0000
  Mg  Mg1       1.0  0.49269  0.13832  0.64230  1.0000
  Mg  Mg2       1.0  0.53681  0.17526  0.47394  1.0000
  C  Sn5       1.0  0.42596  0.83818  0.29004  1.0000
  C   C167      1.0  0.40796  0.84635  0.42101  1.0000
  C  Sn6       1.0  0.37633  0.81039  0.55630  1.0000
  C  Sn7       1.0  0.36243  0.76533  0.56078  1.0000
  C   C168      1.0  0.38043  0.75719  0.42987  1.0000
  C  Sn8       1.0  0.41206  0.79313  0.29452  1.0000
  O  Te5       1.0  0.45754  0.87465  0.15604  1.0000
  O  Te6       1.0  0.35880  0.81939  0.68577  1.0000
  O  Te7       1.0  0.33082  0.72886  0.69494  1.0000
  O  Te8       1.0  0.42959  0.78414  0.16511  1.0000
  Mg  Mg3       1.0  0.31669  0.75838  0.84129  1.0000
  Mg  Mg4       1.0  0.47172  0.84513  0.00954  1.0000
  C  Sn9       1.0  0.17289  0.59456  0.52974  1.0000
  C   C169      1.0  0.16427  0.56963  0.44280  1.0000
  C  Sn10      1.0  0.19872  0.56073  0.34991  1.0000
  C  Sn11      1.0  0.24270  0.57705  0.34384  1.0000
  C   C170      1.0  0.25130  0.60196  0.43076  1.0000
  C  Sn12      1.0  0.21687  0.61088  0.52367  1.0000
  O  Te9       1.0  0.13793  0.60305  0.62182  1.0000
  O  Te10      1.0  0.18929  0.53575  0.26399  1.0000
  O  Te11      1.0  0.27767  0.56854  0.25166  1.0000
  O  Te12      1.0  0.22628  0.63584  0.60957  1.0000
  Mg  Mg5       1.0  0.24811  0.53295  0.15591  1.0000
  Mg  Mg6       1.0  0.16748  0.63863  0.71774  1.0000
  C  Sn13      1.0  0.59465  0.42237  0.60938  1.0000
  C   C171      1.0  0.57075  0.41274  0.54026  1.0000
  C  Sn14      1.0  0.56019  0.37526  0.49419  1.0000
  C  Sn15      1.0  0.57378  0.34679  0.51776  1.0000
  C   C172      1.0  0.59766  0.35642  0.58686  1.0000
  C  Sn16      1.0  0.60824  0.39390  0.63295  1.0000
  O  Te13      1.0  0.60484  0.46002  0.65454  1.0000
  O  Te14      1.0  0.53628  0.36633  0.42529  1.0000
  O  Te15      1.0  0.56357  0.30912  0.47253  1.0000
  O  Te16      1.0  0.63213  0.40283  0.70184  1.0000
  Mg  Mg7       1.0  0.53038  0.31102  0.38364  1.0000
  Mg  Mg8       1.0  0.63802  0.45811  0.74360  1.0000
  C  Sn17      1.0  0.38095  0.56134  0.47185  1.0000
  C   C173      1.0  0.43198  0.58333  0.41478  1.0000
  C  Sn18      1.0  0.46505  0.63152  0.36386  1.0000
  C  Sn19      1.0  0.44673  0.65830  0.37020  1.0000
  C   C174      1.0  0.39573  0.63631  0.42727  1.0000
  C  Sn20      1.0  0.36263  0.58811  0.47820  1.0000
  O  Te17      1.0  0.34856  0.51312  0.52214  1.0000
  O  Te18      1.0  0.51592  0.65273  0.30723  1.0000
  O  Te19      1.0  0.47917  0.70656  0.31985  1.0000
  O  Te20      1.0  0.31179  0.56691  0.53483  1.0000
  Mg  Mg9       1.0  0.54522  0.71942  0.25235  1.0000
  Mg  Mg10      1.0  0.28245  0.50022  0.58980  1.0000
  C  Sn21      1.0  0.39252  0.58247  0.03646  1.0000
  C   C175      1.0  0.43922  0.60660  0.01522  1.0000
  C  Sn22      1.0  0.25868  0.53669  0.99801  1.0000
  C  Sn23      1.0  0.44227  0.67623  0.00221  1.0000
  C   C176      1.0  0.39559  0.65210  0.02346  1.0000
  C  Sn24      1.0  0.37047  0.60546  0.04066  1.0000
  O  Te21      1.0  0.36810  0.53586  0.05343  1.0000
  O  Te22      1.0  0.30534  0.56009  0.97687  1.0000
  O  Te23      1.0  0.26109  0.60632  0.98521  1.0000
  O  Te24      1.0  0.32383  0.58206  0.06181  1.0000
  Mg  Mg11      1.0  0.32392  0.62331  0.95928  1.0000
  Mg  Mg12      1.0  0.30520  0.51884  0.07949  1.0000
