data_image0
_chemical_formula_structural       C4NCHC2NCH3C4NCHC2NCH3C2HNC4H2C4H2C4NCHC2NCH3C4NCHC2NCH3C2HNC4H2C4H2C4NCHC2NCH3C4NCHC2NCH3C2HNC4H2C4H2C4NCHC2NCH3C4NCHC2NCH3C2HNC4H2C4H2CHCHCHCHN4SnCSn2CSnTe4Mg2SnCSn2CSnTe4Mg2SnCSn2CSnTe4Mg2SnCSn2CSnTe4Mg2SnCSn2CSnTe4Mg2SnCSn2CSnTe4Mg2SnCSn2CSnTe4Mg2SnCSn2CSnTe4Mg2SnCSn2CSnTe4Mg2SnCSn2CSnTe4Mg2SnCSn2CSnTe4Mg2SnCSn2CSnTe4Mg2SnCSn2CSnTe4Mg2SnCSn2CSnTe4Mg2SnCSn2CSnTe4Mg2SnCSn2CSnTe4Mg2SnCSn2CSnTe4Mg2SnCSn2CSnTe4Mg2SnCSn2CSnTe4Mg2SnCSn2CSnTe4Mg2SnCSn2CSnTe4Mg2SnCSn2CSnTe4Mg2SnCSn2CSnTe4Mg2SnCSn2CSnTe4Mg2SnCSn2CSnTe4Mg2SnCSn2CSnTe4Mg2SnCSn2CSnTe4Mg2SnCSn2CSnTe4Mg2SnCSn2CSnTe4Mg2SnCSn2CSnTe4Mg2SnCSn2CSnTe4Mg2SnCSn2CSnTe4Mg2
_chemical_formula_sum              "C172 N24 H56 Sn128 Te128 Mg64"
_cell_length_a       44.4035
_cell_length_b       23.2369
_cell_length_c       21.3085
_cell_angle_alpha    89.789
_cell_angle_beta     90.1636
_cell_angle_gamma    90.1183

_symmetry_space_group_name_H-M    'P1'
_space_group_IT_number       1

loop_
  _space_group_symop_operation_xyz
  'x, y, z'

loop_
  _atom_site_type_symbol
  _atom_site_label
  _atom_site_symmetry_multiplicity
  _atom_site_fract_x
  _atom_site_fract_y
  _atom_site_fract_z
  _atom_site_occupancy
  C   C1        1.0  0.35280  0.38116  0.67950  1.0000
  C   C2        1.0  0.14861  0.42361  0.02749  1.0000
  C   C3        1.0  0.43339  0.60600  0.53670  1.0000
  C   C4        1.0  0.44253  0.61217  0.60057  1.0000
  N   N1        1.0  0.32768  0.64414  0.78750  1.0000
  C   C5        1.0  0.59411  0.58226  0.52304  1.0000
  H   H1        1.0  0.61243  0.56794  0.42816  1.0000
  C   C6        1.0  0.97555  0.27147  0.02583  1.0000
  C   C7        1.0  0.98466  0.32916  0.04402  1.0000
  N   N2        1.0  0.85206  0.46959  0.97822  1.0000
  C   C8        1.0  0.05503  0.25129  0.02813  1.0000
  H   H2        1.0  0.96975  0.36438  0.05541  1.0000
  H   H3        1.0  0.35652  0.41104  0.63999  1.0000
  H   H4        1.0  0.16566  0.41855  0.06471  1.0000
  C   C9        1.0  0.35167  0.39452  0.29092  1.0000
  C   C10       1.0  0.14698  0.86262  0.02366  1.0000
  C   C11       1.0  0.43425  0.60852  0.43444  1.0000
  C   C12       1.0  0.44420  0.61847  0.37156  1.0000
  N   N3        1.0  0.32918  0.65418  0.18134  1.0000
  C   C13       1.0  0.59469  0.58302  0.45869  1.0000
  H   H5        1.0  0.61128  0.56650  0.55492  1.0000
  C   C14       1.0  0.97494  0.01755  0.02907  1.0000
  C   C15       1.0  0.98358  0.95957  0.04721  1.0000
  N   N4        1.0  0.84716  0.83012  0.98046  1.0000
  C   C16       1.0  0.05449  0.03591  0.02880  1.0000
  H   H6        1.0  0.96827  0.92490  0.05899  1.0000
  H   H7        1.0  0.35393  0.42729  0.32780  1.0000
  H   H8        1.0  0.16433  0.86642  0.06047  1.0000
  C   C17       1.0  0.76033  0.64514  0.98957  1.0000
  C   C18       1.0  0.95380  0.14506  0.02790  1.0000
  H   H9        1.0  0.97675  0.14538  0.04465  1.0000
  N   N5        1.0  0.45103  0.62104  0.48657  1.0000
  C   C19       1.0  0.47269  0.61924  0.61991  1.0000
  C   C20       1.0  0.48288  0.63943  0.68135  1.0000
  C   C21       1.0  0.47467  0.62538  0.35445  1.0000
  C   C22       1.0  0.48591  0.64765  0.29459  1.0000
  H   H10       1.0  0.47176  0.66496  0.25759  1.0000
  H   H11       1.0  0.46801  0.65415  0.71818  1.0000
  C   C23       1.0  0.06492  0.80442  0.52713  1.0000
  C   C24       1.0  0.09519  0.82488  0.51140  1.0000
  C   C25       1.0  0.06474  0.90384  0.52509  1.0000
  C   C26       1.0  0.09505  0.88373  0.51010  1.0000
  H   H12       1.0  0.11404  0.79722  0.50049  1.0000
  H   H13       1.0  0.11370  0.91160  0.49778  1.0000
  C   C27       1.0  0.64977  0.61378  0.18659  1.0000
  C   C28       1.0  0.85141  0.57485  0.52466  1.0000
  C   C29       1.0  0.56612  0.39838  0.03844  1.0000
  C   C30       1.0  0.55658  0.39160  0.10212  1.0000
  N   N6        1.0  0.67211  0.34941  0.28900  1.0000
  C   C31       1.0  0.40443  0.41630  0.01779  1.0000
  H   H14       1.0  0.38630  0.42604  0.92177  1.0000
  C   C32       1.0  0.02528  0.72698  0.53359  1.0000
  C   C33       1.0  0.01595  0.66971  0.55315  1.0000
  N   N7        1.0  0.15025  0.53415  0.48799  1.0000
  C   C34       1.0  0.94576  0.74578  0.52463  1.0000
  H   H15       1.0  0.03069  0.63525  0.56825  1.0000
  H   H16       1.0  0.64561  0.58545  0.14618  1.0000
  H   H17       1.0  0.83296  0.58306  0.55784  1.0000
  C   C35       1.0  0.64715  0.60717  0.79546  1.0000
  C   C36       1.0  0.85228  0.13262  0.52676  1.0000
  C   C37       1.0  0.56615  0.39768  0.93608  1.0000
  C   C38       1.0  0.55643  0.38974  0.87281  1.0000
  N   N8        1.0  0.66958  0.35357  0.68082  1.0000
  C   C39       1.0  0.40432  0.41400  0.95350  1.0000
  H   H18       1.0  0.38653  0.43063  0.04835  1.0000
  C   C40       1.0  0.02526  0.98129  0.52907  1.0000
  C   C41       1.0  0.01612  0.03952  0.54469  1.0000
  N   N9        1.0  0.15115  0.17308  0.47949  1.0000
  C   C42       1.0  0.94593  0.96138  0.52281  1.0000
  H   H19       1.0  0.03098  0.07498  0.55625  1.0000
  H   H20       1.0  0.64491  0.57315  0.83126  1.0000
  H   H21       1.0  0.83645  0.12935  0.56631  1.0000
  C   C43       1.0  0.23996  0.35477  0.48539  1.0000
  C   C44       1.0  0.04670  0.85409  0.53577  1.0000
  H   H22       1.0  0.02366  0.85431  0.55164  1.0000
  N   N10       1.0  0.54867  0.38543  0.98740  1.0000
  C   C45       1.0  0.52628  0.38626  0.12071  1.0000
  C   C46       1.0  0.51552  0.36688  0.18211  1.0000
  C   C47       1.0  0.52608  0.38182  0.85469  1.0000
  C   C48       1.0  0.51568  0.35943  0.79422  1.0000
  H   H23       1.0  0.53038  0.34428  0.75736  1.0000
  H   H24       1.0  0.52991  0.35204  0.21999  1.0000
  C   C49       1.0  0.93577  0.19459  0.01630  1.0000
  C   C50       1.0  0.90561  0.17399  0.99963  1.0000
  C   C51       1.0  0.93579  0.09526  0.01820  1.0000
  C   C52       1.0  0.90563  0.11511  0.00085  1.0000
  H   H25       1.0  0.88688  0.20141  0.98661  1.0000
  H   H26       1.0  0.88698  0.08699  0.98906  1.0000
  C   C53       1.0  0.35283  0.62202  0.17883  1.0000
  C   C54       1.0  0.14984  0.57542  0.52840  1.0000
  C   C55       1.0  0.43414  0.39735  0.03754  1.0000
  C   C56       1.0  0.44393  0.39274  0.10104  1.0000
  N   N11       1.0  0.33014  0.35708  0.29098  1.0000
  C   C57       1.0  0.59555  0.41942  0.01938  1.0000
  H   H27       1.0  0.61328  0.43331  0.92384  1.0000
  C   C58       1.0  0.97618  0.72664  0.53069  1.0000
  C   C59       1.0  0.98509  0.66955  0.55157  1.0000
  N   N12       1.0  0.85119  0.53120  0.48731  1.0000
  C   C60       1.0  0.05583  0.74628  0.53111  1.0000
  H   H28       1.0  0.97006  0.63488  0.56499  1.0000
  H   H29       1.0  0.35722  0.59353  0.13873  1.0000
  H   H30       1.0  0.16808  0.58138  0.56293  1.0000
  C   C61       1.0  0.34972  0.60799  0.78897  1.0000
  C   C62       1.0  0.14901  0.13469  0.52330  1.0000
  C   C63       1.0  0.43395  0.39365  0.93543  1.0000
  C   C64       1.0  0.44378  0.38501  0.87241  1.0000
  N   N13       1.0  0.32974  0.34728  0.68177  1.0000
  C   C65       1.0  0.59553  0.41904  0.95501  1.0000
  H   H31       1.0  0.61336  0.43382  0.05048  1.0000
  C   C66       1.0  0.97625  0.98119  0.52757  1.0000
  C   C67       1.0  0.98527  0.03943  0.54398  1.0000
  N   N14       1.0  0.84955  0.17142  0.48359  1.0000
  C   C68       1.0  0.05565  0.96193  0.52692  1.0000
  H   H32       1.0  0.97036  0.07481  0.55489  1.0000
  H   H33       1.0  0.35249  0.57658  0.82737  1.0000
  H   H34       1.0  0.16551  0.13185  0.56184  1.0000
  C   C69       1.0  0.76069  0.35243  0.48779  1.0000
  C   C70       1.0  0.95495  0.85352  0.52985  1.0000
  H   H35       1.0  0.97776  0.85343  0.54743  1.0000
  N   N15       1.0  0.45164  0.38376  0.98690  1.0000
  C   C71       1.0  0.47430  0.38703  0.11991  1.0000
  C   C72       1.0  0.48469  0.36746  0.18164  1.0000
  C   C73       1.0  0.47413  0.37924  0.85457  1.0000
  C   C74       1.0  0.48488  0.35778  0.79423  1.0000
  H   H36       1.0  0.47050  0.34092  0.75745  1.0000
  H   H37       1.0  0.46994  0.35328  0.21908  1.0000
  C   C75       1.0  0.06403  0.19314  0.02561  1.0000
  C   C76       1.0  0.09443  0.17274  0.01132  1.0000
  C   C77       1.0  0.06383  0.09383  0.02604  1.0000
  C   C78       1.0  0.09429  0.11390  0.01153  1.0000
  H   H38       1.0  0.11336  0.20031  0.99997  1.0000
  H   H39       1.0  0.11305  0.08601  0.00052  1.0000
  C   C79       1.0  0.64617  0.38639  0.67775  1.0000
  C   C80       1.0  0.85244  0.42603  0.01609  1.0000
  C   C81       1.0  0.56497  0.60509  0.54094  1.0000
  C   C82       1.0  0.55500  0.61226  0.60412  1.0000
  N   N16       1.0  0.66833  0.64528  0.79740  1.0000
  C   C83       1.0  0.40458  0.58322  0.51602  1.0000
  H   H40       1.0  0.38801  0.56940  0.41949  1.0000
  C   C84       1.0  0.02461  0.27085  0.02958  1.0000
  C   C85       1.0  0.01550  0.32880  0.04636  1.0000
  N   N17       1.0  0.15021  0.46388  0.98566  1.0000
  C   C86       1.0  0.94503  0.25258  0.02000  1.0000
  H   H41       1.0  0.03036  0.36369  0.05978  1.0000
  H   H42       1.0  0.64178  0.41489  0.63736  1.0000
  H   H43       1.0  0.83419  0.41841  0.04998  1.0000
  C   C87       1.0  0.65079  0.38710  0.28913  1.0000
  C   C88       1.0  0.85094  0.86606  0.02587  1.0000
  C   C89       1.0  0.56584  0.60606  0.43869  1.0000
  C   C90       1.0  0.55677  0.61449  0.37504  1.0000
  N   N18       1.0  0.67335  0.64630  0.19009  1.0000
  C   C91       1.0  0.40519  0.58450  0.45167  1.0000
  H   H44       1.0  0.38688  0.56675  0.54608  1.0000
  C   C92       1.0  0.02393  0.01695  0.03148  1.0000
  C   C93       1.0  0.01443  0.95910  0.04871  1.0000
  N   N19       1.0  0.14818  0.82314  0.98124  1.0000
  C   C94       1.0  0.94474  0.03729  0.02377  1.0000
  H   H45       1.0  0.02904  0.92374  0.06193  1.0000
  H   H46       1.0  0.64912  0.41980  0.32620  1.0000
  H   H47       1.0  0.83593  0.86667  0.06692  1.0000
  C   C95       1.0  0.23900  0.64575  0.98513  1.0000
  C   C96       1.0  0.04574  0.14362  0.03516  1.0000
  H   H48       1.0  0.02245  0.14362  0.04956  1.0000
  N   N20       1.0  0.54818  0.61921  0.48925  1.0000
  C   C97       1.0  0.52464  0.61937  0.62153  1.0000
  C   C98       1.0  0.51370  0.63954  0.68230  1.0000
  C   C99       1.0  0.52664  0.62272  0.35592  1.0000
  C   C100      1.0  0.51671  0.64575  0.29531  1.0000
  H   H49       1.0  0.53170  0.66105  0.25878  1.0000
  H   H50       1.0  0.52799  0.65445  0.72018  1.0000
  C   C101      1.0  0.93688  0.80389  0.51914  1.0000
  C   C102      1.0  0.90685  0.82424  0.50127  1.0000
  C   C103      1.0  0.93703  0.90323  0.51860  1.0000
  C   C104      1.0  0.90690  0.88310  0.50127  1.0000
  H   H51       1.0  0.88816  0.79657  0.48867  1.0000
  H   H52       1.0  0.88834  0.91109  0.48861  1.0000
  C   C105      1.0  0.50027  0.61053  0.39142  1.0000
  H   H53       1.0  0.49970  0.58939  0.43663  1.0000
  C   C106      1.0  0.49886  0.60749  0.58391  1.0000
  H   H54       1.0  0.49916  0.58836  0.53786  1.0000
  C   C107      1.0  0.50004  0.39364  0.89095  1.0000
  H   H55       1.0  0.49975  0.41380  0.93650  1.0000
  C   C108      1.0  0.50034  0.39849  0.08333  1.0000
  H   H56       1.0  0.50058  0.41724  0.03687  1.0000
  N   N21       1.0  0.00086  0.76053  0.51953  1.0000
  N   N22       1.0  0.00079  0.94687  0.51830  1.0000
  N   N23       1.0  0.00008  0.23705  0.01671  1.0000
  N   N24       1.0  0.99974  0.05141  0.01916  1.0000
  C  Sn1       1.0  0.36985  0.63518  0.66669  1.0000
  C   C109      1.0  0.36954  0.60402  0.72291  1.0000
  C  Sn2       1.0  0.39592  0.57885  0.74588  1.0000
  C  Sn3       1.0  0.42319  0.58497  0.71198  1.0000
  C   C110      1.0  0.42349  0.61612  0.65581  1.0000
  C  Sn4       1.0  0.39712  0.64131  0.63279  1.0000
  O  Te1       1.0  0.34321  0.65998  0.64460  1.0000
  O  Te2       1.0  0.39504  0.54788  0.80218  1.0000
  O  Te3       1.0  0.44983  0.56014  0.73412  1.0000
  O  Te4       1.0  0.39799  0.67226  0.57654  1.0000
  Mg  Mg1       1.0  0.43721  0.52208  0.81306  1.0000
  Mg  Mg2       1.0  0.35584  0.69810  0.56563  1.0000
  C  Sn5       1.0  0.28258  0.58800  0.90849  1.0000
  C   C111      1.0  0.26906  0.63612  0.93557  1.0000
  C  Sn6       1.0  0.27155  0.69015  0.90706  1.0000
  C  Sn7       1.0  0.28786  0.69620  0.85028  1.0000
  C   C112      1.0  0.30135  0.64809  0.82322  1.0000
  C  Sn8       1.0  0.29889  0.59405  0.85170  1.0000
  O  Te5       1.0  0.27980  0.53440  0.93780  1.0000
  O  Te6       1.0  0.25785  0.73763  0.93503  1.0000
  O  Te7       1.0  0.29062  0.74985  0.82097  1.0000
  O  Te8       1.0  0.31257  0.54658  0.82376  1.0000
  Mg  Mg3       1.0  0.26797  0.80164  0.87720  1.0000
  Mg  Mg4       1.0  0.30245  0.48255  0.88153  1.0000
  C  Sn9       1.0  0.10000  0.63120  0.47153  1.0000
  C   C113      1.0  0.12512  0.62702  0.51091  1.0000
  C  Sn10      1.0  0.12630  0.65791  0.56698  1.0000
  C  Sn11      1.0  0.10184  0.69370  0.58407  1.0000
  C   C114      1.0  0.07673  0.69785  0.54471  1.0000
  C  Sn12      1.0  0.07554  0.66699  0.48862  1.0000
  O  Te9       1.0  0.09930  0.59993  0.41570  1.0000
  O  Te10      1.0  0.15166  0.65306  0.60558  1.0000
  O  Te11      1.0  0.10255  0.72498  0.63996  1.0000
  O  Te12      1.0  0.05019  0.67182  0.45004  1.0000
  Mg  Mg5       1.0  0.14202  0.70414  0.67688  1.0000
  Mg  Mg6       1.0  0.05980  0.62074  0.37875  1.0000
  C  Sn13      1.0  0.19752  0.42660  0.55076  1.0000
  C   C115      1.0  0.21009  0.39992  0.49836  1.0000
  C  Sn14      1.0  0.20598  0.42330  0.43847  1.0000
  C  Sn15      1.0  0.18896  0.47444  0.43079  1.0000
  C   C116      1.0  0.17640  0.50110  0.48316  1.0000
  C  Sn16      1.0  0.18050  0.47774  0.54308  1.0000
  O  Te13      1.0  0.20192  0.40247  0.61020  1.0000
  O  Te14      1.0  0.21876  0.39584  0.38679  1.0000
  O  Te15      1.0  0.18457  0.49856  0.37129  1.0000
  O  Te16      1.0  0.16773  0.50518  0.59474  1.0000
  Mg  Mg7       1.0  0.20647  0.44532  0.31539  1.0000
  Mg  Mg8       1.0  0.18002  0.45575  0.66616  1.0000
  C  Sn17      1.0  0.42283  0.42371  0.22282  1.0000
  C   C117      1.0  0.42473  0.38829  0.17012  1.0000
  C  Sn18      1.0  0.39947  0.35800  0.14907  1.0000
  C  Sn19      1.0  0.37172  0.36325  0.18133  1.0000
  C   C118      1.0  0.36982  0.39866  0.23398  1.0000
  C  Sn20      1.0  0.39508  0.42896  0.25508  1.0000
  O  Te17      1.0  0.44837  0.45360  0.24304  1.0000
  O  Te18      1.0  0.40192  0.32284  0.09629  1.0000
  O  Te19      1.0  0.34617  0.33332  0.16106  1.0000
  O  Te20      1.0  0.39263  0.46411  0.30782  1.0000
  Mg  Mg9       1.0  0.36081  0.29084  0.08685  1.0000
  Mg  Mg10      1.0  0.43373  0.49615  0.31728  1.0000
  C  Sn21      1.0  0.29612  0.41536  0.38186  1.0000
  C   C119      1.0  0.31092  0.36901  0.35404  1.0000
  C  Sn22      1.0  0.29931  0.31331  0.35954  1.0000
  C  Sn23      1.0  0.27233  0.30373  0.39353  1.0000
  C   C120      1.0  0.25754  0.35006  0.42131  1.0000
  C  Sn24      1.0  0.26914  0.40578  0.41584  1.0000
  O  Te21      1.0  0.30813  0.47068  0.37575  1.0000
  O  Te22      1.0  0.31451  0.26765  0.33134  1.0000
  O  Te23      1.0  0.26032  0.24836  0.39962  1.0000
  O  Te24      1.0  0.25395  0.45142  0.44401  1.0000
  Mg  Mg11      1.0  0.28922  0.20016  0.35281  1.0000
  Mg  Mg12      1.0  0.27920  0.51893  0.42255  1.0000
  C  Sn25      1.0  0.09844  0.92226  0.96579  1.0000
  C   C121      1.0  0.12171  0.91920  0.00615  1.0000
  C  Sn26      1.0  0.12252  0.94800  0.06356  1.0000
  C  Sn27      1.0  0.09819  0.98395  0.08101  1.0000
  C   C122      1.0  0.07357  0.99036  0.04067  1.0000
  C  Sn28      1.0  0.07411  0.95821  0.98324  1.0000
  O  Te25      1.0  0.09810  0.89305  0.90863  1.0000
  O  Te26      1.0  0.14739  0.94091  0.10312  1.0000
  O  Te27      1.0  0.09746  0.01317  0.13822  1.0000
  O  Te28      1.0  0.04925  0.96528  0.94370  1.0000
  Mg  Mg13      1.0  0.13739  0.98970  0.17610  1.0000
  Mg  Mg14      1.0  0.05922  0.91648  0.87073  1.0000
  C  Sn29      1.0  0.19277  0.71199  0.04475  1.0000
  C   C123      1.0  0.20934  0.68580  0.99321  1.0000
  C  Sn30      1.0  0.20784  0.71310  0.93477  1.0000
  C  Sn31      1.0  0.19081  0.76430  0.92771  1.0000
  C   C124      1.0  0.17562  0.78709  0.97923  1.0000
  C  Sn32      1.0  0.17574  0.76319  0.03769  1.0000
  O  Te29      1.0  0.19459  0.68398  0.10274  1.0000
  O  Te30      1.0  0.22322  0.68947  0.88392  1.0000
  O  Te31      1.0  0.18900  0.79230  0.86966  1.0000
  O  Te32      1.0  0.16038  0.78680  0.08852  1.0000
  Mg  Mg15      1.0  0.21389  0.74342  0.81445  1.0000
  Mg  Mg16      1.0  0.16971  0.73291  0.15801  1.0000
  C  Sn33      1.0  0.40441  0.57360  0.23537  1.0000
  C   C125      1.0  0.37703  0.60315  0.23562  1.0000
  C  Sn34      1.0  0.37222  0.64794  0.27795  1.0000
  C  Sn35      1.0  0.39526  0.66355  0.32090  1.0000
  C   C126      1.0  0.42262  0.63401  0.32063  1.0000
  C  Sn36      1.0  0.42745  0.58921  0.27832  1.0000
  O  Te33      1.0  0.40873  0.52896  0.19264  1.0000
  O  Te34      1.0  0.34466  0.67683  0.27732  1.0000
  O  Te35      1.0  0.39092  0.70822  0.36365  1.0000
  O  Te36      1.0  0.45500  0.56033  0.27893  1.0000
  Mg  Mg17      1.0  0.34954  0.73467  0.34460  1.0000
  Mg  Mg18      1.0  0.45015  0.50251  0.21165  1.0000
  C  Sn37      1.0  0.28215  0.70395  0.11627  1.0000
  C   C127      1.0  0.29759  0.65762  0.14315  1.0000
  C  Sn38      1.0  0.29725  0.60375  0.11428  1.0000
  C  Sn39      1.0  0.28116  0.59603  0.05732  1.0000
  C   C128      1.0  0.26574  0.64234  0.03046  1.0000
  C  Sn40      1.0  0.26607  0.69623  0.05931  1.0000
  O  Te37      1.0  0.28280  0.75742  0.14595  1.0000
  O  Te38      1.0  0.31284  0.55807  0.14206  1.0000
  O  Te39      1.0  0.28052  0.54250  0.02765  1.0000
  O  Te40      1.0  0.25049  0.74189  0.03155  1.0000
  Mg  Mg19      1.0  0.30524  0.49349  0.08373  1.0000
  Mg  Mg20      1.0  0.25808  0.80649  0.08982  1.0000
  C  Sn41      1.0  0.12593  0.02854  0.56399  1.0000
  C   C129      1.0  0.12882  0.07515  0.52280  1.0000
  C  Sn42      1.0  0.10472  0.09156  0.48450  1.0000
  C  Sn43      1.0  0.07714  0.06076  0.48746  1.0000
  C   C130      1.0  0.07427  0.01419  0.52864  1.0000
  C  Sn44      1.0  0.09944  0.99774  0.56695  1.0000
  O  Te41      1.0  0.15033  0.01290  0.60184  1.0000
  O  Te42      1.0  0.10814  0.13829  0.44368  1.0000
  O  Te43      1.0  0.05274  0.07644  0.44956  1.0000
  O  Te44      1.0  0.09602  0.95105  0.60777  1.0000
  Mg  Mg21      1.0  0.06842  0.14311  0.40157  1.0000
  Mg  Mg22      1.0  0.13573  0.94622  0.64991  1.0000
  C  Sn45      1.0  0.18107  0.26185  0.54310  1.0000
  C   C131      1.0  0.16964  0.23158  0.49170  1.0000
  C  Sn46      1.0  0.18457  0.23308  0.43410  1.0000
  C  Sn47      1.0  0.21150  0.26547  0.42774  1.0000
  C   C132      1.0  0.22293  0.29570  0.47912  1.0000
  C  Sn48      1.0  0.20801  0.29424  0.53674  1.0000
  O  Te45      1.0  0.16578  0.25974  0.60024  1.0000
  O  Te46      1.0  0.17269  0.20248  0.38338  1.0000
  O  Te47      1.0  0.22679  0.26756  0.37054  1.0000
  O  Te48      1.0  0.21987  0.32480  0.58744  1.0000
  Mg  Mg23      1.0  0.20172  0.21869  0.31518  1.0000
  Mg  Mg24      1.0  0.19087  0.30860  0.65567  1.0000
  C  Sn49      1.0  0.41522  0.43318  0.76625  1.0000
  C   C133      1.0  0.41675  0.39919  0.82041  1.0000
  C  Sn50      1.0  0.39834  0.35072  0.82679  1.0000
  C  Sn51      1.0  0.37799  0.33587  0.77801  1.0000
  C   C134      1.0  0.37647  0.36984  0.72389  1.0000
  C  Sn52      1.0  0.39487  0.41834  0.71747  1.0000
  O  Te49      1.0  0.43383  0.48145  0.76087  1.0000
  O  Te50      1.0  0.40026  0.31741  0.88138  1.0000
  O  Te51      1.0  0.35937  0.28756  0.78343  1.0000
  O  Te52      1.0  0.39296  0.45163  0.66292  1.0000
  Mg  Mg25      1.0  0.37025  0.25574  0.86673  1.0000
  Mg  Mg26      1.0  0.42296  0.51329  0.67750  1.0000
  C  Sn53      1.0  0.26968  0.29840  0.59139  1.0000
  C   C135      1.0  0.25865  0.34576  0.55796  1.0000
  C  Sn54      1.0  0.27397  0.39831  0.55937  1.0000
  C  Sn55      1.0  0.30088  0.40363  0.59491  1.0000
  C   C136      1.0  0.31190  0.35629  0.62831  1.0000
  C  Sn56      1.0  0.29659  0.30372  0.62693  1.0000
  O  Te53      1.0  0.25400  0.24628  0.58929  1.0000
  O  Te54      1.0  0.26250  0.44506  0.52558  1.0000
  O  Te55      1.0  0.31656  0.45581  0.59698  1.0000
  O  Te56      1.0  0.30805  0.25699  0.66068  1.0000
  Mg  Mg27      1.0  0.29195  0.50707  0.54311  1.0000
  Mg  Mg28      1.0  0.27863  0.19495  0.64316  1.0000
  C  Sn57      1.0  0.09026  0.38556  0.99133  1.0000
  C   C137      1.0  0.11432  0.39236  0.02996  1.0000
  C  Sn58      1.0  0.12314  0.34510  0.06626  1.0000
  C  Sn59      1.0  0.10621  0.29332  0.06386  1.0000
  C   C138      1.0  0.08081  0.28991  0.02523  1.0000
  C  Sn60      1.0  0.07334  0.33378  0.98893  1.0000
  O  Te57      1.0  0.08186  0.43334  0.95544  1.0000
  O  Te58      1.0  0.14863  0.34956  0.10454  1.0000
  O  Te59      1.0  0.11464  0.24553  0.09978  1.0000
  O  Te60      1.0  0.04787  0.32934  0.95065  1.0000
  Mg  Mg29      1.0  0.15105  0.27270  0.14463  1.0000
  Mg  Mg30      1.0  0.04543  0.40615  0.91052  1.0000
  C  Sn61      1.0  0.18339  0.54881  0.04955  1.0000
  C   C139      1.0  0.17071  0.51821  0.99891  1.0000
  C  Sn62      1.0  0.18276  0.52282  0.93862  1.0000
  C  Sn63      1.0  0.20942  0.55528  0.92872  1.0000
  C   C140      1.0  0.22346  0.58248  0.97933  1.0000
  C  Sn64      1.0  0.21005  0.58128  0.03965  1.0000
  O  Te61      1.0  0.17095  0.54363  0.10942  1.0000
  O  Te62      1.0  0.16831  0.49523  0.88873  1.0000
  O  Te63      1.0  0.22186  0.56045  0.86878  1.0000
  O  Te64      1.0  0.22449  0.60884  0.08952  1.0000
  Mg  Mg31      1.0  0.19395  0.51500  0.81588  1.0000
  Mg  Mg32      1.0  0.19888  0.58907  0.16239  1.0000
  C  Sn65      1.0  0.60661  0.33731  0.16055  1.0000
  C   C141      1.0  0.58141  0.37320  0.15829  1.0000
  C  Sn66      1.0  0.57986  0.42181  0.19650  1.0000
  C  Sn67      1.0  0.60401  0.43486  0.23780  1.0000
  C   C142      1.0  0.62919  0.39900  0.24004  1.0000
  C  Sn68      1.0  0.63076  0.35036  0.20185  1.0000
  O  Te65      1.0  0.60768  0.28894  0.12192  1.0000
  O  Te66      1.0  0.55442  0.45703  0.19343  1.0000
  O  Te67      1.0  0.60292  0.48328  0.27644  1.0000
  O  Te68      1.0  0.65617  0.31516  0.20490  1.0000
  Mg  Mg33      1.0  0.56350  0.51806  0.25529  1.0000
  Mg  Mg34      1.0  0.64713  0.25414  0.14303  1.0000
  C  Sn69      1.0  0.72017  0.40511  0.34937  1.0000
  C   C143      1.0  0.70306  0.35873  0.32755  1.0000
  C  Sn70      1.0  0.70181  0.30738  0.36175  1.0000
  C  Sn71      1.0  0.71799  0.30229  0.41897  1.0000
  C   C144      1.0  0.73509  0.34864  0.44078  1.0000
  C  Sn72      1.0  0.73635  0.40001  0.40660  1.0000
  O  Te69      1.0  0.72108  0.45603  0.31442  1.0000
  O  Te70      1.0  0.68456  0.26161  0.33897  1.0000
  O  Te71      1.0  0.71706  0.25130  0.45393  1.0000
  O  Te72      1.0  0.75358  0.44577  0.42936  1.0000
  Mg  Mg35      1.0  0.69040  0.20107  0.40345  1.0000
  Mg  Mg36      1.0  0.74775  0.50634  0.36493  1.0000
  C  Sn73      1.0  0.92412  0.36425  0.98434  1.0000
  C   C145      1.0  0.92458  0.31915  0.02318  1.0000
  C  Sn74      1.0  0.89943  0.30051  0.05689  1.0000
  C  Sn75      1.0  0.87187  0.33093  0.05165  1.0000
  C   C146      1.0  0.87005  0.37935  0.01282  1.0000
  C  Sn76      1.0  0.89656  0.39466  0.97910  1.0000
  O  Te73      1.0  0.94955  0.38211  0.95107  1.0000
  O  Te74      1.0  0.90180  0.25195  0.09544  1.0000
  O  Te75      1.0  0.84643  0.31302  0.08496  1.0000
  O  Te76      1.0  0.89420  0.44318  0.94056  1.0000
  Mg  Mg37      1.0  0.86090  0.24443  0.13132  1.0000
  Mg  Mg38      1.0  0.93508  0.45072  0.90464  1.0000
  C  Sn77      1.0  0.82064  0.55973  0.92632  1.0000
  C   C147      1.0  0.83284  0.52810  0.97613  1.0000
  C  Sn78      1.0  0.81678  0.52931  0.03398  1.0000
  C  Sn79      1.0  0.78931  0.55936  0.04220  1.0000
  C   C148      1.0  0.77849  0.58759  0.99241  1.0000
  C  Sn80      1.0  0.79317  0.58978  0.93454  1.0000
  O  Te77      1.0  0.83571  0.56129  0.86890  1.0000
  O  Te78      1.0  0.82942  0.49742  0.08309  1.0000
  O  Te79      1.0  0.77424  0.55778  0.09968  1.0000
  O  Te80      1.0  0.78054  0.62165  0.88545  1.0000
  Mg  Mg39      1.0  0.80043  0.50843  0.15241  1.0000
  Mg  Mg40      1.0  0.80950  0.61064  0.81611  1.0000
  C  Sn81      1.0  0.57492  0.58584  0.72883  1.0000
  C   C149      1.0  0.57423  0.61881  0.67386  1.0000
  C  Sn82      1.0  0.60057  0.64401  0.65076  1.0000
  C  Sn83      1.0  0.62818  0.63606  0.68325  1.0000
  C   C150      1.0  0.62886  0.60310  0.73818  1.0000
  C  Sn84      1.0  0.60253  0.57789  0.76132  1.0000
  O  Te81      1.0  0.54831  0.56105  0.75106  1.0000
  O  Te82      1.0  0.59932  0.67680  0.59573  1.0000
  O  Te83      1.0  0.65479  0.66088  0.66097  1.0000
  O  Te84      1.0  0.60377  0.54510  0.81631  1.0000
  Mg  Mg41      1.0  0.64159  0.70181  0.58408  1.0000
  Mg  Mg42      1.0  0.56152  0.52006  0.82798  1.0000
  C  Sn85      1.0  0.71065  0.69578  0.92223  1.0000
  C   C151      1.0  0.72790  0.64971  0.94440  1.0000
  C  Sn86      1.0  0.72910  0.59824  0.91085  1.0000
  C  Sn87      1.0  0.71274  0.59270  0.85392  1.0000
  C   C152      1.0  0.69551  0.63875  0.83178  1.0000
  C  Sn88      1.0  0.69429  0.69024  0.86531  1.0000
  O  Te85      1.0  0.70978  0.74683  0.95654  1.0000
  O  Te86      1.0  0.74650  0.55278  0.93396  1.0000
  O  Te87      1.0  0.71362  0.54159  0.81962  1.0000
  O  Te88      1.0  0.67691  0.73568  0.84221  1.0000
  Mg  Mg43      1.0  0.74053  0.49190  0.87034  1.0000
  Mg  Mg44      1.0  0.68288  0.79658  0.90577  1.0000
  C  Sn89      1.0  0.90005  0.07562  0.46408  1.0000
  C   C153      1.0  0.87597  0.07993  0.50588  1.0000
  C  Sn90      1.0  0.87618  0.04902  0.56223  1.0000
  C  Sn91      1.0  0.90099  0.01307  0.57713  1.0000
  C   C154      1.0  0.92505  0.00878  0.53535  1.0000
  C  Sn92      1.0  0.92485  0.03967  0.47898  1.0000
  O  Te89      1.0  0.89935  0.10692  0.40802  1.0000
  O  Te90      1.0  0.85185  0.05402  0.60327  1.0000
  O  Te91      1.0  0.90274  0.98177  0.63324  1.0000
  O  Te92      1.0  0.94917  0.03469  0.43796  1.0000
  Mg  Mg45      1.0  0.86323  0.00283  0.67390  1.0000
  Mg  Mg46      1.0  0.93782  0.08588  0.36734  1.0000
  C  Sn93      1.0  0.78979  0.25320  0.42974  1.0000
  C   C155      1.0  0.77862  0.28396  0.48084  1.0000
  C  Sn94      1.0  0.79419  0.28426  0.53789  1.0000
  C  Sn95      1.0  0.82151  0.25320  0.54399  1.0000
  C   C156      1.0  0.83267  0.22247  0.49290  1.0000
  C  Sn96      1.0  0.81711  0.22214  0.43583  1.0000
  O  Te93      1.0  0.77385  0.25351  0.37315  1.0000
  O  Te94      1.0  0.78257  0.31531  0.58833  1.0000
  O  Te95      1.0  0.83745  0.25291  0.60064  1.0000
  O  Te96      1.0  0.82872  0.19112  0.38542  1.0000
  Mg  Mg47      1.0  0.81250  0.30173  0.65579  1.0000
  Mg  Mg48      1.0  0.79882  0.20469  0.31793  1.0000
  C  Sn97      1.0  0.61598  0.36483  0.83029  1.0000
  C   C157      1.0  0.58898  0.39560  0.83147  1.0000
  C  Sn98      1.0  0.57725  0.41949  0.77637  1.0000
  C  Sn99      1.0  0.59281  0.41245  0.71888  1.0000
  C   C158      1.0  0.61979  0.38169  0.71772  1.0000
  C  Sn100     1.0  0.63155  0.35779  0.77281  1.0000
  O  Te97      1.0  0.62730  0.34131  0.88595  1.0000
  O  Te98      1.0  0.55022  0.45009  0.77872  1.0000
  O  Te99      1.0  0.58147  0.43600  0.66320  1.0000
  O  Te100     1.0  0.65855  0.32720  0.77047  1.0000
  Mg  Mg49      1.0  0.54388  0.47402  0.69040  1.0000
  Mg  Mg50      1.0  0.66491  0.30322  0.85875  1.0000
  C  Sn101     1.0  0.71843  0.30339  0.62485  1.0000
  C   C159      1.0  0.70127  0.35048  0.64398  1.0000
  C  Sn102     1.0  0.70020  0.40045  0.60740  1.0000
  C  Sn103     1.0  0.71662  0.40339  0.55047  1.0000
  C   C160      1.0  0.73376  0.35632  0.53135  1.0000
  C  Sn104     1.0  0.73484  0.30634  0.56792  1.0000
  O  Te101     1.0  0.71917  0.25388  0.66216  1.0000
  O  Te102     1.0  0.68289  0.44698  0.62751  1.0000
  O  Te103     1.0  0.71587  0.45296  0.51316  1.0000
  O  Te104     1.0  0.75214  0.25982  0.54782  1.0000
  Mg  Mg51      1.0  0.68904  0.50498  0.56045  1.0000
  Mg  Mg52      1.0  0.74599  0.20179  0.61483  1.0000
  C  Sn105     1.0  0.89851  0.97580  0.08588  1.0000
  C   C161      1.0  0.92111  0.98373  0.04114  1.0000
  C  Sn106     1.0  0.92074  0.95267  0.98317  1.0000
  C  Sn107     1.0  0.89588  0.91632  0.96960  1.0000
  C   C162      1.0  0.87193  0.91178  0.01432  1.0000
  C  Sn108     1.0  0.87365  0.93945  0.07232  1.0000
  O  Te105     1.0  0.89964  0.00392  0.14353  1.0000
  O  Te106     1.0  0.94361  0.96125  0.93920  1.0000
  O  Te107     1.0  0.89369  0.88819  0.91190  1.0000
  O  Te108     1.0  0.85080  0.93090  0.11626  1.0000
  Mg  Mg53      1.0  0.93047  0.91353  0.86733  1.0000
  Mg  Mg54      1.0  0.86390  0.97861  0.18814  1.0000
  C  Sn109     1.0  0.79958  0.72369  0.92347  1.0000
  C   C163      1.0  0.78902  0.69278  0.97535  1.0000
  C  Sn110     1.0  0.79353  0.71549  0.03616  1.0000
  C  Sn111     1.0  0.81029  0.76682  0.04533  1.0000
  C   C164      1.0  0.82220  0.79433  0.99348  1.0000
  C  Sn112     1.0  0.81634  0.77501  0.93264  1.0000
  O  Te109     1.0  0.79343  0.70356  0.86310  1.0000
  O  Te110     1.0  0.78275  0.68385  0.08729  1.0000
  O  Te111     1.0  0.81643  0.78693  0.10577  1.0000
  O  Te112     1.0  0.82710  0.80663  0.88154  1.0000
  Mg  Mg55      1.0  0.79692  0.72883  0.16041  1.0000
  Mg  Mg56      1.0  0.81293  0.76171  0.80840  1.0000
  C  Sn113     1.0  0.59072  0.58975  0.22568  1.0000
  C   C165      1.0  0.61814  0.61940  0.22633  1.0000
  C  Sn114     1.0  0.62869  0.64465  0.28159  1.0000
  C  Sn115     1.0  0.61149  0.64015  0.33739  1.0000
  C   C166      1.0  0.58410  0.61052  0.33673  1.0000
  C  Sn116     1.0  0.57352  0.58526  0.28148  1.0000
  O  Te113     1.0  0.58061  0.56484  0.16990  1.0000
  O  Te114     1.0  0.65616  0.67408  0.28108  1.0000
  O  Te115     1.0  0.62163  0.66510  0.39319  1.0000
  O  Te116     1.0  0.54608  0.55583  0.28198  1.0000
  Mg  Mg57      1.0  0.66042  0.70070  0.36882  1.0000
  Mg  Mg58      1.0  0.54180  0.52918  0.19428  1.0000
  C  Sn117     1.0  0.71498  0.58555  0.11592  1.0000
  C   C167      1.0  0.70348  0.63212  0.14948  1.0000
  C  Sn118     1.0  0.70789  0.68835  0.12795  1.0000
  C  Sn119     1.0  0.72411  0.69825  0.07168  1.0000
  C   C168      1.0  0.73559  0.65170  0.03815  1.0000
  C  Sn120     1.0  0.73120  0.59545  0.05965  1.0000
  O  Te117     1.0  0.71030  0.52970  0.13832  1.0000
  O  Te118     1.0  0.69619  0.73422  0.16232  1.0000
  O  Te119     1.0  0.72879  0.75416  0.04930  1.0000
  O  Te120     1.0  0.74288  0.54960  0.02531  1.0000
  Mg  Mg59      1.0  0.70847  0.80246  0.11263  1.0000
  Mg  Mg60      1.0  0.73061  0.48134  0.07493  1.0000
  C  Sn121     1.0  0.91109  0.60959  0.49433  1.0000
  C   C169      1.0  0.88457  0.60892  0.52949  1.0000
  C  Sn122     1.0  0.87486  0.65857  0.56009  1.0000
  C  Sn123     1.0  0.89200  0.70997  0.55543  1.0000
  C   C170      1.0  0.91850  0.71062  0.52028  1.0000
  C  Sn124     1.0  0.92823  0.66099  0.48967  1.0000
  O  Te121     1.0  0.92037  0.55945  0.46413  1.0000
  O  Te122     1.0  0.84827  0.65684  0.59498  1.0000
  O  Te123     1.0  0.88269  0.76013  0.58567  1.0000
  O  Te124     1.0  0.95479  0.66270  0.45479  1.0000
  Mg  Mg61      1.0  0.84494  0.73624  0.62759  1.0000
  Mg  Mg62      1.0  0.95814  0.58334  0.42214  1.0000
  C  Sn125     1.0  0.81469  0.45258  0.55356  1.0000
  C   C171      1.0  0.83102  0.47493  0.50304  1.0000
  C  Sn126     1.0  0.82136  0.46548  0.44148  1.0000
  C  Sn127     1.0  0.79481  0.43305  0.43018  1.0000
  C   C172      1.0  0.77849  0.41074  0.48067  1.0000
  C  Sn128     1.0  0.78814  0.42016  0.54225  1.0000
  O  Te125     1.0  0.82476  0.46257  0.61471  1.0000
  O  Te126     1.0  0.83807  0.48823  0.39174  1.0000
  O  Te127     1.0  0.78475  0.42308  0.36896  1.0000
  O  Te128     1.0  0.77144  0.39743  0.59197  1.0000
  Mg  Mg63      1.0  0.81520  0.46298  0.31682  1.0000
  Mg  Mg64      1.0  0.79429  0.42268  0.66691  1.0000
