data_image0
_chemical_formula_structural       C4NCHC2NCH3C4NCHC2NCH3C2HNC4H2C4H2C4NCHC2NCH3C4NCHC2NCH3C2HNC4H2C4H2C4NCHC2NCH3C4NCHC2NCH3C2HNC4H2C4H2C4NCHC2NCH3C4NCHC2NCH3C2HNC4H2C4H2CHCHCHCHN4C2Sn2C2HTe2HMgC2Sn2C2HTe2HMgC2Sn2C2HTe2HMgC2Sn2C2HTe2HMgC2Sn2C2HTe2HMgC2Sn2C2HTe2HMgC2Sn2C2HTe2HMgC2Sn2C2HTe2HMgC2Sn2C2HTe2HMgC2Sn2C2HTe2HMgC2Sn2C2HTe2HMgC2Sn2C2HTe2HMgC2Sn2C2HTe2HMgC2Sn2C2HTe2HMgC2Sn2C2HTe2HMgC2Sn2C2HTe2HMgC2Sn2C2HTe2HMgC2Sn2C2HTe2HMgC2Sn2C2HTe2HMgC2Sn2C2HTe2HMgC2Sn2C2HTe2HMgC2Sn2C2HTe2HMgC2Sn2C2HTe2HMgC2Sn2C2HTe2HMgC2Sn2C2HTe2HMgC2Sn2C2HTe2HMgC2Sn2C2HTe2HMgC2Sn2C2HTe2HMgC2Sn2C2HTe2HMgC2Sn2C2HTe2HMgC2Sn2C2HTe2HMgC2Sn2C2HTe2HMg
_chemical_formula_sum              "C236 N24 H120 Sn64 Te64 Mg32"
_cell_length_a       44.4035
_cell_length_b       23.2369
_cell_length_c       21.3085
_cell_angle_alpha    89.789
_cell_angle_beta     90.1636
_cell_angle_gamma    90.1183

_symmetry_space_group_name_H-M    'P1'
_space_group_IT_number       1

loop_
  _space_group_symop_operation_xyz
  'x, y, z'

loop_
  _atom_site_type_symbol
  _atom_site_label
  _atom_site_symmetry_multiplicity
  _atom_site_fract_x
  _atom_site_fract_y
  _atom_site_fract_z
  _atom_site_occupancy
  C   C1        1.0  0.35280  0.38116  0.67950  1.0000
  C   C2        1.0  0.14861  0.42361  0.02749  1.0000
  C   C3        1.0  0.43339  0.60600  0.53670  1.0000
  C   C4        1.0  0.44253  0.61217  0.60057  1.0000
  N   N1        1.0  0.32768  0.64414  0.78750  1.0000
  C   C5        1.0  0.59411  0.58226  0.52304  1.0000
  H   H1        1.0  0.61243  0.56794  0.42816  1.0000
  C   C6        1.0  0.97555  0.27147  0.02583  1.0000
  C   C7        1.0  0.98466  0.32916  0.04402  1.0000
  N   N2        1.0  0.85206  0.46959  0.97822  1.0000
  C   C8        1.0  0.05503  0.25129  0.02813  1.0000
  H   H2        1.0  0.96975  0.36438  0.05541  1.0000
  H   H3        1.0  0.35652  0.41104  0.63999  1.0000
  H   H4        1.0  0.16566  0.41855  0.06471  1.0000
  C   C9        1.0  0.35167  0.39452  0.29092  1.0000
  C   C10       1.0  0.14698  0.86262  0.02366  1.0000
  C   C11       1.0  0.43425  0.60852  0.43444  1.0000
  C   C12       1.0  0.44420  0.61847  0.37156  1.0000
  N   N3        1.0  0.32918  0.65418  0.18134  1.0000
  C   C13       1.0  0.59469  0.58302  0.45869  1.0000
  H   H5        1.0  0.61128  0.56650  0.55492  1.0000
  C   C14       1.0  0.97494  0.01755  0.02907  1.0000
  C   C15       1.0  0.98358  0.95957  0.04721  1.0000
  N   N4        1.0  0.84716  0.83012  0.98046  1.0000
  C   C16       1.0  0.05449  0.03591  0.02880  1.0000
  H   H6        1.0  0.96827  0.92490  0.05899  1.0000
  H   H7        1.0  0.35393  0.42729  0.32780  1.0000
  H   H8        1.0  0.16433  0.86642  0.06047  1.0000
  C   C17       1.0  0.76033  0.64514  0.98957  1.0000
  C   C18       1.0  0.95380  0.14506  0.02790  1.0000
  H   H9        1.0  0.97675  0.14538  0.04465  1.0000
  N   N5        1.0  0.45103  0.62104  0.48657  1.0000
  C   C19       1.0  0.47269  0.61924  0.61991  1.0000
  C   C20       1.0  0.48288  0.63943  0.68135  1.0000
  C   C21       1.0  0.47467  0.62538  0.35445  1.0000
  C   C22       1.0  0.48591  0.64765  0.29459  1.0000
  H   H10       1.0  0.47176  0.66496  0.25759  1.0000
  H   H11       1.0  0.46801  0.65415  0.71818  1.0000
  C   C23       1.0  0.06492  0.80442  0.52713  1.0000
  C   C24       1.0  0.09519  0.82488  0.51140  1.0000
  C   C25       1.0  0.06474  0.90384  0.52509  1.0000
  C   C26       1.0  0.09505  0.88373  0.51010  1.0000
  H   H12       1.0  0.11404  0.79722  0.50049  1.0000
  H   H13       1.0  0.11370  0.91160  0.49778  1.0000
  C   C27       1.0  0.64977  0.61378  0.18659  1.0000
  C   C28       1.0  0.85141  0.57485  0.52466  1.0000
  C   C29       1.0  0.56612  0.39838  0.03844  1.0000
  C   C30       1.0  0.55658  0.39160  0.10212  1.0000
  N   N6        1.0  0.67211  0.34941  0.28900  1.0000
  C   C31       1.0  0.40443  0.41630  0.01779  1.0000
  H   H14       1.0  0.38630  0.42604  0.92177  1.0000
  C   C32       1.0  0.02528  0.72698  0.53359  1.0000
  C   C33       1.0  0.01595  0.66971  0.55315  1.0000
  N   N7        1.0  0.15025  0.53415  0.48799  1.0000
  C   C34       1.0  0.94576  0.74578  0.52463  1.0000
  H   H15       1.0  0.03069  0.63525  0.56825  1.0000
  H   H16       1.0  0.64561  0.58545  0.14618  1.0000
  H   H17       1.0  0.83296  0.58306  0.55784  1.0000
  C   C35       1.0  0.64715  0.60717  0.79546  1.0000
  C   C36       1.0  0.85228  0.13262  0.52676  1.0000
  C   C37       1.0  0.56615  0.39768  0.93608  1.0000
  C   C38       1.0  0.55643  0.38974  0.87281  1.0000
  N   N8        1.0  0.66958  0.35357  0.68082  1.0000
  C   C39       1.0  0.40432  0.41400  0.95350  1.0000
  H   H18       1.0  0.38653  0.43063  0.04835  1.0000
  C   C40       1.0  0.02526  0.98129  0.52907  1.0000
  C   C41       1.0  0.01612  0.03952  0.54469  1.0000
  N   N9        1.0  0.15115  0.17308  0.47949  1.0000
  C   C42       1.0  0.94593  0.96138  0.52281  1.0000
  H   H19       1.0  0.03098  0.07498  0.55625  1.0000
  H   H20       1.0  0.64491  0.57315  0.83126  1.0000
  H   H21       1.0  0.83645  0.12935  0.56631  1.0000
  C   C43       1.0  0.23996  0.35477  0.48539  1.0000
  C   C44       1.0  0.04670  0.85409  0.53577  1.0000
  H   H22       1.0  0.02366  0.85431  0.55164  1.0000
  N   N10       1.0  0.54867  0.38543  0.98740  1.0000
  C   C45       1.0  0.52628  0.38626  0.12071  1.0000
  C   C46       1.0  0.51552  0.36688  0.18211  1.0000
  C   C47       1.0  0.52608  0.38182  0.85469  1.0000
  C   C48       1.0  0.51568  0.35943  0.79422  1.0000
  H   H23       1.0  0.53038  0.34428  0.75736  1.0000
  H   H24       1.0  0.52991  0.35204  0.21999  1.0000
  C   C49       1.0  0.93577  0.19459  0.01630  1.0000
  C   C50       1.0  0.90561  0.17399  0.99963  1.0000
  C   C51       1.0  0.93579  0.09526  0.01820  1.0000
  C   C52       1.0  0.90563  0.11511  0.00085  1.0000
  H   H25       1.0  0.88688  0.20141  0.98661  1.0000
  H   H26       1.0  0.88698  0.08699  0.98906  1.0000
  C   C53       1.0  0.35283  0.62202  0.17883  1.0000
  C   C54       1.0  0.14984  0.57542  0.52840  1.0000
  C   C55       1.0  0.43414  0.39735  0.03754  1.0000
  C   C56       1.0  0.44393  0.39274  0.10104  1.0000
  N   N11       1.0  0.33014  0.35708  0.29098  1.0000
  C   C57       1.0  0.59555  0.41942  0.01938  1.0000
  H   H27       1.0  0.61328  0.43331  0.92384  1.0000
  C   C58       1.0  0.97618  0.72664  0.53069  1.0000
  C   C59       1.0  0.98509  0.66955  0.55157  1.0000
  N   N12       1.0  0.85119  0.53120  0.48731  1.0000
  C   C60       1.0  0.05583  0.74628  0.53111  1.0000
  H   H28       1.0  0.97006  0.63488  0.56499  1.0000
  H   H29       1.0  0.35722  0.59353  0.13873  1.0000
  H   H30       1.0  0.16808  0.58138  0.56293  1.0000
  C   C61       1.0  0.34972  0.60799  0.78897  1.0000
  C   C62       1.0  0.14901  0.13469  0.52330  1.0000
  C   C63       1.0  0.43395  0.39365  0.93543  1.0000
  C   C64       1.0  0.44378  0.38501  0.87241  1.0000
  N   N13       1.0  0.32974  0.34728  0.68177  1.0000
  C   C65       1.0  0.59553  0.41904  0.95501  1.0000
  H   H31       1.0  0.61336  0.43382  0.05048  1.0000
  C   C66       1.0  0.97625  0.98119  0.52757  1.0000
  C   C67       1.0  0.98527  0.03943  0.54398  1.0000
  N   N14       1.0  0.84955  0.17142  0.48359  1.0000
  C   C68       1.0  0.05565  0.96193  0.52692  1.0000
  H   H32       1.0  0.97036  0.07481  0.55489  1.0000
  H   H33       1.0  0.35249  0.57658  0.82737  1.0000
  H   H34       1.0  0.16551  0.13185  0.56184  1.0000
  C   C69       1.0  0.76069  0.35243  0.48779  1.0000
  C   C70       1.0  0.95495  0.85352  0.52985  1.0000
  H   H35       1.0  0.97776  0.85343  0.54743  1.0000
  N   N15       1.0  0.45164  0.38376  0.98690  1.0000
  C   C71       1.0  0.47430  0.38703  0.11991  1.0000
  C   C72       1.0  0.48469  0.36746  0.18164  1.0000
  C   C73       1.0  0.47413  0.37924  0.85457  1.0000
  C   C74       1.0  0.48488  0.35778  0.79423  1.0000
  H   H36       1.0  0.47050  0.34092  0.75745  1.0000
  H   H37       1.0  0.46994  0.35328  0.21908  1.0000
  C   C75       1.0  0.06403  0.19314  0.02561  1.0000
  C   C76       1.0  0.09443  0.17274  0.01132  1.0000
  C   C77       1.0  0.06383  0.09383  0.02604  1.0000
  C   C78       1.0  0.09429  0.11390  0.01153  1.0000
  H   H38       1.0  0.11336  0.20031  0.99997  1.0000
  H   H39       1.0  0.11305  0.08601  0.00052  1.0000
  C   C79       1.0  0.64617  0.38639  0.67775  1.0000
  C   C80       1.0  0.85244  0.42603  0.01609  1.0000
  C   C81       1.0  0.56497  0.60509  0.54094  1.0000
  C   C82       1.0  0.55500  0.61226  0.60412  1.0000
  N   N16       1.0  0.66833  0.64528  0.79740  1.0000
  C   C83       1.0  0.40458  0.58322  0.51602  1.0000
  H   H40       1.0  0.38801  0.56940  0.41949  1.0000
  C   C84       1.0  0.02461  0.27085  0.02958  1.0000
  C   C85       1.0  0.01550  0.32880  0.04636  1.0000
  N   N17       1.0  0.15021  0.46388  0.98566  1.0000
  C   C86       1.0  0.94503  0.25258  0.02000  1.0000
  H   H41       1.0  0.03036  0.36369  0.05978  1.0000
  H   H42       1.0  0.64178  0.41489  0.63736  1.0000
  H   H43       1.0  0.83419  0.41841  0.04998  1.0000
  C   C87       1.0  0.65079  0.38710  0.28913  1.0000
  C   C88       1.0  0.85094  0.86606  0.02587  1.0000
  C   C89       1.0  0.56584  0.60606  0.43869  1.0000
  C   C90       1.0  0.55677  0.61449  0.37504  1.0000
  N   N18       1.0  0.67335  0.64630  0.19009  1.0000
  C   C91       1.0  0.40519  0.58450  0.45167  1.0000
  H   H44       1.0  0.38688  0.56675  0.54608  1.0000
  C   C92       1.0  0.02393  0.01695  0.03148  1.0000
  C   C93       1.0  0.01443  0.95910  0.04871  1.0000
  N   N19       1.0  0.14818  0.82314  0.98124  1.0000
  C   C94       1.0  0.94474  0.03729  0.02377  1.0000
  H   H45       1.0  0.02904  0.92374  0.06193  1.0000
  H   H46       1.0  0.64912  0.41980  0.32620  1.0000
  H   H47       1.0  0.83593  0.86667  0.06692  1.0000
  C   C95       1.0  0.23900  0.64575  0.98513  1.0000
  C   C96       1.0  0.04574  0.14362  0.03516  1.0000
  H   H48       1.0  0.02245  0.14362  0.04956  1.0000
  N   N20       1.0  0.54818  0.61921  0.48925  1.0000
  C   C97       1.0  0.52464  0.61937  0.62153  1.0000
  C   C98       1.0  0.51370  0.63954  0.68230  1.0000
  C   C99       1.0  0.52664  0.62272  0.35592  1.0000
  C   C100      1.0  0.51671  0.64575  0.29531  1.0000
  H   H49       1.0  0.53170  0.66105  0.25878  1.0000
  H   H50       1.0  0.52799  0.65445  0.72018  1.0000
  C   C101      1.0  0.93688  0.80389  0.51914  1.0000
  C   C102      1.0  0.90685  0.82424  0.50127  1.0000
  C   C103      1.0  0.93703  0.90323  0.51860  1.0000
  C   C104      1.0  0.90690  0.88310  0.50127  1.0000
  H   H51       1.0  0.88816  0.79657  0.48867  1.0000
  H   H52       1.0  0.88834  0.91109  0.48861  1.0000
  C   C105      1.0  0.50027  0.61053  0.39142  1.0000
  H   H53       1.0  0.49970  0.58939  0.43663  1.0000
  C   C106      1.0  0.49886  0.60749  0.58391  1.0000
  H   H54       1.0  0.49916  0.58836  0.53786  1.0000
  C   C107      1.0  0.50004  0.39364  0.89095  1.0000
  H   H55       1.0  0.49975  0.41380  0.93650  1.0000
  C   C108      1.0  0.50034  0.39849  0.08333  1.0000
  H   H56       1.0  0.50058  0.41724  0.03687  1.0000
  N   N21       1.0  0.00086  0.76053  0.51953  1.0000
  N   N22       1.0  0.00079  0.94687  0.51830  1.0000
  N   N23       1.0  0.00008  0.23705  0.01671  1.0000
  N   N24       1.0  0.99974  0.05141  0.01916  1.0000
  C   C109      1.0  0.38511  0.65028  0.64727  1.0000
  C   C110      1.0  0.41282  0.62188  0.64679  1.0000
  C  Sn1       1.0  0.42026  0.58332  0.69483  1.0000
  C  Sn2       1.0  0.39953  0.57308  0.74418  1.0000
  C   C111      1.0  0.37185  0.60167  0.74421  1.0000
  C   C112      1.0  0.36464  0.64019  0.69592  1.0000
  H   H57       1.0  0.37953  0.68005  0.60990  1.0000
  O  Te1       1.0  0.44805  0.55533  0.69364  1.0000
  O  Te2       1.0  0.40638  0.53474  0.79276  1.0000
  H   H58       1.0  0.34318  0.66214  0.69628  1.0000
  Mg  Mg1       1.0  0.44708  0.50701  0.77038  1.0000
  C   C113      1.0  0.28884  0.70362  0.86579  1.0000
  C   C114      1.0  0.30356  0.65627  0.83981  1.0000
  C  Sn3       1.0  0.29541  0.60042  0.85748  1.0000
  C  Sn4       1.0  0.27209  0.59194  0.90197  1.0000
  C   C115      1.0  0.25750  0.63959  0.92765  1.0000
  C   C116      1.0  0.26583  0.69529  0.90966  1.0000
  H   H59       1.0  0.29528  0.74672  0.85185  1.0000
  O  Te3       1.0  0.31035  0.55360  0.83108  1.0000
  O  Te4       1.0  0.26350  0.53659  0.92044  1.0000
  H   H60       1.0  0.25442  0.73194  0.92975  1.0000
  Mg  Mg2       1.0  0.29057  0.48651  0.87123  1.0000
  C   C117      1.0  0.08211  0.64328  0.48029  1.0000
  C   C118      1.0  0.07760  0.68784  0.52309  1.0000
  C  Sn5       1.0  0.09893  0.69880  0.56989  1.0000
  C  Sn6       1.0  0.12526  0.66444  0.57377  1.0000
  C   C119      1.0  0.12957  0.61999  0.53070  1.0000
  C   C120      1.0  0.10807  0.60939  0.48408  1.0000
  H   H61       1.0  0.06549  0.63510  0.44419  1.0000
  O  Te5       1.0  0.09406  0.74348  0.61228  1.0000
  O  Te6       1.0  0.14695  0.67447  0.62006  1.0000
  H   H62       1.0  0.11158  0.57491  0.45092  1.0000
  Mg  Mg3       1.0  0.13015  0.74033  0.66704  1.0000
  C   C121      1.0  0.18753  0.45918  0.42360  1.0000
  C   C122      1.0  0.17365  0.48457  0.47533  1.0000
  C  Sn7       1.0  0.18334  0.47138  0.53613  1.0000
  C  Sn8       1.0  0.20737  0.43202  0.54516  1.0000
  C   C123      1.0  0.22111  0.40688  0.49310  1.0000
  C   C124      1.0  0.21124  0.42038  0.43246  1.0000
  H   H63       1.0  0.17990  0.46964  0.37668  1.0000
  O  Te7       1.0  0.16922  0.49712  0.58729  1.0000
  O  Te8       1.0  0.21750  0.41809  0.60542  1.0000
  H   H64       1.0  0.22199  0.40074  0.39241  1.0000
  Mg  Mg4       1.0  0.19107  0.46436  0.66025  1.0000
  C   C125      1.0  0.37589  0.35018  0.17625  1.0000
  C   C126      1.0  0.37492  0.38139  0.23214  1.0000
  C  Sn9       1.0  0.39706  0.42245  0.24530  1.0000
  C  Sn10      1.0  0.42057  0.43236  0.20159  1.0000
  C   C127      1.0  0.42133  0.40094  0.14579  1.0000
  C   C128      1.0  0.39906  0.35994  0.13311  1.0000
  H   H65       1.0  0.35865  0.31848  0.16642  1.0000
  O  Te9       1.0  0.39576  0.45325  0.30137  1.0000
  O  Te10      1.0  0.44298  0.47316  0.21355  1.0000
  H   H66       1.0  0.39980  0.33580  0.08982  1.0000
  Mg  Mg5       1.0  0.43148  0.50424  0.29647  1.0000
  C   C129      1.0  0.28874  0.41844  0.36757  1.0000
  C   C130      1.0  0.30599  0.37330  0.34381  1.0000
  C  Sn11      1.0  0.29997  0.31658  0.36186  1.0000
  C  Sn12      1.0  0.27621  0.30497  0.40449  1.0000
  C   C131      1.0  0.25907  0.35043  0.42796  1.0000
  C   C132      1.0  0.26530  0.40702  0.40960  1.0000
  H   H67       1.0  0.29354  0.46223  0.35334  1.0000
  O  Te11      1.0  0.31744  0.27200  0.33769  1.0000
  O  Te12      1.0  0.26970  0.24868  0.42331  1.0000
  H   H68       1.0  0.25192  0.44196  0.42797  1.0000
  Mg  Mg6       1.0  0.29986  0.20250  0.37744  1.0000
  C   C133      1.0  0.10829  0.98457  0.08001  1.0000
  C   C134      1.0  0.08481  0.99439  0.03751  1.0000
  C  Sn13      1.0  0.08108  0.95285  0.98809  1.0000
  C  Sn14      1.0  0.09985  0.90395  0.98122  1.0000
  C   C135      1.0  0.12190  0.89786  0.02401  1.0000
  C   C136      1.0  0.12681  0.93634  0.07328  1.0000
  H   H69       1.0  0.11100  0.01432  0.11815  1.0000
  O  Te13      1.0  0.05753  0.96332  0.94603  1.0000
  O  Te14      1.0  0.09525  0.86510  0.93227  1.0000
  H   H70       1.0  0.14498  0.92870  0.10621  1.0000
  Mg  Mg7       1.0  0.06025  0.89794  0.88695  1.0000
  C   C137      1.0  0.19925  0.72614  0.05033  1.0000
  C   C138      1.0  0.21393  0.69505  0.99939  1.0000
  C  Sn15      1.0  0.20666  0.71145  0.93806  1.0000
  C  Sn16      1.0  0.18567  0.75647  0.92768  1.0000
  C   C139      1.0  0.17249  0.78396  0.97896  1.0000
  C   C140      1.0  0.17855  0.77056  0.04013  1.0000
  H   H71       1.0  0.20501  0.71319  0.09767  1.0000
  O  Te15      1.0  0.22017  0.68329  0.88771  1.0000
  O  Te16      1.0  0.17800  0.77374  0.86687  1.0000
  H   H72       1.0  0.16825  0.79205  0.07956  1.0000
  Mg  Mg8       1.0  0.20243  0.72226  0.81354  1.0000
  C   C141      1.0  0.37423  0.65720  0.30063  1.0000
  C   C142      1.0  0.37493  0.63352  0.24046  1.0000
  C  Sn17      1.0  0.39928  0.59970  0.22185  1.0000
  C  Sn18      1.0  0.42334  0.58945  0.26438  1.0000
  C   C143      1.0  0.42242  0.61330  0.32449  1.0000
  C   C144      1.0  0.39795  0.64709  0.34261  1.0000
  H   H73       1.0  0.35530  0.68332  0.31467  1.0000
  O  Te17      1.0  0.39962  0.57640  0.16155  1.0000
  O  Te18      1.0  0.44794  0.55580  0.24701  1.0000
  H   H74       1.0  0.39741  0.66538  0.38922  1.0000
  Mg  Mg9       1.0  0.43809  0.53345  0.15974  1.0000
  C   C145      1.0  0.27561  0.70805  0.07832  1.0000
  C   C146      1.0  0.26491  0.66133  0.04361  1.0000
  C  Sn19      1.0  0.27453  0.60555  0.05779  1.0000
  C  Sn20      1.0  0.29523  0.59652  0.10769  1.0000
  C   C147      1.0  0.30578  0.64354  0.14216  1.0000
  C   C148      1.0  0.29602  0.69917  0.12756  1.0000
  H   H75       1.0  0.26804  0.75109  0.06704  1.0000
  O  Te19      1.0  0.26363  0.55936  0.02262  1.0000
  O  Te20      1.0  0.30521  0.54122  0.12288  1.0000
  H   H76       1.0  0.30429  0.73533  0.15447  1.0000
  Mg  Mg10      1.0  0.28389  0.49210  0.06129  1.0000
  C   C149      1.0  0.09536  0.08495  0.47027  1.0000
  C   C150      1.0  0.11860  0.09441  0.51340  1.0000
  C  Sn21      1.0  0.12273  0.05681  0.56400  1.0000
  C  Sn22      1.0  0.10321  0.00887  0.57142  1.0000
  C   C151      1.0  0.08004  0.99976  0.52799  1.0000
  C   C152      1.0  0.07610  0.03766  0.47754  1.0000
  H   H77       1.0  0.09232  0.11426  0.43122  1.0000
  O  Te21      1.0  0.14606  0.06691  0.60667  1.0000
  O  Te22      1.0  0.10792  0.97060  0.62154  1.0000
  H   H78       1.0  0.05812  0.03030  0.44414  1.0000
  Mg  Mg11      1.0  0.14190  0.00261  0.66732  1.0000
  C   C153      1.0  0.19068  0.24674  0.41780  1.0000
  C   C154      1.0  0.17672  0.21909  0.46831  1.0000
  C  Sn23      1.0  0.18278  0.23645  0.52977  1.0000
  C  Sn24      1.0  0.20322  0.28237  0.54072  1.0000
  C   C155      1.0  0.21706  0.30979  0.48987  1.0000
  C   C156      1.0  0.21084  0.29205  0.42856  1.0000
  H   H79       1.0  0.18586  0.23305  0.37036  1.0000
  O  Te23      1.0  0.16864  0.20835  0.57969  1.0000
  O  Te24      1.0  0.20969  0.30061  0.60167  1.0000
  H   H80       1.0  0.22164  0.31349  0.38946  1.0000
  Mg  Mg12      1.0  0.18477  0.24881  0.65426  1.0000
  C   C157      1.0  0.38727  0.34195  0.82376  1.0000
  C   C158      1.0  0.41465  0.37169  0.82500  1.0000
  C  Sn25      1.0  0.42204  0.40989  0.77663  1.0000
  C  Sn26      1.0  0.40160  0.41839  0.72616  1.0000
  C   C159      1.0  0.37426  0.38846  0.72538  1.0000
  C   C160      1.0  0.36709  0.35032  0.77401  1.0000
  H   H81       1.0  0.38171  0.31246  0.86140  1.0000
  O  Te25      1.0  0.44950  0.43924  0.77859  1.0000
  O  Te26      1.0  0.40843  0.45633  0.67722  1.0000
  H   H82       1.0  0.34588  0.32733  0.77306  1.0000
  Mg  Mg13      1.0  0.44862  0.48636  0.70096  1.0000
  C   C161      1.0  0.27697  0.29243  0.57815  1.0000
  C   C162      1.0  0.26337  0.33952  0.54864  1.0000
  C  Sn27      1.0  0.27305  0.39542  0.56192  1.0000
  C  Sn28      1.0  0.29679  0.40421  0.60557  1.0000
  C   C163      1.0  0.31026  0.35682  0.63481  1.0000
  C   C164      1.0  0.30040  0.30106  0.62119  1.0000
  H   H83       1.0  0.26935  0.24928  0.56759  1.0000
  O  Te27      1.0  0.25921  0.44198  0.53203  1.0000
  O  Te28      1.0  0.30691  0.45963  0.61970  1.0000
  H   H84       1.0  0.31095  0.26461  0.64402  1.0000
  Mg  Mg14      1.0  0.28092  0.50928  0.56684  1.0000
  C   C165      1.0  0.08111  0.35506  0.97750  1.0000
  C   C166      1.0  0.07716  0.30946  0.01539  1.0000
  C  Sn29      1.0  0.09806  0.29921  0.06326  1.0000
  C  Sn30      1.0  0.12195  0.33880  0.07328  1.0000
  C   C167      1.0  0.12432  0.38768  0.03515  1.0000
  C   C168      1.0  0.10465  0.39414  0.98737  1.0000
  H   H85       1.0  0.06483  0.36269  0.94055  1.0000
  O  Te29      1.0  0.09516  0.25006  0.10067  1.0000
  O  Te30      1.0  0.14314  0.32961  0.12081  1.0000
  H   H86       1.0  0.10664  0.43208  0.95807  1.0000
  Mg  Mg15      1.0  0.12964  0.25638  0.15943  1.0000
  C   C169      1.0  0.18721  0.54034  0.92206  1.0000
  C   C170      1.0  0.17587  0.50958  0.97332  1.0000
  C  Sn31      1.0  0.18348  0.52701  0.03427  1.0000
  C  Sn32      1.0  0.20418  0.57274  0.04394  1.0000
  C   C171      1.0  0.21674  0.59991  0.99236  1.0000
  C   C172      1.0  0.20762  0.58547  0.93156  1.0000
  H   H87       1.0  0.18014  0.52919  0.87502  1.0000
  O  Te31      1.0  0.17195  0.49582  0.08495  1.0000
  O  Te32      1.0  0.21352  0.58771  0.10437  1.0000
  H   H88       1.0  0.21638  0.60932  0.89189  1.0000
  Mg  Mg16      1.0  0.19148  0.53246  0.15836  1.0000
  C   C173      1.0  0.62466  0.34454  0.17454  1.0000
  C   C174      1.0  0.62827  0.37890  0.22773  1.0000
  C  Sn33      1.0  0.60620  0.41895  0.24382  1.0000
  C  Sn34      1.0  0.58005  0.42458  0.20587  1.0000
  C   C175      1.0  0.57665  0.38997  0.15278  1.0000
  C   C176      1.0  0.59888  0.35005  0.13710  1.0000
  H   H89       1.0  0.64185  0.31363  0.16242  1.0000
  O  Te33      1.0  0.61016  0.45295  0.29710  1.0000
  O  Te34      1.0  0.55763  0.46425  0.22088  1.0000
  H   H90       1.0  0.59607  0.32343  0.09594  1.0000
  Mg  Mg17      1.0  0.57332  0.50086  0.29815  1.0000
  C   C177      1.0  0.72703  0.41167  0.38696  1.0000
  C   C178      1.0  0.73697  0.36634  0.42494  1.0000
  C  Sn35      1.0  0.72614  0.31057  0.41524  1.0000
  C  Sn36      1.0  0.70497  0.30012  0.36656  1.0000
  C   C179      1.0  0.69519  0.34576  0.32879  1.0000
  C   C180      1.0  0.70616  0.40140  0.33893  1.0000
  H   H91       1.0  0.73553  0.45471  0.39478  1.0000
  O  Te35      1.0  0.73630  0.26577  0.45363  1.0000
  O  Te36      1.0  0.69379  0.24480  0.35582  1.0000
  H   H92       1.0  0.69848  0.43648  0.30949  1.0000
  Mg  Mg18      1.0  0.71445  0.19788  0.42059  1.0000
  C   C181      1.0  0.91960  0.35646  0.96731  1.0000
  C   C182      1.0  0.92221  0.31446  0.00974  1.0000
  C  Sn37      1.0  0.90073  0.30372  0.05614  1.0000
  C  Sn38      1.0  0.87481  0.33912  0.06000  1.0000
  C   C183      1.0  0.87103  0.38438  0.01731  1.0000
  C   C184      1.0  0.89403  0.39139  0.97108  1.0000
  H   H93       1.0  0.93633  0.36448  0.93152  1.0000
  O  Te37      1.0  0.90505  0.25822  0.09816  1.0000
  O  Te38      1.0  0.85298  0.32933  0.10590  1.0000
  H   H94       1.0  0.89094  0.42650  0.93821  1.0000
  Mg  Mg19      1.0  0.86899  0.26208  0.15246  1.0000
  C   C185      1.0  0.81123  0.53653  0.05067  1.0000
  C   C186      1.0  0.82675  0.50873  0.99871  1.0000
  C  Sn39      1.0  0.82012  0.52843  0.93821  1.0000
  C  Sn40      1.0  0.79893  0.57343  0.92973  1.0000
  C   C187      1.0  0.78491  0.59761  0.98202  1.0000
  C   C188      1.0  0.79034  0.58094  0.04235  1.0000
  H   H95       1.0  0.81650  0.52105  0.09736  1.0000
  O  Te39      1.0  0.83445  0.50353  0.88681  1.0000
  O  Te40      1.0  0.79189  0.59395  0.86978  1.0000
  H   H96       1.0  0.77939  0.59988  0.08257  1.0000
  Mg  Mg20      1.0  0.81735  0.54622  0.81445  1.0000
  C   C189      1.0  0.61161  0.65243  0.65430  1.0000
  C   C190      1.0  0.58591  0.61801  0.64851  1.0000
  C  Sn41      1.0  0.57837  0.57882  0.69583  1.0000
  C  Sn42      1.0  0.59693  0.57411  0.74990  1.0000
  C   C191      1.0  0.62258  0.60877  0.75526  1.0000
  C   C192      1.0  0.62992  0.64782  0.70762  1.0000
  H   H97       1.0  0.61728  0.68267  0.61745  1.0000
  O  Te41      1.0  0.55262  0.54475  0.68928  1.0000
  O  Te42      1.0  0.58991  0.53531  0.79791  1.0000
  H   H98       1.0  0.64981  0.67449  0.71214  1.0000
  Mg  Mg21      1.0  0.55248  0.49824  0.76736  1.0000
  C   C193      1.0  0.72340  0.58385  0.89595  1.0000
  C   C194      1.0  0.73651  0.63091  0.92628  1.0000
  C  Sn43      1.0  0.72524  0.68632  0.91642  1.0000
  C  Sn44      1.0  0.70038  0.69462  0.87541  1.0000
  C   C195      1.0  0.68741  0.64725  0.84533  1.0000
  C   C196      1.0  0.69887  0.59200  0.85552  1.0000
  H   H99       1.0  0.73225  0.54109  0.90386  1.0000
  O  Te43      1.0  0.73861  0.73286  0.94708  1.0000
  O  Te44      1.0  0.68867  0.74953  0.86473  1.0000
  H   H100      1.0  0.68870  0.55556  0.83207  1.0000
  Mg  Mg22      1.0  0.71459  0.79937  0.91734  1.0000
  C   C197      1.0  0.87927  0.03041  0.57516  1.0000
  C   C198      1.0  0.87678  0.08085  0.53962  1.0000
  C  Sn45      1.0  0.89722  0.09231  0.49141  1.0000
  C  Sn46      1.0  0.92055  0.05243  0.47864  1.0000
  C   C199      1.0  0.92283  0.00207  0.51443  1.0000
  C   C200      1.0  0.90335  0.99105  0.56258  1.0000
  H   H101      1.0  0.86335  0.02186  0.61239  1.0000
  O  Te45      1.0  0.89442  0.14292  0.45638  1.0000
  O  Te46      1.0  0.94127  0.06279  0.43071  1.0000
  H   H102      1.0  0.90527  0.95197  0.59006  1.0000
  Mg  Mg23      1.0  0.92813  0.13783  0.39599  1.0000
  C   C201      1.0  0.80122  0.27251  0.55346  1.0000
  C   C202      1.0  0.78696  0.29926  0.50264  1.0000
  C  Sn47      1.0  0.79231  0.28041  0.44151  1.0000
  C  Sn48      1.0  0.81233  0.23388  0.43121  1.0000
  C   C203      1.0  0.82647  0.20738  0.48237  1.0000
  C   C204      1.0  0.82095  0.22661  0.54335  1.0000
  H   H103      1.0  0.79694  0.28736  0.60065  1.0000
  O  Te47      1.0  0.77789  0.30763  0.39127  1.0000
  O  Te48      1.0  0.81808  0.21416  0.37060  1.0000
  H   H104      1.0  0.83198  0.20586  0.58269  1.0000
  Mg  Mg24      1.0  0.79301  0.26520  0.31736  1.0000
  C   C205      1.0  0.57887  0.42826  0.75320  1.0000
  C   C206      1.0  0.57704  0.39441  0.80740  1.0000
  C  Sn49      1.0  0.60046  0.35700  0.82331  1.0000
  C  Sn50      1.0  0.62618  0.35354  0.78415  1.0000
  C   C207      1.0  0.62781  0.38762  0.73005  1.0000
  C   C208      1.0  0.60424  0.42489  0.71456  1.0000
  H   H105      1.0  0.56064  0.45712  0.74123  1.0000
  O  Te49      1.0  0.59826  0.32347  0.87761  1.0000
  O  Te50      1.0  0.64993  0.31653  0.79895  1.0000
  H   H106      1.0  0.60567  0.45113  0.67262  1.0000
  Mg  Mg25      1.0  0.63644  0.27954  0.87790  1.0000
  C   C209      1.0  0.72549  0.29556  0.58805  1.0000
  C   C210      1.0  0.73513  0.33908  0.54732  1.0000
  C  Sn51      1.0  0.72370  0.39480  0.55290  1.0000
  C  Sn52      1.0  0.70224  0.40705  0.60018  1.0000
  C   C211      1.0  0.69276  0.36323  0.64073  1.0000
  C   C212      1.0  0.70433  0.30762  0.63472  1.0000
  H   H107      1.0  0.73445  0.25254  0.58343  1.0000
  O  Te51      1.0  0.73357  0.43777  0.51180  1.0000
  O  Te52      1.0  0.69047  0.46237  0.60681  1.0000
  H   H108      1.0  0.69688  0.27394  0.66629  1.0000
  Mg  Mg26      1.0  0.71091  0.50643  0.53953  1.0000
  C   C213      1.0  0.91689  0.93612  0.97129  1.0000
  C   C214      1.0  0.91954  0.98664  0.01100  1.0000
  C  Sn53      1.0  0.90017  0.99511  0.06167  1.0000
  C  Sn54      1.0  0.87636  0.95556  0.07268  1.0000
  C   C215      1.0  0.87255  0.90850  0.03271  1.0000
  C   C216      1.0  0.89342  0.89708  0.98214  1.0000
  H   H109      1.0  0.93200  0.92987  0.93218  1.0000
  O  Te53      1.0  0.90341  0.04245  0.10086  1.0000
  O  Te54      1.0  0.85667  0.96298  0.12299  1.0000
  H   H110      1.0  0.89032  0.86056  0.95143  1.0000
  Mg  Mg27      1.0  0.87069  0.03412  0.16324  1.0000
  C   C217      1.0  0.79258  0.73779  0.92245  1.0000
  C   C218      1.0  0.78389  0.70230  0.97232  1.0000
  C  Sn55      1.0  0.79444  0.71441  0.03229  1.0000
  C  Sn56      1.0  0.81544  0.75957  0.04238  1.0000
  C   C219      1.0  0.82535  0.79149  0.99219  1.0000
  C   C220      1.0  0.81329  0.78235  0.93237  1.0000
  H   H111      1.0  0.78324  0.73075  0.87617  1.0000
  O  Te55      1.0  0.78552  0.67855  0.08159  1.0000
  O  Te56      1.0  0.82770  0.76927  0.10185  1.0000
  H   H112      1.0  0.82001  0.80986  0.89378  1.0000
  Mg  Mg28      1.0  0.80853  0.70890  0.15408  1.0000
  C   C221      1.0  0.59362  0.57278  0.23420  1.0000
  C   C222      1.0  0.61972  0.60633  0.23051  1.0000
  C  Sn57      1.0  0.62704  0.64451  0.27873  1.0000
  C  Sn58      1.0  0.60782  0.64910  0.33156  1.0000
  C   C223      1.0  0.58178  0.61532  0.33483  1.0000
  C   C224      1.0  0.57467  0.57726  0.28630  1.0000
  H   H113      1.0  0.58813  0.54331  0.19668  1.0000
  O  Te57      1.0  0.65319  0.67772  0.27428  1.0000
  O  Te58      1.0  0.61460  0.68690  0.38043  1.0000
  H   H114      1.0  0.55447  0.55127  0.28919  1.0000
  Mg  Mg29      1.0  0.65278  0.72304  0.35282  1.0000
  C   C225      1.0  0.71572  0.70313  0.11700  1.0000
  C   C226      1.0  0.69826  0.65726  0.13906  1.0000
  C  Sn59      1.0  0.70265  0.60183  0.11565  1.0000
  C  Sn60      1.0  0.72496  0.59228  0.06931  1.0000
  C   C227      1.0  0.74232  0.63845  0.04758  1.0000
  C   C228      1.0  0.73773  0.69374  0.07131  1.0000
  H   H115      1.0  0.71219  0.74590  0.13539  1.0000
  O  Te59      1.0  0.68501  0.55649  0.13819  1.0000
  O  Te60      1.0  0.72982  0.53731  0.04512  1.0000
  H   H116      1.0  0.75126  0.72924  0.05425  1.0000
  Mg  Mg30      1.0  0.70008  0.48939  0.09069  1.0000
  C   C229      1.0  0.88917  0.70194  0.57047  1.0000
  C   C230      1.0  0.91628  0.70268  0.53732  1.0000
  C  Sn61      1.0  0.92261  0.65951  0.49387  1.0000
  C  Sn62      1.0  0.90137  0.61483  0.48351  1.0000
  C   C231      1.0  0.87430  0.61449  0.51688  1.0000
  C   C232      1.0  0.86820  0.65790  0.56026  1.0000
  H   H117      1.0  0.88444  0.73553  0.60401  1.0000
  O  Te61      1.0  0.94981  0.66089  0.46117  1.0000
  O  Te62      1.0  0.90712  0.57116  0.44035  1.0000
  H   H118      1.0  0.84720  0.65733  0.58589  1.0000
  Mg  Mg31      1.0  0.94736  0.59176  0.40726  1.0000
  C   C233      1.0  0.80720  0.46570  0.55471  1.0000
  C   C234      1.0  0.82594  0.48448  0.50618  1.0000
  C  Sn63      1.0  0.82191  0.46362  0.44532  1.0000
  C  Sn64      1.0  0.79866  0.42321  0.43296  1.0000
  C   C235      1.0  0.78001  0.40472  0.48182  1.0000
  C   C236      1.0  0.78425  0.42587  0.54256  1.0000
  H   H119      1.0  0.81046  0.48208  0.60170  1.0000
  O  Te63      1.0  0.84085  0.48282  0.39738  1.0000
  O  Te64      1.0  0.79413  0.40168  0.37256  1.0000
  H   H120      1.0  0.76972  0.41134  0.58011  1.0000
  Mg  Mg32      1.0  0.82576  0.44090  0.32285  1.0000
