data_image0
_chemical_formula_structural       C4NCHC2NCH3C4NCHC2NCH3CN2C4H2C4H2C4NCHC2NCH3C4NCHC2NCH3CN2C4H2C4H2C4NCHC2NCH3C4NCHC2NCH3CN2C4H2C4H2C4NCHC2NCH3C4NCHC2NCH3CN2C4H2C4H2N2CuN2CuN2CuN2CuSnCSn2CSnTe4Mg2SnCSn2CSnTe4Mg2SnCSn2CSnTe4Mg2SnCSn2CSnTe4Mg2SnCSn2CSnTe4Mg2SnCSn2CSnTe4Mg2SnCSn2CSnTe4Mg2SnCSn2CSnTe4Mg2SnCSn2CSnTe4Mg2SnCSn2CSnTe4Mg2SnCSn2CSnTe4Mg2SnCSn2CSnTe4Mg2SnCSn2CSnTe4Mg2SnCSn2CSnTe4Mg2SnCSn2CSnTe4Mg2SnCSn2CSnTe4Mg2SnCSn2CSnTe4Mg2SnCSn2CSnTe4Mg2SnCSn2CSnTe4Mg2SnCSn2CSnTe4Mg2SnCSn2CSnTe4Mg2SnCSn2CSnTe4Mg2SnCSn2CSnTe4Mg2SnCSn2CSnTe4Mg2SnCSn2CSnTe4Mg2SnCSn2CSnTe4Mg2SnCSn2CSnTe4Mg2SnCSn2CSnTe4Mg2SnCSn2CSnTe4Mg2SnCSn2CSnTe4Mg2SnCSn2CSnTe4Mg2SnCSn2CSnTe4Mg2
_chemical_formula_sum              "C164 N32 H48 Cu4 Sn128 Te128 Mg64"
_cell_length_a       44.3319
_cell_length_b       23.2738
_cell_length_c       21.1911
_cell_angle_alpha    89.2834
_cell_angle_beta     90.096
_cell_angle_gamma    90.2398

_symmetry_space_group_name_H-M    'P1'
_space_group_IT_number       1

loop_
  _space_group_symop_operation_xyz
  'x, y, z'

loop_
  _atom_site_type_symbol
  _atom_site_label
  _atom_site_symmetry_multiplicity
  _atom_site_fract_x
  _atom_site_fract_y
  _atom_site_fract_z
  _atom_site_occupancy
  C   C1        1.0  0.35154  0.37997  0.68251  1.0000
  C   C2        1.0  0.14739  0.43673  0.03251  1.0000
  C   C3        1.0  0.43652  0.61276  0.53890  1.0000
  C   C4        1.0  0.44569  0.61724  0.60209  1.0000
  N   N1        1.0  0.33054  0.65701  0.79040  1.0000
  C   C5        1.0  0.59481  0.59680  0.51820  1.0000
  H   H1        1.0  0.61321  0.58891  0.42217  1.0000
  C   C6        1.0  0.97573  0.27801  0.01851  1.0000
  C   C7        1.0  0.98533  0.33709  0.02349  1.0000
  N   N2        1.0  0.85120  0.47492  0.97738  1.0000
  C   C8        1.0  0.05559  0.26026  0.02599  1.0000
  H   H2        1.0  0.97033  0.37351  0.02594  1.0000
  H   H3        1.0  0.35409  0.41167  0.64385  1.0000
  H   H4        1.0  0.16154  0.43636  0.07526  1.0000
  C   C9        1.0  0.35060  0.38253  0.29242  1.0000
  C   C10       1.0  0.14698  0.87397  0.02683  1.0000
  C   C11       1.0  0.43622  0.61509  0.43464  1.0000
  C   C12       1.0  0.44503  0.62257  0.37143  1.0000
  N   N3        1.0  0.32958  0.66193  0.18016  1.0000
  C   C13       1.0  0.59459  0.59724  0.45372  1.0000
  H   H5        1.0  0.61356  0.58803  0.54963  1.0000
  C   C14       1.0  0.97535  0.03309  0.02432  1.0000
  C   C15       1.0  0.98470  0.97399  0.03155  1.0000
  N   N4        1.0  0.84857  0.83949  0.98322  1.0000
  C   C16       1.0  0.05551  0.05033  0.02685  1.0000
  H   H6        1.0  0.96957  0.93761  0.03667  1.0000
  H   H7        1.0  0.35321  0.41546  0.32890  1.0000
  H   H8        1.0  0.16159  0.87261  0.06892  1.0000
  C   C17       1.0  0.76171  0.65385  0.98802  1.0000
  N   N5        1.0  0.95473  0.15547  0.01939  1.0000
  N   N6        1.0  0.45499  0.61866  0.48667  1.0000
  C   C18       1.0  0.47592  0.62203  0.62119  1.0000
  C   C19       1.0  0.48560  0.63137  0.68534  1.0000
  C   C20       1.0  0.47526  0.62786  0.35245  1.0000
  C   C21       1.0  0.48479  0.64078  0.28876  1.0000
  H   H9        1.0  0.46973  0.65057  0.24988  1.0000
  H   H10       1.0  0.47063  0.63784  0.72491  1.0000
  C   C22       1.0  0.06342  0.79662  0.52641  1.0000
  C   C23       1.0  0.09461  0.81375  0.51987  1.0000
  C   C24       1.0  0.06449  0.89157  0.52440  1.0000
  C   C25       1.0  0.09525  0.87243  0.51839  1.0000
  H   H11       1.0  0.11339  0.78449  0.51560  1.0000
  H   H12       1.0  0.11459  0.90065  0.51312  1.0000
  C   C26       1.0  0.64936  0.61910  0.18304  1.0000
  C   C27       1.0  0.85100  0.56741  0.52739  1.0000
  C   C28       1.0  0.56379  0.38724  0.04210  1.0000
  C   C29       1.0  0.55433  0.38267  0.10517  1.0000
  N   N7        1.0  0.66976  0.34460  0.29322  1.0000
  C   C30       1.0  0.40506  0.39922  0.01776  1.0000
  H   H13       1.0  0.38657  0.40500  0.92146  1.0000
  C   C31       1.0  0.02308  0.72276  0.53074  1.0000
  C   C32       1.0  0.01279  0.66393  0.53574  1.0000
  N   N8        1.0  0.14875  0.52791  0.48805  1.0000
  C   C33       1.0  0.94333  0.74329  0.52377  1.0000
  H   H14       1.0  0.02733  0.62684  0.54024  1.0000
  H   H15       1.0  0.64708  0.58659  0.14601  1.0000
  H   H16       1.0  0.83518  0.56893  0.56729  1.0000
  C   C34       1.0  0.64931  0.61313  0.79229  1.0000
  C   C35       1.0  0.85257  0.12603  0.52813  1.0000
  C   C36       1.0  0.56434  0.38621  0.93784  1.0000
  C   C37       1.0  0.55554  0.37983  0.87465  1.0000
  N   N9        1.0  0.66992  0.34310  0.68343  1.0000
  C   C38       1.0  0.40535  0.39832  0.95334  1.0000
  H   H17       1.0  0.38609  0.40652  0.04870  1.0000
  C   C39       1.0  0.02594  0.96809  0.52871  1.0000
  C   C40       1.0  0.01709  0.02734  0.53544  1.0000
  N   N10       1.0  0.15056  0.16414  0.48641  1.0000
  C   C41       1.0  0.94574  0.95325  0.52453  1.0000
  H   H18       1.0  0.03255  0.06314  0.54041  1.0000
  H   H19       1.0  0.64782  0.57843  0.82801  1.0000
  H   H20       1.0  0.83747  0.12409  0.56930  1.0000
  C   C42       1.0  0.23829  0.34856  0.48975  1.0000
  N   N11       1.0  0.04522  0.84474  0.52808  1.0000
  N   N12       1.0  0.54542  0.38259  0.98960  1.0000
  C   C43       1.0  0.52404  0.37807  0.12357  1.0000
  C   C44       1.0  0.51414  0.36829  0.18767  1.0000
  C   C45       1.0  0.52542  0.37349  0.85532  1.0000
  C   C46       1.0  0.51629  0.36043  0.79173  1.0000
  H   H21       1.0  0.53164  0.35135  0.75354  1.0000
  H   H22       1.0  0.52896  0.36079  0.22758  1.0000
  C   C47       1.0  0.93613  0.20294  0.01568  1.0000
  C   C48       1.0  0.90508  0.18493  0.01032  1.0000
  C   C49       1.0  0.93586  0.10805  0.01761  1.0000
  C   C50       1.0  0.90488  0.12627  0.01137  1.0000
  H   H23       1.0  0.88609  0.21373  0.00562  1.0000
  H   H24       1.0  0.88562  0.09782  0.00756  1.0000
  C   C51       1.0  0.35235  0.62754  0.17942  1.0000
  C   C52       1.0  0.14566  0.56451  0.53289  1.0000
  C   C53       1.0  0.43554  0.38892  0.03868  1.0000
  C   C54       1.0  0.44412  0.38409  0.10230  1.0000
  N   N13       1.0  0.32881  0.34551  0.29372  1.0000
  C   C55       1.0  0.59468  0.39618  0.02277  1.0000
  H   H25       1.0  0.61414  0.40158  0.92724  1.0000
  C   C56       1.0  0.97329  0.72459  0.52793  1.0000
  C   C57       1.0  0.98201  0.66511  0.53381  1.0000
  N   N14       1.0  0.84928  0.52816  0.48494  1.0000
  C   C58       1.0  0.05353  0.73928  0.52976  1.0000
  H   H26       1.0  0.96654  0.62912  0.53650  1.0000
  H   H27       1.0  0.35571  0.59669  0.14112  1.0000
  H   H28       1.0  0.16140  0.56633  0.57310  1.0000
  C   C59       1.0  0.35045  0.61670  0.78810  1.0000
  C   C60       1.0  0.14835  0.12527  0.53024  1.0000
  C   C61       1.0  0.43604  0.38723  0.93446  1.0000
  C   C62       1.0  0.44535  0.37996  0.87174  1.0000
  N   N15       1.0  0.32906  0.34455  0.68506  1.0000
  C   C63       1.0  0.59500  0.39571  0.95831  1.0000
  H   H29       1.0  0.61350  0.40235  0.05457  1.0000
  C   C64       1.0  0.97612  0.96976  0.52833  1.0000
  C   C65       1.0  0.98629  0.02831  0.53543  1.0000
  N   N16       1.0  0.84894  0.16329  0.48309  1.0000
  C   C66       1.0  0.05597  0.94949  0.52650  1.0000
  H   H30       1.0  0.97167  0.06509  0.54037  1.0000
  H   H31       1.0  0.35077  0.58045  0.82200  1.0000
  H   H32       1.0  0.16387  0.12352  0.57087  1.0000
  C   C67       1.0  0.76069  0.34527  0.48811  1.0000
  N   N17       1.0  0.95420  0.84794  0.52422  1.0000
  N   N18       1.0  0.45438  0.38317  0.98720  1.0000
  C   C68       1.0  0.47421  0.37883  0.12221  1.0000
  C   C69       1.0  0.48332  0.36878  0.18679  1.0000
  C   C70       1.0  0.47560  0.37331  0.85383  1.0000
  C   C71       1.0  0.48548  0.36023  0.79079  1.0000
  H   H33       1.0  0.47073  0.35107  0.75142  1.0000
  H   H34       1.0  0.46792  0.36193  0.22576  1.0000
  C   C72       1.0  0.06480  0.20275  0.02728  1.0000
  C   C73       1.0  0.09595  0.18492  0.02698  1.0000
  C   C74       1.0  0.06482  0.10793  0.02709  1.0000
  C   C75       1.0  0.09596  0.12626  0.02664  1.0000
  H   H35       1.0  0.11513  0.21382  0.02609  1.0000
  H   H36       1.0  0.11514  0.09764  0.02554  1.0000
  C   C76       1.0  0.64788  0.37923  0.68260  1.0000
  C   C77       1.0  0.85350  0.43520  0.02022  1.0000
  C   C78       1.0  0.56452  0.60938  0.53839  1.0000
  C   C79       1.0  0.55584  0.61510  0.60168  1.0000
  N   N19       1.0  0.66984  0.65262  0.79421  1.0000
  C   C80       1.0  0.40582  0.60248  0.51915  1.0000
  H   H37       1.0  0.38673  0.59733  0.42326  1.0000
  C   C81       1.0  0.02545  0.27785  0.02277  1.0000
  C   C82       1.0  0.01608  0.33705  0.02594  1.0000
  N   N20       1.0  0.15104  0.47358  0.98703  1.0000
  C   C83       1.0  0.94547  0.26054  0.01643  1.0000
  H   H38       1.0  0.03116  0.37341  0.03086  1.0000
  H   H39       1.0  0.64519  0.41169  0.64475  1.0000
  H   H40       1.0  0.83746  0.43164  0.05971  1.0000
  C   C84       1.0  0.64950  0.38427  0.29128  1.0000
  C   C85       1.0  0.85241  0.87574  0.02822  1.0000
  C   C86       1.0  0.56417  0.61035  0.43407  1.0000
  C   C87       1.0  0.55516  0.61794  0.37092  1.0000
  N   N21       1.0  0.67156  0.65517  0.18397  1.0000
  C   C88       1.0  0.40566  0.60386  0.45468  1.0000
  H   H41       1.0  0.38706  0.59454  0.55073  1.0000
  C   C89       1.0  0.02519  0.03294  0.02595  1.0000
  C   C90       1.0  0.01550  0.97388  0.03198  1.0000
  N   N22       1.0  0.15056  0.83921  0.98039  1.0000
  C   C91       1.0  0.94510  0.05054  0.02131  1.0000
  H   H42       1.0  0.03051  0.93756  0.03746  1.0000
  H   H43       1.0  0.64925  0.41972  0.32519  1.0000
  H   H44       1.0  0.83763  0.87671  0.06990  1.0000
  C   C92       1.0  0.23902  0.65730  0.98368  1.0000
  N   N23       1.0  0.04599  0.15521  0.02714  1.0000
  N   N24       1.0  0.54585  0.61587  0.48641  1.0000
  C   C93       1.0  0.52577  0.62145  0.62095  1.0000
  C   C94       1.0  0.51644  0.63119  0.68517  1.0000
  C   C95       1.0  0.52506  0.62563  0.35210  1.0000
  C   C96       1.0  0.51559  0.63936  0.28851  1.0000
  H   H45       1.0  0.53062  0.64778  0.24927  1.0000
  H   H46       1.0  0.53161  0.63778  0.72455  1.0000
  C   C97       1.0  0.93498  0.80119  0.51987  1.0000
  C   C98       1.0  0.90440  0.82036  0.51047  1.0000
  C   C99       1.0  0.93605  0.89601  0.51999  1.0000
  C   C100      1.0  0.90506  0.87902  0.51042  1.0000
  H   H47       1.0  0.88525  0.79211  0.50368  1.0000
  H   H48       1.0  0.88649  0.90844  0.50346  1.0000
  N   N25       1.0  0.50017  0.62042  0.39103  1.0000
  N   N26       1.0  0.50074  0.61755  0.58211  1.0000
  Cu  Cu1       1.0  0.49985  0.38216  0.98847  1.0000
  N   N27       1.0  0.50030  0.37956  0.89316  1.0000
  N   N28       1.0  0.49935  0.38300  0.08383  1.0000
  Cu  Cu2       1.0  0.50050  0.61828  0.48662  1.0000
  N   N29       1.0  0.99865  0.75945  0.52683  1.0000
  N   N30       1.0  0.00063  0.93327  0.52538  1.0000
  Cu  Cu3       1.0  0.00040  0.15536  0.02118  1.0000
  N   N31       1.0  0.00053  0.24217  0.01847  1.0000
  N   N32       1.0  0.00038  0.06873  0.02179  1.0000
  Cu  Cu4       1.0  0.99963  0.84645  0.52625  1.0000
  C  Sn1       1.0  0.41028  0.56093  0.69649  1.0000
  C   C101      1.0  0.41611  0.60201  0.64937  1.0000
  C  Sn2       1.0  0.40237  0.65587  0.65117  1.0000
  C  Sn3       1.0  0.38239  0.66895  0.70114  1.0000
  C   C102      1.0  0.37657  0.62788  0.74822  1.0000
  C  Sn4       1.0  0.39030  0.57401  0.74645  1.0000
  O  Te1       1.0  0.42427  0.50737  0.69374  1.0000
  O  Te2       1.0  0.40854  0.69623  0.60352  1.0000
  O  Te3       1.0  0.36839  0.72256  0.70385  1.0000
  O  Te4       1.0  0.38414  0.53367  0.79407  1.0000
  Mg  Mg1       1.0  0.38399  0.76321  0.62799  1.0000
  Mg  Mg2       1.0  0.40868  0.46669  0.76966  1.0000
  C  Sn5       1.0  0.29873  0.70937  0.88272  1.0000
  C   C103      1.0  0.30980  0.66196  0.85037  1.0000
  C  Sn6       1.0  0.29419  0.60970  0.85196  1.0000
  C  Sn7       1.0  0.26694  0.60473  0.88658  1.0000
  C   C104      1.0  0.25587  0.65212  0.91890  1.0000
  C  Sn8       1.0  0.27147  0.70439  0.91734  1.0000
  O  Te5       1.0  0.31470  0.76120  0.88047  1.0000
  O  Te6       1.0  0.30572  0.56290  0.81926  1.0000
  O  Te7       1.0  0.25096  0.55284  0.88881  1.0000
  O  Te8       1.0  0.25995  0.75117  0.95001  1.0000
  Mg  Mg3       1.0  0.27577  0.50138  0.83658  1.0000
  Mg  Mg4       1.0  0.28987  0.81272  0.93269  1.0000
  C  Sn9       1.0  0.10847  0.69220  0.57658  1.0000
  C   C105      1.0  0.08577  0.70126  0.53174  1.0000
  C  Sn10      1.0  0.07878  0.65880  0.48800  1.0000
  C  Sn11      1.0  0.09480  0.60617  0.48910  1.0000
  C   C106      1.0  0.11748  0.59713  0.53392  1.0000
  C  Sn12      1.0  0.12448  0.63957  0.57768  1.0000
  O  Te9       1.0  0.11507  0.73524  0.61986  1.0000
  O  Te10      1.0  0.05600  0.66886  0.44361  1.0000
  O  Te11      1.0  0.08817  0.56312  0.44576  1.0000
  O  Te12      1.0  0.14724  0.62953  0.62205  1.0000
  Mg  Mg5       1.0  0.05525  0.59706  0.39448  1.0000
  Mg  Mg6       1.0  0.14800  0.70128  0.67122  1.0000
  C  Sn13      1.0  0.20719  0.44542  0.42975  1.0000
  C   C107      1.0  0.22004  0.41597  0.48093  1.0000
  C  Sn14      1.0  0.20647  0.41737  0.54033  1.0000
  C  Sn15      1.0  0.17947  0.44883  0.54875  1.0000
  C   C108      1.0  0.16663  0.47825  0.49759  1.0000
  C  Sn16      1.0  0.18019  0.47688  0.43818  1.0000
  O  Te13      1.0  0.22114  0.44342  0.37079  1.0000
  O  Te14      1.0  0.21974  0.38761  0.59078  1.0000
  O  Te15      1.0  0.16552  0.45081  0.60777  1.0000
  O  Te16      1.0  0.16692  0.50661  0.38774  1.0000
  Mg  Mg7       1.0  0.19223  0.40330  0.66195  1.0000
  Mg  Mg8       1.0  0.19441  0.49093  0.31655  1.0000
  C  Sn17      1.0  0.38329  0.32772  0.19524  1.0000
  C   C109      1.0  0.37884  0.36668  0.24397  1.0000
  C  Sn18      1.0  0.39382  0.41961  0.24344  1.0000
  C  Sn19      1.0  0.41364  0.43391  0.19313  1.0000
  C   C110      1.0  0.41808  0.39497  0.14443  1.0000
  C  Sn20      1.0  0.40311  0.34202  0.14493  1.0000
  O  Te17      1.0  0.36807  0.27505  0.19674  1.0000
  O  Te18      1.0  0.38902  0.45784  0.29270  1.0000
  O  Te19      1.0  0.42886  0.48663  0.19167  1.0000
  O  Te20      1.0  0.40790  0.30381  0.09571  1.0000
  Mg  Mg9       1.0  0.41490  0.52432  0.26951  1.0000
  Mg  Mg10      1.0  0.38202  0.23733  0.11883  1.0000
  C  Sn21      1.0  0.29689  0.40468  0.38699  1.0000
  C   C111      1.0  0.30984  0.35755  0.35728  1.0000
  C  Sn22      1.0  0.29635  0.30332  0.36192  1.0000
  C  Sn23      1.0  0.26935  0.29603  0.39696  1.0000
  C   C112      1.0  0.25641  0.34314  0.42665  1.0000
  C  Sn24      1.0  0.26988  0.39740  0.42204  1.0000
  O  Te21      1.0  0.31076  0.45851  0.38172  1.0000
  O  Te22      1.0  0.30973  0.25684  0.33182  1.0000
  O  Te23      1.0  0.25548  0.24215  0.40222  1.0000
  O  Te24      1.0  0.25652  0.44386  0.45210  1.0000
  Mg  Mg11      1.0  0.28230  0.19204  0.35279  1.0000
  Mg  Mg12      1.0  0.28391  0.50868  0.43114  1.0000
  C  Sn25      1.0  0.10739  0.00012  0.07589  1.0000
  C   C113      1.0  0.08620  0.01304  0.02898  1.0000
  C  Sn26      1.0  0.08347  0.96286  0.98059  1.0000
  C  Sn27      1.0  0.09927  0.91003  0.97907  1.0000
  C   C114      1.0  0.11967  0.90851  0.02597  1.0000
  C  Sn28      1.0  0.12539  0.94729  0.07438  1.0000
  O  Te25      1.0  0.11272  0.03955  0.12383  1.0000
  O  Te26      1.0  0.06219  0.97673  0.93420  1.0000
  O  Te27      1.0  0.09392  0.87060  0.93108  1.0000
  O  Te28      1.0  0.14665  0.93344  0.12075  1.0000
  Mg  Mg13      1.0  0.06281  0.90899  0.87862  1.0000
  Mg  Mg14      1.0  0.14385  0.00112  0.17636  1.0000
  C  Sn29      1.0  0.20966  0.75712  0.92494  1.0000
  C   C115      1.0  0.22077  0.72479  0.97584  1.0000
  C  Sn30      1.0  0.20449  0.73452  0.03317  1.0000
  C  Sn31      1.0  0.17731  0.76580  0.03977  1.0000
  C   C116      1.0  0.16700  0.78672  0.98889  1.0000
  C  Sn32      1.0  0.18248  0.78841  0.93153  1.0000
  O  Te29      1.0  0.22553  0.75815  0.86805  1.0000
  O  Te30      1.0  0.21604  0.70191  0.08340  1.0000
  O  Te31      1.0  0.16145  0.76475  0.09671  1.0000
  O  Te32      1.0  0.17094  0.82099  0.88133  1.0000
  Mg  Mg15      1.0  0.18626  0.71405  0.15141  1.0000
  Mg  Mg16      1.0  0.20070  0.80885  0.81329  1.0000
  C  Sn33      1.0  0.39975  0.57265  0.24350  1.0000
  C   C117      1.0  0.37560  0.61080  0.23794  1.0000
  C  Sn34      1.0  0.37532  0.66148  0.27256  1.0000
  C  Sn35      1.0  0.39969  0.67432  0.31355  1.0000
  C   C118      1.0  0.42382  0.63619  0.31908  1.0000
  C  Sn36      1.0  0.42412  0.58549  0.28449  1.0000
  O  Te33      1.0  0.39956  0.52223  0.20844  1.0000
  O  Te34      1.0  0.35093  0.69895  0.26623  1.0000
  O  Te35      1.0  0.39986  0.72478  0.34862  1.0000
  O  Te36      1.0  0.44849  0.54804  0.29079  1.0000
  Mg  Mg17      1.0  0.36154  0.76222  0.32388  1.0000
  Mg  Mg18      1.0  0.43791  0.48477  0.23315  1.0000
  C  Sn37      1.0  0.28165  0.71556  0.06461  1.0000
  C   C119      1.0  0.26955  0.66871  0.03246  1.0000
  C  Sn38      1.0  0.27419  0.61278  0.05499  1.0000
  C  Sn39      1.0  0.29126  0.60347  0.11083  1.0000
  C   C120      1.0  0.30334  0.65031  0.14295  1.0000
  C  Sn40      1.0  0.29871  0.70626  0.12045  1.0000
  O  Te37      1.0  0.27672  0.77111  0.04123  1.0000
  O  Te38      1.0  0.26188  0.56662  0.02203  1.0000
  O  Te39      1.0  0.29617  0.54786  0.13419  1.0000
  O  Te40      1.0  0.31101  0.75240  0.15338  1.0000
  Mg  Mg19      1.0  0.27479  0.49898  0.07265  1.0000
  Mg  Mg20      1.0  0.29810  0.82006  0.10282  1.0000
  C  Sn41      1.0  0.09359  0.07988  0.48239  1.0000
  C   C121      1.0  0.11597  0.08844  0.52788  1.0000
  C  Sn42      1.0  0.12266  0.04523  0.57200  1.0000
  C  Sn43      1.0  0.10886  0.99236  0.57061  1.0000
  C   C122      1.0  0.08650  0.98382  0.52514  1.0000
  C  Sn44      1.0  0.07759  0.02701  0.48100  1.0000
  O  Te41      1.0  0.08727  0.12367  0.43874  1.0000
  O  Te42      1.0  0.14512  0.05479  0.61704  1.0000
  O  Te43      1.0  0.11519  0.94857  0.61431  1.0000
  O  Te44      1.0  0.05515  0.01747  0.43598  1.0000
  Mg  Mg21      1.0  0.14774  0.98205  0.66646  1.0000
  Mg  Mg22      1.0  0.05471  0.09017  0.38652  1.0000
  C  Sn45      1.0  0.19425  0.22889  0.42935  1.0000
  C   C123      1.0  0.18001  0.20322  0.48136  1.0000
  C  Sn46      1.0  0.18159  0.22868  0.54063  1.0000
  C  Sn47      1.0  0.19774  0.28090  0.54806  1.0000
  C   C124      1.0  0.21196  0.30655  0.49607  1.0000
  C  Sn48      1.0  0.21039  0.28112  0.43679  1.0000
  O  Te45      1.0  0.19236  0.20269  0.37054  1.0000
  O  Te46      1.0  0.16718  0.20220  0.59193  1.0000
  O  Te47      1.0  0.19961  0.30710  0.60694  1.0000
  O  Te48      1.0  0.22479  0.30758  0.38551  1.0000
  Mg  Mg23      1.0  0.17621  0.25452  0.66250  1.0000
  Mg  Mg24      1.0  0.21576  0.25531  0.31491  1.0000
  C  Sn49      1.0  0.41377  0.43274  0.76972  1.0000
  C   C125      1.0  0.41704  0.39552  0.82151  1.0000
  C  Sn50      1.0  0.40045  0.34442  0.82502  1.0000
  C  Sn51      1.0  0.38018  0.33022  0.77571  1.0000
  C   C126      1.0  0.37692  0.36742  0.72396  1.0000
  C  Sn52      1.0  0.39350  0.41854  0.72041  1.0000
  O  Te49      1.0  0.43059  0.48359  0.76720  1.0000
  O  Te50      1.0  0.40410  0.30790  0.87728  1.0000
  O  Te51      1.0  0.36336  0.27932  0.77828  1.0000
  O  Te52      1.0  0.38986  0.45504  0.66819  1.0000
  Mg  Mg25      1.0  0.37619  0.24354  0.85913  1.0000
  Mg  Mg26      1.0  0.41777  0.51940  0.68627  1.0000
  C  Sn53      1.0  0.26926  0.29308  0.59556  1.0000
  C   C127      1.0  0.25688  0.34019  0.56339  1.0000
  C  Sn54      1.0  0.27090  0.39399  0.56582  1.0000
  C  Sn55      1.0  0.29786  0.40083  0.60112  1.0000
  C   C128      1.0  0.31022  0.35374  0.63326  1.0000
  C  Sn56      1.0  0.29622  0.29993  0.63086  1.0000
  O  Te53      1.0  0.25486  0.23970  0.59246  1.0000
  O  Te54      1.0  0.25810  0.44045  0.53328  1.0000
  O  Te55      1.0  0.31225  0.45427  0.60419  1.0000
  O  Te56      1.0  0.30901  0.25348  0.66336  1.0000
  Mg  Mg27      1.0  0.28611  0.50456  0.55186  1.0000
  Mg  Mg28      1.0  0.28103  0.18935  0.64479  1.0000
  C  Sn57      1.0  0.09385  0.34180  0.96425  1.0000
  C   C129      1.0  0.08525  0.31412  0.01216  1.0000
  C  Sn58      1.0  0.09494  0.32289  0.07408  1.0000
  C  Sn59      1.0  0.11279  0.37173  0.08841  1.0000
  C   C130      1.0  0.12060  0.41076  0.04052  1.0000
  C  Sn60      1.0  0.11171  0.39064  0.97858  1.0000
  O  Te57      1.0  0.08392  0.33218  0.90269  1.0000
  O  Te58      1.0  0.08684  0.28323  0.12117  1.0000
  O  Te59      1.0  0.12272  0.38132  0.15003  1.0000
  O  Te60      1.0  0.11979  0.43027  0.93151  1.0000
  Mg  Mg29      1.0  0.10582  0.31510  0.19786  1.0000
  Mg  Mg30      1.0  0.10081  0.39846  0.85481  1.0000
  C  Sn61      1.0  0.18463  0.55840  0.05202  1.0000
  C   C131      1.0  0.16942  0.53289  0.00173  1.0000
  C  Sn62      1.0  0.18071  0.52876  0.94003  1.0000
  C  Sn63      1.0  0.20699  0.56217  0.92834  1.0000
  C   C132      1.0  0.22219  0.58764  0.97861  1.0000
  C  Sn64      1.0  0.21091  0.59180  0.04033  1.0000
  O  Te61      1.0  0.17372  0.55057  0.11333  1.0000
  O  Te62      1.0  0.16511  0.50286  0.89052  1.0000
  O  Te63      1.0  0.21789  0.56998  0.86697  1.0000
  O  Te64      1.0  0.22650  0.61767  0.08982  1.0000
  Mg  Mg31      1.0  0.18883  0.52605  0.81526  1.0000
  Mg  Mg32      1.0  0.20281  0.59449  0.16510  1.0000
  C  Sn65      1.0  0.59189  0.41955  0.24940  1.0000
  C   C133      1.0  0.61612  0.38160  0.25522  1.0000
  C  Sn66      1.0  0.62328  0.34473  0.20599  1.0000
  C  Sn67      1.0  0.60589  0.34583  0.14976  1.0000
  C   C134      1.0  0.58169  0.38377  0.14395  1.0000
  C  Sn68      1.0  0.57450  0.42065  0.19316  1.0000
  O  Te65      1.0  0.58514  0.45603  0.29921  1.0000
  O  Te66      1.0  0.64759  0.30715  0.21292  1.0000
  O  Te67      1.0  0.61267  0.30931  0.09993  1.0000
  O  Te68      1.0  0.55021  0.45822  0.18625  1.0000
  Mg  Mg33      1.0  0.64793  0.26582  0.13183  1.0000
  Mg  Mg34      1.0  0.54986  0.49958  0.26730  1.0000
  C  Sn69      1.0  0.70058  0.29332  0.38944  1.0000
  C   C135      1.0  0.69005  0.34020  0.35405  1.0000
  C  Sn70      1.0  0.70611  0.39197  0.35298  1.0000
  C  Sn71      1.0  0.73328  0.39698  0.38798  1.0000
  C   C136      1.0  0.74379  0.35012  0.42333  1.0000
  C  Sn72      1.0  0.72774  0.29834  0.42444  1.0000
  O  Te69      1.0  0.68416  0.24198  0.38982  1.0000
  O  Te70      1.0  0.69513  0.43824  0.31726  1.0000
  O  Te71      1.0  0.74970  0.44838  0.38757  1.0000
  O  Te72      1.0  0.73871  0.25208  0.46011  1.0000
  Mg  Mg35      1.0  0.72555  0.49922  0.33173  1.0000
  Mg  Mg36      1.0  0.70832  0.19108  0.44566  1.0000
  C  Sn73      1.0  0.89717  0.37063  0.95484  1.0000
  C   C137      1.0  0.87527  0.39247  0.00217  1.0000
  C  Sn74      1.0  0.87874  0.36784  0.06218  1.0000
  C  Sn75      1.0  0.90387  0.33204  0.07518  1.0000
  C   C138      1.0  0.92497  0.32160  0.02787  1.0000
  C  Sn76      1.0  0.92229  0.33482  0.96784  1.0000
  O  Te73      1.0  0.89324  0.39570  0.89519  1.0000
  O  Te74      1.0  0.85732  0.37892  0.10872  1.0000
  O  Te75      1.0  0.90777  0.30696  0.13489  1.0000
  O  Te76      1.0  0.94369  0.32377  0.92132  1.0000
  Mg  Mg37      1.0  0.87254  0.33493  0.18265  1.0000
  Mg  Mg38      1.0  0.92850  0.36776  0.84739  1.0000
  C  Sn77      1.0  0.80676  0.53314  0.04529  1.0000
  C   C139      1.0  0.82203  0.49942  0.99253  1.0000
  C  Sn78      1.0  0.81993  0.52736  0.93398  1.0000
  C  Sn79      1.0  0.80300  0.57872  0.92803  1.0000
  C   C140      1.0  0.78852  0.60105  0.98077  1.0000
  C  Sn80      1.0  0.78983  0.58451  0.03935  1.0000
  O  Te77      1.0  0.80917  0.50449  0.10337  1.0000
  O  Te78      1.0  0.83461  0.50418  0.88190  1.0000
  O  Te79      1.0  0.80060  0.60737  0.86989  1.0000
  O  Te80      1.0  0.77517  0.60766  0.09140  1.0000
  Mg  Mg39      1.0  0.82464  0.55894  0.81280  1.0000
  Mg  Mg40      1.0  0.78514  0.55296  0.16053  1.0000
  C  Sn81      1.0  0.61708  0.66906  0.69384  1.0000
  C   C141      1.0  0.62089  0.62991  0.74373  1.0000
  C  Sn82      1.0  0.60539  0.57754  0.74417  1.0000
  C  Sn83      1.0  0.58567  0.56399  0.69366  1.0000
  C   C142      1.0  0.58188  0.60312  0.64381  1.0000
  C  Sn84      1.0  0.59737  0.65551  0.64334  1.0000
  O  Te81      1.0  0.63282  0.72116  0.69439  1.0000
  O  Te82      1.0  0.60956  0.53910  0.79457  1.0000
  O  Te83      1.0  0.56994  0.51183  0.69316  1.0000
  O  Te84      1.0  0.59321  0.69393  0.59297  1.0000
  Mg  Mg41      1.0  0.58313  0.47358  0.77240  1.0000
  Mg  Mg42      1.0  0.61964  0.75944  0.61508  1.0000
  C  Sn85      1.0  0.71374  0.70600  0.91549  1.0000
  C   C143      1.0  0.72997  0.65987  0.94099  1.0000
  C  Sn86      1.0  0.73005  0.60683  0.91085  1.0000
  C  Sn87      1.0  0.71359  0.59977  0.85401  1.0000
  C   C144      1.0  0.69738  0.64589  0.82853  1.0000
  C  Sn88      1.0  0.69728  0.69894  0.85865  1.0000
  O  Te85      1.0  0.71398  0.75864  0.94642  1.0000
  O  Te86      1.0  0.74643  0.56134  0.93726  1.0000
  O  Te87      1.0  0.71336  0.54708  0.82308  1.0000
  O  Te88      1.0  0.68091  0.74442  0.83226  1.0000
  Mg  Mg43      1.0  0.73915  0.49800  0.87755  1.0000
  Mg  Mg44      1.0  0.68819  0.80778  0.89191  1.0000
  C  Sn89      1.0  0.89037  0.99749  0.57050  1.0000
  C   C145      1.0  0.91515  0.99019  0.52541  1.0000
  C  Sn90      1.0  0.91951  0.03400  0.48185  1.0000
  C  Sn91      1.0  0.90317  0.08622  0.48340  1.0000
  C   C146      1.0  0.88060  0.09350  0.52847  1.0000
  C  Sn92      1.0  0.87402  0.04971  0.57205  1.0000
  O  Te89      1.0  0.88639  0.95311  0.61359  1.0000
  O  Te90      1.0  0.94219  0.02569  0.43721  1.0000
  O  Te91      1.0  0.90936  0.13060  0.44026  1.0000
  O  Te92      1.0  0.85136  0.05800  0.61667  1.0000
  Mg  Mg45      1.0  0.94231  0.09883  0.38850  1.0000
  Mg  Mg46      1.0  0.85343  0.98490  0.66543  1.0000
  C  Sn93      1.0  0.80681  0.22862  0.55110  1.0000
  C   C147      1.0  0.81893  0.20013  0.49936  1.0000
  C  Sn94      1.0  0.81472  0.22184  0.43825  1.0000
  C  Sn95      1.0  0.79806  0.27312  0.42863  1.0000
  C   C148      1.0  0.78596  0.30158  0.48034  1.0000
  C  Sn96      1.0  0.79016  0.27990  0.54148  1.0000
  O  Te93      1.0  0.81131  0.20614  0.61178  1.0000
  O  Te94      1.0  0.82704  0.19259  0.38727  1.0000
  O  Te95      1.0  0.79358  0.29559  0.36788  1.0000
  O  Te96      1.0  0.77785  0.30912  0.59244  1.0000
  Mg  Mg47      1.0  0.81480  0.24025  0.31361  1.0000
  Mg  Mg48      1.0  0.79009  0.26153  0.66612  1.0000
  C  Sn97      1.0  0.57774  0.41244  0.75305  1.0000
  C   C149      1.0  0.57495  0.37595  0.80561  1.0000
  C  Sn98      1.0  0.59923  0.34211  0.82535  1.0000
  C  Sn99      1.0  0.62689  0.34482  0.79188  1.0000
  C   C150      1.0  0.62968  0.38130  0.73937  1.0000
  C  Sn100     1.0  0.60540  0.41515  0.71959  1.0000
  O  Te97      1.0  0.55318  0.44588  0.73416  1.0000
  O  Te98      1.0  0.59589  0.30594  0.87802  1.0000
  O  Te99      1.0  0.65147  0.31134  0.81082  1.0000
  O  Te100     1.0  0.60873  0.45131  0.66696  1.0000
  Mg  Mg49      1.0  0.63586  0.26878  0.88542  1.0000
  Mg  Mg50      1.0  0.56879  0.48851  0.65954  1.0000
  C  Sn101     1.0  0.72621  0.40320  0.58460  1.0000
  C   C151      1.0  0.74117  0.35565  0.56020  1.0000
  C  Sn102     1.0  0.73000  0.30019  0.57102  1.0000
  C  Sn103     1.0  0.70332  0.29208  0.60694  1.0000
  C   C152      1.0  0.68837  0.33961  0.63129  1.0000
  C  Sn104     1.0  0.69953  0.39509  0.62051  1.0000
  O  Te101     1.0  0.73778  0.45825  0.57319  1.0000
  O  Te102     1.0  0.74535  0.25332  0.54617  1.0000
  O  Te103     1.0  0.69175  0.23697  0.61833  1.0000
  O  Te104     1.0  0.68419  0.44194  0.64533  1.0000
  Mg  Mg51      1.0  0.72070  0.18675  0.57453  1.0000
  Mg  Mg52      1.0  0.70881  0.50852  0.61697  1.0000
  C  Sn105     1.0  0.90981  0.96425  0.96136  1.0000
  C   C153      1.0  0.91269  0.01792  0.00604  1.0000
  C  Sn106     1.0  0.90016  0.01375  0.06637  1.0000
  C  Sn107     1.0  0.88359  0.96629  0.08239  1.0000
  C   C154      1.0  0.87774  0.92402  0.03774  1.0000
  C  Sn108     1.0  0.89104  0.91679  0.97739  1.0000
  O  Te105     1.0  0.92258  0.96930  0.90134  1.0000
  O  Te106     1.0  0.90634  0.05657  0.11022  1.0000
  O  Te107     1.0  0.87082  0.96127  0.14247  1.0000
  O  Te108     1.0  0.88487  0.87399  0.93356  1.0000
  Mg  Mg53      1.0  0.88370  0.03053  0.18587  1.0000
  Mg  Mg54      1.0  0.90750  0.89997  0.85791  1.0000
  C  Sn109     1.0  0.79399  0.74619  0.04992  1.0000
  C   C155      1.0  0.78083  0.70939  0.99800  1.0000
  C  Sn110     1.0  0.79230  0.71829  0.93728  1.0000
  C  Sn111     1.0  0.81824  0.75329  0.92827  1.0000
  C   C156      1.0  0.83216  0.77867  0.98017  1.0000
  C  Sn112     1.0  0.81993  0.78119  0.04091  1.0000
  O  Te109     1.0  0.78214  0.73671  0.11020  1.0000
  O  Te110     1.0  0.77797  0.69244  0.88610  1.0000
  O  Te111     1.0  0.83008  0.76276  0.86793  1.0000
  O  Te112     1.0  0.83425  0.80701  0.09207  1.0000
  Mg  Mg55      1.0  0.80262  0.71821  0.81317  1.0000
  Mg  Mg56      1.0  0.80963  0.78124  0.16502  1.0000
  C  Sn113     1.0  0.60427  0.67292  0.30753  1.0000
  C   C157      1.0  0.57940  0.63598  0.31175  1.0000
  C  Sn114     1.0  0.57856  0.58537  0.27704  1.0000
  C  Sn115     1.0  0.60310  0.57136  0.23730  1.0000
  C   C158      1.0  0.62795  0.60828  0.23310  1.0000
  C  Sn116     1.0  0.62880  0.65891  0.26779  1.0000
  O  Te113     1.0  0.60462  0.72329  0.34266  1.0000
  O  Te114     1.0  0.55345  0.54913  0.28202  1.0000
  O  Te115     1.0  0.60272  0.52094  0.20216  1.0000
  O  Te116     1.0  0.65390  0.69514  0.26283  1.0000
  Mg  Mg57      1.0  0.56351  0.48540  0.22482  1.0000
  Mg  Mg58      1.0  0.64387  0.75885  0.32003  1.0000
  C  Sn117     1.0  0.71647  0.59777  0.06345  1.0000
  C   C159      1.0  0.73192  0.64514  0.03814  1.0000
  C  Sn118     1.0  0.73091  0.69823  0.06807  1.0000
  C  Sn119     1.0  0.71410  0.70409  0.12451  1.0000
  C   C160      1.0  0.69866  0.65674  0.14980  1.0000
  C  Sn120     1.0  0.69966  0.60363  0.11989  1.0000
  O  Te117     1.0  0.71780  0.54510  0.03274  1.0000
  O  Te118     1.0  0.74654  0.74498  0.04185  1.0000
  O  Te119     1.0  0.71278  0.75682  0.15521  1.0000
  O  Te120     1.0  0.68405  0.55691  0.14608  1.0000
  Mg  Mg59      1.0  0.73785  0.80784  0.10114  1.0000
  Mg  Mg60      1.0  0.69273  0.49402  0.08685  1.0000
  C  Sn121     1.0  0.87465  0.67283  0.57018  1.0000
  C   C161      1.0  0.86920  0.63061  0.52520  1.0000
  C  Sn122     1.0  0.89080  0.61872  0.47932  1.0000
  C  Sn123     1.0  0.91844  0.64963  0.47839  1.0000
  C   C162      1.0  0.92389  0.69181  0.52336  1.0000
  C  Sn124     1.0  0.90229  0.70374  0.56926  1.0000
  O  Te121     1.0  0.85274  0.68401  0.61562  1.0000
  O  Te122     1.0  0.88484  0.57633  0.43482  1.0000
  O  Te123     1.0  0.94036  0.63842  0.43290  1.0000
  O  Te124     1.0  0.90825  0.74609  0.61374  1.0000
  Mg  Mg61      1.0  0.92175  0.57668  0.38236  1.0000
  Mg  Mg62      1.0  0.87136  0.74575  0.66624  1.0000
  C  Sn125     1.0  0.80773  0.46060  0.42635  1.0000
  C   C163      1.0  0.81965  0.48927  0.47836  1.0000
  C  Sn126     1.0  0.81538  0.46728  0.53935  1.0000
  C  Sn127     1.0  0.79886  0.41554  0.54854  1.0000
  C   C164      1.0  0.78695  0.38689  0.49654  1.0000
  C  Sn128     1.0  0.79121  0.40885  0.43554  1.0000
  O  Te125     1.0  0.81228  0.48336  0.36580  1.0000
  O  Te126     1.0  0.82750  0.49672  0.59061  1.0000
  O  Te127     1.0  0.79432  0.39279  0.60914  1.0000
  O  Te128     1.0  0.77910  0.37944  0.38429  1.0000
  Mg  Mg63      1.0  0.81526  0.44855  0.66393  1.0000
  Mg  Mg64      1.0  0.79135  0.42755  0.31096  1.0000
