data_image0
_chemical_formula_structural       C4NCHC2NCH3C4NCHC2NCH3CN2C4H2C4H2C4NCHC2NCH3C4NCHC2NCH3CN2C4H2C4H2C4NCHC2NCH3C4NCHC2NCH3CN2C4H2C4H2C4NCHC2NCH3C4NCHC2NCH3CN2C4H2C4H2N2CuN2CuN2CuN2CuC2Sn2C2HTe2HMgC2Sn2C2HTe2HMgC2Sn2C2HTe2HMgC2Sn2C2HTe2HMgC2Sn2C2HTe2HMgC2Sn2C2HTe2HMgC2Sn2C2HTe2HMgC2Sn2C2HTe2HMgC2Sn2C2HTe2HMgC2Sn2C2HTe2HMgC2Sn2C2HTe2HMgC2Sn2C2HTe2HMgC2Sn2C2HTe2HMgC2Sn2C2HTe2HMgC2Sn2C2HTe2HMgC2Sn2C2HTe2HMgC2Sn2C2HTe2HMgC2Sn2C2HTe2HMgC2Sn2C2HTe2HMgC2Sn2C2HTe2HMgC2Sn2C2HTe2HMgC2Sn2C2HTe2HMgC2Sn2C2HTe2HMgC2Sn2C2HTe2HMgC2Sn2C2HTe2HMgC2Sn2C2HTe2HMgC2Sn2C2HTe2HMgC2Sn2C2HTe2HMgC2Sn2C2HTe2HMgC2Sn2C2HTe2HMgC2Sn2C2HTe2HMgC2Sn2C2HTe2HMg
_chemical_formula_sum              "C228 N32 H112 Cu4 Sn64 Te64 Mg32"
_cell_length_a       44.3319
_cell_length_b       23.2738
_cell_length_c       21.1911
_cell_angle_alpha    89.2834
_cell_angle_beta     90.096
_cell_angle_gamma    90.2398

_symmetry_space_group_name_H-M    'P1'
_space_group_IT_number       1

loop_
  _space_group_symop_operation_xyz
  'x, y, z'

loop_
  _atom_site_type_symbol
  _atom_site_label
  _atom_site_symmetry_multiplicity
  _atom_site_fract_x
  _atom_site_fract_y
  _atom_site_fract_z
  _atom_site_occupancy
  C   C1        1.0  0.35154  0.37997  0.68251  1.0000
  C   C2        1.0  0.14739  0.43673  0.03251  1.0000
  C   C3        1.0  0.43652  0.61276  0.53890  1.0000
  C   C4        1.0  0.44569  0.61724  0.60209  1.0000
  N   N1        1.0  0.33054  0.65701  0.79040  1.0000
  C   C5        1.0  0.59481  0.59680  0.51820  1.0000
  H   H1        1.0  0.61321  0.58891  0.42217  1.0000
  C   C6        1.0  0.97573  0.27801  0.01851  1.0000
  C   C7        1.0  0.98533  0.33709  0.02349  1.0000
  N   N2        1.0  0.85120  0.47492  0.97738  1.0000
  C   C8        1.0  0.05559  0.26026  0.02599  1.0000
  H   H2        1.0  0.97033  0.37351  0.02594  1.0000
  H   H3        1.0  0.35409  0.41167  0.64385  1.0000
  H   H4        1.0  0.16154  0.43636  0.07526  1.0000
  C   C9        1.0  0.35060  0.38253  0.29242  1.0000
  C   C10       1.0  0.14698  0.87397  0.02683  1.0000
  C   C11       1.0  0.43622  0.61509  0.43464  1.0000
  C   C12       1.0  0.44503  0.62257  0.37143  1.0000
  N   N3        1.0  0.32958  0.66193  0.18016  1.0000
  C   C13       1.0  0.59459  0.59724  0.45372  1.0000
  H   H5        1.0  0.61356  0.58803  0.54963  1.0000
  C   C14       1.0  0.97535  0.03309  0.02432  1.0000
  C   C15       1.0  0.98470  0.97399  0.03155  1.0000
  N   N4        1.0  0.84857  0.83949  0.98322  1.0000
  C   C16       1.0  0.05551  0.05033  0.02685  1.0000
  H   H6        1.0  0.96957  0.93761  0.03667  1.0000
  H   H7        1.0  0.35321  0.41546  0.32890  1.0000
  H   H8        1.0  0.16159  0.87261  0.06892  1.0000
  C   C17       1.0  0.76171  0.65385  0.98802  1.0000
  N   N5        1.0  0.95473  0.15547  0.01939  1.0000
  N   N6        1.0  0.45499  0.61866  0.48667  1.0000
  C   C18       1.0  0.47592  0.62203  0.62119  1.0000
  C   C19       1.0  0.48560  0.63137  0.68534  1.0000
  C   C20       1.0  0.47526  0.62786  0.35245  1.0000
  C   C21       1.0  0.48479  0.64078  0.28876  1.0000
  H   H9        1.0  0.46973  0.65057  0.24988  1.0000
  H   H10       1.0  0.47063  0.63784  0.72491  1.0000
  C   C22       1.0  0.06342  0.79662  0.52641  1.0000
  C   C23       1.0  0.09461  0.81375  0.51987  1.0000
  C   C24       1.0  0.06449  0.89157  0.52440  1.0000
  C   C25       1.0  0.09525  0.87243  0.51839  1.0000
  H   H11       1.0  0.11339  0.78449  0.51560  1.0000
  H   H12       1.0  0.11459  0.90065  0.51312  1.0000
  C   C26       1.0  0.64936  0.61910  0.18304  1.0000
  C   C27       1.0  0.85100  0.56741  0.52739  1.0000
  C   C28       1.0  0.56379  0.38724  0.04210  1.0000
  C   C29       1.0  0.55433  0.38267  0.10517  1.0000
  N   N7        1.0  0.66976  0.34460  0.29322  1.0000
  C   C30       1.0  0.40506  0.39922  0.01776  1.0000
  H   H13       1.0  0.38657  0.40500  0.92146  1.0000
  C   C31       1.0  0.02308  0.72276  0.53074  1.0000
  C   C32       1.0  0.01279  0.66393  0.53574  1.0000
  N   N8        1.0  0.14875  0.52791  0.48805  1.0000
  C   C33       1.0  0.94333  0.74329  0.52377  1.0000
  H   H14       1.0  0.02733  0.62684  0.54024  1.0000
  H   H15       1.0  0.64708  0.58659  0.14601  1.0000
  H   H16       1.0  0.83518  0.56893  0.56729  1.0000
  C   C34       1.0  0.64931  0.61313  0.79229  1.0000
  C   C35       1.0  0.85257  0.12603  0.52813  1.0000
  C   C36       1.0  0.56434  0.38621  0.93784  1.0000
  C   C37       1.0  0.55554  0.37983  0.87465  1.0000
  N   N9        1.0  0.66992  0.34310  0.68343  1.0000
  C   C38       1.0  0.40535  0.39832  0.95334  1.0000
  H   H17       1.0  0.38609  0.40652  0.04870  1.0000
  C   C39       1.0  0.02594  0.96809  0.52871  1.0000
  C   C40       1.0  0.01709  0.02734  0.53544  1.0000
  N   N10       1.0  0.15056  0.16414  0.48641  1.0000
  C   C41       1.0  0.94574  0.95325  0.52453  1.0000
  H   H18       1.0  0.03255  0.06314  0.54041  1.0000
  H   H19       1.0  0.64782  0.57843  0.82801  1.0000
  H   H20       1.0  0.83747  0.12409  0.56930  1.0000
  C   C42       1.0  0.23829  0.34856  0.48975  1.0000
  N   N11       1.0  0.04522  0.84474  0.52808  1.0000
  N   N12       1.0  0.54542  0.38259  0.98960  1.0000
  C   C43       1.0  0.52404  0.37807  0.12357  1.0000
  C   C44       1.0  0.51414  0.36829  0.18767  1.0000
  C   C45       1.0  0.52542  0.37349  0.85532  1.0000
  C   C46       1.0  0.51629  0.36043  0.79173  1.0000
  H   H21       1.0  0.53164  0.35135  0.75354  1.0000
  H   H22       1.0  0.52896  0.36079  0.22758  1.0000
  C   C47       1.0  0.93613  0.20294  0.01568  1.0000
  C   C48       1.0  0.90508  0.18493  0.01032  1.0000
  C   C49       1.0  0.93586  0.10805  0.01761  1.0000
  C   C50       1.0  0.90488  0.12627  0.01137  1.0000
  H   H23       1.0  0.88609  0.21373  0.00562  1.0000
  H   H24       1.0  0.88562  0.09782  0.00756  1.0000
  C   C51       1.0  0.35235  0.62754  0.17942  1.0000
  C   C52       1.0  0.14566  0.56451  0.53289  1.0000
  C   C53       1.0  0.43554  0.38892  0.03868  1.0000
  C   C54       1.0  0.44412  0.38409  0.10230  1.0000
  N   N13       1.0  0.32881  0.34551  0.29372  1.0000
  C   C55       1.0  0.59468  0.39618  0.02277  1.0000
  H   H25       1.0  0.61414  0.40158  0.92724  1.0000
  C   C56       1.0  0.97329  0.72459  0.52793  1.0000
  C   C57       1.0  0.98201  0.66511  0.53381  1.0000
  N   N14       1.0  0.84928  0.52816  0.48494  1.0000
  C   C58       1.0  0.05353  0.73928  0.52976  1.0000
  H   H26       1.0  0.96654  0.62912  0.53650  1.0000
  H   H27       1.0  0.35571  0.59669  0.14112  1.0000
  H   H28       1.0  0.16140  0.56633  0.57310  1.0000
  C   C59       1.0  0.35045  0.61670  0.78810  1.0000
  C   C60       1.0  0.14835  0.12527  0.53024  1.0000
  C   C61       1.0  0.43604  0.38723  0.93446  1.0000
  C   C62       1.0  0.44535  0.37996  0.87174  1.0000
  N   N15       1.0  0.32906  0.34455  0.68506  1.0000
  C   C63       1.0  0.59500  0.39571  0.95831  1.0000
  H   H29       1.0  0.61350  0.40235  0.05457  1.0000
  C   C64       1.0  0.97612  0.96976  0.52833  1.0000
  C   C65       1.0  0.98629  0.02831  0.53543  1.0000
  N   N16       1.0  0.84894  0.16329  0.48309  1.0000
  C   C66       1.0  0.05597  0.94949  0.52650  1.0000
  H   H30       1.0  0.97167  0.06509  0.54037  1.0000
  H   H31       1.0  0.35077  0.58045  0.82200  1.0000
  H   H32       1.0  0.16387  0.12352  0.57087  1.0000
  C   C67       1.0  0.76069  0.34527  0.48811  1.0000
  N   N17       1.0  0.95420  0.84794  0.52422  1.0000
  N   N18       1.0  0.45438  0.38317  0.98720  1.0000
  C   C68       1.0  0.47421  0.37883  0.12221  1.0000
  C   C69       1.0  0.48332  0.36878  0.18679  1.0000
  C   C70       1.0  0.47560  0.37331  0.85383  1.0000
  C   C71       1.0  0.48548  0.36023  0.79079  1.0000
  H   H33       1.0  0.47073  0.35107  0.75142  1.0000
  H   H34       1.0  0.46792  0.36193  0.22576  1.0000
  C   C72       1.0  0.06480  0.20275  0.02728  1.0000
  C   C73       1.0  0.09595  0.18492  0.02698  1.0000
  C   C74       1.0  0.06482  0.10793  0.02709  1.0000
  C   C75       1.0  0.09596  0.12626  0.02664  1.0000
  H   H35       1.0  0.11513  0.21382  0.02609  1.0000
  H   H36       1.0  0.11514  0.09764  0.02554  1.0000
  C   C76       1.0  0.64788  0.37923  0.68260  1.0000
  C   C77       1.0  0.85350  0.43520  0.02022  1.0000
  C   C78       1.0  0.56452  0.60938  0.53839  1.0000
  C   C79       1.0  0.55584  0.61510  0.60168  1.0000
  N   N19       1.0  0.66984  0.65262  0.79421  1.0000
  C   C80       1.0  0.40582  0.60248  0.51915  1.0000
  H   H37       1.0  0.38673  0.59733  0.42326  1.0000
  C   C81       1.0  0.02545  0.27785  0.02277  1.0000
  C   C82       1.0  0.01608  0.33705  0.02594  1.0000
  N   N20       1.0  0.15104  0.47358  0.98703  1.0000
  C   C83       1.0  0.94547  0.26054  0.01643  1.0000
  H   H38       1.0  0.03116  0.37341  0.03086  1.0000
  H   H39       1.0  0.64519  0.41169  0.64475  1.0000
  H   H40       1.0  0.83746  0.43164  0.05971  1.0000
  C   C84       1.0  0.64950  0.38427  0.29128  1.0000
  C   C85       1.0  0.85241  0.87574  0.02822  1.0000
  C   C86       1.0  0.56417  0.61035  0.43407  1.0000
  C   C87       1.0  0.55516  0.61794  0.37092  1.0000
  N   N21       1.0  0.67156  0.65517  0.18397  1.0000
  C   C88       1.0  0.40566  0.60386  0.45468  1.0000
  H   H41       1.0  0.38706  0.59454  0.55073  1.0000
  C   C89       1.0  0.02519  0.03294  0.02595  1.0000
  C   C90       1.0  0.01550  0.97388  0.03198  1.0000
  N   N22       1.0  0.15056  0.83921  0.98039  1.0000
  C   C91       1.0  0.94510  0.05054  0.02131  1.0000
  H   H42       1.0  0.03051  0.93756  0.03746  1.0000
  H   H43       1.0  0.64925  0.41972  0.32519  1.0000
  H   H44       1.0  0.83763  0.87671  0.06990  1.0000
  C   C92       1.0  0.23902  0.65730  0.98368  1.0000
  N   N23       1.0  0.04599  0.15521  0.02714  1.0000
  N   N24       1.0  0.54585  0.61587  0.48641  1.0000
  C   C93       1.0  0.52577  0.62145  0.62095  1.0000
  C   C94       1.0  0.51644  0.63119  0.68517  1.0000
  C   C95       1.0  0.52506  0.62563  0.35210  1.0000
  C   C96       1.0  0.51559  0.63936  0.28851  1.0000
  H   H45       1.0  0.53062  0.64778  0.24927  1.0000
  H   H46       1.0  0.53161  0.63778  0.72455  1.0000
  C   C97       1.0  0.93498  0.80119  0.51987  1.0000
  C   C98       1.0  0.90440  0.82036  0.51047  1.0000
  C   C99       1.0  0.93605  0.89601  0.51999  1.0000
  C   C100      1.0  0.90506  0.87902  0.51042  1.0000
  H   H47       1.0  0.88525  0.79211  0.50368  1.0000
  H   H48       1.0  0.88649  0.90844  0.50346  1.0000
  N   N25       1.0  0.50017  0.62042  0.39103  1.0000
  N   N26       1.0  0.50074  0.61755  0.58211  1.0000
  Cu  Cu1       1.0  0.49985  0.38216  0.98847  1.0000
  N   N27       1.0  0.50030  0.37956  0.89316  1.0000
  N   N28       1.0  0.49935  0.38300  0.08383  1.0000
  Cu  Cu2       1.0  0.50050  0.61828  0.48662  1.0000
  N   N29       1.0  0.99865  0.75945  0.52683  1.0000
  N   N30       1.0  0.00063  0.93327  0.52538  1.0000
  Cu  Cu3       1.0  0.00040  0.15536  0.02118  1.0000
  N   N31       1.0  0.00053  0.24217  0.01847  1.0000
  N   N32       1.0  0.00038  0.06873  0.02179  1.0000
  Cu  Cu4       1.0  0.99963  0.84645  0.52625  1.0000
  C   C101      1.0  0.40275  0.56578  0.73398  1.0000
  C   C102      1.0  0.38069  0.60727  0.74448  1.0000
  C  Sn1       1.0  0.37839  0.65518  0.70440  1.0000
  C  Sn2       1.0  0.39858  0.66154  0.65288  1.0000
  C   C103      1.0  0.42056  0.61978  0.64276  1.0000
  C   C104      1.0  0.42267  0.57201  0.68317  1.0000
  H   H49       1.0  0.40438  0.52881  0.76523  1.0000
  O  Te1       1.0  0.35621  0.69624  0.71558  1.0000
  O  Te2       1.0  0.39677  0.70899  0.61208  1.0000
  H   H50       1.0  0.43975  0.53988  0.67500  1.0000
  Mg  Mg1       1.0  0.36275  0.75337  0.64685  1.0000
  C   C105      1.0  0.27447  0.59615  0.88850  1.0000
  C   C106      1.0  0.26352  0.64265  0.92255  1.0000
  C  Sn3       1.0  0.27387  0.69829  0.90931  1.0000
  C  Sn4       1.0  0.29558  0.70740  0.86105  1.0000
  C   C107      1.0  0.30638  0.66059  0.82722  1.0000
  C   C108      1.0  0.29587  0.60510  0.84087  1.0000
  H   H51       1.0  0.26634  0.55322  0.89903  1.0000
  O  Te3       1.0  0.26270  0.74426  0.94380  1.0000
  O  Te4       1.0  0.30630  0.76255  0.84682  1.0000
  H   H52       1.0  0.30434  0.56910  0.81447  1.0000
  Mg  Mg2       1.0  0.28425  0.81140  0.90694  1.0000
  C   C109      1.0  0.11637  0.65979  0.58940  1.0000
  C   C110      1.0  0.12064  0.61466  0.54750  1.0000
  C  Sn5       1.0  0.10266  0.61023  0.49357  1.0000
  C  Sn6       1.0  0.08000  0.65183  0.48147  1.0000
  C   C111      1.0  0.07592  0.69684  0.52366  1.0000
  C   C112      1.0  0.09404  0.70085  0.57749  1.0000
  H   H53       1.0  0.13040  0.66292  0.63104  1.0000
  O  Te5       1.0  0.10722  0.56486  0.45221  1.0000
  O  Te6       1.0  0.06171  0.64844  0.42791  1.0000
  H   H54       1.0  0.09074  0.73582  0.60990  1.0000
  Mg  Mg3       1.0  0.07659  0.57869  0.38565  1.0000
  C   C113      1.0  0.18704  0.45111  0.55702  1.0000
  C   C114      1.0  0.17495  0.48313  0.50688  1.0000
  C  Sn7       1.0  0.18325  0.47130  0.44482  1.0000
  C  Sn8       1.0  0.20404  0.42655  0.43289  1.0000
  C   C115      1.0  0.21599  0.39474  0.48337  1.0000
  C   C116      1.0  0.20753  0.40696  0.54528  1.0000
  H   H55       1.0  0.18049  0.46054  0.60492  1.0000
  O  Te7       1.0  0.17096  0.50371  0.39528  1.0000
  O  Te8       1.0  0.21271  0.41380  0.37132  1.0000
  H   H56       1.0  0.21688  0.38214  0.58409  1.0000
  Mg  Mg4       1.0  0.18977  0.47004  0.31959  1.0000
  C   C117      1.0  0.40395  0.43102  0.23831  1.0000
  C   C118      1.0  0.37849  0.39562  0.24297  1.0000
  C  Sn9       1.0  0.37432  0.35060  0.20078  1.0000
  C  Sn10      1.0  0.39609  0.34095  0.15311  1.0000
  C   C119      1.0  0.42149  0.37658  0.14887  1.0000
  C   C120      1.0  0.42543  0.42151  0.19131  1.0000
  H   H57       1.0  0.40701  0.46576  0.27116  1.0000
  O  Te9       1.0  0.34875  0.31566  0.20609  1.0000
  O  Te10      1.0  0.39249  0.29626  0.11034  1.0000
  H   H58       1.0  0.44516  0.44889  0.18772  1.0000
  Mg  Mg5       1.0  0.35389  0.26030  0.13673  1.0000
  C   C121      1.0  0.27634  0.28888  0.39828  1.0000
  C   C122      1.0  0.26419  0.33514  0.43093  1.0000
  C  Sn11      1.0  0.27241  0.39143  0.41473  1.0000
  C  Sn12      1.0  0.29318  0.40146  0.36489  1.0000
  C   C123      1.0  0.30519  0.35488  0.33248  1.0000
  C   C124      1.0  0.29682  0.29873  0.34910  1.0000
  H   H59       1.0  0.26985  0.24544  0.41111  1.0000
  O  Te11      1.0  0.26006  0.43715  0.44786  1.0000
  O  Te12      1.0  0.30178  0.45728  0.34771  1.0000
  H   H60       1.0  0.30622  0.26292  0.32378  1.0000
  Mg  Mg6       1.0  0.27878  0.50545  0.40693  1.0000
  C   C125      1.0  0.08683  0.95815  0.96526  1.0000
  C   C126      1.0  0.07544  0.00574  0.01425  1.0000
  C  Sn13      1.0  0.09143  0.00510  0.07113  1.0000
  C  Sn14      1.0  0.11849  0.96748  0.07895  1.0000
  C   C127      1.0  0.12675  0.93146  0.02963  1.0000
  C   C128      1.0  0.11136  0.92105  0.97292  1.0000
  H   H61       1.0  0.07434  0.95893  0.92136  1.0000
  O  Te13      1.0  0.08271  0.04153  0.11961  1.0000
  O  Te14      1.0  0.13487  0.96598  0.13530  1.0000
  H   H62       1.0  0.11790  0.89305  0.93498  1.0000
  Mg  Mg7       1.0  0.11208  0.02377  0.18757  1.0000
  C   C129      1.0  0.18544  0.75633  0.04917  1.0000
  C   C130      1.0  0.17586  0.77981  0.99959  1.0000
  C  Sn15      1.0  0.18617  0.77129  0.93816  1.0000
  C  Sn16      1.0  0.20724  0.72700  0.92630  1.0000
  C   C131      1.0  0.21744  0.69233  0.97621  1.0000
  C   C132      1.0  0.20620  0.71262  0.03750  1.0000
  H   H63       1.0  0.17733  0.76321  0.09658  1.0000
  O  Te15      1.0  0.17561  0.80652  0.88918  1.0000
  O  Te16      1.0  0.21791  0.71752  0.86536  1.0000
  H   H64       1.0  0.21421  0.68560  0.07587  1.0000
  Mg  Mg8       1.0  0.19683  0.77680  0.81424  1.0000
  C   C133      1.0  0.37782  0.67156  0.29458  1.0000
  C   C134      1.0  0.37552  0.63952  0.23944  1.0000
  C  Sn17      1.0  0.39646  0.59646  0.22693  1.0000
  C  Sn18      1.0  0.42012  0.58536  0.27054  1.0000
  C   C135      1.0  0.42220  0.61763  0.32559  1.0000
  C   C136      1.0  0.40113  0.66063  0.33763  1.0000
  H   H65       1.0  0.36150  0.70481  0.30392  1.0000
  O  Te17      1.0  0.39385  0.56486  0.17159  1.0000
  O  Te18      1.0  0.44135  0.54256  0.25922  1.0000
  H   H66       1.0  0.40290  0.68540  0.38035  1.0000
  Mg  Mg9       1.0  0.42828  0.51106  0.17718  1.0000
  C   C137      1.0  0.27482  0.71718  0.08032  1.0000
  C   C138      1.0  0.26459  0.67197  0.04303  1.0000
  C  Sn19      1.0  0.27518  0.61623  0.05367  1.0000
  C  Sn20      1.0  0.29641  0.60569  0.10261  1.0000
  C   C139      1.0  0.30649  0.65120  0.13968  1.0000
  C   C140      1.0  0.29574  0.70682  0.12860  1.0000
  H   H67       1.0  0.26649  0.76021  0.07177  1.0000
  O  Te19      1.0  0.26473  0.57156  0.01596  1.0000
  O  Te20      1.0  0.30736  0.55039  0.11428  1.0000
  H   H68       1.0  0.30365  0.74181  0.15751  1.0000
  Mg  Mg10      1.0  0.28634  0.50365  0.05019  1.0000
  C   C141      1.0  0.09875  0.06924  0.46836  1.0000
  C   C142      1.0  0.11931  0.08229  0.51619  1.0000
  C  Sn21      1.0  0.12108  0.04758  0.57033  1.0000
  C  Sn22      1.0  0.10188  0.99892  0.57656  1.0000
  C   C143      1.0  0.08359  0.98621  0.52842  1.0000
  C   C144      1.0  0.07981  0.02124  0.47446  1.0000
  H   H69       1.0  0.09753  0.09633  0.42659  1.0000
  O  Te21      1.0  0.14175  0.06124  0.61767  1.0000
  O  Te22      1.0  0.10538  0.96348  0.63015  1.0000
  H   H70       1.0  0.06389  0.01111  0.43742  1.0000
  Mg  Mg11      1.0  0.13505  0.99989  0.68180  1.0000
  C   C145      1.0  0.20047  0.26392  0.42447  1.0000
  C   C146      1.0  0.21245  0.29474  0.47491  1.0000
  C  Sn23      1.0  0.20450  0.28030  0.53689  1.0000
  C  Sn24      1.0  0.18418  0.23411  0.54845  1.0000
  C   C147      1.0  0.17233  0.20352  0.49767  1.0000
  C   C148      1.0  0.18043  0.21835  0.43583  1.0000
  H   H71       1.0  0.20675  0.27537  0.37663  1.0000
  O  Te23      1.0  0.21667  0.31155  0.58673  1.0000
  O  Te24      1.0  0.17585  0.21875  0.60993  1.0000
  H   H72       1.0  0.17117  0.19446  0.39679  1.0000
  Mg  Mg12      1.0  0.19846  0.27427  0.66216  1.0000
  C   C149      1.0  0.40629  0.42568  0.73261  1.0000
  C   C150      1.0  0.38217  0.38744  0.72554  1.0000
  C  Sn25      1.0  0.37704  0.34416  0.77057  1.0000
  C  Sn26      1.0  0.39646  0.33919  0.82364  1.0000
  C   C151      1.0  0.42052  0.37768  0.83031  1.0000
  C   C152      1.0  0.42544  0.42082  0.78495  1.0000
  H   H73       1.0  0.41009  0.45908  0.69754  1.0000
  O  Te25      1.0  0.35285  0.30630  0.76276  1.0000
  O  Te26      1.0  0.39185  0.29634  0.86937  1.0000
  H   H74       1.0  0.44411  0.45045  0.79046  1.0000
  Mg  Mg13      1.0  0.35583  0.25503  0.83781  1.0000
  C   C153      1.0  0.29066  0.40849  0.60235  1.0000
  C   C154      1.0  0.30286  0.36221  0.63626  1.0000
  C  Sn27      1.0  0.29423  0.30598  0.62227  1.0000
  C  Sn28      1.0  0.27300  0.29603  0.57340  1.0000
  C   C155      1.0  0.26094  0.34261  0.53973  1.0000
  C   C156      1.0  0.26973  0.39871  0.55413  1.0000
  H   H75       1.0  0.29747  0.45189  0.61346  1.0000
  O  Te27      1.0  0.30663  0.26024  0.65663  1.0000
  O  Te28      1.0  0.26399  0.24026  0.55843  1.0000
  H   H76       1.0  0.26029  0.43453  0.52784  1.0000
  Mg  Mg14      1.0  0.28725  0.19204  0.61865  1.0000
  C   C157      1.0  0.11533  0.34408  0.09126  1.0000
  C   C158      1.0  0.12474  0.38128  0.04283  1.0000
  C  Sn29      1.0  0.11040  0.37065  0.98491  1.0000
  C  Sn30      1.0  0.08541  0.33344  0.97545  1.0000
  C   C159      1.0  0.07539  0.30780  0.02422  1.0000
  C   C160      1.0  0.09067  0.30738  0.08198  1.0000
  H   H77       1.0  0.12714  0.34378  0.13597  1.0000
  O  Te29      1.0  0.12011  0.40807  0.93702  1.0000
  O  Te30      1.0  0.06990  0.33333  0.91804  1.0000
  H   H78       1.0  0.08337  0.27860  0.11948  1.0000
  Mg  Mg15      1.0  0.09168  0.39207  0.86715  1.0000
  C   C161      1.0  0.19851  0.57576  0.92195  1.0000
  C   C162      1.0  0.21254  0.60446  0.97164  1.0000
  C  Sn31      1.0  0.20661  0.59833  0.03401  1.0000
  C  Sn32      1.0  0.18705  0.55120  0.04673  1.0000
  C   C163      1.0  0.17392  0.51137  0.99669  1.0000
  C   C164      1.0  0.17923  0.52926  0.93446  1.0000
  H   H79       1.0  0.20263  0.58958  0.87380  1.0000
  O  Te31      1.0  0.22080  0.62749  0.08309  1.0000
  O  Te32      1.0  0.18152  0.53279  0.10863  1.0000
  H   H80       1.0  0.16838  0.50701  0.89600  1.0000
  Mg  Mg16      1.0  0.20611  0.58631  0.15950  1.0000
  C   C165      1.0  0.61938  0.33162  0.18684  1.0000
  C   C166      1.0  0.62595  0.37297  0.23215  1.0000
  C  Sn33      1.0  0.60674  0.41971  0.24034  1.0000
  C  Sn34      1.0  0.58047  0.42502  0.20241  1.0000
  C   C167      1.0  0.57409  0.38340  0.15723  1.0000
  C   C168      1.0  0.59348  0.33682  0.14942  1.0000
  H   H81       1.0  0.63437  0.29556  0.18081  1.0000
  O  Te33      1.0  0.61364  0.46064  0.28582  1.0000
  O  Te34      1.0  0.56087  0.47129  0.20962  1.0000
  H   H82       1.0  0.58837  0.30479  0.11436  1.0000
  Mg  Mg17      1.0  0.57998  0.51598  0.27792  1.0000
  C   C169      1.0  0.71238  0.40693  0.36673  1.0000
  C   C170      1.0  0.69738  0.36073  0.33896  1.0000
  C  Sn35      1.0  0.70238  0.30468  0.36083  1.0000
  C  Sn36      1.0  0.72278  0.29485  0.41145  1.0000
  C   C171      1.0  0.73766  0.34137  0.43894  1.0000
  C   C172      1.0  0.73249  0.39727  0.41667  1.0000
  H   H83       1.0  0.70837  0.45019  0.34953  1.0000
  O  Te35      1.0  0.68722  0.25902  0.33254  1.0000
  O  Te36      1.0  0.72819  0.23928  0.43424  1.0000
  H   H84       1.0  0.74409  0.43303  0.43821  1.0000
  Mg  Mg18      1.0  0.70212  0.19109  0.38023  1.0000
  C   C173      1.0  0.88274  0.33815  0.07581  1.0000
  C   C174      1.0  0.87806  0.38395  0.03369  1.0000
  C  Sn37      1.0  0.89631  0.37786  0.97910  1.0000
  C  Sn38      1.0  0.91886  0.33648  0.96657  1.0000
  C   C175      1.0  0.92257  0.30218  0.00898  1.0000
  C   C176      1.0  0.90497  0.29730  0.06347  1.0000
  H   H85       1.0  0.86911  0.33436  0.11796  1.0000
  O  Te37      1.0  0.89134  0.42389  0.93753  1.0000
  O  Te38      1.0  0.93663  0.34073  0.91235  1.0000
  H   H86       1.0  0.90858  0.26182  0.09606  1.0000
  Mg  Mg19      1.0  0.92134  0.41115  0.87003  1.0000
  C   C177      1.0  0.80032  0.56816  0.05130  1.0000
  C   C178      1.0  0.78765  0.59988  0.00158  1.0000
  C  Sn39      1.0  0.79628  0.57679  0.93925  1.0000
  C  Sn40      1.0  0.81723  0.53248  0.92660  1.0000
  C   C179      1.0  0.82976  0.50096  0.97667  1.0000
  C   C180      1.0  0.82097  0.52443  0.03887  1.0000
  H   H87       1.0  0.79411  0.57749  0.09943  1.0000
  O  Te39      1.0  0.78342  0.60891  0.89013  1.0000
  O  Te40      1.0  0.82547  0.51986  0.86474  1.0000
  H   H88       1.0  0.83077  0.49984  0.07736  1.0000
  Mg  Mg20      1.0  0.80180  0.57558  0.81380  1.0000
  C   C181      1.0  0.59547  0.56606  0.73907  1.0000
  C   C182      1.0  0.62140  0.60019  0.74284  1.0000
  C  Sn41      1.0  0.62603  0.64526  0.69973  1.0000
  C  Sn42      1.0  0.60425  0.65628  0.65202  1.0000
  C   C183      1.0  0.57836  0.62191  0.64867  1.0000
  C   C184      1.0  0.57396  0.57691  0.69204  1.0000
  H   H89       1.0  0.59205  0.53126  0.77264  1.0000
  O  Te41      1.0  0.65208  0.67892  0.70417  1.0000
  O  Te42      1.0  0.60830  0.70106  0.60834  1.0000
  H   H90       1.0  0.55387  0.55052  0.68912  1.0000
  Mg  Mg21      1.0  0.64745  0.73497  0.63374  1.0000
  C   C185      1.0  0.72020  0.71199  0.90026  1.0000
  C   C186      1.0  0.73449  0.66614  0.93106  1.0000
  C  Sn43      1.0  0.72878  0.60970  0.91262  1.0000
  C  Sn44      1.0  0.70838  0.59910  0.86238  1.0000
  C   C187      1.0  0.69422  0.64528  0.83184  1.0000
  C   C188      1.0  0.70009  0.70158  0.85069  1.0000
  H   H91       1.0  0.72476  0.75556  0.91481  1.0000
  O  Te43      1.0  0.74324  0.56439  0.94391  1.0000
  O  Te44      1.0  0.70227  0.54312  0.84298  1.0000
  H   H92       1.0  0.68904  0.73708  0.82681  1.0000
  Mg  Mg22      1.0  0.72754  0.49567  0.90028  1.0000
  C   C189      1.0  0.89541  0.00822  0.58474  1.0000
  C   C190      1.0  0.91622  0.99637  0.53724  1.0000
  C  Sn45      1.0  0.91794  0.03158  0.48347  1.0000
  C  Sn46      1.0  0.89845  0.07952  0.47729  1.0000
  C   C191      1.0  0.87772  0.09104  0.52510  1.0000
  C   C192      1.0  0.87618  0.05551  0.57869  1.0000
  H   H93       1.0  0.89642  0.98075  0.62623  1.0000
  O  Te45      1.0  0.93886  0.01911  0.43645  1.0000
  O  Te46      1.0  0.89970  0.11543  0.42406  1.0000
  H   H94       1.0  0.86007  0.06472  0.61549  1.0000
  Mg  Mg23      1.0  0.93199  0.08071  0.37276  1.0000
  C   C193      1.0  0.80777  0.23411  0.42204  1.0000
  C   C194      1.0  0.82542  0.21331  0.47196  1.0000
  C  Sn47      1.0  0.82032  0.23205  0.53339  1.0000
  C  Sn48      1.0  0.79711  0.27235  0.54491  1.0000
  C   C195      1.0  0.77956  0.29287  0.49465  1.0000
  C   C196      1.0  0.78487  0.27385  0.43336  1.0000
  H   H95       1.0  0.81186  0.21937  0.37462  1.0000
  O  Te47      1.0  0.83816  0.21084  0.58272  1.0000
  O  Te48      1.0  0.79152  0.29179  0.60585  1.0000
  H   H96       1.0  0.77119  0.28993  0.39472  1.0000
  Mg  Mg24      1.0  0.82187  0.25032  0.65751  1.0000
  C   C197      1.0  0.60906  0.33040  0.81970  1.0000
  C   C198      1.0  0.58601  0.37016  0.82908  1.0000
  C  Sn49      1.0  0.58140  0.41486  0.78556  1.0000
  C  Sn50      1.0  0.60025  0.41973  0.73169  1.0000
  C   C199      1.0  0.62322  0.37970  0.72271  1.0000
  C   C200      1.0  0.62764  0.33515  0.76656  1.0000
  H   H97       1.0  0.61247  0.29590  0.85361  1.0000
  O  Te49      1.0  0.55828  0.45423  0.79567  1.0000
  O  Te50      1.0  0.59613  0.46398  0.68743  1.0000
  H   H98       1.0  0.64548  0.30435  0.75927  1.0000
  Mg  Mg25      1.0  0.56159  0.50706  0.72197  1.0000
  C   C201      1.0  0.71869  0.40513  0.57029  1.0000
  C   C202      1.0  0.73612  0.35912  0.54976  1.0000
  C  Sn51      1.0  0.73066  0.30362  0.57303  1.0000
  C  Sn52      1.0  0.70728  0.29414  0.61767  1.0000
  C   C203      1.0  0.68995  0.34045  0.63787  1.0000
  C   C204      1.0  0.69562  0.39581  0.61429  1.0000
  H   H99       1.0  0.72306  0.44796  0.55202  1.0000
  O  Te51      1.0  0.74830  0.25814  0.55204  1.0000
  O  Te52      1.0  0.70133  0.23911  0.64168  1.0000
  H   H100      1.0  0.68211  0.43142  0.63016  1.0000
  Mg  Mg26      1.0  0.73152  0.19099  0.59860  1.0000
  C   C205      1.0  0.89578  0.99654  0.08044  1.0000
  C   C206      1.0  0.91731  0.00382  0.03771  1.0000
  C  Sn53      1.0  0.92261  0.95678  0.98541  1.0000
  C  Sn54      1.0  0.90074  0.91306  0.97583  1.0000
  C   C207      1.0  0.87630  0.91753  0.01883  1.0000
  C   C208      1.0  0.87419  0.95344  0.07101  1.0000
  H   H101      1.0  0.89195  0.02435  0.12080  1.0000
  O  Te53      1.0  0.94646  0.96463  0.94319  1.0000
  O  Te54      1.0  0.90251  0.87683  0.92394  1.0000
  H   H102      1.0  0.85581  0.94782  0.10407  1.0000
  Mg  Mg27      1.0  0.93919  0.90444  0.87961  1.0000
  C   C209      1.0  0.79666  0.74417  0.92179  1.0000
  C   C210      1.0  0.78596  0.71043  0.97204  1.0000
  C  Sn55      1.0  0.79463  0.73282  0.03367  1.0000
  C  Sn56      1.0  0.81516  0.77848  0.04506  1.0000
  C   C211      1.0  0.82648  0.80063  0.99447  1.0000
  C   C212      1.0  0.81689  0.78923  0.93298  1.0000
  H   H103      1.0  0.78923  0.73538  0.87422  1.0000
  O  Te55      1.0  0.78373  0.69868  0.08333  1.0000
  O  Te56      1.0  0.82495  0.79043  0.10619  1.0000
  H   H104      1.0  0.82516  0.81538  0.89409  1.0000
  Mg  Mg28      1.0  0.80372  0.73182  0.15828  1.0000
  C   C213      1.0  0.58109  0.57516  0.25547  1.0000
  C   C214      1.0  0.57888  0.60704  0.31070  1.0000
  C  Sn57      1.0  0.60040  0.64915  0.32431  1.0000
  C  Sn58      1.0  0.62455  0.65944  0.28172  1.0000
  C   C215      1.0  0.62654  0.62734  0.22657  1.0000
  C   C216      1.0  0.60489  0.58530  0.21343  1.0000
  H   H105      1.0  0.56433  0.54265  0.24528  1.0000
  O  Te57      1.0  0.59787  0.68059  0.37972  1.0000
  O  Te58      1.0  0.64636  0.70128  0.29415  1.0000
  H   H106      1.0  0.60659  0.56065  0.17064  1.0000
  Mg  Mg29      1.0  0.63317  0.73295  0.37584  1.0000
  C   C217      1.0  0.71345  0.71219  0.10887  1.0000
  C   C218      1.0  0.69688  0.66575  0.13314  1.0000
  C  Sn59      1.0  0.70337  0.60983  0.11435  1.0000
  C  Sn60      1.0  0.72690  0.60034  0.07045  1.0000
  C   C219      1.0  0.74337  0.64708  0.04647  1.0000
  C   C220      1.0  0.73668  0.70287  0.06558  1.0000
  H   H107      1.0  0.70829  0.75535  0.12368  1.0000
  O  Te59      1.0  0.68658  0.56393  0.13905  1.0000
  O  Te60      1.0  0.73387  0.54489  0.05088  1.0000
  H   H108      1.0  0.74953  0.73880  0.04681  1.0000
  Mg  Mg30      1.0  0.70459  0.49629  0.09789  1.0000
  C   C221      1.0  0.89174  0.68805  0.58200  1.0000
  C   C222      1.0  0.91482  0.69754  0.53820  1.0000
  C  Sn61      1.0  0.91635  0.66458  0.48365  1.0000
  C  Sn62      1.0  0.89434  0.62136  0.47288  1.0000
  C   C223      1.0  0.87133  0.61222  0.51697  1.0000
  C   C224      1.0  0.87002  0.64544  0.57141  1.0000
  H   H109      1.0  0.89071  0.71377  0.62410  1.0000
  O  Te61      1.0  0.93956  0.67462  0.44039  1.0000
  O  Te62      1.0  0.89533  0.58781  0.41875  1.0000
  H   H110      1.0  0.85214  0.63810  0.60529  1.0000
  Mg  Mg31      1.0  0.93132  0.61772  0.37373  1.0000
  C   C225      1.0  0.81470  0.44663  0.42410  1.0000
  C   C226      1.0  0.82470  0.47995  0.47446  1.0000
  C  Sn63      1.0  0.81436  0.46852  0.53560  1.0000
  C  Sn64      1.0  0.79363  0.42285  0.54638  1.0000
  C   C227      1.0  0.78377  0.38975  0.49568  1.0000
  C   C228      1.0  0.79426  0.40157  0.43469  1.0000
  H   H111      1.0  0.82282  0.45576  0.37691  1.0000
  O  Te63      1.0  0.82458  0.50223  0.58537  1.0000
  O  Te64      1.0  0.78294  0.41048  0.60701  1.0000
  H   H112      1.0  0.78652  0.37575  0.39571  1.0000
  Mg  Mg32      1.0  0.80348  0.46860  0.65950  1.0000
