data_image0
_chemical_formula_structural       H2C2H4CHC2H2C2H2CHC4H2C4H2C2H2C5NC3HC2NCH2C2H2C7NCHC2NC3H2CN2C4H2C2H4C2H2C3NC3HC4NCH2C2H4C3NC3HC2NC3H2CN2C4H2C6H2CHC2H2C2H2CHC4H2CuN4CuSnCSn2CSnTe4Mg2SnCSn2CSnTe4Mg2SnCSn2CSnTe4Mg2SnCSn2CSnTe4Mg2SnCSn2CSnTe4Mg2SnCSn2CSnTe4Mg2SnCSn2CSnTe4Mg2SnCSn2CSnTe4Mg2
_chemical_formula_sum              "H56 C114 N16 Cu2 Sn32 Te32 Mg16"
_cell_length_a       44.3081
_cell_length_b       23.272
_cell_length_c       21.1889
_cell_angle_alpha    90.1968
_cell_angle_beta     89.9432
_cell_angle_gamma    89.8326

_symmetry_space_group_name_H-M    'P1'
_space_group_IT_number       1

loop_
  _space_group_symop_operation_xyz
  'x, y, z'

loop_
  _atom_site_type_symbol
  _atom_site_label
  _atom_site_symmetry_multiplicity
  _atom_site_fract_x
  _atom_site_fract_y
  _atom_site_fract_z
  _atom_site_occupancy
  H   H1        1.0  0.89845  0.73196  0.60843  1.0000
  H   H2        1.0  0.85861  0.65710  0.60873  1.0000
  C   C1        1.0  0.29626  0.29496  0.36275  1.0000
  C   C2        1.0  0.27454  0.29484  0.41019  1.0000
  H   H3        1.0  0.56243  0.46006  0.19441  1.0000
  H   H4        1.0  0.60407  0.46454  0.27306  1.0000
  H   H5        1.0  0.70241  0.44317  0.33158  1.0000
  H   H6        1.0  0.74237  0.44108  0.41253  1.0000
  C   C3        1.0  0.34979  0.38442  0.68552  1.0000
  H   H7        1.0  0.35183  0.41679  0.64801  1.0000
  C   C4        1.0  0.18394  0.23002  0.54676  1.0000
  C   C5        1.0  0.20511  0.27413  0.54572  1.0000
  H   H8        1.0  0.81750  0.20124  0.38346  1.0000
  H   H9        1.0  0.77808  0.27719  0.38498  1.0000
  C   C6        1.0  0.29448  0.40105  0.61385  1.0000
  C   C7        1.0  0.27250  0.39972  0.56686  1.0000
  H   H10       1.0  0.60215  0.30451  0.86455  1.0000
  H   H11       1.0  0.64290  0.30121  0.78283  1.0000
  C   C8        1.0  0.34917  0.38310  0.28806  1.0000
  H   H12       1.0  0.35008  0.41774  0.32354  1.0000
  C   C9        1.0  0.06431  0.79816  0.51956  1.0000
  C   C10       1.0  0.09552  0.81504  0.51383  1.0000
  C   C11       1.0  0.06534  0.89306  0.52316  1.0000
  C   C12       1.0  0.09618  0.87370  0.51614  1.0000
  H   H13       1.0  0.11423  0.78548  0.50783  1.0000
  H   H14       1.0  0.11565  0.90155  0.51289  1.0000
  C   C13       1.0  0.57966  0.42667  0.19536  1.0000
  C   C14       1.0  0.60307  0.42918  0.23930  1.0000
  C   C15       1.0  0.70793  0.40292  0.35491  1.0000
  C   C16       1.0  0.73075  0.40147  0.40039  1.0000
  H   H15       1.0  0.30676  0.25524  0.34669  1.0000
  H   H16       1.0  0.26802  0.25424  0.43141  1.0000
  C   C17       1.0  0.81208  0.22391  0.42706  1.0000
  C   C18       1.0  0.78990  0.26661  0.42837  1.0000
  H   H17       1.0  0.17362  0.21721  0.59118  1.0000
  H   H18       1.0  0.21151  0.29483  0.58982  1.0000
  C   C19       1.0  0.85106  0.57146  0.52551  1.0000
  C   C20       1.0  0.56356  0.38574  0.03828  1.0000
  C   C21       1.0  0.55454  0.38035  0.10152  1.0000
  C   C22       1.0  0.57852  0.38198  0.15066  1.0000
  C   C23       1.0  0.62569  0.38665  0.24029  1.0000
  N   N1        1.0  0.66970  0.34913  0.29225  1.0000
  C   C24       1.0  0.69264  0.35235  0.33761  1.0000
  C   C25       1.0  0.73898  0.35013  0.43047  1.0000
  C   C26       1.0  0.40510  0.40251  0.01917  1.0000
  H   H19       1.0  0.38661  0.41389  0.92346  1.0000
  C   C27       1.0  0.02406  0.72453  0.52367  1.0000
  C   C28       1.0  0.01411  0.66595  0.53106  1.0000
  N   N2        1.0  0.14906  0.52589  0.47973  1.0000
  C   C29       1.0  0.94403  0.74500  0.52327  1.0000
  H   H20       1.0  0.02894  0.62919  0.53614  1.0000
  H   H21       1.0  0.83365  0.57713  0.56211  1.0000
  C   C30       1.0  0.60208  0.33469  0.82545  1.0000
  C   C31       1.0  0.62472  0.33260  0.78012  1.0000
  H   H22       1.0  0.30265  0.44206  0.63167  1.0000
  H   H23       1.0  0.26426  0.44002  0.54751  1.0000
  C   C32       1.0  0.89783  0.69970  0.57123  1.0000
  C   C33       1.0  0.87551  0.65761  0.57136  1.0000
  C   C34       1.0  0.85421  0.13118  0.52414  1.0000
  C   C35       1.0  0.56359  0.38410  0.93391  1.0000
  C   C36       1.0  0.55461  0.37761  0.87070  1.0000
  C   C37       1.0  0.57847  0.37538  0.82161  1.0000
  C   C38       1.0  0.62448  0.37136  0.72923  1.0000
  N   N3        1.0  0.67136  0.33807  0.68380  1.0000
  C   C39       1.0  0.40524  0.40422  0.95475  1.0000
  H   H24       1.0  0.38633  0.41045  0.05076  1.0000
  C   C40       1.0  0.02647  0.96919  0.53242  1.0000
  C   C41       1.0  0.01739  0.02791  0.54399  1.0000
  N   N4        1.0  0.15297  0.16012  0.48660  1.0000
  C   C42       1.0  0.17471  0.20342  0.49012  1.0000
  C   C43       1.0  0.21806  0.29284  0.48881  1.0000
  C   C44       1.0  0.94631  0.95507  0.52525  1.0000
  H   H25       1.0  0.03271  0.06304  0.55354  1.0000
  H   H26       1.0  0.83947  0.13153  0.56603  1.0000
  C   C45       1.0  0.23896  0.34568  0.48766  1.0000
  N   N5        1.0  0.04609  0.84633  0.52422  1.0000
  N   N6        1.0  0.54498  0.38017  0.98612  1.0000
  C   C46       1.0  0.52438  0.37376  0.12047  1.0000
  C   C47       1.0  0.51478  0.36136  0.18406  1.0000
  C   C48       1.0  0.52435  0.37359  0.85165  1.0000
  C   C49       1.0  0.51453  0.36293  0.78771  1.0000
  H   H27       1.0  0.52932  0.35354  0.74827  1.0000
  H   H28       1.0  0.52979  0.35271  0.22315  1.0000
  C   C50       1.0  0.29205  0.39833  0.35572  1.0000
  C   C51       1.0  0.26988  0.39763  0.40254  1.0000
  H   H29       1.0  0.60029  0.30479  0.11728  1.0000
  H   H30       1.0  0.64191  0.30867  0.19708  1.0000
  H   H31       1.0  0.68990  0.26132  0.35244  1.0000
  H   H32       1.0  0.72909  0.25939  0.43585  1.0000
  C   C52       1.0  0.18665  0.22380  0.43289  1.0000
  C   C53       1.0  0.20809  0.26731  0.43250  1.0000
  H   H33       1.0  0.83410  0.22984  0.58092  1.0000
  H   H34       1.0  0.79520  0.30593  0.58232  1.0000
  C   C54       1.0  0.14615  0.56443  0.52333  1.0000
  C   C55       1.0  0.43550  0.38915  0.03881  1.0000
  C   C56       1.0  0.44440  0.38128  0.10169  1.0000
  N   N7        1.0  0.32860  0.34393  0.28968  1.0000
  C   C57       1.0  0.30595  0.34691  0.33579  1.0000
  C   C58       1.0  0.26072  0.34604  0.43075  1.0000
  C   C59       1.0  0.59420  0.39611  0.01814  1.0000
  H   H35       1.0  0.61298  0.40201  0.92192  1.0000
  C   C60       1.0  0.97419  0.72639  0.52516  1.0000
  C   C61       1.0  0.98331  0.66712  0.53212  1.0000
  C   C62       1.0  0.91994  0.70066  0.52359  1.0000
  C   C63       1.0  0.87474  0.61497  0.52419  1.0000
  N   N8        1.0  0.85033  0.52944  0.48557  1.0000
  C   C64       1.0  0.05445  0.74091  0.52081  1.0000
  H   H36       1.0  0.96805  0.63135  0.53817  1.0000
  H   H37       1.0  0.16123  0.56634  0.56458  1.0000
  C   C65       1.0  0.29377  0.29729  0.61803  1.0000
  C   C66       1.0  0.27212  0.29650  0.57048  1.0000
  H   H38       1.0  0.56040  0.44596  0.76754  1.0000
  H   H39       1.0  0.60063  0.44161  0.68569  1.0000
  H   H40       1.0  0.93571  0.65906  0.43864  1.0000
  H   H41       1.0  0.89619  0.58264  0.44015  1.0000
  C   C67       1.0  0.15041  0.12260  0.53101  1.0000
  C   C68       1.0  0.43569  0.39157  0.93470  1.0000
  C   C69       1.0  0.44458  0.38563  0.87144  1.0000
  N   N9        1.0  0.32814  0.34737  0.68633  1.0000
  C   C70       1.0  0.30577  0.34963  0.63969  1.0000
  C   C71       1.0  0.26076  0.34753  0.54436  1.0000
  C   C72       1.0  0.59420  0.39505  0.95365  1.0000
  H   H42       1.0  0.61319  0.40373  0.04914  1.0000
  C   C73       1.0  0.97667  0.97109  0.53064  1.0000
  C   C74       1.0  0.98659  0.02909  0.54261  1.0000
  N   N10       1.0  0.85003  0.16605  0.47770  1.0000
  C   C75       1.0  0.82769  0.20862  0.48226  1.0000
  C   C76       1.0  0.78292  0.29630  0.48433  1.0000
  C   C77       1.0  0.05660  0.95087  0.52852  1.0000
  H   H43       1.0  0.97171  0.06538  0.55045  1.0000
  H   H44       1.0  0.16624  0.12063  0.57098  1.0000
  C   C78       1.0  0.76124  0.34844  0.48655  1.0000
  N   N11       1.0  0.95470  0.84961  0.52416  1.0000
  N   N12       1.0  0.45411  0.38422  0.98663  1.0000
  C   C79       1.0  0.47451  0.37362  0.12027  1.0000
  C   C80       1.0  0.48393  0.36094  0.18383  1.0000
  C   C81       1.0  0.47456  0.37791  0.85194  1.0000
  C   C82       1.0  0.48374  0.36590  0.78788  1.0000
  H   H45       1.0  0.46848  0.35962  0.74862  1.0000
  H   H46       1.0  0.46871  0.35187  0.22251  1.0000
  C   C83       1.0  0.91898  0.65799  0.47620  1.0000
  C   C84       1.0  0.89694  0.61569  0.47655  1.0000
  C   C85       1.0  0.60125  0.33948  0.15176  1.0000
  C   C86       1.0  0.62440  0.34153  0.19587  1.0000
  C   C87       1.0  0.70142  0.30051  0.36647  1.0000
  C   C88       1.0  0.72359  0.29978  0.41280  1.0000
  H   H47       1.0  0.29830  0.43876  0.33370  1.0000
  H   H48       1.0  0.25941  0.43786  0.41716  1.0000
  C   C89       1.0  0.64816  0.37174  0.68140  1.0000
  H   H49       1.0  0.64491  0.40266  0.64275  1.0000
  C   C90       1.0  0.82116  0.23895  0.53842  1.0000
  C   C91       1.0  0.79935  0.28209  0.53890  1.0000
  H   H50       1.0  0.17882  0.20454  0.38905  1.0000
  H   H51       1.0  0.21710  0.28218  0.38773  1.0000
  C   C92       1.0  0.57820  0.41380  0.77052  1.0000
  C   C93       1.0  0.60084  0.41159  0.72498  1.0000
  H   H52       1.0  0.30219  0.25750  0.63837  1.0000
  H   H53       1.0  0.26380  0.25541  0.55348  1.0000
  C   C94       1.0  0.64977  0.38941  0.28742  1.0000
  H   H54       1.0  0.64940  0.42680  0.31942  1.0000
  C   C95       1.0  0.93544  0.80303  0.52074  1.0000
  C   C96       1.0  0.90469  0.82256  0.51367  1.0000
  C   C97       1.0  0.93650  0.89794  0.52104  1.0000
  C   C98       1.0  0.90536  0.88120  0.51378  1.0000
  H   H55       1.0  0.88535  0.79469  0.50823  1.0000
  H   H56       1.0  0.88663  0.91075  0.50873  1.0000
  Cu  Cu1       1.0  0.49953  0.38118  0.98630  1.0000
  N   N13       1.0  0.49959  0.38101  0.89066  1.0000
  N   N14       1.0  0.49949  0.37933  0.08161  1.0000
  N   N15       1.0  0.99942  0.76112  0.52108  1.0000
  N   N16       1.0  0.00129  0.93466  0.52598  1.0000
  Cu  Cu2       1.0  0.00039  0.84793  0.52331  1.0000
  C  Sn1       1.0  0.80938  0.41308  0.43086  1.0000
  C   C99       1.0  0.79237  0.39209  0.48130  1.0000
  C  Sn2       1.0  0.79100  0.42241  0.53824  1.0000
  C  Sn3       1.0  0.80695  0.47483  0.54490  1.0000
  C   C100      1.0  0.82394  0.49580  0.49448  1.0000
  C  Sn4       1.0  0.82533  0.46550  0.43752  1.0000
  O  Te1       1.0  0.81042  0.38205  0.37436  1.0000
  O  Te2       1.0  0.77386  0.40056  0.58801  1.0000
  O  Te3       1.0  0.80590  0.50586  0.60146  1.0000
  O  Te4       1.0  0.84246  0.48733  0.38777  1.0000
  Mg  Mg1       1.0  0.77945  0.45849  0.65560  1.0000
  Mg  Mg2       1.0  0.83687  0.42945  0.32015  1.0000
  C  Sn5       1.0  0.38322  0.32614  0.19321  1.0000
  C   C101      1.0  0.37850  0.36558  0.24214  1.0000
  C  Sn6       1.0  0.39365  0.41814  0.24248  1.0000
  C  Sn7       1.0  0.41392  0.43158  0.19287  1.0000
  C   C102      1.0  0.41863  0.39215  0.14398  1.0000
  C  Sn8       1.0  0.40349  0.33957  0.14360  1.0000
  O  Te5       1.0  0.36784  0.27385  0.19383  1.0000
  O  Te6       1.0  0.38857  0.45688  0.29192  1.0000
  O  Te7       1.0  0.42931  0.48391  0.19229  1.0000
  O  Te8       1.0  0.40856  0.30085  0.09420  1.0000
  Mg  Mg3       1.0  0.41484  0.52255  0.27004  1.0000
  Mg  Mg4       1.0  0.38229  0.23518  0.11601  1.0000
  C  Sn9       1.0  0.41126  0.43996  0.77330  1.0000
  C   C103      1.0  0.41561  0.40206  0.82351  1.0000
  C  Sn10      1.0  0.40000  0.35004  0.82564  1.0000
  C  Sn11      1.0  0.37962  0.33559  0.77655  1.0000
  C   C104      1.0  0.37528  0.37348  0.72637  1.0000
  C  Sn12      1.0  0.39089  0.42551  0.72421  1.0000
  O  Te9       1.0  0.42711  0.49173  0.77214  1.0000
  O  Te10      1.0  0.40472  0.31285  0.87633  1.0000
  O  Te11      1.0  0.36377  0.28377  0.77775  1.0000
  O  Te12      1.0  0.38618  0.46269  0.67355  1.0000
  Mg  Mg5       1.0  0.37787  0.24733  0.85672  1.0000
  Mg  Mg6       1.0  0.41303  0.52819  0.69310  1.0000
  C  Sn13      1.0  0.10366  0.01512  0.59240  1.0000
  C   C105      1.0  0.08136  0.00654  0.54675  1.0000
  C  Sn14      1.0  0.08385  0.03215  0.48745  1.0000
  C  Sn15      1.0  0.10917  0.06705  0.47348  1.0000
  C   C106      1.0  0.13145  0.07561  0.51910  1.0000
  C  Sn16      1.0  0.12897  0.05001  0.57842  1.0000
  O  Te13      1.0  0.09916  0.98909  0.65136  1.0000
  O  Te14      1.0  0.06127  0.02296  0.44259  1.0000
  O  Te15      1.0  0.11211  0.09308  0.41446  1.0000
  O  Te16      1.0  0.15154  0.05918  0.62326  1.0000
  Mg  Mg7       1.0  0.07547  0.06766  0.36903  1.0000
  Mg  Mg8       1.0  0.13738  0.01448  0.69682  1.0000
  C  Sn17      1.0  0.17885  0.43486  0.42606  1.0000
  C   C107      1.0  0.16707  0.46562  0.47726  1.0000
  C  Sn18      1.0  0.18168  0.46472  0.53564  1.0000
  C  Sn19      1.0  0.20864  0.43241  0.54300  1.0000
  C   C108      1.0  0.22040  0.40168  0.49182  1.0000
  C  Sn20      1.0  0.20580  0.40255  0.43342  1.0000
  O  Te17      1.0  0.16387  0.43638  0.36813  1.0000
  O  Te18      1.0  0.16947  0.49581  0.58614  1.0000
  O  Te19      1.0  0.22362  0.43091  0.60099  1.0000
  O  Te20      1.0  0.21800  0.37150  0.38294  1.0000
  Mg  Mg9       1.0  0.19815  0.48030  0.65567  1.0000
  Mg  Mg10      1.0  0.18936  0.38699  0.31338  1.0000
  C  Sn21      1.0  0.10244  0.63085  0.45744  1.0000
  C   C109      1.0  0.12390  0.61988  0.50419  1.0000
  C  Sn22      1.0  0.12066  0.64374  0.56440  1.0000
  C  Sn23      1.0  0.09543  0.67929  0.57820  1.0000
  C   C110      1.0  0.07399  0.69024  0.53148  1.0000
  C  Sn24      1.0  0.07721  0.66640  0.47124  1.0000
  O  Te21      1.0  0.10613  0.60654  0.39757  1.0000
  O  Te22      1.0  0.14242  0.63217  0.61036  1.0000
  O  Te23      1.0  0.09176  0.70360  0.63813  1.0000
  O  Te24      1.0  0.05546  0.67795  0.42531  1.0000
  Mg  Mg11      1.0  0.12742  0.67517  0.68488  1.0000
  Mg  Mg12      1.0  0.07043  0.63495  0.35078  1.0000
  C  Sn25      1.0  0.92324  0.06254  0.48057  1.0000
  C   C111      1.0  0.92772  0.01939  0.52534  1.0000
  C  Sn26      1.0  0.90513  0.00651  0.56905  1.0000
  C  Sn27      1.0  0.87748  0.03736  0.56797  1.0000
  C   C112      1.0  0.87302  0.08047  0.52322  1.0000
  C  Sn28      1.0  0.89560  0.09340  0.47950  1.0000
  O  Te25      1.0  0.94613  0.07470  0.43732  1.0000
  O  Te26      1.0  0.90859  0.96320  0.61337  1.0000
  O  Te27      1.0  0.85458  0.02516  0.61128  1.0000
  O  Te28      1.0  0.89060  0.13667  0.43519  1.0000
  Mg  Mg13      1.0  0.87056  0.96240  0.66247  1.0000
  Mg  Mg14      1.0  0.92862  0.13748  0.38605  1.0000
  C  Sn29      1.0  0.72092  0.29193  0.62376  1.0000
  C   C113      1.0  0.70337  0.33737  0.64686  1.0000
  C  Sn30      1.0  0.70187  0.38928  0.61410  1.0000
  C  Sn31      1.0  0.71822  0.39591  0.55703  1.0000
  C   C114      1.0  0.73575  0.35049  0.53395  1.0000
  C  Sn32      1.0  0.73727  0.29856  0.56669  1.0000
  O  Te29      1.0  0.72209  0.24041  0.65729  1.0000
  O  Te30      1.0  0.68418  0.43410  0.63814  1.0000
  O  Te31      1.0  0.71704  0.44748  0.52350  1.0000
  O  Te32      1.0  0.75494  0.25376  0.54266  1.0000
  Mg  Mg15      1.0  0.68980  0.49597  0.57535  1.0000
  Mg  Mg16      1.0  0.74933  0.19186  0.60539  1.0000
