data_image0
_chemical_formula_structural       C3NC2H2C2OCNC2H3C3NC2H4C3NC2H2C2OCNC2H3C3NC2H4SnCSn2CSnTe4Mg2SnCSn2CSnTe4Mg2SnCSn2CSnTe4Mg2SnCSn2CSnTe4Mg2SnCSn2CSnTe4Mg2SnCSn2CSnTe4Mg2
_chemical_formula_sum              "C42 N6 H18 O2 Sn24 Te24 Mg12"
_cell_length_a       18.6137
_cell_length_b       18.7025
_cell_length_c       8.22712
_cell_angle_alpha    118.917
_cell_angle_beta     64.3823
_cell_angle_gamma    119.531

_symmetry_space_group_name_H-M    'P1'
_space_group_IT_number       1

loop_
  _space_group_symop_operation_xyz
  'x, y, z'

loop_
  _atom_site_type_symbol
  _atom_site_label
  _atom_site_symmetry_multiplicity
  _atom_site_fract_x
  _atom_site_fract_y
  _atom_site_fract_z
  _atom_site_occupancy
  C   C1        1.0  0.61182  0.24460  0.24310  1.0000
  C   C2        1.0  0.69825  0.27764  0.24645  1.0000
  C   C3        1.0  0.49252  0.26478  0.22676  1.0000
  N   N1        1.0  0.44011  0.18755  0.23789  1.0000
  C   C4        1.0  0.08515  0.03314  0.24857  1.0000
  C   C5        1.0  0.04568  0.07927  0.24397  1.0000
  H   H1        1.0  0.47308  0.30732  0.21110  1.0000
  H   H2        1.0  0.08330  0.14418  0.23523  1.0000
  C   C6        1.0  0.74962  0.36279  0.24474  1.0000
  C   C7        1.0  0.71887  0.41600  0.23754  1.0000
  O   O1        1.0  0.56049  0.16444  0.25047  1.0000
  C   C8        1.0  0.73169  0.22231  0.24825  1.0000
  N   N2        1.0  0.80805  0.25212  0.26656  1.0000
  C   C9        1.0  0.95886  0.04404  0.24877  1.0000
  C   C10       1.0  0.91161  0.95893  0.25505  1.0000
  H   H3        1.0  0.50124  0.15591  0.24698  1.0000
  H   H4        1.0  0.68810  0.15450  0.23108  1.0000
  H   H5        1.0  0.84392  0.93084  0.26337  1.0000
  C   C11       1.0  0.63377  0.38224  0.23046  1.0000
  C   C12       1.0  0.57969  0.29778  0.23365  1.0000
  C   C13       1.0  0.77519  0.50389  0.23483  1.0000
  N   N3        1.0  0.74852  0.55473  0.22994  1.0000
  C   C14       1.0  0.94879  0.90898  0.25362  1.0000
  C   C15       1.0  0.03575  0.94743  0.25087  1.0000
  H   H6        1.0  0.84116  0.52313  0.23625  1.0000
  H   H7        1.0  0.06500  0.90993  0.25203  1.0000
  H   H8        1.0  0.81556  0.38626  0.24819  1.0000
  H   H9        1.0  0.61050  0.42287  0.22050  1.0000
  C   C16       1.0  0.61465  0.25065  0.75174  1.0000
  C   C17       1.0  0.70151  0.28290  0.75127  1.0000
  C   C18       1.0  0.49438  0.27136  0.74113  1.0000
  N   N4        1.0  0.44205  0.19432  0.75352  1.0000
  C   C19       1.0  0.08979  0.03788  0.74600  1.0000
  C   C20       1.0  0.04977  0.08545  0.74862  1.0000
  H   H10       1.0  0.47415  0.31438  0.72937  1.0000
  H   H11       1.0  0.08753  0.15085  0.74215  1.0000
  C   C21       1.0  0.75387  0.36652  0.74048  1.0000
  C   C22       1.0  0.72299  0.41990  0.73434  1.0000
  O   O2        1.0  0.56310  0.17103  0.76254  1.0000
  C   C23       1.0  0.73373  0.22891  0.76253  1.0000
  N   N5        1.0  0.81239  0.25637  0.76386  1.0000
  C   C24       1.0  0.96239  0.05079  0.75860  1.0000
  C   C25       1.0  0.91511  0.96596  0.76671  1.0000
  H   H12       1.0  0.50331  0.16265  0.76209  1.0000
  H   H13       1.0  0.68679  0.16488  0.77163  1.0000
  H   H14       1.0  0.84686  0.93970  0.78241  1.0000
  C   C26       1.0  0.63698  0.38759  0.73508  1.0000
  C   C27       1.0  0.58233  0.30383  0.74276  1.0000
  C   C28       1.0  0.78012  0.50723  0.72910  1.0000
  N   N6        1.0  0.75325  0.56003  0.73239  1.0000
  C   C29       1.0  0.95290  0.91492  0.75892  1.0000
  C   C30       1.0  0.04068  0.95212  0.74762  1.0000
  H   H15       1.0  0.84670  0.52437  0.72290  1.0000
  H   H16       1.0  0.07150  0.91358  0.73909  1.0000
  H   H17       1.0  0.82052  0.38995  0.73872  1.0000
  H   H18       1.0  0.61385  0.42896  0.72733  1.0000
  C  Sn1       1.0  0.28587  0.20605  0.31706  1.0000
  C   C31       1.0  0.33950  0.16853  0.29713  1.0000
  C  Sn2       1.0  0.31433  0.07766  0.23507  1.0000
  C  Sn3       1.0  0.72915  0.02314  0.19192  1.0000
  C   C32       1.0  0.18033  0.06065  0.21183  1.0000
  C  Sn4       1.0  0.20544  0.15152  0.27391  1.0000
  O  Te1       1.0  0.31234  0.29705  0.37931  1.0000
  O  Te2       1.0  0.36903  0.04168  0.21630  1.0000
  O  Te3       1.0  0.70271  0.93207  0.12964  1.0000
  O  Te4       1.0  0.15080  0.18750  0.29265  1.0000
  Mg  Mg1       1.0  0.79965  0.91411  0.12647  1.0000
  Mg  Mg2       1.0  0.21537  0.31505  0.38238  1.0000
  C  Sn5       1.0  0.78922  0.09999  0.30587  1.0000
  C   C33       1.0  0.82434  0.18730  0.31760  1.0000
  C  Sn6       1.0  0.91276  0.23110  0.27851  1.0000
  C  Sn7       1.0  0.96722  0.18670  0.22648  1.0000
  C   C34       1.0  0.93210  0.09944  0.21474  1.0000
  C  Sn8       1.0  0.84368  0.05558  0.25385  1.0000
  O  Te5       1.0  0.70064  0.05748  0.34556  1.0000
  O  Te6       1.0  0.94637  0.31840  0.29124  1.0000
  O  Te7       1.0  0.05586  0.22929  0.18679  1.0000
  O  Te8       1.0  0.30531  0.96834  0.24110  1.0000
  Mg  Mg3       1.0  0.07114  0.34817  0.22347  1.0000
  Mg  Mg4       1.0  0.18057  0.93849  0.30874  1.0000
  C  Sn9       1.0  0.78924  0.69499  0.14196  1.0000
  C   C35       1.0  0.80770  0.64352  0.18636  1.0000
  C  Sn10      1.0  0.87002  0.68196  0.28518  1.0000
  C  Sn11      1.0  0.91478  0.77377  0.34089  1.0000
  C   C36       1.0  0.89631  0.82520  0.29652  1.0000
  C  Sn12      1.0  0.83401  0.78681  0.19767  1.0000
  O  Te9       1.0  0.72669  0.65517  0.04308  1.0000
  O  Te10      1.0  0.88737  0.62914  0.32790  1.0000
  O  Te11      1.0  0.97737  0.81357  0.43984  1.0000
  O  Te12      1.0  0.81664  0.83958  0.15498  1.0000
  Mg  Mg5       1.0  0.97814  0.71395  0.46508  1.0000
  Mg  Mg6       1.0  0.72586  0.75485  0.01790  1.0000
  C  Sn13      1.0  0.29725  0.20436  0.74538  1.0000
  C   C37       1.0  0.34321  0.17899  0.79130  1.0000
  C  Sn14      1.0  0.80551  0.09532  0.79972  1.0000
  C  Sn15      1.0  0.72496  0.03575  0.76133  1.0000
  C   C38       1.0  0.67904  0.06112  0.71542  1.0000
  C  Sn16      1.0  0.21669  0.14478  0.70700  1.0000
  O  Te13      1.0  0.33142  0.28832  0.73778  1.0000
  O  Te14      1.0  0.85264  0.07147  0.84599  1.0000
  O  Te15      1.0  0.69081  0.95174  0.76898  1.0000
  O  Te16      1.0  0.16962  0.16864  0.66072  1.0000
  Mg  Mg7       1.0  0.77913  0.94980  0.83825  1.0000
  Mg  Mg8       1.0  0.24308  0.29027  0.66832  1.0000
  C  Sn17      1.0  0.94771  0.23465  0.76025  1.0000
  C   C39       1.0  0.87008  0.20435  0.71917  1.0000
  C  Sn18      1.0  0.81056  0.12075  0.71615  1.0000
  C  Sn19      1.0  0.32423  0.06632  0.75513  1.0000
  C   C40       1.0  0.40180  0.09663  0.79621  1.0000
  C  Sn20      1.0  0.96613  0.18022  0.79923  1.0000
  O  Te17      1.0  0.00627  0.31846  0.76250  1.0000
  O  Te18      1.0  0.22864  0.09188  0.67465  1.0000
  O  Te19      1.0  0.26559  0.98246  0.75284  1.0000
  O  Te20      1.0  0.04324  0.20910  0.84073  1.0000
  Mg  Mg9       1.0  0.16936  0.97262  0.68878  1.0000
  Mg  Mg10      1.0  0.10255  0.32836  0.82674  1.0000
  C  Sn21      1.0  0.94126  0.74868  0.71285  1.0000
  C   C41       1.0  0.91515  0.80587  0.70794  1.0000
  C  Sn22      1.0  0.82884  0.78555  0.73382  1.0000
  C  Sn23      1.0  0.76734  0.70644  0.76540  1.0000
  C   C42       1.0  0.79346  0.64932  0.77033  1.0000
  C  Sn24      1.0  0.87976  0.66958  0.74443  1.0000
  O  Te21      1.0  0.02788  0.77033  0.68664  1.0000
  O  Te22      1.0  0.80428  0.84373  0.72825  1.0000
  O  Te23      1.0  0.68066  0.68483  0.79162  1.0000
  O  Te24      1.0  0.90433  0.61145  0.75003  1.0000
  Mg  Mg11      1.0  0.67875  0.78521  0.77185  1.0000
  Mg  Mg12      1.0  0.02982  0.66993  0.70654  1.0000
