data_image0
_chemical_formula_structural       C3NC8H6C2OCNC8H7C3NC2H4C3NC2H2C2OCNC2H3C3NC8H8SnCSn2CSnTe4Mg2SnCSn2CSnTe4Mg2SnCSn2CSnTe4Mg2
_chemical_formula_sum              "C54 N6 H30 O2 Sn12 Te12 Mg6"
_cell_length_a       18.6137
_cell_length_b       18.7025
_cell_length_c       8.22712
_cell_angle_alpha    118.917
_cell_angle_beta     64.3823
_cell_angle_gamma    119.531

_symmetry_space_group_name_H-M    'P1'
_space_group_IT_number       1

loop_
  _space_group_symop_operation_xyz
  'x, y, z'

loop_
  _atom_site_type_symbol
  _atom_site_label
  _atom_site_symmetry_multiplicity
  _atom_site_fract_x
  _atom_site_fract_y
  _atom_site_fract_z
  _atom_site_occupancy
  C   C1        1.0  0.61182  0.24460  0.24310  1.0000
  C   C2        1.0  0.69825  0.27764  0.24645  1.0000
  C   C3        1.0  0.49252  0.26478  0.22676  1.0000
  N   N1        1.0  0.44011  0.18755  0.23789  1.0000
  C   C4        1.0  0.35396  0.15327  0.23866  1.0000
  C   C5        1.0  0.30714  0.06590  0.23063  1.0000
  C   C6        1.0  0.22079  0.02737  0.23530  1.0000
  C   C7        1.0  0.17645  0.07399  0.24939  1.0000
  C   C8        1.0  0.22391  0.16237  0.26247  1.0000
  C   C9        1.0  0.31016  0.20126  0.25698  1.0000
  C   C10       1.0  0.08515  0.03314  0.24857  1.0000
  C   C11       1.0  0.04568  0.07927  0.24397  1.0000
  H   H1        1.0  0.47308  0.30732  0.21110  1.0000
  H   H2        1.0  0.33944  0.02911  0.22430  1.0000
  H   H3        1.0  0.18754  0.95984  0.23022  1.0000
  H   H4        1.0  0.19312  0.20220  0.27630  1.0000
  H   H5        1.0  0.34321  0.26959  0.26770  1.0000
  H   H6        1.0  0.08330  0.14418  0.23523  1.0000
  C   C12       1.0  0.74962  0.36279  0.24474  1.0000
  C   C13       1.0  0.71887  0.41600  0.23754  1.0000
  O   O1        1.0  0.56049  0.16444  0.25047  1.0000
  C   C14       1.0  0.73169  0.22231  0.24825  1.0000
  N   N2        1.0  0.80805  0.25212  0.26656  1.0000
  C   C15       1.0  0.83925  0.19690  0.26429  1.0000
  C   C16       1.0  0.92439  0.23380  0.27443  1.0000
  C   C17       1.0  0.96300  0.18477  0.26798  1.0000
  C   C18       1.0  0.91855  0.09616  0.25213  1.0000
  C   C19       1.0  0.83303  0.05977  0.24335  1.0000
  C   C20       1.0  0.79381  0.10837  0.25062  1.0000
  C   C21       1.0  0.95886  0.04404  0.24877  1.0000
  C   C22       1.0  0.91161  0.95893  0.25505  1.0000
  H   H7        1.0  0.50124  0.15591  0.24698  1.0000
  H   H8        1.0  0.68810  0.15450  0.23108  1.0000
  H   H9        1.0  0.95943  0.30200  0.28483  1.0000
  H   H10       1.0  0.02894  0.21658  0.27666  1.0000
  H   H11       1.0  0.79611  0.99146  0.23005  1.0000
  H   H12       1.0  0.72754  0.07687  0.24406  1.0000
  H   H13       1.0  0.84392  0.93084  0.26337  1.0000
  C   C23       1.0  0.63377  0.38224  0.23046  1.0000
  C   C24       1.0  0.57969  0.29778  0.23365  1.0000
  C   C25       1.0  0.77519  0.50389  0.23483  1.0000
  N   N3        1.0  0.74852  0.55473  0.22994  1.0000
  C   C26       1.0  0.94879  0.90898  0.25362  1.0000
  C   C27       1.0  0.03575  0.94743  0.25087  1.0000
  H   H14       1.0  0.84116  0.52313  0.23625  1.0000
  H   H15       1.0  0.06500  0.90993  0.25203  1.0000
  H   H16       1.0  0.81556  0.38626  0.24819  1.0000
  H   H17       1.0  0.61050  0.42287  0.22050  1.0000
  C   C28       1.0  0.61465  0.25065  0.75174  1.0000
  C   C29       1.0  0.70151  0.28290  0.75127  1.0000
  C   C30       1.0  0.49438  0.27136  0.74113  1.0000
  N   N4        1.0  0.44205  0.19432  0.75352  1.0000
  C   C31       1.0  0.08979  0.03788  0.74600  1.0000
  C   C32       1.0  0.04977  0.08545  0.74862  1.0000
  H   H18       1.0  0.47415  0.31438  0.72937  1.0000
  H   H19       1.0  0.08753  0.15085  0.74215  1.0000
  C   C33       1.0  0.75387  0.36652  0.74048  1.0000
  C   C34       1.0  0.72299  0.41990  0.73434  1.0000
  O   O2        1.0  0.56310  0.17103  0.76254  1.0000
  C   C35       1.0  0.73373  0.22891  0.76253  1.0000
  N   N5        1.0  0.81239  0.25637  0.76386  1.0000
  C   C36       1.0  0.96239  0.05079  0.75860  1.0000
  C   C37       1.0  0.91511  0.96596  0.76671  1.0000
  H   H20       1.0  0.50331  0.16265  0.76209  1.0000
  H   H21       1.0  0.68679  0.16488  0.77163  1.0000
  H   H22       1.0  0.84686  0.93970  0.78241  1.0000
  C   C38       1.0  0.63698  0.38759  0.73508  1.0000
  C   C39       1.0  0.58233  0.30383  0.74276  1.0000
  C   C40       1.0  0.78012  0.50723  0.72910  1.0000
  N   N6        1.0  0.75325  0.56003  0.73239  1.0000
  C   C41       1.0  0.80723  0.64567  0.73707  1.0000
  C   C42       1.0  0.77182  0.69459  0.72812  1.0000
  C   C43       1.0  0.81810  0.78125  0.73803  1.0000
  C   C44       1.0  0.90220  0.82407  0.75857  1.0000
  C   C45       1.0  0.93666  0.77516  0.77157  1.0000
  C   C46       1.0  0.89110  0.68826  0.76008  1.0000
  C   C47       1.0  0.95290  0.91492  0.75892  1.0000
  C   C48       1.0  0.04068  0.95212  0.74762  1.0000
  H   H23       1.0  0.84670  0.52437  0.72290  1.0000
  H   H24       1.0  0.70736  0.66187  0.70948  1.0000
  H   H25       1.0  0.78877  0.81501  0.72351  1.0000
  H   H26       1.0  0.99952  0.80639  0.79803  1.0000
  H   H27       1.0  0.91967  0.65463  0.77772  1.0000
  H   H28       1.0  0.07150  0.91358  0.73909  1.0000
  H   H29       1.0  0.82052  0.38995  0.73872  1.0000
  H   H30       1.0  0.61385  0.42896  0.72733  1.0000
  C  Sn1       1.0  0.78924  0.69499  0.14196  1.0000
  C   C49       1.0  0.80770  0.64352  0.18636  1.0000
  C  Sn2       1.0  0.87002  0.68196  0.28518  1.0000
  C  Sn3       1.0  0.91478  0.77377  0.34089  1.0000
  C   C50       1.0  0.89631  0.82520  0.29652  1.0000
  C  Sn4       1.0  0.83401  0.78681  0.19767  1.0000
  O  Te1       1.0  0.72669  0.65517  0.04308  1.0000
  O  Te2       1.0  0.88737  0.62914  0.32790  1.0000
  O  Te3       1.0  0.97737  0.81357  0.43984  1.0000
  O  Te4       1.0  0.81664  0.83958  0.15498  1.0000
  Mg  Mg1       1.0  0.97814  0.71395  0.46508  1.0000
  Mg  Mg2       1.0  0.72586  0.75485  0.01790  1.0000
  C  Sn5       1.0  0.78571  0.05353  0.74164  1.0000
  C   C51       1.0  0.35204  0.12807  0.69645  1.0000
  C  Sn6       1.0  0.32757  0.18549  0.68767  1.0000
  C  Sn7       1.0  0.23972  0.16807  0.72495  1.0000
  C   C52       1.0  0.67346  0.09358  0.77014  1.0000
  C  Sn8       1.0  0.69787  0.03611  0.77892  1.0000
  O  Te5       1.0  0.81163  0.99704  0.74962  1.0000
  O  Te6       1.0  0.39029  0.25957  0.64213  1.0000
  O  Te7       1.0  0.21384  0.22464  0.71693  1.0000
  O  Te8       1.0  0.63520  0.96208  0.82446  1.0000
  Mg  Mg3       1.0  0.32312  0.31692  0.64897  1.0000
  Mg  Mg4       1.0  0.70230  0.90471  0.81776  1.0000
  C  Sn9       1.0  0.33695  0.06453  0.65958  1.0000
  C   C53       1.0  0.41311  0.09519  0.70717  1.0000
  C  Sn10      1.0  0.95566  0.18397  0.80618  1.0000
  C  Sn11      1.0  0.91650  0.24334  0.85884  1.0000
  C   C54       1.0  0.84038  0.21268  0.81128  1.0000
  C  Sn12      1.0  0.80254  0.12391  0.71224  1.0000
  O  Te9       1.0  0.30029  0.97551  0.56057  1.0000
  O  Te10      1.0  0.03182  0.21307  0.85211  1.0000
  O  Te11      1.0  0.95323  0.33242  0.95792  1.0000
  O  Te12      1.0  0.22167  0.09480  0.66634  1.0000
  Mg  Mg5       1.0  0.05712  0.34043  0.98814  1.0000
  Mg  Mg6       1.0  0.19629  0.96745  0.53041  1.0000
