data_image0
_chemical_formula_structural       C3NC2H2C2OCNC2H3C3NC2H4C3NC2H2C2OCNC2H3C3NC2H4C2Sn2C2HTe2HMgC2Sn2C2HTe2HMgC2Sn2C2HTe2HMgC2Sn2C2HTe2HMgC2Sn2C2HTe2HMgC2Sn2C2HTe2HMg
_chemical_formula_sum              "C54 N6 H30 O2 Sn12 Te12 Mg6"
_cell_length_a       18.6137
_cell_length_b       18.7025
_cell_length_c       8.22712
_cell_angle_alpha    118.917
_cell_angle_beta     64.3823
_cell_angle_gamma    119.531

_symmetry_space_group_name_H-M    'P1'
_space_group_IT_number       1

loop_
  _space_group_symop_operation_xyz
  'x, y, z'

loop_
  _atom_site_type_symbol
  _atom_site_label
  _atom_site_symmetry_multiplicity
  _atom_site_fract_x
  _atom_site_fract_y
  _atom_site_fract_z
  _atom_site_occupancy
  C   C1        1.0  0.61182  0.24460  0.24310  1.0000
  C   C2        1.0  0.69825  0.27764  0.24645  1.0000
  C   C3        1.0  0.49252  0.26478  0.22676  1.0000
  N   N1        1.0  0.44011  0.18755  0.23789  1.0000
  C   C4        1.0  0.08515  0.03314  0.24857  1.0000
  C   C5        1.0  0.04568  0.07927  0.24397  1.0000
  H   H1        1.0  0.47308  0.30732  0.21110  1.0000
  H   H2        1.0  0.08330  0.14418  0.23523  1.0000
  C   C6        1.0  0.74962  0.36279  0.24474  1.0000
  C   C7        1.0  0.71887  0.41600  0.23754  1.0000
  O   O1        1.0  0.56049  0.16444  0.25047  1.0000
  C   C8        1.0  0.73169  0.22231  0.24825  1.0000
  N   N2        1.0  0.80805  0.25212  0.26656  1.0000
  C   C9        1.0  0.95886  0.04404  0.24877  1.0000
  C   C10       1.0  0.91161  0.95893  0.25505  1.0000
  H   H3        1.0  0.50124  0.15591  0.24698  1.0000
  H   H4        1.0  0.68810  0.15450  0.23108  1.0000
  H   H5        1.0  0.84392  0.93084  0.26337  1.0000
  C   C11       1.0  0.63377  0.38224  0.23046  1.0000
  C   C12       1.0  0.57969  0.29778  0.23365  1.0000
  C   C13       1.0  0.77519  0.50389  0.23483  1.0000
  N   N3        1.0  0.74852  0.55473  0.22994  1.0000
  C   C14       1.0  0.94879  0.90898  0.25362  1.0000
  C   C15       1.0  0.03575  0.94743  0.25087  1.0000
  H   H6        1.0  0.84116  0.52313  0.23625  1.0000
  H   H7        1.0  0.06500  0.90993  0.25203  1.0000
  H   H8        1.0  0.81556  0.38626  0.24819  1.0000
  H   H9        1.0  0.61050  0.42287  0.22050  1.0000
  C   C16       1.0  0.61465  0.25065  0.75174  1.0000
  C   C17       1.0  0.70151  0.28290  0.75127  1.0000
  C   C18       1.0  0.49438  0.27136  0.74113  1.0000
  N   N4        1.0  0.44205  0.19432  0.75352  1.0000
  C   C19       1.0  0.08979  0.03788  0.74600  1.0000
  C   C20       1.0  0.04977  0.08545  0.74862  1.0000
  H   H10       1.0  0.47415  0.31438  0.72937  1.0000
  H   H11       1.0  0.08753  0.15085  0.74215  1.0000
  C   C21       1.0  0.75387  0.36652  0.74048  1.0000
  C   C22       1.0  0.72299  0.41990  0.73434  1.0000
  O   O2        1.0  0.56310  0.17103  0.76254  1.0000
  C   C23       1.0  0.73373  0.22891  0.76253  1.0000
  N   N5        1.0  0.81239  0.25637  0.76386  1.0000
  C   C24       1.0  0.96239  0.05079  0.75860  1.0000
  C   C25       1.0  0.91511  0.96596  0.76671  1.0000
  H   H12       1.0  0.50331  0.16265  0.76209  1.0000
  H   H13       1.0  0.68679  0.16488  0.77163  1.0000
  H   H14       1.0  0.84686  0.93970  0.78241  1.0000
  C   C26       1.0  0.63698  0.38759  0.73508  1.0000
  C   C27       1.0  0.58233  0.30383  0.74276  1.0000
  C   C28       1.0  0.78012  0.50723  0.72910  1.0000
  N   N6        1.0  0.75325  0.56003  0.73239  1.0000
  C   C29       1.0  0.95290  0.91492  0.75892  1.0000
  C   C30       1.0  0.04068  0.95212  0.74762  1.0000
  H   H15       1.0  0.84670  0.52437  0.72290  1.0000
  H   H16       1.0  0.07150  0.91358  0.73909  1.0000
  H   H17       1.0  0.82052  0.38995  0.73872  1.0000
  H   H18       1.0  0.61385  0.42896  0.72733  1.0000
  C   C31       1.0  0.73616  0.02487  0.22748  1.0000
  C   C32       1.0  0.18523  0.06182  0.25523  1.0000
  C  Sn1       1.0  0.21596  0.14891  0.26901  1.0000
  C  Sn2       1.0  0.30410  0.19977  0.25463  1.0000
  C   C33       1.0  0.35930  0.16218  0.22673  1.0000
  C   C34       1.0  0.32787  0.07498  0.21321  1.0000
  H   H19       1.0  0.71186  0.95739  0.21691  1.0000
  O  Te1       1.0  0.15944  0.18481  0.29681  1.0000
  O  Te2       1.0  0.33652  0.28696  0.26783  1.0000
  H   H20       1.0  0.37101  0.04637  0.19159  1.0000
  Mg  Mg1       1.0  0.23416  0.30648  0.30588  1.0000
  C   C35       1.0  0.79307  0.08641  0.24159  1.0000
  C   C36       1.0  0.82392  0.17575  0.27312  1.0000
  C  Sn3       1.0  0.90800  0.22790  0.28630  1.0000
  C  Sn4       1.0  0.96205  0.18970  0.26745  1.0000
  C   C37       1.0  0.93059  0.10024  0.23580  1.0000
  C   C38       1.0  0.84635  0.04867  0.22291  1.0000
  H   H21       1.0  0.72790  0.04649  0.23151  1.0000
  O  Te3       1.0  0.93778  0.31706  0.31791  1.0000
  O  Te4       1.0  0.04636  0.24030  0.27996  1.0000
  H   H22       1.0  0.31774  0.97949  0.19838  1.0000
  Mg  Mg2       1.0  0.05749  0.35882  0.32428  1.0000
  C   C39       1.0  0.90198  0.70581  0.28639  1.0000
  C   C40       1.0  0.82115  0.65095  0.25328  1.0000
  C  Sn5       1.0  0.77767  0.67915  0.20747  1.0000
  C  Sn6       1.0  0.81600  0.76387  0.19461  1.0000
  C   C41       1.0  0.89691  0.81823  0.22786  1.0000
  C   C42       1.0  0.93984  0.78936  0.27367  1.0000
  H   H23       1.0  0.93522  0.68346  0.32173  1.0000
  O  Te5       1.0  0.69694  0.62352  0.17490  1.0000
  O  Te6       1.0  0.77397  0.79369  0.14900  1.0000
  H   H24       1.0  0.00245  0.83183  0.29917  1.0000
  Mg  Mg3       1.0  0.66506  0.69382  0.11716  1.0000
  C   C43       1.0  0.30339  0.19127  0.68080  1.0000
  C   C44       1.0  0.34850  0.17262  0.74483  1.0000
  C  Sn7       1.0  0.80438  0.10055  0.80466  1.0000
  C  Sn8       1.0  0.71825  0.04625  0.80008  1.0000
  C   C45       1.0  0.67369  0.06542  0.73565  1.0000
  C   C46       1.0  0.21845  0.13772  0.67617  1.0000
  H   H25       1.0  0.33435  0.24717  0.63468  1.0000
  O  Te7       1.0  0.85036  0.08288  0.86829  1.0000
  O  Te8       1.0  0.67736  0.97379  0.85899  1.0000
  H   H26       1.0  0.18352  0.15211  0.62648  1.0000
  Mg  Mg4       1.0  0.76677  0.97666  0.93395  1.0000
  C   C47       1.0  0.31798  0.06317  0.71655  1.0000
  C   C48       1.0  0.39797  0.09107  0.74415  1.0000
  C  Sn9       1.0  0.95364  0.17991  0.79495  1.0000
  C  Sn10      1.0  0.92372  0.24181  0.81851  1.0000
  C   C49       1.0  0.84357  0.21324  0.79070  1.0000
  C   C50       1.0  0.79316  0.12419  0.73983  1.0000
  H   H27       1.0  0.27895  0.99428  0.67729  1.0000
  O  Te9       1.0  0.03341  0.20666  0.82190  1.0000
  O  Te10      1.0  0.97328  0.33100  0.86930  1.0000
  H   H28       1.0  0.22645  0.10262  0.71859  1.0000
  Mg  Mg5       1.0  0.07752  0.33530  0.89013  1.0000
  C   C51       1.0  0.79879  0.76107  0.72805  1.0000
  C   C52       1.0  0.87891  0.81641  0.76491  1.0000
  C  Sn11      1.0  0.92736  0.78438  0.78466  1.0000
  C  Sn12      1.0  0.89484  0.69526  0.76705  1.0000
  C   C53       1.0  0.81465  0.64042  0.73004  1.0000
  C   C54       1.0  0.76669  0.67315  0.71059  1.0000
  H   H29       1.0  0.76170  0.78638  0.71290  1.0000
  O  Te11      1.0  0.00726  0.84057  0.82153  1.0000
  O  Te12      1.0  0.94194  0.66153  0.78608  1.0000
  H   H30       1.0  0.70469  0.63028  0.68193  1.0000
  Mg  Mg6       1.0  0.04742  0.76393  0.83590  1.0000
