data_image0
_chemical_formula_structural       C3NC2H2C2OCNC2H3C3NC8H8C3NC8H6C2OCNC2H3C3NC8H8C2Sn2C2HTe2HMgC2Sn2C2HTe2HMgC2Sn2C2HTe2HMg
_chemical_formula_sum              "C60 N6 H36 O2 Sn6 Te6 Mg3"
_cell_length_a       18.6137
_cell_length_b       18.7025
_cell_length_c       8.22712
_cell_angle_alpha    118.917
_cell_angle_beta     64.3823
_cell_angle_gamma    119.531

_symmetry_space_group_name_H-M    'P1'
_space_group_IT_number       1

loop_
  _space_group_symop_operation_xyz
  'x, y, z'

loop_
  _atom_site_type_symbol
  _atom_site_label
  _atom_site_symmetry_multiplicity
  _atom_site_fract_x
  _atom_site_fract_y
  _atom_site_fract_z
  _atom_site_occupancy
  C   C1        1.0  0.61182  0.24460  0.24310  1.0000
  C   C2        1.0  0.69825  0.27764  0.24645  1.0000
  C   C3        1.0  0.49252  0.26478  0.22676  1.0000
  N   N1        1.0  0.44011  0.18755  0.23789  1.0000
  C   C4        1.0  0.08515  0.03314  0.24857  1.0000
  C   C5        1.0  0.04568  0.07927  0.24397  1.0000
  H   H1        1.0  0.47308  0.30732  0.21110  1.0000
  H   H2        1.0  0.08330  0.14418  0.23523  1.0000
  C   C6        1.0  0.74962  0.36279  0.24474  1.0000
  C   C7        1.0  0.71887  0.41600  0.23754  1.0000
  O   O1        1.0  0.56049  0.16444  0.25047  1.0000
  C   C8        1.0  0.73169  0.22231  0.24825  1.0000
  N   N2        1.0  0.80805  0.25212  0.26656  1.0000
  C   C9        1.0  0.95886  0.04404  0.24877  1.0000
  C   C10       1.0  0.91161  0.95893  0.25505  1.0000
  H   H3        1.0  0.50124  0.15591  0.24698  1.0000
  H   H4        1.0  0.68810  0.15450  0.23108  1.0000
  H   H5        1.0  0.84392  0.93084  0.26337  1.0000
  C   C11       1.0  0.63377  0.38224  0.23046  1.0000
  C   C12       1.0  0.57969  0.29778  0.23365  1.0000
  C   C13       1.0  0.77519  0.50389  0.23483  1.0000
  N   N3        1.0  0.74852  0.55473  0.22994  1.0000
  C   C14       1.0  0.80211  0.64059  0.23573  1.0000
  C   C15       1.0  0.77124  0.68564  0.20073  1.0000
  C   C16       1.0  0.81809  0.77186  0.20763  1.0000
  C   C17       1.0  0.89777  0.81811  0.25272  1.0000
  C   C18       1.0  0.92757  0.77294  0.29088  1.0000
  C   C19       1.0  0.88165  0.68638  0.28173  1.0000
  C   C20       1.0  0.94879  0.90898  0.25362  1.0000
  C   C21       1.0  0.03575  0.94743  0.25087  1.0000
  H   H6        1.0  0.84116  0.52313  0.23625  1.0000
  H   H7        1.0  0.71063  0.65006  0.16202  1.0000
  H   H8        1.0  0.79348  0.80207  0.16922  1.0000
  H   H9        1.0  0.98657  0.80684  0.33562  1.0000
  H   H10       1.0  0.90613  0.65570  0.31931  1.0000
  H   H11       1.0  0.06500  0.90993  0.25203  1.0000
  H   H12       1.0  0.81556  0.38626  0.24819  1.0000
  H   H13       1.0  0.61050  0.42287  0.22050  1.0000
  C   C22       1.0  0.61465  0.25065  0.75174  1.0000
  C   C23       1.0  0.70151  0.28290  0.75127  1.0000
  C   C24       1.0  0.49438  0.27136  0.74113  1.0000
  N   N4        1.0  0.44205  0.19432  0.75352  1.0000
  C   C25       1.0  0.35661  0.15842  0.74674  1.0000
  C   C26       1.0  0.30372  0.08169  0.79233  1.0000
  C   C27       1.0  0.21790  0.04295  0.79220  1.0000
  C   C28       1.0  0.18124  0.07783  0.74350  1.0000
  C   C29       1.0  0.23565  0.15342  0.69278  1.0000
  C   C30       1.0  0.32101  0.19312  0.69494  1.0000
  C   C31       1.0  0.08979  0.03788  0.74600  1.0000
  C   C32       1.0  0.04977  0.08545  0.74862  1.0000
  H   H14       1.0  0.47415  0.31438  0.72937  1.0000
  H   H15       1.0  0.33021  0.05436  0.83372  1.0000
  H   H16       1.0  0.17840  0.98600  0.83667  1.0000
  H   H17       1.0  0.21185  0.17980  0.64262  1.0000
  H   H18       1.0  0.36077  0.24911  0.64729  1.0000
  H   H19       1.0  0.08753  0.15085  0.74215  1.0000
  C   C33       1.0  0.75387  0.36652  0.74048  1.0000
  C   C34       1.0  0.72299  0.41990  0.73434  1.0000
  O   O2        1.0  0.56310  0.17103  0.76254  1.0000
  C   C35       1.0  0.73373  0.22891  0.76253  1.0000
  N   N5        1.0  0.81239  0.25637  0.76386  1.0000
  C   C36       1.0  0.96239  0.05079  0.75860  1.0000
  C   C37       1.0  0.91511  0.96596  0.76671  1.0000
  H   H20       1.0  0.50331  0.16265  0.76209  1.0000
  H   H21       1.0  0.68679  0.16488  0.77163  1.0000
  H   H22       1.0  0.84686  0.93970  0.78241  1.0000
  C   C38       1.0  0.63698  0.38759  0.73508  1.0000
  C   C39       1.0  0.58233  0.30383  0.74276  1.0000
  C   C40       1.0  0.78012  0.50723  0.72910  1.0000
  N   N6        1.0  0.75325  0.56003  0.73239  1.0000
  C   C41       1.0  0.80723  0.64567  0.73707  1.0000
  C   C42       1.0  0.77182  0.69459  0.72812  1.0000
  C   C43       1.0  0.81810  0.78125  0.73803  1.0000
  C   C44       1.0  0.90220  0.82407  0.75857  1.0000
  C   C45       1.0  0.93666  0.77516  0.77157  1.0000
  C   C46       1.0  0.89110  0.68826  0.76008  1.0000
  C   C47       1.0  0.95290  0.91492  0.75892  1.0000
  C   C48       1.0  0.04068  0.95212  0.74762  1.0000
  H   H23       1.0  0.84670  0.52437  0.72290  1.0000
  H   H24       1.0  0.70736  0.66187  0.70948  1.0000
  H   H25       1.0  0.78877  0.81501  0.72351  1.0000
  H   H26       1.0  0.99952  0.80639  0.79803  1.0000
  H   H27       1.0  0.91967  0.65463  0.77772  1.0000
  H   H28       1.0  0.07150  0.91358  0.73909  1.0000
  H   H29       1.0  0.82052  0.38995  0.73872  1.0000
  H   H30       1.0  0.61385  0.42896  0.72733  1.0000
  C   C49       1.0  0.73616  0.02487  0.22748  1.0000
  C   C50       1.0  0.18523  0.06182  0.25523  1.0000
  C  Sn1       1.0  0.21596  0.14891  0.26901  1.0000
  C  Sn2       1.0  0.30410  0.19977  0.25463  1.0000
  C   C51       1.0  0.35930  0.16218  0.22673  1.0000
  C   C52       1.0  0.32787  0.07498  0.21321  1.0000
  H   H31       1.0  0.71186  0.95739  0.21691  1.0000
  O  Te1       1.0  0.15944  0.18481  0.29681  1.0000
  O  Te2       1.0  0.33652  0.28696  0.26783  1.0000
  H   H32       1.0  0.37101  0.04637  0.19159  1.0000
  Mg  Mg1       1.0  0.23416  0.30648  0.30588  1.0000
  C   C53       1.0  0.31798  0.06317  0.71655  1.0000
  C   C54       1.0  0.39797  0.09107  0.74415  1.0000
  C  Sn3       1.0  0.95364  0.17991  0.79495  1.0000
  C  Sn4       1.0  0.92372  0.24181  0.81851  1.0000
  C   C55       1.0  0.84357  0.21324  0.79070  1.0000
  C   C56       1.0  0.79316  0.12419  0.73983  1.0000
  H   H33       1.0  0.27895  0.99428  0.67729  1.0000
  O  Te3       1.0  0.03341  0.20666  0.82190  1.0000
  O  Te4       1.0  0.97328  0.33100  0.86930  1.0000
  H   H34       1.0  0.22645  0.10262  0.71859  1.0000
  Mg  Mg2       1.0  0.07752  0.33530  0.89013  1.0000
  C   C57       1.0  0.81290  0.06149  0.24845  1.0000
  C   C58       1.0  0.89803  0.08461  0.23875  1.0000
  C  Sn5       1.0  0.95567  0.16989  0.25223  1.0000
  C  Sn6       1.0  0.92736  0.23305  0.27592  1.0000
  C   C59       1.0  0.84205  0.20928  0.28560  1.0000
  C   C60       1.0  0.78492  0.12376  0.27189  1.0000
  H   H35       1.0  0.26392  0.99533  0.23795  1.0000
  O  Te5       1.0  0.04051  0.19188  0.24219  1.0000
  O  Te6       1.0  0.98362  0.31875  0.28986  1.0000
  H   H36       1.0  0.71899  0.10589  0.27953  1.0000
  Mg  Mg3       1.0  0.09297  0.31706  0.26821  1.0000
