data_image0
_chemical_formula_structural       C6N6C18H2O3C6N6H8CH3CH3CH8C6N6C18H2O3C6N6H8CH3CH3CH8C2Sn2C2HTe2HMgC2Sn2C2HTe2HMgC2Sn2C2HTe2HMgC2Sn2C2HTe2HMgC2Sn2C2HTe2HMgC2Sn2C2HTe2HMgC2Sn2C2HTe2HMgC2Sn2C2HTe2HMgC2Sn2C2HTe2HMgC2Sn2C2HTe2HMgC2Sn2C2HTe2HMgC2Sn2C2HTe2HMg
_chemical_formula_sum              "C114 N24 H72 O6 Sn24 Te24 Mg12"
_cell_length_a       32.1169
_cell_length_b       32.1063
_cell_length_c       8.06042
_cell_angle_alpha    108.191
_cell_angle_beta     106.272
_cell_angle_gamma    118.992

_symmetry_space_group_name_H-M    'P1'
_space_group_IT_number       1

loop_
  _space_group_symop_operation_xyz
  'x, y, z'

loop_
  _atom_site_type_symbol
  _atom_site_label
  _atom_site_symmetry_multiplicity
  _atom_site_fract_x
  _atom_site_fract_y
  _atom_site_fract_z
  _atom_site_occupancy
  C   C1        1.0  0.55944  0.63879  0.21520  1.0000
  C   C2        1.0  0.66671  0.56862  0.19453  1.0000
  C   C3        1.0  0.33978  0.90696  0.22386  1.0000
  C   C4        1.0  0.41479  0.08589  0.24766  1.0000
  C   C5        1.0  0.07978  0.42729  0.26741  1.0000
  C   C6        1.0  0.90533  0.33241  0.28492  1.0000
  N   N1        1.0  0.55990  0.68150  0.27983  1.0000
  N   N2        1.0  0.63098  0.52399  0.19562  1.0000
  N   N3        1.0  0.30776  0.86367  0.24002  1.0000
  N   N4        1.0  0.45144  0.08993  0.20163  1.0000
  N   N5        1.0  0.12029  0.43231  0.23344  1.0000
  N   N6        1.0  0.90456  0.37380  0.36036  1.0000
  C   C7        1.0  0.64907  0.69161  0.22866  1.0000
  C   C8        1.0  0.65865  0.60776  0.19508  1.0000
  C   C9        1.0  0.28601  0.94265  0.21451  1.0000
  C   C10       1.0  0.37164  0.03529  0.22643  1.0000
  C   C11       1.0  0.02946  0.32937  0.18950  1.0000
  C   C12       1.0  0.95091  0.33642  0.26845  1.0000
  C   C13       1.0  0.69587  0.69862  0.22541  1.0000
  C   C14       1.0  0.60967  0.59967  0.19439  1.0000
  C   C15       1.0  0.28422  0.98566  0.23072  1.0000
  C   C16       1.0  0.37436  0.98906  0.20031  1.0000
  C   C17       1.0  0.98448  0.28322  0.16392  1.0000
  C   C18       1.0  0.00220  0.38884  0.32182  1.0000
  C   C19       1.0  0.69973  0.65661  0.20836  1.0000
  C   C20       1.0  0.60699  0.64463  0.21321  1.0000
  C   C21       1.0  0.32862  0.03209  0.24320  1.0000
  C   C22       1.0  0.33054  0.94395  0.20875  1.0000
  C   C23       1.0  0.94512  0.28756  0.19765  1.0000
  C   C24       1.0  0.03811  0.38095  0.25553  1.0000
  H   H1        1.0  0.27362  0.85740  0.24133  1.0000
  H   H2        1.0  0.12265  0.40060  0.20672  1.0000
  O   O1        1.0  0.57245  0.55617  0.18367  1.0000
  O   O2        1.0  0.40989  0.98696  0.17552  1.0000
  O   O3        1.0  0.01611  0.43649  0.41892  1.0000
  C   C25       1.0  0.32875  0.70021  0.27492  1.0000
  C   C26       1.0  0.62277  0.28550  0.27782  1.0000
  C   C27       1.0  0.29308  0.61895  0.27251  1.0000
  C   C28       1.0  0.70741  0.33629  0.30579  1.0000
  C   C29       1.0  0.37460  0.66375  0.27579  1.0000
  C   C30       1.0  0.65502  0.36544  0.27266  1.0000
  N   N7        1.0  0.28752  0.65796  0.27216  1.0000
  N   N8        1.0  0.66858  0.29086  0.29759  1.0000
  N   N9        1.0  0.33566  0.61996  0.27494  1.0000
  N   N10       1.0  0.70228  0.37479  0.29406  1.0000
  N   N11       1.0  0.37302  0.70519  0.27784  1.0000
  N   N12       1.0  0.61422  0.32212  0.26619  1.0000
  H   H3        1.0  0.72142  0.76214  0.14897  1.0000
  H   H4        1.0  0.21007  0.95023  0.24934  1.0000
  H   H5        1.0  0.00723  0.23064  0.06885  1.0000
  H   H6        1.0  0.76663  0.78704  0.40377  1.0000
  H   H7        1.0  0.25619  0.02480  0.38325  1.0000
  H   H8        1.0  0.97983  0.22145  0.22947  1.0000
  H   H9        1.0  0.73524  0.66078  0.20543  1.0000
  H   H10       1.0  0.64460  0.72381  0.24035  1.0000
  C   C31       1.0  0.74012  0.75103  0.24494  1.0000
  H   H11       1.0  0.76691  0.74549  0.19803  1.0000
  H   H12       1.0  0.32838  0.06731  0.26566  1.0000
  H   H13       1.0  0.25355  0.90827  0.21462  1.0000
  C   C32       1.0  0.23869  0.98623  0.24426  1.0000
  H   H14       1.0  0.21432  0.98523  0.11395  1.0000
  H   H15       1.0  0.90819  0.25008  0.16829  1.0000
  H   H16       1.0  0.05845  0.32545  0.15557  1.0000
  C   C33       1.0  0.97624  0.22932  0.10472  1.0000
  H   H17       1.0  0.93467  0.19277  0.97077  1.0000
  H   H18       1.0  0.70351  0.57492  0.19773  1.0000
  H   H19       1.0  0.59706  0.52358  0.19060  1.0000
  H   H20       1.0  0.86845  0.28869  0.21722  1.0000
  H   H21       1.0  0.41504  0.12182  0.31283  1.0000
  H   H22       1.0  0.08012  0.46314  0.31007  1.0000
  H   H23       1.0  0.37694  0.91467  0.22603  1.0000
  H   H24       1.0  0.52336  0.59589  0.15684  1.0000
  C   C34       1.0  0.56511  0.64719  0.71923  1.0000
  C   C35       1.0  0.67875  0.58438  0.69897  1.0000
  C   C36       1.0  0.35368  0.92086  0.73080  1.0000
  C   C37       1.0  0.43157  0.09899  0.73571  1.0000
  C   C38       1.0  0.08918  0.43329  0.76545  1.0000
  C   C39       1.0  0.91586  0.33886  0.78239  1.0000
  N   N13       1.0  0.56530  0.68971  0.78394  1.0000
  N   N14       1.0  0.64516  0.53996  0.70500  1.0000
  N   N15       1.0  0.31985  0.87784  0.74494  1.0000
  N   N16       1.0  0.47374  0.10730  0.72145  1.0000
  N   N17       1.0  0.13183  0.44121  0.74243  1.0000
  N   N18       1.0  0.91750  0.38172  0.86277  1.0000
  C   C40       1.0  0.65328  0.70198  0.72762  1.0000
  C   C41       1.0  0.66806  0.62175  0.69792  1.0000
  C   C42       1.0  0.30518  0.96174  0.73310  1.0000
  C   C43       1.0  0.38953  0.04953  0.72280  1.0000
  C   C44       1.0  0.04052  0.33551  0.69321  1.0000
  C   C45       1.0  0.96105  0.34192  0.76652  1.0000
  C   C46       1.0  0.70075  0.71141  0.72371  1.0000
  C   C47       1.0  0.61866  0.61153  0.70058  1.0000
  C   C48       1.0  0.30341  0.00416  0.73831  1.0000
  C   C49       1.0  0.39148  0.00318  0.70497  1.0000
  C   C50       1.0  0.99600  0.28965  0.67122  1.0000
  C   C51       1.0  0.01167  0.39401  0.81633  1.0000
  C   C52       1.0  0.70690  0.67080  0.70653  1.0000
  C   C53       1.0  0.61314  0.65453  0.71609  1.0000
  C   C54       1.0  0.34652  0.04753  0.73584  1.0000
  C   C55       1.0  0.34758  0.96002  0.72006  1.0000
  C   C56       1.0  0.95613  0.29359  0.70198  1.0000
  C   C57       1.0  0.04803  0.38645  0.75302  1.0000
  H   H25       1.0  0.28799  0.87480  0.75791  1.0000
  H   H26       1.0  0.13764  0.41214  0.72941  1.0000
  O   O4        1.0  0.58347  0.56790  0.69484  1.0000
  O   O5        1.0  0.42588  0.99899  0.67845  1.0000
  O   O6        1.0  0.02504  0.44155  0.91017  1.0000
  C   C58       1.0  0.33472  0.71025  0.77274  1.0000
  C   C59       1.0  0.64015  0.30317  0.78404  1.0000
  C   C60       1.0  0.29932  0.62927  0.77209  1.0000
  C   C61       1.0  0.72478  0.35367  0.81219  1.0000
  C   C62       1.0  0.38057  0.67375  0.77410  1.0000
  C   C63       1.0  0.67300  0.38338  0.78046  1.0000
  N   N19       1.0  0.29355  0.66817  0.77119  1.0000
  N   N20       1.0  0.68570  0.30829  0.80235  1.0000
  N   N21       1.0  0.34163  0.63005  0.77273  1.0000
  N   N22       1.0  0.72054  0.39297  0.80342  1.0000
  N   N23       1.0  0.37909  0.71523  0.77626  1.0000
  N   N24       1.0  0.63184  0.33999  0.77257  1.0000
  H   H27       1.0  0.72358  0.77690  0.65747  1.0000
  H   H28       1.0  0.23046  0.97109  0.76394  1.0000
  H   H29       1.0  0.94684  0.19890  0.48685  1.0000
  H   H30       1.0  0.77129  0.80000  0.90480  1.0000
  H   H31       1.0  0.27892  0.04559  0.90385  1.0000
  H   H32       1.0  0.01943  0.23738  0.58214  1.0000
  H   H33       1.0  0.74258  0.67625  0.70047  1.0000
  H   H34       1.0  0.64623  0.73236  0.73630  1.0000
  C   C64       1.0  0.74349  0.76483  0.74413  1.0000
  H   H35       1.0  0.76917  0.76002  0.68744  1.0000
  H   H36       1.0  0.34639  0.08234  0.74828  1.0000
  H   H37       1.0  0.27392  0.92999  0.74621  1.0000
  C   C65       1.0  0.25980  0.00716  0.76068  1.0000
  H   H38       1.0  0.23600  0.00809  0.63566  1.0000
  H   H39       1.0  0.91972  0.25636  0.67598  1.0000
  H   H40       1.0  0.06964  0.33181  0.65974  1.0000
  C   C66       1.0  0.98857  0.23628  0.61834  1.0000
  H   H41       1.0  0.99338  0.23001  0.74703  1.0000
  H   H42       1.0  0.71569  0.59190  0.69911  1.0000
  H   H43       1.0  0.61064  0.53833  0.70174  1.0000
  H   H44       1.0  0.87789  0.29550  0.71162  1.0000
  H   H45       1.0  0.42526  0.13081  0.76562  1.0000
  H   H46       1.0  0.08673  0.46730  0.79923  1.0000
  H   H47       1.0  0.38915  0.92554  0.72584  1.0000
  H   H48       1.0  0.52955  0.60408  0.66184  1.0000
  C   C67       1.0  0.43354  0.61927  0.27463  1.0000
  C   C68       1.0  0.42278  0.65685  0.28110  1.0000
  C  Sn1       1.0  0.45785  0.70362  0.27588  1.0000
  C  Sn2       1.0  0.50453  0.71283  0.26391  1.0000
  C   C69       1.0  0.51491  0.67497  0.25737  1.0000
  C   C70       1.0  0.47956  0.62831  0.26274  1.0000
  H   H49       1.0  0.40617  0.58315  0.27867  1.0000
  O  Te1       1.0  0.44650  0.74076  0.28255  1.0000
  O  Te2       1.0  0.54025  0.75922  0.25841  1.0000
  H   H50       1.0  0.48788  0.59920  0.25760  1.0000
  Mg  Mg1       1.0  0.50736  0.79790  0.27119  1.0000
  C   C71       1.0  0.58894  0.42713  0.21085  1.0000
  C   C72       1.0  0.62734  0.47601  0.22304  1.0000
  C  Sn3       1.0  0.67712  0.48850  0.24073  1.0000
  C  Sn4       1.0  0.68854  0.45128  0.24623  1.0000
  C   C73       1.0  0.64984  0.40247  0.23378  1.0000
  C   C74       1.0  0.60016  0.39039  0.21618  1.0000
  H   H51       1.0  0.55049  0.41776  0.19711  1.0000
  O  Te3       1.0  0.71504  0.53752  0.25281  1.0000
  O  Te4       1.0  0.73796  0.46274  0.26375  1.0000
  H   H52       1.0  0.57042  0.35252  0.20661  1.0000
  Mg  Mg2       1.0  0.77658  0.53482  0.27532  1.0000
  C   C75       1.0  0.37191  0.82636  0.28292  1.0000
  C   C76       1.0  0.32748  0.82738  0.25296  1.0000
  C  Sn5       1.0  0.28053  0.78555  0.24025  1.0000
  C  Sn6       1.0  0.27815  0.74195  0.25797  1.0000
  C   C77       1.0  0.32284  0.74132  0.28806  1.0000
  C   C78       1.0  0.36960  0.78338  0.30049  1.0000
  H   H53       1.0  0.40811  0.85891  0.29265  1.0000
  O  Te5       1.0  0.23650  0.78719  0.21021  1.0000
  O  Te6       1.0  0.23175  0.69962  0.24590  1.0000
  H   H54       1.0  0.40401  0.78259  0.32382  1.0000
  Mg  Mg3       1.0  0.18226  0.72007  0.20386  1.0000
  C   C79       1.0  0.55459  0.15519  0.24948  1.0000
  C   C80       1.0  0.50507  0.14183  0.23791  1.0000
  C  Sn7       1.0  0.49156  0.17689  0.23223  1.0000
  C  Sn8       1.0  0.52839  0.22620  0.23821  1.0000
  C   C81       1.0  0.57781  0.23918  0.24963  1.0000
  C   C82       1.0  0.59093  0.20381  0.25530  1.0000
  H   H55       1.0  0.56473  0.12781  0.25375  1.0000
  O  Te7       1.0  0.44192  0.16293  0.22075  1.0000
  O  Te8       1.0  0.51590  0.26198  0.23266  1.0000
  H   H56       1.0  0.62925  0.21414  0.26412  1.0000
  Mg  Mg4       1.0  0.44330  0.22497  0.21700  1.0000
  C   C83       1.0  0.24751  0.51735  0.27779  1.0000
  C   C84       1.0  0.24920  0.55938  0.25441  1.0000
  C  Sn9       1.0  0.20567  0.56162  0.23055  1.0000
  C  Sn10      1.0  0.15965  0.52097  0.23020  1.0000
  C   C85       1.0  0.15837  0.47911  0.25383  1.0000
  C   C86       1.0  0.20215  0.47726  0.27754  1.0000
  H   H57       1.0  0.28139  0.51593  0.29624  1.0000
  O  Te9       1.0  0.20802  0.60388  0.20730  1.0000
  O  Te10      1.0  0.11559  0.52223  0.20670  1.0000
  H   H58       1.0  0.20084  0.44473  0.29577  1.0000
  Mg  Mg5       1.0  0.13788  0.58801  0.18014  1.0000
  C   C87       1.0  0.83782  0.40490  0.33727  1.0000
  C   C88       1.0  0.85648  0.37509  0.36728  1.0000
  C  Sn11      1.0  0.82315  0.32697  0.36905  1.0000
  C  Sn12      1.0  0.77018  0.30845  0.34014  1.0000
  C   C89       1.0  0.75187  0.33854  0.31009  1.0000
  C   C90       1.0  0.78557  0.38665  0.30867  1.0000
  H   H59       1.0  0.86387  0.44211  0.33606  1.0000
  O  Te11      1.0  0.84245  0.29770  0.39930  1.0000
  O  Te12      1.0  0.73602  0.26048  0.34113  1.0000
  H   H60       1.0  0.77109  0.40970  0.28530  1.0000
  Mg  Mg6       1.0  0.78071  0.23481  0.38818  1.0000
  C   C91       1.0  0.50609  0.72938  0.77137  1.0000
  C   C92       1.0  0.52056  0.69622  0.79660  1.0000
  C  Sn13      1.0  0.48497  0.64967  0.80186  1.0000
  C  Sn14      1.0  0.43398  0.63618  0.78138  1.0000
  C   C93       1.0  0.41987  0.66960  0.75606  1.0000
  C   C94       1.0  0.45579  0.71609  0.75108  1.0000
  H   H61       1.0  0.53386  0.76533  0.76740  1.0000
  O  Te13      1.0  0.50008  0.61700  0.82726  1.0000
  O  Te14      1.0  0.39763  0.58989  0.78602  1.0000
  H   H62       1.0  0.44456  0.74174  0.73140  1.0000
  Mg  Mg7       1.0  0.43668  0.55817  0.82392  1.0000
  C   C95       1.0  0.71205  0.48127  0.75448  1.0000
  C   C96       1.0  0.67812  0.43670  0.77176  1.0000
  C  Sn15      1.0  0.62838  0.42362  0.75665  1.0000
  C  Sn16      1.0  0.61242  0.45584  0.72356  1.0000
  C   C97       1.0  0.64664  0.50032  0.70634  1.0000
  C   C98       1.0  0.69633  0.51305  0.72177  1.0000
  H   H63       1.0  0.75049  0.49111  0.76630  1.0000
  O  Te15      1.0  0.59498  0.37896  0.77435  1.0000
  O  Te16      1.0  0.56291  0.44367  0.70779  1.0000
  H   H64       1.0  0.72258  0.54755  0.70825  1.0000
  Mg  Mg8       1.0  0.53141  0.37874  0.74222  1.0000
  C   C99       1.0  0.38065  0.81295  0.77695  1.0000
  C   C100      1.0  0.34400  0.76673  0.78141  1.0000
  C  Sn17      1.0  0.29477  0.75520  0.76675  1.0000
  C  Sn18      1.0  0.28209  0.79067  0.74722  1.0000
  C   C101      1.0  0.31901  0.83679  0.74277  1.0000
  C   C102      1.0  0.36817  0.84795  0.75761  1.0000
  H   H65       1.0  0.41867  0.82158  0.78833  1.0000
  O  Te17      1.0  0.25863  0.70885  0.77154  1.0000
  O  Te18      1.0  0.23316  0.78011  0.73221  1.0000
  H   H66       1.0  0.39652  0.88372  0.75402  1.0000
  Mg  Mg9       1.0  0.19712  0.71185  0.74606  1.0000
  C   C103      1.0  0.51150  0.21137  0.73961  1.0000
  C   C104      1.0  0.50844  0.16560  0.72893  1.0000
  C  Sn19      1.0  0.55315  0.16563  0.75022  1.0000
  C  Sn20      1.0  0.60177  0.21241  0.78285  1.0000
  C   C105      1.0  0.60444  0.25801  0.79344  1.0000
  C   C106      1.0  0.55945  0.25754  0.77186  1.0000
  H   H67       1.0  0.47671  0.21103  0.72303  1.0000
  O  Te19      1.0  0.54940  0.11954  0.73908  1.0000
  O  Te20      1.0  0.64708  0.21354  0.80472  1.0000
  H   H68       1.0  0.56184  0.29300  0.78027  1.0000
  Mg  Mg10      1.0  0.62206  0.14076  0.77800  1.0000
  C   C107      1.0  0.25771  0.52952  0.78617  1.0000
  C   C108      1.0  0.25720  0.57014  0.75823  1.0000
  C  Sn21      1.0  0.21267  0.57066  0.73374  1.0000
  C  Sn22      1.0  0.16788  0.52972  0.73740  1.0000
  C   C109      1.0  0.16879  0.48929  0.76559  1.0000
  C   C110      1.0  0.21355  0.48914  0.78988  1.0000
  H   H69       1.0  0.29235  0.52942  0.80508  1.0000
  O  Te21      1.0  0.21282  0.61152  0.70591  1.0000
  O  Te22      1.0  0.12286  0.52929  0.71337  1.0000
  H   H70       1.0  0.21395  0.45771  0.81164  1.0000
  Mg  Mg11      1.0  0.14210  0.59358  0.67985  1.0000
  C   C111      1.0  0.85542  0.41813  0.84536  1.0000
  C   C112      1.0  0.87198  0.38688  0.87669  1.0000
  C  Sn23      1.0  0.83686  0.33925  0.87774  1.0000
  C  Sn24      1.0  0.78422  0.32270  0.84676  1.0000
  C   C113      1.0  0.76802  0.35421  0.81541  1.0000
  C   C114      1.0  0.80349  0.40181  0.81471  1.0000
  H   H71       1.0  0.88285  0.45494  0.84471  1.0000
  O  Te23      1.0  0.85407  0.30853  0.90933  1.0000
  O  Te24      1.0  0.74830  0.27526  0.84699  1.0000
  H   H72       1.0  0.79064  0.42597  0.79032  1.0000
  Mg  Mg12      1.0  0.79045  0.24708  0.89646  1.0000
