data_image0
_chemical_formula_structural       C6N6C18H2O3C6N6H8CH3CH3CH8C6N6C18H2O3C6N6H8CH3CH3CH8SnCSn2CSnTe4Mg2SnCSn2CSnTe4Mg2SnCSn2CSnTe4Mg2SnCSn2CSnTe4Mg2SnCSn2CSnTe4Mg2SnCSn2CSnTe4Mg2SnCSn2CSnTe4Mg2SnCSn2CSnTe4Mg2SnCSn2CSnTe4Mg2SnCSn2CSnTe4Mg2SnCSn2CSnTe4Mg2SnCSn2CSnTe4Mg2
_chemical_formula_sum              "C90 N24 H48 O6 Sn48 Te48 Mg24"
_cell_length_a       32.1169
_cell_length_b       32.1063
_cell_length_c       8.06042
_cell_angle_alpha    108.191
_cell_angle_beta     106.272
_cell_angle_gamma    118.992

_symmetry_space_group_name_H-M    'P1'
_space_group_IT_number       1

loop_
  _space_group_symop_operation_xyz
  'x, y, z'

loop_
  _atom_site_type_symbol
  _atom_site_label
  _atom_site_symmetry_multiplicity
  _atom_site_fract_x
  _atom_site_fract_y
  _atom_site_fract_z
  _atom_site_occupancy
  C   C1        1.0  0.55944  0.63879  0.21520  1.0000
  C   C2        1.0  0.66671  0.56862  0.19453  1.0000
  C   C3        1.0  0.33978  0.90696  0.22386  1.0000
  C   C4        1.0  0.41479  0.08589  0.24766  1.0000
  C   C5        1.0  0.07978  0.42729  0.26741  1.0000
  C   C6        1.0  0.90533  0.33241  0.28492  1.0000
  N   N1        1.0  0.55990  0.68150  0.27983  1.0000
  N   N2        1.0  0.63098  0.52399  0.19562  1.0000
  N   N3        1.0  0.30776  0.86367  0.24002  1.0000
  N   N4        1.0  0.45144  0.08993  0.20163  1.0000
  N   N5        1.0  0.12029  0.43231  0.23344  1.0000
  N   N6        1.0  0.90456  0.37380  0.36036  1.0000
  C   C7        1.0  0.64907  0.69161  0.22866  1.0000
  C   C8        1.0  0.65865  0.60776  0.19508  1.0000
  C   C9        1.0  0.28601  0.94265  0.21451  1.0000
  C   C10       1.0  0.37164  0.03529  0.22643  1.0000
  C   C11       1.0  0.02946  0.32937  0.18950  1.0000
  C   C12       1.0  0.95091  0.33642  0.26845  1.0000
  C   C13       1.0  0.69587  0.69862  0.22541  1.0000
  C   C14       1.0  0.60967  0.59967  0.19439  1.0000
  C   C15       1.0  0.28422  0.98566  0.23072  1.0000
  C   C16       1.0  0.37436  0.98906  0.20031  1.0000
  C   C17       1.0  0.98448  0.28322  0.16392  1.0000
  C   C18       1.0  0.00220  0.38884  0.32182  1.0000
  C   C19       1.0  0.69973  0.65661  0.20836  1.0000
  C   C20       1.0  0.60699  0.64463  0.21321  1.0000
  C   C21       1.0  0.32862  0.03209  0.24320  1.0000
  C   C22       1.0  0.33054  0.94395  0.20875  1.0000
  C   C23       1.0  0.94512  0.28756  0.19765  1.0000
  C   C24       1.0  0.03811  0.38095  0.25553  1.0000
  H   H1        1.0  0.27362  0.85740  0.24133  1.0000
  H   H2        1.0  0.12265  0.40060  0.20672  1.0000
  O   O1        1.0  0.57245  0.55617  0.18367  1.0000
  O   O2        1.0  0.40989  0.98696  0.17552  1.0000
  O   O3        1.0  0.01611  0.43649  0.41892  1.0000
  C   C25       1.0  0.32875  0.70021  0.27492  1.0000
  C   C26       1.0  0.62277  0.28550  0.27782  1.0000
  C   C27       1.0  0.29308  0.61895  0.27251  1.0000
  C   C28       1.0  0.70741  0.33629  0.30579  1.0000
  C   C29       1.0  0.37460  0.66375  0.27579  1.0000
  C   C30       1.0  0.65502  0.36544  0.27266  1.0000
  N   N7        1.0  0.28752  0.65796  0.27216  1.0000
  N   N8        1.0  0.66858  0.29086  0.29759  1.0000
  N   N9        1.0  0.33566  0.61996  0.27494  1.0000
  N   N10       1.0  0.70228  0.37479  0.29406  1.0000
  N   N11       1.0  0.37302  0.70519  0.27784  1.0000
  N   N12       1.0  0.61422  0.32212  0.26619  1.0000
  H   H3        1.0  0.72142  0.76214  0.14897  1.0000
  H   H4        1.0  0.21007  0.95023  0.24934  1.0000
  H   H5        1.0  0.00723  0.23064  0.06885  1.0000
  H   H6        1.0  0.76663  0.78704  0.40377  1.0000
  H   H7        1.0  0.25619  0.02480  0.38325  1.0000
  H   H8        1.0  0.97983  0.22145  0.22947  1.0000
  H   H9        1.0  0.73524  0.66078  0.20543  1.0000
  H   H10       1.0  0.64460  0.72381  0.24035  1.0000
  C   C31       1.0  0.74012  0.75103  0.24494  1.0000
  H   H11       1.0  0.76691  0.74549  0.19803  1.0000
  H   H12       1.0  0.32838  0.06731  0.26566  1.0000
  H   H13       1.0  0.25355  0.90827  0.21462  1.0000
  C   C32       1.0  0.23869  0.98623  0.24426  1.0000
  H   H14       1.0  0.21432  0.98523  0.11395  1.0000
  H   H15       1.0  0.90819  0.25008  0.16829  1.0000
  H   H16       1.0  0.05845  0.32545  0.15557  1.0000
  C   C33       1.0  0.97624  0.22932  0.10472  1.0000
  H   H17       1.0  0.93467  0.19277  0.97077  1.0000
  H   H18       1.0  0.70351  0.57492  0.19773  1.0000
  H   H19       1.0  0.59706  0.52358  0.19060  1.0000
  H   H20       1.0  0.86845  0.28869  0.21722  1.0000
  H   H21       1.0  0.41504  0.12182  0.31283  1.0000
  H   H22       1.0  0.08012  0.46314  0.31007  1.0000
  H   H23       1.0  0.37694  0.91467  0.22603  1.0000
  H   H24       1.0  0.52336  0.59589  0.15684  1.0000
  C   C34       1.0  0.56511  0.64719  0.71923  1.0000
  C   C35       1.0  0.67875  0.58438  0.69897  1.0000
  C   C36       1.0  0.35368  0.92086  0.73080  1.0000
  C   C37       1.0  0.43157  0.09899  0.73571  1.0000
  C   C38       1.0  0.08918  0.43329  0.76545  1.0000
  C   C39       1.0  0.91586  0.33886  0.78239  1.0000
  N   N13       1.0  0.56530  0.68971  0.78394  1.0000
  N   N14       1.0  0.64516  0.53996  0.70500  1.0000
  N   N15       1.0  0.31985  0.87784  0.74494  1.0000
  N   N16       1.0  0.47374  0.10730  0.72145  1.0000
  N   N17       1.0  0.13183  0.44121  0.74243  1.0000
  N   N18       1.0  0.91750  0.38172  0.86277  1.0000
  C   C40       1.0  0.65328  0.70198  0.72762  1.0000
  C   C41       1.0  0.66806  0.62175  0.69792  1.0000
  C   C42       1.0  0.30518  0.96174  0.73310  1.0000
  C   C43       1.0  0.38953  0.04953  0.72280  1.0000
  C   C44       1.0  0.04052  0.33551  0.69321  1.0000
  C   C45       1.0  0.96105  0.34192  0.76652  1.0000
  C   C46       1.0  0.70075  0.71141  0.72371  1.0000
  C   C47       1.0  0.61866  0.61153  0.70058  1.0000
  C   C48       1.0  0.30341  0.00416  0.73831  1.0000
  C   C49       1.0  0.39148  0.00318  0.70497  1.0000
  C   C50       1.0  0.99600  0.28965  0.67122  1.0000
  C   C51       1.0  0.01167  0.39401  0.81633  1.0000
  C   C52       1.0  0.70690  0.67080  0.70653  1.0000
  C   C53       1.0  0.61314  0.65453  0.71609  1.0000
  C   C54       1.0  0.34652  0.04753  0.73584  1.0000
  C   C55       1.0  0.34758  0.96002  0.72006  1.0000
  C   C56       1.0  0.95613  0.29359  0.70198  1.0000
  C   C57       1.0  0.04803  0.38645  0.75302  1.0000
  H   H25       1.0  0.28799  0.87480  0.75791  1.0000
  H   H26       1.0  0.13764  0.41214  0.72941  1.0000
  O   O4        1.0  0.58347  0.56790  0.69484  1.0000
  O   O5        1.0  0.42588  0.99899  0.67845  1.0000
  O   O6        1.0  0.02504  0.44155  0.91017  1.0000
  C   C58       1.0  0.33472  0.71025  0.77274  1.0000
  C   C59       1.0  0.64015  0.30317  0.78404  1.0000
  C   C60       1.0  0.29932  0.62927  0.77209  1.0000
  C   C61       1.0  0.72478  0.35367  0.81219  1.0000
  C   C62       1.0  0.38057  0.67375  0.77410  1.0000
  C   C63       1.0  0.67300  0.38338  0.78046  1.0000
  N   N19       1.0  0.29355  0.66817  0.77119  1.0000
  N   N20       1.0  0.68570  0.30829  0.80235  1.0000
  N   N21       1.0  0.34163  0.63005  0.77273  1.0000
  N   N22       1.0  0.72054  0.39297  0.80342  1.0000
  N   N23       1.0  0.37909  0.71523  0.77626  1.0000
  N   N24       1.0  0.63184  0.33999  0.77257  1.0000
  H   H27       1.0  0.72358  0.77690  0.65747  1.0000
  H   H28       1.0  0.23046  0.97109  0.76394  1.0000
  H   H29       1.0  0.94684  0.19890  0.48685  1.0000
  H   H30       1.0  0.77129  0.80000  0.90480  1.0000
  H   H31       1.0  0.27892  0.04559  0.90385  1.0000
  H   H32       1.0  0.01943  0.23738  0.58214  1.0000
  H   H33       1.0  0.74258  0.67625  0.70047  1.0000
  H   H34       1.0  0.64623  0.73236  0.73630  1.0000
  C   C64       1.0  0.74349  0.76483  0.74413  1.0000
  H   H35       1.0  0.76917  0.76002  0.68744  1.0000
  H   H36       1.0  0.34639  0.08234  0.74828  1.0000
  H   H37       1.0  0.27392  0.92999  0.74621  1.0000
  C   C65       1.0  0.25980  0.00716  0.76068  1.0000
  H   H38       1.0  0.23600  0.00809  0.63566  1.0000
  H   H39       1.0  0.91972  0.25636  0.67598  1.0000
  H   H40       1.0  0.06964  0.33181  0.65974  1.0000
  C   C66       1.0  0.98857  0.23628  0.61834  1.0000
  H   H41       1.0  0.99338  0.23001  0.74703  1.0000
  H   H42       1.0  0.71569  0.59190  0.69911  1.0000
  H   H43       1.0  0.61064  0.53833  0.70174  1.0000
  H   H44       1.0  0.87789  0.29550  0.71162  1.0000
  H   H45       1.0  0.42526  0.13081  0.76562  1.0000
  H   H46       1.0  0.08673  0.46730  0.79923  1.0000
  H   H47       1.0  0.38915  0.92554  0.72584  1.0000
  H   H48       1.0  0.52955  0.60408  0.66184  1.0000
  C  Sn1       1.0  0.46414  0.70500  0.20525  1.0000
  C   C67       1.0  0.42116  0.66555  0.21561  1.0000
  C  Sn2       1.0  0.42635  0.63153  0.27839  1.0000
  C  Sn3       1.0  0.47556  0.63708  0.33205  1.0000
  C   C68       1.0  0.51851  0.67652  0.32171  1.0000
  C  Sn4       1.0  0.51334  0.71056  0.25892  1.0000
  O  Te1       1.0  0.45805  0.73857  0.14209  1.0000
  O  Te2       1.0  0.38281  0.59237  0.28747  1.0000
  O  Te3       1.0  0.48162  0.60347  0.39525  1.0000
  O  Te4       1.0  0.55686  0.74970  0.24986  1.0000
  Mg  Mg1       1.0  0.41079  0.55628  0.38285  1.0000
  Mg  Mg2       1.0  0.52894  0.78583  0.15461  1.0000
  C  Sn5       1.0  0.60114  0.44031  0.27833  1.0000
  C   C69       1.0  0.63758  0.48570  0.26975  1.0000
  C  Sn6       1.0  0.67856  0.48882  0.23192  1.0000
  C  Sn7       1.0  0.68319  0.44567  0.20191  1.0000
  C   C70       1.0  0.64676  0.40031  0.21045  1.0000
  C  Sn8       1.0  0.60577  0.39715  0.24832  1.0000
  O  Te5       1.0  0.56048  0.43805  0.31634  1.0000
  O  Te6       1.0  0.71452  0.53462  0.22412  1.0000
  O  Te7       1.0  0.72389  0.44796  0.16387  1.0000
  O  Te8       1.0  0.56982  0.35139  0.25609  1.0000
  Mg  Mg3       1.0  0.76308  0.51879  0.16765  1.0000
  Mg  Mg4       1.0  0.52122  0.36716  0.31244  1.0000
  C  Sn9       1.0  0.27857  0.77810  0.31107  1.0000
  C   C71       1.0  0.31554  0.82520  0.31131  1.0000
  C  Sn10      1.0  0.35694  0.82979  0.27323  1.0000
  C  Sn11      1.0  0.36147  0.78637  0.23396  1.0000
  C   C72       1.0  0.32452  0.73930  0.23369  1.0000
  C  Sn12      1.0  0.28311  0.73468  0.27179  1.0000
  O  Te9       1.0  0.23750  0.77440  0.34950  1.0000
  O  Te10      1.0  0.39342  0.87729  0.27435  1.0000
  O  Te11      1.0  0.40259  0.79012  0.19551  1.0000
  O  Te12      1.0  0.24663  0.68721  0.27065  1.0000
  Mg  Mg5       1.0  0.44242  0.86301  0.21345  1.0000
  Mg  Mg6       1.0  0.19760  0.70144  0.33142  1.0000
  C  Sn13      1.0  0.48691  0.18383  0.16298  1.0000
  C   C73       1.0  0.48571  0.14026  0.16914  1.0000
  C  Sn14      1.0  0.53477  0.14695  0.24438  1.0000
  C  Sn15      1.0  0.58610  0.19827  0.31508  1.0000
  C   C74       1.0  0.58728  0.24181  0.30894  1.0000
  C  Sn16      1.0  0.53825  0.23515  0.23367  1.0000
  O  Te13      1.0  0.43737  0.17623  0.08714  1.0000
  O  Te14      1.0  0.53252  0.10278  0.24895  1.0000
  O  Te15      1.0  0.63566  0.20585  0.39095  1.0000
  O  Te16      1.0  0.54048  0.27929  0.22912  1.0000
  Mg  Mg7       1.0  0.61121  0.13340  0.36612  1.0000
  Mg  Mg8       1.0  0.46183  0.24873  0.11209  1.0000
  C  Sn17      1.0  0.15779  0.52228  0.17518  1.0000
  C   C75       1.0  0.15524  0.47833  0.18353  1.0000
  C  Sn18      1.0  0.20345  0.48349  0.25723  1.0000
  C  Sn19      1.0  0.25528  0.53365  0.32411  1.0000
  C   C76       1.0  0.25781  0.57757  0.31578  1.0000
  C  Sn20      1.0  0.20962  0.57243  0.24206  1.0000
  O  Te17      1.0  0.10907  0.51620  0.10095  1.0000
  O  Te18      1.0  0.19986  0.43897  0.26405  1.0000
  O  Te19      1.0  0.30401  0.53970  0.39838  1.0000
  O  Te20      1.0  0.21320  0.61692  0.23527  1.0000
  Mg  Mg9       1.0  0.27781  0.46734  0.37775  1.0000
  Mg  Mg10      1.0  0.13528  0.58861  0.12170  1.0000
  C  Sn21      1.0  0.79699  0.30177  0.28940  1.0000
  C   C77       1.0  0.84148  0.34632  0.30130  1.0000
  C  Sn22      1.0  0.84729  0.39508  0.34316  1.0000
  C  Sn23      1.0  0.80784  0.39942  0.37391  1.0000
  C   C78       1.0  0.76340  0.35489  0.36205  1.0000
  C  Sn24      1.0  0.75755  0.30610  0.32016  1.0000
  O  Te21      1.0  0.79200  0.25341  0.24738  1.0000
  O  Te22      1.0  0.89210  0.43906  0.35423  1.0000
  O  Te23      1.0  0.81286  0.44783  0.41596  1.0000
  O  Te24      1.0  0.71278  0.26215  0.30912  1.0000
  Mg  Mg11      1.0  0.88101  0.49635  0.41560  1.0000
  Mg  Mg12      1.0  0.72384  0.20486  0.24786  1.0000
  C  Sn25      1.0  0.51458  0.73634  0.83924  1.0000
  C   C79       1.0  0.52522  0.69919  0.84323  1.0000
  C  Sn26      1.0  0.48297  0.64574  0.79302  1.0000
  C  Sn27      1.0  0.42895  0.62905  0.73754  1.0000
  C   C80       1.0  0.41833  0.66619  0.73354  1.0000
  C  Sn28      1.0  0.46056  0.71965  0.78376  1.0000
  O  Te25      1.0  0.55745  0.78956  0.88999  1.0000
  O  Te26      1.0  0.49460  0.60934  0.79818  1.0000
  O  Te27      1.0  0.38607  0.57578  0.68678  1.0000
  O  Te28      1.0  0.44894  0.75604  0.77859  1.0000
  Mg  Mg13      1.0  0.42243  0.54120  0.71625  1.0000
  Mg  Mg14      1.0  0.52108  0.82417  0.86038  1.0000
  C  Sn29      1.0  0.60577  0.41528  0.67605  1.0000
  C   C81       1.0  0.65058  0.41510  0.70269  1.0000
  C  Sn30      1.0  0.70149  0.46306  0.75980  1.0000
  C  Sn31      1.0  0.70776  0.51223  0.79107  1.0000
  C   C82       1.0  0.66297  0.51240  0.76447  1.0000
  C  Sn32      1.0  0.61203  0.46445  0.70732  1.0000
  O  Te29      1.0  0.55525  0.36686  0.61893  1.0000
  O  Te30      1.0  0.74568  0.46186  0.78544  1.0000
  O  Te31      1.0  0.75833  0.56067  0.84824  1.0000
  O  Te32      1.0  0.56786  0.46564  0.68172  1.0000
  Mg  Mg15      1.0  0.80627  0.53834  0.86435  1.0000
  Mg  Mg16      1.0  0.50727  0.38920  0.60292  1.0000
  C  Sn33      1.0  0.28735  0.79114  0.81215  1.0000
  C   C83       1.0  0.32539  0.83789  0.81328  1.0000
  C  Sn34      1.0  0.36634  0.84111  0.77501  1.0000
  C  Sn35      1.0  0.36932  0.79666  0.73464  1.0000
  C   C84       1.0  0.33129  0.74994  0.73348  1.0000
  C  Sn36      1.0  0.29033  0.74669  0.77177  1.0000
  O  Te33      1.0  0.24675  0.78881  0.85079  1.0000
  O  Te34      1.0  0.40392  0.88828  0.77703  1.0000
  O  Te35      1.0  0.40996  0.79902  0.69598  1.0000
  O  Te36      1.0  0.25276  0.69955  0.76973  1.0000
  Mg  Mg17      1.0  0.45171  0.87198  0.71542  1.0000
  Mg  Mg18      1.0  0.20494  0.71579  0.83121  1.0000
  C  Sn37      1.0  0.54352  0.24454  0.80645  1.0000
  C   C85       1.0  0.59383  0.25887  0.82394  1.0000
  C  Sn38      1.0  0.60203  0.21874  0.78083  1.0000
  C  Sn39      1.0  0.55905  0.16311  0.71882  1.0000
  C   C86       1.0  0.50878  0.14880  0.70132  1.0000
  C  Sn40      1.0  0.50054  0.18890  0.74444  1.0000
  O  Te37      1.0  0.53623  0.28534  0.85031  1.0000
  O  Te38      1.0  0.65269  0.23408  0.79948  1.0000
  O  Te39      1.0  0.56639  0.12231  0.67496  1.0000
  O  Te40      1.0  0.44992  0.17359  0.72579  1.0000
  Mg  Mg19      1.0  0.64271  0.16358  0.72267  1.0000
  Mg  Mg20      1.0  0.45984  0.24404  0.80245  1.0000
  C  Sn41      1.0  0.20373  0.57424  0.80778  1.0000
  C   C87       1.0  0.25412  0.58819  0.82752  1.0000
  C  Sn42      1.0  0.26229  0.54803  0.78931  1.0000
  C  Sn43      1.0  0.21919  0.49277  0.73000  1.0000
  C   C88       1.0  0.16884  0.47884  0.71026  1.0000
  C  Sn44      1.0  0.16063  0.51897  0.74847  1.0000
  O  Te41      1.0  0.19647  0.61505  0.84674  1.0000
  O  Te42      1.0  0.31302  0.56298  0.81013  1.0000
  O  Te43      1.0  0.22649  0.45194  0.69105  1.0000
  O  Te44      1.0  0.10993  0.50404  0.72765  1.0000
  Mg  Mg21      1.0  0.30296  0.49262  0.74009  1.0000
  Mg  Mg22      1.0  0.11994  0.57436  0.79754  1.0000
  C  Sn45      1.0  0.80976  0.31376  0.79425  1.0000
  C   C89       1.0  0.85512  0.35684  0.80423  1.0000
  C  Sn46      1.0  0.86345  0.40681  0.84715  1.0000
  C  Sn47      1.0  0.82568  0.41391  0.88093  1.0000
  C   C90       1.0  0.78036  0.37086  0.87098  1.0000
  C  Sn48      1.0  0.77199  0.32086  0.82803  1.0000
  O  Te45      1.0  0.80224  0.26416  0.75113  1.0000
  O  Te46      1.0  0.90909  0.44927  0.85626  1.0000
  O  Te47      1.0  0.83323  0.46357  0.92408  1.0000
  O  Te48      1.0  0.72639  0.27842  0.81896  1.0000
  Mg  Mg23      1.0  0.90161  0.50917  0.92019  1.0000
  Mg  Mg24      1.0  0.73384  0.21852  0.75514  1.0000
