data_image0
_chemical_formula_structural       C6N6C18H2O3C6N6C24H24CH3CH3CH8C6N6C18H2O3C6N6C12H16CH3CH3CH8C2Sn2C2HTe2HMgC2Sn2C2HTe2HMgC2Sn2C2HTe2HMgC2Sn2C2HTe2HMgC2Sn2C2HTe2HMgC2Sn2C2HTe2HMg
_chemical_formula_sum              "C126 N24 H84 O6 Sn12 Te12 Mg6"
_cell_length_a       32.1169
_cell_length_b       32.1063
_cell_length_c       8.06042
_cell_angle_alpha    108.191
_cell_angle_beta     106.272
_cell_angle_gamma    118.992

_symmetry_space_group_name_H-M    'P1'
_space_group_IT_number       1

loop_
  _space_group_symop_operation_xyz
  'x, y, z'

loop_
  _atom_site_type_symbol
  _atom_site_label
  _atom_site_symmetry_multiplicity
  _atom_site_fract_x
  _atom_site_fract_y
  _atom_site_fract_z
  _atom_site_occupancy
  C   C1        1.0  0.55944  0.63879  0.21520  1.0000
  C   C2        1.0  0.66671  0.56862  0.19453  1.0000
  C   C3        1.0  0.33978  0.90696  0.22386  1.0000
  C   C4        1.0  0.41479  0.08589  0.24766  1.0000
  C   C5        1.0  0.07978  0.42729  0.26741  1.0000
  C   C6        1.0  0.90533  0.33241  0.28492  1.0000
  N   N1        1.0  0.55990  0.68150  0.27983  1.0000
  N   N2        1.0  0.63098  0.52399  0.19562  1.0000
  N   N3        1.0  0.30776  0.86367  0.24002  1.0000
  N   N4        1.0  0.45144  0.08993  0.20163  1.0000
  N   N5        1.0  0.12029  0.43231  0.23344  1.0000
  N   N6        1.0  0.90456  0.37380  0.36036  1.0000
  C   C7        1.0  0.64907  0.69161  0.22866  1.0000
  C   C8        1.0  0.65865  0.60776  0.19508  1.0000
  C   C9        1.0  0.28601  0.94265  0.21451  1.0000
  C   C10       1.0  0.37164  0.03529  0.22643  1.0000
  C   C11       1.0  0.02946  0.32937  0.18950  1.0000
  C   C12       1.0  0.95091  0.33642  0.26845  1.0000
  C   C13       1.0  0.69587  0.69862  0.22541  1.0000
  C   C14       1.0  0.60967  0.59967  0.19439  1.0000
  C   C15       1.0  0.28422  0.98566  0.23072  1.0000
  C   C16       1.0  0.37436  0.98906  0.20031  1.0000
  C   C17       1.0  0.98448  0.28322  0.16392  1.0000
  C   C18       1.0  0.00220  0.38884  0.32182  1.0000
  C   C19       1.0  0.69973  0.65661  0.20836  1.0000
  C   C20       1.0  0.60699  0.64463  0.21321  1.0000
  C   C21       1.0  0.32862  0.03209  0.24320  1.0000
  C   C22       1.0  0.33054  0.94395  0.20875  1.0000
  C   C23       1.0  0.94512  0.28756  0.19765  1.0000
  C   C24       1.0  0.03811  0.38095  0.25553  1.0000
  H   H1        1.0  0.27362  0.85740  0.24133  1.0000
  H   H2        1.0  0.12265  0.40060  0.20672  1.0000
  O   O1        1.0  0.57245  0.55617  0.18367  1.0000
  O   O2        1.0  0.40989  0.98696  0.17552  1.0000
  O   O3        1.0  0.01611  0.43649  0.41892  1.0000
  C   C25       1.0  0.32875  0.70021  0.27492  1.0000
  C   C26       1.0  0.62277  0.28550  0.27782  1.0000
  C   C27       1.0  0.29308  0.61895  0.27251  1.0000
  C   C28       1.0  0.70741  0.33629  0.30579  1.0000
  C   C29       1.0  0.37460  0.66375  0.27579  1.0000
  C   C30       1.0  0.65502  0.36544  0.27266  1.0000
  N   N7        1.0  0.28752  0.65796  0.27216  1.0000
  N   N8        1.0  0.66858  0.29086  0.29759  1.0000
  N   N9        1.0  0.33566  0.61996  0.27494  1.0000
  N   N10       1.0  0.70228  0.37479  0.29406  1.0000
  N   N11       1.0  0.37302  0.70519  0.27784  1.0000
  N   N12       1.0  0.61422  0.32212  0.26619  1.0000
  C   C31       1.0  0.32462  0.74367  0.27080  1.0000
  C   C32       1.0  0.57858  0.23617  0.26487  1.0000
  C   C33       1.0  0.24857  0.57111  0.26568  1.0000
  C   C34       1.0  0.42122  0.66651  0.27161  1.0000
  C   C35       1.0  0.42683  0.62608  0.27796  1.0000
  C   C36       1.0  0.36699  0.79001  0.28066  1.0000
  C   C37       1.0  0.52960  0.22812  0.24090  1.0000
  C   C38       1.0  0.20087  0.56520  0.24703  1.0000
  C   C39       1.0  0.47189  0.62967  0.28094  1.0000
  C   C40       1.0  0.36306  0.83079  0.27427  1.0000
  C   C41       1.0  0.48697  0.18070  0.22133  1.0000
  C   C42       1.0  0.15790  0.51960  0.23445  1.0000
  C   C43       1.0  0.51295  0.67391  0.27693  1.0000
  C   C44       1.0  0.31565  0.82542  0.25603  1.0000
  C   C45       1.0  0.49213  0.13971  0.22588  1.0000
  C   C46       1.0  0.16233  0.47876  0.24260  1.0000
  C   C47       1.0  0.50724  0.71440  0.27132  1.0000
  C   C48       1.0  0.27340  0.77963  0.24852  1.0000
  C   C49       1.0  0.54100  0.14768  0.24737  1.0000
  C   C50       1.0  0.20960  0.48389  0.25953  1.0000
  C   C51       1.0  0.46196  0.71054  0.26700  1.0000
  C   C52       1.0  0.27788  0.73928  0.25604  1.0000
  C   C53       1.0  0.58382  0.19546  0.26970  1.0000
  C   C54       1.0  0.25234  0.52978  0.27227  1.0000
  H   H3        1.0  0.39582  0.59298  0.28623  1.0000
  H   H4        1.0  0.40316  0.79331  0.29242  1.0000
  H   H5        1.0  0.52605  0.25982  0.23683  1.0000
  H   H6        1.0  0.19775  0.59679  0.23849  1.0000
  H   H7        1.0  0.47658  0.59920  0.29294  1.0000
  H   H8        1.0  0.39650  0.86623  0.28252  1.0000
  H   H9        1.0  0.44901  0.17454  0.20041  1.0000
  H   H10       1.0  0.12006  0.51417  0.20915  1.0000
  H   H11       1.0  0.53869  0.74786  0.26548  1.0000
  H   H12       1.0  0.23685  0.77575  0.23542  1.0000
  H   H13       1.0  0.54375  0.11523  0.24707  1.0000
  H   H14       1.0  0.21339  0.45263  0.26867  1.0000
  H   H15       1.0  0.45714  0.74124  0.25914  1.0000
  H   H16       1.0  0.24545  0.70367  0.25028  1.0000
  H   H17       1.0  0.62177  0.20208  0.28809  1.0000
  H   H18       1.0  0.28961  0.53492  0.28892  1.0000
  H   H19       1.0  0.72142  0.76214  0.14897  1.0000
  H   H20       1.0  0.21007  0.95023  0.24934  1.0000
  H   H21       1.0  0.00723  0.23064  0.06885  1.0000
  H   H22       1.0  0.76663  0.78704  0.40377  1.0000
  H   H23       1.0  0.25619  0.02480  0.38325  1.0000
  H   H24       1.0  0.97983  0.22145  0.22947  1.0000
  H   H25       1.0  0.73524  0.66078  0.20543  1.0000
  H   H26       1.0  0.64460  0.72381  0.24035  1.0000
  C   C55       1.0  0.74012  0.75103  0.24494  1.0000
  H   H27       1.0  0.76691  0.74549  0.19803  1.0000
  H   H28       1.0  0.32838  0.06731  0.26566  1.0000
  H   H29       1.0  0.25355  0.90827  0.21462  1.0000
  C   C56       1.0  0.23869  0.98623  0.24426  1.0000
  H   H30       1.0  0.21432  0.98523  0.11395  1.0000
  H   H31       1.0  0.90819  0.25008  0.16829  1.0000
  H   H32       1.0  0.05845  0.32545  0.15557  1.0000
  C   C57       1.0  0.97624  0.22932  0.10472  1.0000
  H   H33       1.0  0.93467  0.19277  0.97077  1.0000
  H   H34       1.0  0.70351  0.57492  0.19773  1.0000
  H   H35       1.0  0.59706  0.52358  0.19060  1.0000
  H   H36       1.0  0.86845  0.28869  0.21722  1.0000
  H   H37       1.0  0.41504  0.12182  0.31283  1.0000
  H   H38       1.0  0.08012  0.46314  0.31007  1.0000
  H   H39       1.0  0.37694  0.91467  0.22603  1.0000
  H   H40       1.0  0.52336  0.59589  0.15684  1.0000
  C   C58       1.0  0.56511  0.64719  0.71923  1.0000
  C   C59       1.0  0.67875  0.58438  0.69897  1.0000
  C   C60       1.0  0.35368  0.92086  0.73080  1.0000
  C   C61       1.0  0.43157  0.09899  0.73571  1.0000
  C   C62       1.0  0.08918  0.43329  0.76545  1.0000
  C   C63       1.0  0.91586  0.33886  0.78239  1.0000
  N   N13       1.0  0.56530  0.68971  0.78394  1.0000
  N   N14       1.0  0.64516  0.53996  0.70500  1.0000
  N   N15       1.0  0.31985  0.87784  0.74494  1.0000
  N   N16       1.0  0.47374  0.10730  0.72145  1.0000
  N   N17       1.0  0.13183  0.44121  0.74243  1.0000
  N   N18       1.0  0.91750  0.38172  0.86277  1.0000
  C   C64       1.0  0.65328  0.70198  0.72762  1.0000
  C   C65       1.0  0.66806  0.62175  0.69792  1.0000
  C   C66       1.0  0.30518  0.96174  0.73310  1.0000
  C   C67       1.0  0.38953  0.04953  0.72280  1.0000
  C   C68       1.0  0.04052  0.33551  0.69321  1.0000
  C   C69       1.0  0.96105  0.34192  0.76652  1.0000
  C   C70       1.0  0.70075  0.71141  0.72371  1.0000
  C   C71       1.0  0.61866  0.61153  0.70058  1.0000
  C   C72       1.0  0.30341  0.00416  0.73831  1.0000
  C   C73       1.0  0.39148  0.00318  0.70497  1.0000
  C   C74       1.0  0.99600  0.28965  0.67122  1.0000
  C   C75       1.0  0.01167  0.39401  0.81633  1.0000
  C   C76       1.0  0.70690  0.67080  0.70653  1.0000
  C   C77       1.0  0.61314  0.65453  0.71609  1.0000
  C   C78       1.0  0.34652  0.04753  0.73584  1.0000
  C   C79       1.0  0.34758  0.96002  0.72006  1.0000
  C   C80       1.0  0.95613  0.29359  0.70198  1.0000
  C   C81       1.0  0.04803  0.38645  0.75302  1.0000
  H   H41       1.0  0.28799  0.87480  0.75791  1.0000
  H   H42       1.0  0.13764  0.41214  0.72941  1.0000
  O   O4        1.0  0.58347  0.56790  0.69484  1.0000
  O   O5        1.0  0.42588  0.99899  0.67845  1.0000
  O   O6        1.0  0.02504  0.44155  0.91017  1.0000
  C   C82       1.0  0.33472  0.71025  0.77274  1.0000
  C   C83       1.0  0.64015  0.30317  0.78404  1.0000
  C   C84       1.0  0.29932  0.62927  0.77209  1.0000
  C   C85       1.0  0.72478  0.35367  0.81219  1.0000
  C   C86       1.0  0.38057  0.67375  0.77410  1.0000
  C   C87       1.0  0.67300  0.38338  0.78046  1.0000
  N   N19       1.0  0.29355  0.66817  0.77119  1.0000
  N   N20       1.0  0.68570  0.30829  0.80235  1.0000
  N   N21       1.0  0.34163  0.63005  0.77273  1.0000
  N   N22       1.0  0.72054  0.39297  0.80342  1.0000
  N   N23       1.0  0.37909  0.71523  0.77626  1.0000
  N   N24       1.0  0.63184  0.33999  0.77257  1.0000
  C   C88       1.0  0.59682  0.25401  0.77281  1.0000
  C   C89       1.0  0.25600  0.58151  0.76869  1.0000
  C   C90       1.0  0.54739  0.24474  0.74933  1.0000
  C   C91       1.0  0.20770  0.57404  0.75060  1.0000
  C   C92       1.0  0.50594  0.19734  0.73337  1.0000
  C   C93       1.0  0.16591  0.52788  0.73972  1.0000
  C   C94       1.0  0.51245  0.15721  0.73999  1.0000
  C   C95       1.0  0.17247  0.48842  0.75057  1.0000
  C   C96       1.0  0.56209  0.16685  0.76355  1.0000
  C   C97       1.0  0.22072  0.49564  0.77019  1.0000
  C   C98       1.0  0.60371  0.21451  0.78188  1.0000
  C   C99       1.0  0.26197  0.54169  0.77933  1.0000
  H   H43       1.0  0.54256  0.27559  0.74338  1.0000
  H   H44       1.0  0.20316  0.60482  0.74146  1.0000
  H   H45       1.0  0.46820  0.19123  0.71594  1.0000
  H   H46       1.0  0.12784  0.52163  0.71742  1.0000
  H   H47       1.0  0.56615  0.13548  0.76836  1.0000
  H   H48       1.0  0.22633  0.46581  0.78416  1.0000
  H   H49       1.0  0.64212  0.22215  0.80156  1.0000
  H   H50       1.0  0.29975  0.54802  0.79650  1.0000
  H   H51       1.0  0.72358  0.77690  0.65747  1.0000
  H   H52       1.0  0.23046  0.97109  0.76394  1.0000
  H   H53       1.0  0.94684  0.19890  0.48685  1.0000
  H   H54       1.0  0.77129  0.80000  0.90480  1.0000
  H   H55       1.0  0.27892  0.04559  0.90385  1.0000
  H   H56       1.0  0.01943  0.23738  0.58214  1.0000
  H   H57       1.0  0.74258  0.67625  0.70047  1.0000
  H   H58       1.0  0.64623  0.73236  0.73630  1.0000
  C   C100      1.0  0.74349  0.76483  0.74413  1.0000
  H   H59       1.0  0.76917  0.76002  0.68744  1.0000
  H   H60       1.0  0.34639  0.08234  0.74828  1.0000
  H   H61       1.0  0.27392  0.92999  0.74621  1.0000
  C   C101      1.0  0.25980  0.00716  0.76068  1.0000
  H   H62       1.0  0.23600  0.00809  0.63566  1.0000
  H   H63       1.0  0.91972  0.25636  0.67598  1.0000
  H   H64       1.0  0.06964  0.33181  0.65974  1.0000
  C   C102      1.0  0.98857  0.23628  0.61834  1.0000
  H   H65       1.0  0.99338  0.23001  0.74703  1.0000
  H   H66       1.0  0.71569  0.59190  0.69911  1.0000
  H   H67       1.0  0.61064  0.53833  0.70174  1.0000
  H   H68       1.0  0.87789  0.29550  0.71162  1.0000
  H   H69       1.0  0.42526  0.13081  0.76562  1.0000
  H   H70       1.0  0.08673  0.46730  0.79923  1.0000
  H   H71       1.0  0.38915  0.92554  0.72584  1.0000
  H   H72       1.0  0.52955  0.60408  0.66184  1.0000
  C   C103      1.0  0.71046  0.50419  0.75626  1.0000
  C   C104      1.0  0.66529  0.50412  0.72194  1.0000
  C  Sn1       1.0  0.61936  0.46320  0.71644  1.0000
  C  Sn2       1.0  0.61878  0.42165  0.74595  1.0000
  C   C105      1.0  0.66419  0.42211  0.78032  1.0000
  C   C106      1.0  0.70993  0.46323  0.78546  1.0000
  H   H73       1.0  0.74586  0.53603  0.76035  1.0000
  O  Te1       1.0  0.57457  0.46373  0.68190  1.0000
  O  Te2       1.0  0.57342  0.38028  0.74128  1.0000
  H   H74       1.0  0.74491  0.46330  0.81216  1.0000
  Mg  Mg1       1.0  0.52229  0.39857  0.68906  1.0000
  C   C107      1.0  0.27530  0.77872  0.74408  1.0000
  C   C108      1.0  0.31525  0.82873  0.76612  1.0000
  C  Sn3       1.0  0.36483  0.84065  0.78355  1.0000
  C  Sn4       1.0  0.37447  0.80170  0.77872  1.0000
  C   C109      1.0  0.33423  0.75177  0.75647  1.0000
  C   C110      1.0  0.28477  0.74027  0.73922  1.0000
  H   H75       1.0  0.23702  0.76980  0.73063  1.0000
  O  Te3       1.0  0.40431  0.89082  0.80555  1.0000
  O  Te4       1.0  0.42365  0.81255  0.79574  1.0000
  H   H76       1.0  0.25383  0.70152  0.72203  1.0000
  Mg  Mg2       1.0  0.46483  0.88669  0.82308  1.0000
  C   C111      1.0  0.48299  0.72913  0.77875  1.0000
  C   C112      1.0  0.43564  0.68658  0.76201  1.0000
  C  Sn5       1.0  0.43152  0.64168  0.76700  1.0000
  C  Sn6       1.0  0.47568  0.63945  0.78925  1.0000
  C   C113      1.0  0.52289  0.68225  0.80602  1.0000
  C   C114      1.0  0.52658  0.72698  0.80077  1.0000
  H   H77       1.0  0.48586  0.76376  0.77481  1.0000
  O  Te5       1.0  0.38391  0.59951  0.75000  1.0000
  O  Te6       1.0  0.47266  0.59506  0.79478  1.0000
  H   H78       1.0  0.56326  0.75994  0.81387  1.0000
  Mg  Mg3       1.0  0.39924  0.54764  0.76576  1.0000
  C   C115      1.0  0.83107  0.41611  0.84737  1.0000
  C   C116      1.0  0.78370  0.37165  0.82386  1.0000
  C  Sn7       1.0  0.78161  0.32791  0.83223  1.0000
  C  Sn8       1.0  0.82789  0.32882  0.86482  1.0000
  C   C117      1.0  0.87511  0.37351  0.88831  1.0000
  C   C118      1.0  0.87674  0.41705  0.87960  1.0000
  H   H79       1.0  0.83236  0.44982  0.84075  1.0000
  O  Te7       1.0  0.73394  0.28380  0.80836  1.0000
  O  Te8       1.0  0.82692  0.28565  0.87393  1.0000
  H   H80       1.0  0.91345  0.45149  0.89794  1.0000
  Mg  Mg4       1.0  0.75254  0.23467  0.83263  1.0000
  C   C119      1.0  0.80341  0.30833  0.35664  1.0000
  C   C120      1.0  0.84565  0.34914  0.34768  1.0000
  C  Sn9       1.0  0.84482  0.39109  0.33412  1.0000
  C  Sn10      1.0  0.80084  0.39210  0.32952  1.0000
  C   C121      1.0  0.75881  0.35111  0.33871  1.0000
  C   C122      1.0  0.76004  0.30931  0.35219  1.0000
  H   H81       1.0  0.80438  0.27600  0.36719  1.0000
  O  Te9       1.0  0.88733  0.43153  0.32523  1.0000
  O  Te10      1.0  0.79900  0.43357  0.31609  1.0000
  H   H82       1.0  0.72735  0.27774  0.35926  1.0000
  Mg  Mg5       1.0  0.86648  0.47950  0.30781  1.0000
  C   C123      1.0  0.58894  0.42713  0.21085  1.0000
  C   C124      1.0  0.62734  0.47601  0.22304  1.0000
  C  Sn11      1.0  0.67712  0.48850  0.24073  1.0000
  C  Sn12      1.0  0.68854  0.45128  0.24623  1.0000
  C   C125      1.0  0.64984  0.40247  0.23378  1.0000
  C   C126      1.0  0.60016  0.39039  0.21618  1.0000
  H   H83       1.0  0.55049  0.41776  0.19711  1.0000
  O  Te11      1.0  0.71504  0.53752  0.25281  1.0000
  O  Te12      1.0  0.73796  0.46274  0.26375  1.0000
  H   H84       1.0  0.57042  0.35252  0.20661  1.0000
  Mg  Mg6       1.0  0.77658  0.53482  0.27532  1.0000
