data_image0
_chemical_formula_structural       C6N3C25H18NC6N3C17H18NSnCSn2CSnTe4Mg2SnCSn2CSnTe4Mg2SnCSn2CSnTe4Mg2SnCSn2CSnTe4Mg2SnCSn2CSnTe4Mg2SnCSn2CSnTe4Mg2
_chemical_formula_sum              "C66 N8 H36 Sn24 Te24 Mg12"
_cell_length_a       23.5099
_cell_length_b       23.423
_cell_length_c       8.23821
_cell_angle_alpha    91.6971
_cell_angle_beta     89.9253
_cell_angle_gamma    120.042

_symmetry_space_group_name_H-M    'P1'
_space_group_IT_number       1

loop_
  _space_group_symop_operation_xyz
  'x, y, z'

loop_
  _atom_site_type_symbol
  _atom_site_label
  _atom_site_symmetry_multiplicity
  _atom_site_fract_x
  _atom_site_fract_y
  _atom_site_fract_z
  _atom_site_occupancy
  C   C1        1.0  0.96754  0.03454  0.07364  1.0000
  C   C2        1.0  0.90648  0.00947  0.14978  1.0000
  C   C3        1.0  0.87060  0.04171  0.14160  1.0000
  C   C4        1.0  0.89379  0.10045  0.05695  1.0000
  C   C5        1.0  0.87062  0.83037  0.47138  1.0000
  C   C6        1.0  0.90452  0.89877  0.48322  1.0000
  N   N1        1.0  0.28094  0.14574  0.05712  1.0000
  N   N2        1.0  0.85262  0.12764  0.05311  1.0000
  N   N3        1.0  0.86775  0.72071  0.06682  1.0000
  C   C7        1.0  0.31257  0.13568  0.46130  1.0000
  C   C8        1.0  0.86173  0.17877  0.44779  1.0000
  C   C9        1.0  0.81573  0.68741  0.44858  1.0000
  C   C10       1.0  0.38379  0.17689  0.45815  1.0000
  C   C11       1.0  0.82142  0.21002  0.44874  1.0000
  C   C12       1.0  0.78557  0.61575  0.44599  1.0000
  C   C13       1.0  0.42115  0.15318  0.37822  1.0000
  C   C14       1.0  0.84015  0.26642  0.35764  1.0000
  C   C15       1.0  0.72384  0.57565  0.37011  1.0000
  C   C16       1.0  0.48943  0.19082  0.37596  1.0000
  C   C17       1.0  0.80292  0.29759  0.35913  1.0000
  C   C18       1.0  0.69416  0.50715  0.36862  1.0000
  C   C19       1.0  0.52279  0.25384  0.45238  1.0000
  C   C20       1.0  0.74451  0.27224  0.44782  1.0000
  C   C21       1.0  0.72551  0.47619  0.44036  1.0000
  C   C22       1.0  0.48509  0.27743  0.53211  1.0000
  C   C23       1.0  0.72554  0.21522  0.53761  1.0000
  C   C24       1.0  0.78752  0.51670  0.51544  1.0000
  C   C25       1.0  0.81684  0.58010  0.05727  1.0000
  C   C26       1.0  0.59516  0.29460  0.44875  1.0000
  C   C27       1.0  0.70361  0.30387  0.44594  1.0000
  C   C28       1.0  0.69437  0.40351  0.44015  1.0000
  C   C29       1.0  0.73259  0.37274  0.44033  1.0000
  C   C30       1.0  0.62570  0.36358  0.44334  1.0000
  C   C31       1.0  0.63482  0.26551  0.45070  1.0000
  H   H1        1.0  0.88705  0.96400  0.21476  1.0000
  H   H2        1.0  0.82375  0.02227  0.20256  1.0000
  H   H3        1.0  0.82516  0.80558  0.40027  1.0000
  H   H4        1.0  0.88482  0.92601  0.42381  1.0000
  H   H5        1.0  0.29197  0.09024  0.38478  1.0000
  H   H6        1.0  0.89850  0.19382  0.35147  1.0000
  H   H7        1.0  0.79321  0.70690  0.36634  1.0000
  H   H8        1.0  0.39607  0.10507  0.31545  1.0000
  H   H9        1.0  0.88374  0.28519  0.28302  1.0000
  H   H10       1.0  0.69950  0.59857  0.30980  1.0000
  H   H11       1.0  0.51716  0.17234  0.30911  1.0000
  H   H12       1.0  0.81764  0.34023  0.28471  1.0000
  H   H13       1.0  0.64703  0.47718  0.30652  1.0000
  H   H14       1.0  0.80462  0.48778  0.13308  1.0000
  H   H15       1.0  0.85940  0.61045  0.13533  1.0000
  H   H16       1.0  0.78589  0.40271  0.43721  1.0000
  H   H17       1.0  0.59522  0.38642  0.44230  1.0000
  H   H18       1.0  0.61185  0.21217  0.45730  1.0000
  N   N4        1.0  0.00289  0.00004  0.07611  1.0000
  C   C32       1.0  0.96425  0.93377  0.57101  1.0000
  C   C33       1.0  0.98831  0.89738  0.64866  1.0000
  C   C34       1.0  0.95432  0.82885  0.63668  1.0000
  C   C35       1.0  0.89510  0.79354  0.54683  1.0000
  C   C36       1.0  0.95586  0.12630  0.98397  1.0000
  C   C37       1.0  0.99175  0.09414  0.99226  1.0000
  N   N5        1.0  0.27685  0.15193  0.54942  1.0000
  N   N6        1.0  0.85337  0.13557  0.55355  1.0000
  N   N7        1.0  0.86577  0.72463  0.54258  1.0000
  C   C38       1.0  0.31511  0.13644  0.94705  1.0000
  C   C39       1.0  0.86674  0.17817  0.96627  1.0000
  C   C40       1.0  0.82444  0.68360  0.95741  1.0000
  C   C41       1.0  0.79261  0.61184  0.95955  1.0000
  C   C42       1.0  0.73670  0.57288  0.86101  1.0000
  C   C43       1.0  0.70525  0.50426  0.86158  1.0000
  C   C44       1.0  0.72976  0.47251  0.95754  1.0000
  C   C45       1.0  0.78626  0.51176  0.05473  1.0000
  C   C46       1.0  0.41709  0.23988  0.53560  1.0000
  C   C47       1.0  0.76353  0.18512  0.53997  1.0000
  C   C48       1.0  0.81683  0.58494  0.51928  1.0000
  C   C49       1.0  0.59790  0.29147  0.94579  1.0000
  C   C50       1.0  0.70579  0.29959  0.95194  1.0000
  C   C51       1.0  0.69762  0.39979  0.95540  1.0000
  C   C52       1.0  0.73531  0.36863  0.95818  1.0000
  C   C53       1.0  0.62897  0.36059  0.94997  1.0000
  C   C54       1.0  0.63691  0.26166  0.94483  1.0000
  H   H19       1.0  0.03374  0.92343  0.71912  1.0000
  H   H20       1.0  0.97253  0.80072  0.69888  1.0000
  H   H21       1.0  0.97589  0.17117  0.91554  1.0000
  H   H22       1.0  0.03888  0.11471  0.93302  1.0000
  H   H23       1.0  0.29248  0.09917  0.84761  1.0000
  H   H24       1.0  0.91090  0.20229  0.89136  1.0000
  H   H25       1.0  0.81032  0.70372  0.85590  1.0000
  H   H26       1.0  0.71856  0.59685  0.78179  1.0000
  H   H27       1.0  0.66297  0.47489  0.78188  1.0000
  H   H28       1.0  0.51011  0.32507  0.59679  1.0000
  H   H29       1.0  0.68157  0.19597  0.61089  1.0000
  H   H30       1.0  0.81184  0.49396  0.57625  1.0000
  H   H31       1.0  0.38828  0.25763  0.60021  1.0000
  H   H32       1.0  0.74988  0.14222  0.61264  1.0000
  H   H33       1.0  0.86393  0.61606  0.58058  1.0000
  H   H34       1.0  0.78856  0.39891  0.96485  1.0000
  H   H35       1.0  0.59928  0.38428  0.94860  1.0000
  H   H36       1.0  0.61327  0.20810  0.94044  1.0000
  N   N8        1.0  0.99933  0.00386  0.58004  1.0000
  C  Sn1       1.0  0.47507  0.25631  0.08521  1.0000
  C   C55       1.0  0.52495  0.25897  0.99198  1.0000
  C  Sn2       1.0  0.50202  0.21483  0.85813  1.0000
  C  Sn3       1.0  0.43413  0.18094  0.81652  1.0000
  C   C56       1.0  0.39061  0.19188  0.90970  1.0000
  C  Sn4       1.0  0.40718  0.22241  0.04360  1.0000
  O  Te1       1.0  0.49908  0.30065  0.21850  1.0000
  O  Te2       1.0  0.54651  0.20471  0.76680  1.0000
  O  Te3       1.0  0.41014  0.13657  0.68311  1.0000
  O  Te4       1.0  0.36274  0.23255  0.13489  1.0000
  Mg  Mg1       1.0  0.49003  0.13944  0.59622  1.0000
  Mg  Mg2       1.0  0.41916  0.29783  0.30543  1.0000
  C  Sn5       1.0  0.74882  0.18365  0.99853  1.0000
  C   C57       1.0  0.81153  0.20680  0.93533  1.0000
  C  Sn6       1.0  0.84926  0.27237  0.89039  1.0000
  C  Sn7       1.0  0.82380  0.31571  0.90909  1.0000
  C   C58       1.0  0.76113  0.29256  0.97228  1.0000
  C  Sn8       1.0  0.71703  0.21339  0.01723  1.0000
  O  Te5       1.0  0.70564  0.10432  0.04266  1.0000
  O  Te6       1.0  0.91181  0.29438  0.82744  1.0000
  O  Te7       1.0  0.86072  0.38149  0.86489  1.0000
  O  Te8       1.0  0.65452  0.19139  0.08017  1.0000
  Mg  Mg3       1.0  0.94322  0.38822  0.78490  1.0000
  Mg  Mg4       1.0  0.62309  0.09757  0.12283  1.0000
  C  Sn9       1.0  0.11918  0.12086  0.61837  1.0000
  C   C59       1.0  0.07518  0.05823  0.55226  1.0000
  C  Sn10      1.0  0.09776  0.01638  0.49604  1.0000
  C  Sn11      1.0  0.16574  0.03753  0.50618  1.0000
  C   C60       1.0  0.20970  0.10011  0.57227  1.0000
  C  Sn12      1.0  0.18716  0.14201  0.62851  1.0000
  O  Te9       1.0  0.09551  0.16188  0.67384  1.0000
  O  Te10      1.0  0.55162  0.95400  0.43039  1.0000
  O  Te11      1.0  0.68817  0.99645  0.45063  1.0000
  O  Te12      1.0  0.23204  0.20434  0.69415  1.0000
  Mg  Mg5       1.0  0.60773  0.91599  0.37120  1.0000
  Mg  Mg6       1.0  0.17598  0.24238  0.75345  1.0000
  C  Sn13      1.0  0.12328  0.11723  0.11130  1.0000
  C   C61       1.0  0.07955  0.05404  0.04785  1.0000
  C  Sn14      1.0  0.10216  0.01122  0.00041  1.0000
  C  Sn15      1.0  0.16989  0.03198  0.01681  1.0000
  C   C62       1.0  0.21358  0.09514  0.08025  1.0000
  C  Sn16      1.0  0.19101  0.13800  0.12770  1.0000
  O  Te13      1.0  0.09958  0.15921  0.15795  1.0000
  O  Te14      1.0  0.56262  0.96188  0.93726  1.0000
  O  Te15      1.0  0.69867  0.00354  0.97009  1.0000
  O  Te16      1.0  0.23562  0.20089  0.19084  1.0000
  Mg  Mg7       1.0  0.61866  0.92261  0.89085  1.0000
  Mg  Mg8       1.0  0.17963  0.24019  0.23737  1.0000
  C  Sn17      1.0  0.38255  0.00826  0.61701  1.0000
  C   C63       1.0  0.94485  0.02543  0.55095  1.0000
  C  Sn18      1.0  0.98575  0.08906  0.49638  1.0000
  C  Sn19      1.0  0.96518  0.13653  0.50819  1.0000
  C   C64       1.0  0.90414  0.11936  0.57425  1.0000
  C  Sn20      1.0  0.86320  0.05574  0.62882  1.0000
  O  Te17      1.0  0.34247  0.94437  0.67080  1.0000
  O  Te18      1.0  0.04659  0.10505  0.43074  1.0000
  O  Te19      1.0  0.00532  0.20046  0.45432  1.0000
  O  Te20      1.0  0.80240  0.03974  0.69446  1.0000
  Mg  Mg9       1.0  0.08378  0.19855  0.37418  1.0000
  Mg  Mg10      1.0  0.26397  0.94627  0.75113  1.0000
  C  Sn21      1.0  0.88035  0.86590  0.02567  1.0000
  C   C65       1.0  0.94192  0.90871  0.09623  1.0000
  C  Sn22      1.0  0.98311  0.88499  0.14359  1.0000
  C  Sn23      1.0  0.96235  0.81707  0.11984  1.0000
  C   C66       1.0  0.90082  0.77431  0.04929  1.0000
  C  Sn24      1.0  0.85959  0.79799  0.00192  1.0000
  O  Te21      1.0  0.84630  0.90429  0.97924  1.0000
  O  Te22      1.0  0.04444  0.92873  0.21394  1.0000
  O  Te23      1.0  0.00278  0.79230  0.16635  1.0000
  O  Te24      1.0  0.80462  0.76788  0.93159  1.0000
  Mg  Mg11      1.0  0.08187  0.87135  0.25696  1.0000
  Mg  Mg12      1.0  0.76717  0.82521  0.88844  1.0000
