data_image0
_chemical_formula_structural       C8N3C11H15N2C10N3C13H15N2C2Sn2C2HTe2HMgC2Sn2C2HTe2HMgC2Sn2C2HTe2HMgC2Sn2C2HTe2HMgC2Sn2C2HTe2HMgC2Sn2C2HTe2HMg
_chemical_formula_sum              "C66 N10 H42 Sn12 Te12 Mg6"
_cell_length_a       20.8944
_cell_length_b       20.9961
_cell_length_c       8.39823
_cell_angle_alpha    91.2546
_cell_angle_beta     90.4749
_cell_angle_gamma    120.557

_symmetry_space_group_name_H-M    'P1'
_space_group_IT_number       1

loop_
  _space_group_symop_operation_xyz
  'x, y, z'

loop_
  _atom_site_type_symbol
  _atom_site_label
  _atom_site_symmetry_multiplicity
  _atom_site_fract_x
  _atom_site_fract_y
  _atom_site_fract_z
  _atom_site_occupancy
  C   C1        1.0  0.37533  0.62586  0.42134  1.0000
  C   C2        1.0  0.34282  0.78272  0.00034  1.0000
  C   C3        1.0  0.21359  0.56106  0.00599  1.0000
  C   C4        1.0  0.38335  0.85959  0.01275  1.0000
  C   C5        1.0  0.13675  0.52437  0.01759  1.0000
  C   C6        1.0  0.44818  0.54306  0.44778  1.0000
  C   C7        1.0  0.38230  0.51626  0.35608  1.0000
  C   C8        1.0  0.34665  0.55663  0.34265  1.0000
  N   N1        1.0  0.47914  0.49737  0.45305  1.0000
  N   N2        1.0  0.50836  0.97946  0.45026  1.0000
  N   N3        1.0  0.02433  0.52708  0.44359  1.0000
  C   C9        1.0  0.61974  0.25588  0.06610  1.0000
  C   C10       1.0  0.56601  0.35190  0.48438  1.0000
  C   C11       1.0  0.65090  0.21540  0.47643  1.0000
  C   C12       1.0  0.53156  0.39358  0.48052  1.0000
  C   C13       1.0  0.60845  0.13877  0.46820  1.0000
  C   C14       1.0  0.53320  0.09916  0.05444  1.0000
  C   C15       1.0  0.50890  0.14187  0.13663  1.0000
  C   C16       1.0  0.55103  0.21878  0.14195  1.0000
  C   C17       1.0  0.52518  0.50967  0.05980  1.0000
  C   C18       1.0  0.48692  0.01869  0.04885  1.0000
  C   C19       1.0  0.97932  0.47184  0.05541  1.0000
  H   H1        1.0  0.28802  0.75274  0.05138  1.0000
  H   H2        1.0  0.24502  0.54044  0.06738  1.0000
  H   H3        1.0  0.35885  0.88790  0.07440  1.0000
  H   H4        1.0  0.10956  0.47549  0.08955  1.0000
  H   H5        1.0  0.36024  0.46298  0.29398  1.0000
  H   H6        1.0  0.29610  0.53450  0.27029  1.0000
  H   H7        1.0  0.54129  0.29901  0.42002  1.0000
  H   H8        1.0  0.70308  0.24386  0.41444  1.0000
  H   H9        1.0  0.48082  0.37468  0.40994  1.0000
  H   H10       1.0  0.62601  0.10661  0.39720  1.0000
  H   H11       1.0  0.45638  0.11423  0.19853  1.0000
  H   H12       1.0  0.53098  0.25065  0.20517  1.0000
  H   H13       1.0  0.54585  0.55452  0.15092  1.0000
  H   H14       1.0  0.43979  0.99579  0.13004  1.0000
  H   H15       1.0  0.00445  0.45342  0.14535  1.0000
  N   N4        1.0  0.66335  0.33445  0.07156  1.0000
  N   N5        1.0  0.33769  0.66627  0.41218  1.0000
  C   C20       1.0  0.37152  0.74290  0.92210  1.0000
  C   C21       1.0  0.25181  0.62527  0.91671  1.0000
  C   C22       1.0  0.44217  0.65383  0.50998  1.0000
  C   C23       1.0  0.47819  0.61370  0.52198  1.0000
  C   C24       1.0  0.45512  0.90030  0.94950  1.0000
  C   C25       1.0  0.09479  0.55083  0.94144  1.0000
  C   C26       1.0  0.48308  0.86016  0.86974  1.0000
  C   C27       1.0  0.13312  0.61350  0.84739  1.0000
  C   C28       1.0  0.44231  0.78338  0.85578  1.0000
  C   C29       1.0  0.21002  0.64999  0.83460  1.0000
  N   N6        1.0  0.47464  0.49777  0.95374  1.0000
  N   N7        1.0  0.50098  0.97771  0.95520  1.0000
  N   N8        1.0  0.01743  0.51966  0.94922  1.0000
  C   C30       1.0  0.63345  0.37768  0.56984  1.0000
  C   C31       1.0  0.62722  0.25736  0.56440  1.0000
  C   C32       1.0  0.64446  0.21330  0.98415  1.0000
  C   C33       1.0  0.60208  0.13664  0.97831  1.0000
  C   C34       1.0  0.56218  0.46181  0.56533  1.0000
  C   C35       1.0  0.54093  0.10098  0.54940  1.0000
  C   C36       1.0  0.62848  0.48643  0.65381  1.0000
  C   C37       1.0  0.51793  0.14302  0.63827  1.0000
  C   C38       1.0  0.66426  0.44578  0.65415  1.0000
  C   C39       1.0  0.55998  0.21984  0.64543  1.0000
  C   C40       1.0  0.52797  0.50751  0.56186  1.0000
  C   C41       1.0  0.49476  0.02066  0.54421  1.0000
  C   C42       1.0  0.98588  0.47828  0.54791  1.0000
  H   H16       1.0  0.46584  0.70776  0.56967  1.0000
  H   H17       1.0  0.52966  0.63745  0.59206  1.0000
  H   H18       1.0  0.53774  0.89120  0.81752  1.0000
  H   H19       1.0  0.10080  0.63236  0.78276  1.0000
  H   H20       1.0  0.46517  0.75395  0.79287  1.0000
  H   H21       1.0  0.23820  0.69804  0.76066  1.0000
  H   H22       1.0  0.69723  0.24132  0.92412  1.0000
  H   H23       1.0  0.62086  0.10420  0.91229  1.0000
  H   H24       1.0  0.65230  0.53814  0.72342  1.0000
  H   H25       1.0  0.46669  0.11472  0.70456  1.0000
  H   H26       1.0  0.71638  0.46651  0.71979  1.0000
  H   H27       1.0  0.54142  0.25131  0.71516  1.0000
  H   H28       1.0  0.54654  0.55062  0.65665  1.0000
  H   H29       1.0  0.44793  0.99810  0.62603  1.0000
  H   H30       1.0  0.01122  0.45975  0.63712  1.0000
  N   N9        1.0  0.66982  0.33597  0.56988  1.0000
  N   N10       1.0  0.33079  0.66428  0.91090  1.0000
  C   C43       1.0  0.47116  0.63006  0.03414  1.0000
  C   C44       1.0  0.46104  0.57370  0.97283  1.0000
  C  Sn1       1.0  0.39811  0.53513  0.87338  1.0000
  C  Sn2       1.0  0.35516  0.56783  0.83477  1.0000
  C   C45       1.0  0.37631  0.63835  0.89663  1.0000
  C   C46       1.0  0.43937  0.67645  0.99607  1.0000
  H   H31       1.0  0.51997  0.65956  0.11102  1.0000
  O  Te1       1.0  0.37826  0.46479  0.81320  1.0000
  O  Te2       1.0  0.29202  0.53051  0.73560  1.0000
  H   H32       1.0  0.44484  0.71692  0.04344  1.0000
  Mg  Mg1       1.0  0.28754  0.43591  0.68306  1.0000
  C   C47       1.0  0.37687  0.84386  0.53319  1.0000
  C   C48       1.0  0.44733  0.89298  0.47581  1.0000
  C  Sn3       1.0  0.48423  0.86680  0.38103  1.0000
  C  Sn4       1.0  0.44980  0.78999  0.34317  1.0000
  C   C49       1.0  0.37927  0.74132  0.40107  1.0000
  C   C50       1.0  0.34286  0.76810  0.49585  1.0000
  H   H33       1.0  0.34867  0.86459  0.60646  1.0000
  O  Te3       1.0  0.55461  0.91662  0.32473  1.0000
  O  Te4       1.0  0.48542  0.76234  0.24863  1.0000
  H   H34       1.0  0.28829  0.73007  0.54018  1.0000
  Mg  Mg2       1.0  0.58081  0.85219  0.20023  1.0000
  C   C51       1.0  0.20145  0.65766  0.33247  1.0000
  C   C52       1.0  0.25077  0.63986  0.40390  1.0000
  C  Sn5       1.0  0.22380  0.57491  0.48869  1.0000
  C  Sn6       1.0  0.14598  0.52700  0.50198  1.0000
  C   C53       1.0  0.09709  0.54528  0.42999  1.0000
  C   C54       1.0  0.12468  0.61042  0.34547  1.0000
  H   H35       1.0  0.22278  0.70804  0.26700  1.0000
  O  Te5       1.0  0.27385  0.55798  0.55937  1.0000
  O  Te6       1.0  0.11752  0.46172  0.58598  1.0000
  H   H36       1.0  0.08648  0.62416  0.29009  1.0000
  Mg  Mg3       1.0  0.20806  0.46271  0.66141  1.0000
  C   C55       1.0  0.66053  0.46339  0.16600  1.0000
  C   C56       1.0  0.63625  0.39335  0.09721  1.0000
  C  Sn7       1.0  0.57121  0.35804  0.00318  1.0000
  C  Sn8       1.0  0.54038  0.40775  0.97773  1.0000
  C   C57       1.0  0.55465  0.46376  0.04698  1.0000
  C   C58       1.0  0.61979  0.49857  0.14090  1.0000
  H   H37       1.0  0.71096  0.49034  0.23860  1.0000
  O  Te7       1.0  0.55825  0.30214  0.93540  1.0000
  O  Te8       1.0  0.47520  0.37374  0.88422  1.0000
  H   H38       1.0  0.63861  0.55282  0.19406  1.0000
  Mg  Mg4       1.0  0.46587  0.27830  0.81736  1.0000
  C   C59       1.0  0.80287  0.45187  0.97670  1.0000
  C   C60       1.0  0.74081  0.37185  0.04679  1.0000
  C  Sn9       1.0  0.76500  0.33203  0.13484  1.0000
  C  Sn10      1.0  0.84225  0.35887  0.15289  1.0000
  C   C61       1.0  0.89336  0.42491  0.08239  1.0000
  C   C62       1.0  0.87907  0.47840  0.99449  1.0000
  H   H39       1.0  0.78368  0.48238  0.90875  1.0000
  O  Te9       1.0  0.71276  0.26624  0.20402  1.0000
  O  Te10      1.0  0.86795  0.32018  0.24032  1.0000
  H   H40       1.0  0.91899  0.52947  0.94032  1.0000
  Mg  Mg5       1.0  0.77514  0.23330  0.31194  1.0000
  C   C63       1.0  0.80766  0.45480  0.47102  1.0000
  C   C64       1.0  0.75738  0.38861  0.54202  1.0000
  C  Sn11      1.0  0.78315  0.34986  0.62916  1.0000
  C  Sn12      1.0  0.86073  0.37807  0.64534  1.0000
  C   C65       1.0  0.91057  0.44437  0.57395  1.0000
  C   C66       1.0  0.88418  0.48267  0.48697  1.0000
  H   H41       1.0  0.78725  0.48447  0.40379  1.0000
  O  Te11      1.0  0.73216  0.28380  0.69928  1.0000
  O  Te12      1.0  0.88800  0.34048  0.73182  1.0000
  H   H42       1.0  0.92312  0.53395  0.43210  1.0000
  Mg  Mg6       1.0  0.79648  0.25270  0.80531  1.0000
