data_image0
_chemical_formula_structural       C8N3C20H18NC10N3C16H18NC2Sn2C2HTe2HMgC2Sn2C2HTe2HMgC2Sn2C2HTe2HMgC2Sn2C2HTe2HMgC2Sn2C2HTe2HMgC2Sn2C2HTe2HMg
_chemical_formula_sum              "C78 N8 H48 Sn12 Te12 Mg6"
_cell_length_a       23.5099
_cell_length_b       23.423
_cell_length_c       8.23821
_cell_angle_alpha    91.6971
_cell_angle_beta     89.9253
_cell_angle_gamma    120.042

_symmetry_space_group_name_H-M    'P1'
_space_group_IT_number       1

loop_
  _space_group_symop_operation_xyz
  'x, y, z'

loop_
  _atom_site_type_symbol
  _atom_site_label
  _atom_site_symmetry_multiplicity
  _atom_site_fract_x
  _atom_site_fract_y
  _atom_site_fract_z
  _atom_site_occupancy
  C   C1        1.0  0.07272  0.03520  0.07197  1.0000
  C   C2        1.0  0.10952  0.09802  0.14800  1.0000
  C   C3        1.0  0.17770  0.13258  0.14172  1.0000
  C   C4        1.0  0.21235  0.10645  0.05847  1.0000
  C   C5        1.0  0.17109  0.04833  0.47845  1.0000
  C   C6        1.0  0.95442  0.13094  0.48023  1.0000
  C   C7        1.0  0.10318  0.01308  0.48909  1.0000
  C   C8        1.0  0.98909  0.09746  0.48878  1.0000
  N   N1        1.0  0.28094  0.14574  0.05712  1.0000
  N   N2        1.0  0.85262  0.12764  0.05311  1.0000
  N   N3        1.0  0.86775  0.72071  0.06682  1.0000
  C   C9        1.0  0.31257  0.13568  0.46130  1.0000
  C   C10       1.0  0.86173  0.17877  0.44779  1.0000
  C   C11       1.0  0.81573  0.68741  0.44858  1.0000
  C   C12       1.0  0.82142  0.21002  0.44874  1.0000
  C   C13       1.0  0.78557  0.61575  0.44599  1.0000
  C   C14       1.0  0.84015  0.26642  0.35764  1.0000
  C   C15       1.0  0.72384  0.57565  0.37011  1.0000
  C   C16       1.0  0.80292  0.29759  0.35913  1.0000
  C   C17       1.0  0.69416  0.50715  0.36862  1.0000
  C   C18       1.0  0.74451  0.27224  0.44782  1.0000
  C   C19       1.0  0.72551  0.47619  0.44036  1.0000
  C   C20       1.0  0.72554  0.21522  0.53761  1.0000
  C   C21       1.0  0.78752  0.51670  0.51544  1.0000
  C   C22       1.0  0.42054  0.23453  0.04287  1.0000
  C   C23       1.0  0.59516  0.29460  0.44875  1.0000
  C   C24       1.0  0.70361  0.30387  0.44594  1.0000
  C   C25       1.0  0.69437  0.40351  0.44015  1.0000
  C   C26       1.0  0.73259  0.37274  0.44033  1.0000
  C   C27       1.0  0.62570  0.36358  0.44334  1.0000
  C   C28       1.0  0.63482  0.26551  0.45070  1.0000
  H   H1        1.0  0.08421  0.11957  0.21288  1.0000
  H   H2        1.0  0.20590  0.18075  0.20271  1.0000
  H   H3        1.0  0.19493  0.02693  0.40626  1.0000
  H   H4        1.0  0.97495  0.17585  0.41186  1.0000
  H   H5        1.0  0.07559  0.96498  0.42822  1.0000
  H   H6        1.0  0.03592  0.11652  0.42844  1.0000
  H   H7        1.0  0.29197  0.09024  0.38478  1.0000
  H   H8        1.0  0.89850  0.19382  0.35147  1.0000
  H   H9        1.0  0.79321  0.70690  0.36634  1.0000
  H   H10       1.0  0.88374  0.28519  0.28302  1.0000
  H   H11       1.0  0.69950  0.59857  0.30980  1.0000
  H   H12       1.0  0.81764  0.34023  0.28471  1.0000
  H   H13       1.0  0.64703  0.47718  0.30652  1.0000
  H   H14       1.0  0.51427  0.31617  0.11786  1.0000
  H   H15       1.0  0.39206  0.24908  0.12009  1.0000
  H   H16       1.0  0.78589  0.40271  0.43721  1.0000
  H   H17       1.0  0.59522  0.38642  0.44230  1.0000
  H   H18       1.0  0.61185  0.21217  0.45730  1.0000
  N   N4        1.0  0.00289  0.00004  0.07611  1.0000
  C   C29       1.0  0.06904  0.03890  0.57583  1.0000
  C   C30       1.0  0.96438  0.03877  0.57417  1.0000
  C   C31       1.0  0.10595  0.10117  0.65418  1.0000
  C   C32       1.0  0.90403  0.01519  0.65286  1.0000
  C   C33       1.0  0.17403  0.13640  0.64350  1.0000
  C   C34       1.0  0.86921  0.04849  0.64330  1.0000
  C   C35       1.0  0.20843  0.11138  0.55452  1.0000
  C   C36       1.0  0.89294  0.10655  0.55541  1.0000
  C   C37       1.0  0.17540  0.04256  0.98683  1.0000
  C   C38       1.0  0.10721  0.00801  0.99285  1.0000
  N   N5        1.0  0.27685  0.15193  0.54942  1.0000
  N   N6        1.0  0.85337  0.13557  0.55355  1.0000
  N   N7        1.0  0.86577  0.72463  0.54258  1.0000
  C   C39       1.0  0.31511  0.13644  0.94705  1.0000
  C   C40       1.0  0.86674  0.17817  0.96627  1.0000
  C   C41       1.0  0.82444  0.68360  0.95741  1.0000
  C   C42       1.0  0.38668  0.17611  0.94640  1.0000
  C   C43       1.0  0.42327  0.15617  0.84888  1.0000
  C   C44       1.0  0.49169  0.19277  0.85003  1.0000
  C   C45       1.0  0.52547  0.25145  0.94491  1.0000
  C   C46       1.0  0.48860  0.27179  0.04048  1.0000
  C   C47       1.0  0.76353  0.18512  0.53997  1.0000
  C   C48       1.0  0.81683  0.58494  0.51928  1.0000
  C   C49       1.0  0.59790  0.29147  0.94579  1.0000
  C   C50       1.0  0.70579  0.29959  0.95194  1.0000
  C   C51       1.0  0.69762  0.39979  0.95540  1.0000
  C   C52       1.0  0.73531  0.36863  0.95818  1.0000
  C   C53       1.0  0.62897  0.36059  0.94997  1.0000
  C   C54       1.0  0.63691  0.26166  0.94483  1.0000
  H   H19       1.0  0.08080  0.12218  0.72188  1.0000
  H   H20       1.0  0.88492  0.97068  0.72215  1.0000
  H   H21       1.0  0.20239  0.18461  0.70410  1.0000
  H   H22       1.0  0.82299  0.03094  0.70614  1.0000
  H   H23       1.0  0.20011  0.01942  0.92575  1.0000
  H   H24       1.0  0.08002  0.95876  0.93771  1.0000
  H   H25       1.0  0.29248  0.09917  0.84761  1.0000
  H   H26       1.0  0.91090  0.20229  0.89136  1.0000
  H   H27       1.0  0.81032  0.70372  0.85590  1.0000
  H   H28       1.0  0.39774  0.11192  0.77094  1.0000
  H   H29       1.0  0.51927  0.17733  0.77208  1.0000
  H   H30       1.0  0.68157  0.19597  0.61089  1.0000
  H   H31       1.0  0.81184  0.49396  0.57625  1.0000
  H   H32       1.0  0.74988  0.14222  0.61264  1.0000
  H   H33       1.0  0.86393  0.61606  0.58058  1.0000
  H   H34       1.0  0.78856  0.39891  0.96485  1.0000
  H   H35       1.0  0.59928  0.38428  0.94860  1.0000
  H   H36       1.0  0.61327  0.20810  0.94044  1.0000
  N   N8        1.0  0.99933  0.00386  0.58004  1.0000
  C   C55       1.0  0.87219  0.84083  0.98021  1.0000
  C   C56       1.0  0.88446  0.78362  0.03972  1.0000
  C  Sn1       1.0  0.94352  0.80765  0.12649  1.0000
  C  Sn2       1.0  0.98462  0.87667  0.15404  1.0000
  C   C57       1.0  0.96555  0.91990  0.09410  1.0000
  C   C58       1.0  0.90636  0.89532  0.00739  1.0000
  H   H37       1.0  0.82637  0.82182  0.91319  1.0000
  O  Te1       1.0  0.96136  0.76338  0.18504  1.0000
  O  Te2       1.0  0.04390  0.90202  0.24043  1.0000
  H   H38       1.0  0.89828  0.94269  0.96142  1.0000
  Mg  Mg1       1.0  0.04686  0.82186  0.29580  1.0000
  C   C59       1.0  0.72419  0.55666  0.84194  1.0000
  C   C60       1.0  0.77650  0.60333  0.93911  1.0000
  C  Sn3       1.0  0.80203  0.56968  0.04713  1.0000
  C  Sn4       1.0  0.78102  0.50161  0.05775  1.0000
  C   C61       1.0  0.73499  0.46891  0.95993  1.0000
  C   C62       1.0  0.70345  0.48952  0.85230  1.0000
  H   H39       1.0  0.69980  0.57260  0.75859  1.0000
  O  Te3       1.0  0.85420  0.61695  0.14336  1.0000
  O  Te4       1.0  0.81200  0.48021  0.16463  1.0000
  H   H40       1.0  0.66297  0.45338  0.77701  1.0000
  Mg  Mg2       1.0  0.88077  0.56341  0.27050  1.0000
  C   C63       1.0  0.98629  0.88147  0.66313  1.0000
  C   C64       1.0  0.97358  0.92621  0.58522  1.0000
  C  Sn5       1.0  0.91694  0.90351  0.48911  1.0000
  C  Sn6       1.0  0.87227  0.83473  0.47093  1.0000
  C   C65       1.0  0.88540  0.79038  0.54947  1.0000
  C   C66       1.0  0.94224  0.81362  0.64532  1.0000
  H   H41       1.0  0.03025  0.89945  0.73737  1.0000
  O  Te5       1.0  0.90501  0.94889  0.41208  1.0000
  O  Te6       1.0  0.81527  0.81070  0.37563  1.0000
  H   H42       1.0  0.95204  0.77897  0.70571  1.0000
  Mg  Mg3       1.0  0.82062  0.89203  0.29500  1.0000
  C   C67       1.0  0.43693  0.15569  0.36083  1.0000
  C   C68       1.0  0.39219  0.16766  0.44544  1.0000
  C  Sn7       1.0  0.41388  0.22714  0.53302  1.0000
  C  Sn8       1.0  0.48165  0.27546  0.53568  1.0000
  C   C69       1.0  0.52602  0.26303  0.45054  1.0000
  C   C70       1.0  0.50379  0.20333  0.36334  1.0000
  H   H43       1.0  0.41973  0.10952  0.29329  1.0000
  O  Te7       1.0  0.36851  0.23829  0.61693  1.0000
  O  Te8       1.0  0.50466  0.33535  0.62218  1.0000
  H   H44       1.0  0.53844  0.19410  0.29775  1.0000
  Mg  Mg4       1.0  0.42377  0.32754  0.71730  1.0000
  C   C71       1.0  0.84411  0.28058  0.86856  1.0000
  C   C72       1.0  0.83348  0.22454  0.94951  1.0000
  C  Sn9       1.0  0.76869  0.17333  0.03232  1.0000
  C  Sn10      1.0  0.72003  0.19227  0.03387  1.0000
  C   C73       1.0  0.73744  0.26198  0.95241  1.0000
  C   C74       1.0  0.79614  0.29928  0.86997  1.0000
  H   H45       1.0  0.88951  0.30942  0.80469  1.0000
  O  Te9       1.0  0.75888  0.11750  0.11262  1.0000
  O  Te10      1.0  0.66114  0.15555  0.11564  1.0000
  H   H46       1.0  0.80433  0.34264  0.80722  1.0000
  Mg  Mg5       1.0  0.67061  0.08347  0.20709  1.0000
  C   C75       1.0  0.89234  0.01117  0.16473  1.0000
  C   C76       1.0  0.95050  0.02492  0.08697  1.0000
  C  Sn11      1.0  0.99044  0.09507  0.99587  1.0000
  C  Sn12      1.0  0.96526  0.13860  0.98263  1.0000
  C   C77       1.0  0.90073  0.11084  0.06097  1.0000
  C   C78       1.0  0.86747  0.05409  0.15178  1.0000
  H   H47       1.0  0.36540  0.96729  0.23506  1.0000
  O  Te11      1.0  0.04847  0.10804  0.91892  1.0000
  O  Te12      1.0  0.99788  0.19549  0.89240  1.0000
  H   H48       1.0  0.82247  0.04349  0.21205  1.0000
  Mg  Mg6       1.0  0.07515  0.19182  0.80976  1.0000
