data_image0
_chemical_formula_structural       C8N3C13H15N2C10N3C11H15N2SnCSn2CSnTe4Mg2SnCSn2CSnTe4Mg2SnCSn2CSnTe4Mg2SnCSn2CSnTe4Mg2SnCSn2CSnTe4Mg2SnCSn2CSnTe4Mg2
_chemical_formula_sum              "C54 N10 H30 Sn24 Te24 Mg12"
_cell_length_a       20.8944
_cell_length_b       20.9961
_cell_length_c       8.39823
_cell_angle_alpha    91.2546
_cell_angle_beta     90.4749
_cell_angle_gamma    120.557

_symmetry_space_group_name_H-M    'P1'
_space_group_IT_number       1

loop_
  _space_group_symop_operation_xyz
  'x, y, z'

loop_
  _atom_site_type_symbol
  _atom_site_label
  _atom_site_symmetry_multiplicity
  _atom_site_fract_x
  _atom_site_fract_y
  _atom_site_fract_z
  _atom_site_occupancy
  C   C1        1.0  0.25881  0.62884  0.41678  1.0000
  C   C2        1.0  0.34282  0.78272  0.00034  1.0000
  C   C3        1.0  0.21359  0.56106  0.00599  1.0000
  C   C4        1.0  0.38335  0.85959  0.01275  1.0000
  C   C5        1.0  0.13675  0.52437  0.01759  1.0000
  C   C6        1.0  0.10160  0.55727  0.43721  1.0000
  C   C7        1.0  0.14228  0.62372  0.35611  1.0000
  C   C8        1.0  0.21920  0.65899  0.34614  1.0000
  N   N1        1.0  0.47914  0.49737  0.45305  1.0000
  N   N2        1.0  0.50836  0.97946  0.45026  1.0000
  N   N3        1.0  0.02433  0.52708  0.44359  1.0000
  C   C9        1.0  0.61974  0.25588  0.06610  1.0000
  C   C10       1.0  0.74225  0.36992  0.07116  1.0000
  C   C11       1.0  0.78973  0.43844  0.48323  1.0000
  C   C12       1.0  0.86648  0.47299  0.47576  1.0000
  C   C13       1.0  0.53320  0.09916  0.05444  1.0000
  C   C14       1.0  0.89890  0.43865  0.06255  1.0000
  C   C15       1.0  0.50890  0.14187  0.13663  1.0000
  C   C16       1.0  0.85656  0.37415  0.14884  1.0000
  C   C17       1.0  0.55103  0.21878  0.14195  1.0000
  C   C18       1.0  0.77948  0.33966  0.15133  1.0000
  C   C19       1.0  0.52518  0.50967  0.05980  1.0000
  C   C20       1.0  0.48692  0.01869  0.04885  1.0000
  C   C21       1.0  0.97932  0.47184  0.05541  1.0000
  H   H1        1.0  0.28802  0.75274  0.05138  1.0000
  H   H2        1.0  0.24502  0.54044  0.06738  1.0000
  H   H3        1.0  0.35885  0.88790  0.07440  1.0000
  H   H4        1.0  0.10956  0.47549  0.08955  1.0000
  H   H5        1.0  0.11157  0.64651  0.29940  1.0000
  H   H6        1.0  0.24941  0.71060  0.28420  1.0000
  H   H7        1.0  0.76039  0.46146  0.42229  1.0000
  H   H8        1.0  0.89769  0.52226  0.40614  1.0000
  H   H9        1.0  0.45638  0.11423  0.19853  1.0000
  H   H10       1.0  0.88454  0.35103  0.21546  1.0000
  H   H11       1.0  0.53098  0.25065  0.20517  1.0000
  H   H12       1.0  0.74746  0.28901  0.21551  1.0000
  H   H13       1.0  0.54585  0.55452  0.15092  1.0000
  H   H14       1.0  0.43979  0.99579  0.13004  1.0000
  H   H15       1.0  0.00445  0.45342  0.14535  1.0000
  N   N4        1.0  0.66335  0.33445  0.07156  1.0000
  N   N5        1.0  0.33769  0.66627  0.41218  1.0000
  C   C22       1.0  0.37152  0.74290  0.92210  1.0000
  C   C23       1.0  0.25181  0.62527  0.91671  1.0000
  C   C24       1.0  0.21808  0.56113  0.49317  1.0000
  C   C25       1.0  0.14121  0.52586  0.50259  1.0000
  C   C26       1.0  0.45512  0.90030  0.94950  1.0000
  C   C27       1.0  0.09479  0.55083  0.94144  1.0000
  C   C28       1.0  0.48308  0.86016  0.86974  1.0000
  C   C29       1.0  0.13312  0.61350  0.84739  1.0000
  C   C30       1.0  0.44231  0.78338  0.85578  1.0000
  C   C31       1.0  0.21002  0.64999  0.83460  1.0000
  N   N6        1.0  0.47464  0.49777  0.95374  1.0000
  N   N7        1.0  0.50098  0.97771  0.95520  1.0000
  N   N8        1.0  0.01743  0.51966  0.94922  1.0000
  C   C32       1.0  0.74866  0.37281  0.56731  1.0000
  C   C33       1.0  0.64446  0.21330  0.98415  1.0000
  C   C34       1.0  0.78472  0.43570  0.98854  1.0000
  C   C35       1.0  0.60208  0.13664  0.97831  1.0000
  C   C36       1.0  0.86140  0.46891  0.98284  1.0000
  C   C37       1.0  0.90537  0.44406  0.55503  1.0000
  C   C38       1.0  0.86430  0.37940  0.64160  1.0000
  C   C39       1.0  0.78720  0.34393  0.64736  1.0000
  C   C40       1.0  0.52797  0.50751  0.56186  1.0000
  C   C41       1.0  0.49476  0.02066  0.54421  1.0000
  C   C42       1.0  0.98588  0.47828  0.54791  1.0000
  H   H16       1.0  0.24728  0.53625  0.54647  1.0000
  H   H17       1.0  0.11216  0.47380  0.56381  1.0000
  H   H18       1.0  0.53774  0.89120  0.81752  1.0000
  H   H19       1.0  0.10080  0.63236  0.78276  1.0000
  H   H20       1.0  0.46517  0.75395  0.79287  1.0000
  H   H21       1.0  0.23820  0.69804  0.76066  1.0000
  H   H22       1.0  0.69723  0.24132  0.92412  1.0000
  H   H23       1.0  0.75653  0.45980  0.92732  1.0000
  H   H24       1.0  0.62086  0.10420  0.91229  1.0000
  H   H25       1.0  0.89388  0.51836  0.91451  1.0000
  H   H26       1.0  0.89357  0.35707  0.70618  1.0000
  H   H27       1.0  0.75633  0.29391  0.71433  1.0000
  H   H28       1.0  0.54654  0.55062  0.65665  1.0000
  H   H29       1.0  0.44793  0.99810  0.62603  1.0000
  H   H30       1.0  0.01122  0.45975  0.63712  1.0000
  N   N9        1.0  0.66982  0.33597  0.56988  1.0000
  N   N10       1.0  0.33079  0.66428  0.91090  1.0000
  C  Sn1       1.0  0.56264  0.36889  0.93767  1.0000
  C   C43       1.0  0.61567  0.36867  0.02375  1.0000
  C  Sn2       1.0  0.64446  0.42223  0.14715  1.0000
  C  Sn3       1.0  0.60894  0.46275  0.18539  1.0000
  C   C44       1.0  0.54541  0.44887  0.09936  1.0000
  C  Sn4       1.0  0.52712  0.40941  0.97591  1.0000
  O  Te1       1.0  0.53483  0.31508  0.81479  1.0000
  O  Te2       1.0  0.70808  0.43512  0.23147  1.0000
  O  Te3       1.0  0.63681  0.51659  0.30838  1.0000
  O  Te4       1.0  0.46353  0.39650  0.89164  1.0000
  Mg  Mg1       1.0  0.72480  0.51405  0.38868  1.0000
  Mg  Mg2       1.0  0.44675  0.31756  0.73447  1.0000
  C  Sn5       1.0  0.46549  0.65910  0.48021  1.0000
  C   C45       1.0  0.39866  0.63873  0.39984  1.0000
  C  Sn6       1.0  0.35082  0.56523  0.35014  1.0000
  C  Sn7       1.0  0.37016  0.51094  0.38152  1.0000
  C   C46       1.0  0.43695  0.53131  0.46187  1.0000
  C  Sn8       1.0  0.48483  0.60481  0.51159  1.0000
  O  Te5       1.0  0.51247  0.73290  0.52881  1.0000
  O  Te6       1.0  0.28432  0.54620  0.26994  1.0000
  O  Te7       1.0  0.32311  0.43709  0.33284  1.0000
  O  Te8       1.0  0.55129  0.62384  0.59176  1.0000
  Mg  Mg3       1.0  0.23870  0.43845  0.22768  1.0000
  Mg  Mg4       1.0  0.59693  0.73157  0.63415  1.0000
  C  Sn9       1.0  0.64877  0.44675  0.69981  1.0000
  C   C47       1.0  0.62846  0.38091  0.61508  1.0000
  C  Sn10      1.0  0.57577  0.35641  0.49060  1.0000
  C  Sn11      1.0  0.54271  0.39863  0.44989  1.0000
  C   C48       1.0  0.56302  0.46443  0.53457  1.0000
  C  Sn12      1.0  0.61571  0.48897  0.65910  1.0000
  O  Te9       1.0  0.70158  0.47019  0.82381  1.0000
  O  Te10      1.0  0.55634  0.29039  0.40766  1.0000
  O  Te11      1.0  0.48986  0.37513  0.32578  1.0000
  O  Te12      1.0  0.63515  0.55495  0.74199  1.0000
  Mg  Mg5       1.0  0.48174  0.28155  0.24812  1.0000
  Mg  Mg6       1.0  0.70977  0.56386  0.90150  1.0000
  C  Sn13      1.0  0.34798  0.80205  0.48537  1.0000
  C   C49       1.0  0.36565  0.75459  0.40328  1.0000
  C  Sn14      1.0  0.43786  0.78052  0.35110  1.0000
  C  Sn15      1.0  0.49360  0.85545  0.38169  1.0000
  C   C50       1.0  0.47592  0.90287  0.46375  1.0000
  C  Sn16      1.0  0.40371  0.87698  0.51595  1.0000
  O  Te13      1.0  0.27542  0.77493  0.53644  1.0000
  O  Te14      1.0  0.45419  0.73203  0.26922  1.0000
  O  Te15      1.0  0.56620  0.88254  0.33053  1.0000
  O  Te16      1.0  0.38738  0.92543  0.59781  1.0000
  Mg  Mg7       1.0  0.56114  0.79506  0.22379  1.0000
  Mg  Mg8       1.0  0.28047  0.86245  0.64337  1.0000
  C  Sn17      1.0  0.63207  0.15361  0.50242  1.0000
  C   C51       1.0  0.56300  0.10804  0.56995  1.0000
  C  Sn18      1.0  0.52105  0.13789  0.62799  1.0000
  C  Sn19      1.0  0.54867  0.21489  0.61825  1.0000
  C   C52       1.0  0.61769  0.26042  0.55073  1.0000
  C  Sn20      1.0  0.65970  0.23062  0.49268  1.0000
  O  Te17      1.0  0.67306  0.12258  0.44515  1.0000
  O  Te18      1.0  0.45217  0.09122  0.69504  1.0000
  O  Te19      1.0  0.50761  0.24591  0.67560  1.0000
  O  Te20      1.0  0.72853  0.27724  0.42564  1.0000
  Mg  Mg9       1.0  0.41694  0.15963  0.75647  1.0000
  Mg  Mg10      1.0  0.76378  0.20889  0.36410  1.0000
  C  Sn21      1.0  0.37970  0.53195  0.80337  1.0000
  C   C53       1.0  0.44316  0.55007  0.89505  1.0000
  C  Sn22      1.0  0.45721  0.59045  0.01628  1.0000
  C  Sn23      1.0  0.41751  0.62756  0.04660  1.0000
  C   C54       1.0  0.36462  0.62351  0.95497  1.0000
  C  Sn24      1.0  0.34000  0.56906  0.83368  1.0000
  O  Te21      1.0  0.35613  0.47732  0.68279  1.0000
  O  Te22      1.0  0.52082  0.60763  0.10631  1.0000
  O  Te23      1.0  0.44114  0.68223  0.16729  1.0000
  O  Te24      1.0  0.27643  0.55187  0.74371  1.0000
  Mg  Mg11      1.0  0.53089  0.68605  0.25751  1.0000
  Mg  Mg12      1.0  0.26629  0.47343  0.59254  1.0000
