data_image0
_chemical_formula_structural       C6N3C17N3O3CH8C6N3C28N3O3C2H16SnCSn2CSnTe4Mg2SnCSn2CSnTe4Mg2SnCSn2CSnTe4Mg2SnCSn2CSnTe4Mg2SnCSn2CSnTe4Mg2SnCSn2CSnTe4Mg2
_chemical_formula_sum              "C72 N12 O6 H24 Sn24 Te24 Mg12"
_cell_length_a       26.0962
_cell_length_b       26.2396
_cell_length_c       8.12484
_cell_angle_alpha    92.76
_cell_angle_beta     116.181
_cell_angle_gamma    119.938

_symmetry_space_group_name_H-M    'P1'
_space_group_IT_number       1

loop_
  _space_group_symop_operation_xyz
  'x, y, z'

loop_
  _atom_site_type_symbol
  _atom_site_label
  _atom_site_symmetry_multiplicity
  _atom_site_fract_x
  _atom_site_fract_y
  _atom_site_fract_z
  _atom_site_occupancy
  C   C1        1.0  0.35031  0.62436  0.00553  1.0000
  C   C2        1.0  0.37670  0.72883  0.00339  1.0000
  C   C3        1.0  0.27387  0.65228  0.01502  1.0000
  C   C4        1.0  0.36552  0.58259  0.99185  1.0000
  C   C5        1.0  0.41377  0.78491  0.98657  1.0000
  C   C6        1.0  0.21741  0.63553  0.02576  1.0000
  N   N1        1.0  0.37813  0.54633  0.96739  1.0000
  N   N2        1.0  0.44328  0.83306  0.96397  1.0000
  N   N3        1.0  0.16843  0.61896  0.03798  1.0000
  C   C7        1.0  0.10746  0.58658  0.03500  1.0000
  C   C8        1.0  0.00451  0.57441  0.99574  1.0000
  C   C9        1.0  0.97981  0.51520  0.01742  1.0000
  C   C10       1.0  0.02243  0.49381  0.05276  1.0000
  C   C11       1.0  0.08535  0.52833  0.06199  1.0000
  C   C12       1.0  0.91258  0.47695  0.00526  1.0000
  C   C13       1.0  0.88029  0.50365  0.03251  1.0000
  C   C14       1.0  0.81728  0.46754  0.02277  1.0000
  C   C15       1.0  0.78432  0.40297  0.98837  1.0000
  C   C16       1.0  0.81548  0.37567  0.95873  1.0000
  C   C17       1.0  0.87787  0.41181  0.96550  1.0000
  C   C18       1.0  0.62942  0.35625  0.99743  1.0000
  C   C19       1.0  0.63854  0.27423  0.99229  1.0000
  C   C20       1.0  0.71939  0.36505  0.98770  1.0000
  C   C21       1.0  0.39808  0.68652  0.00638  1.0000
  C   C22       1.0  0.31529  0.71461  0.00783  1.0000
  C   C23       1.0  0.28734  0.60425  0.00859  1.0000
  N   N4        1.0  0.60304  0.29721  0.99885  1.0000
  N   N5        1.0  0.69647  0.30597  0.98474  1.0000
  N   N6        1.0  0.68751  0.39211  0.99276  1.0000
  O   O1        1.0  0.45110  0.70130  0.00455  1.0000
  O   O2        1.0  0.29989  0.75262  0.00605  1.0000
  O   O3        1.0  0.24781  0.55060  0.00333  1.0000
  C   C24       1.0  0.06748  0.61028  0.00506  1.0000
  H   H1        1.0  0.97306  0.59244  0.96694  1.0000
  H   H2        1.0  0.00691  0.44958  0.07803  1.0000
  H   H3        1.0  0.11835  0.51187  0.09105  1.0000
  H   H4        1.0  0.90583  0.55383  0.06635  1.0000
  H   H5        1.0  0.79294  0.48847  0.04568  1.0000
  H   H6        1.0  0.78915  0.32552  0.92845  1.0000
  H   H7        1.0  0.89926  0.38885  0.93476  1.0000
  H   H8        1.0  0.08581  0.65560  0.98603  1.0000
  C   C25       1.0  0.35887  0.62700  0.51699  1.0000
  C   C26       1.0  0.38163  0.73003  0.50743  1.0000
  C   C27       1.0  0.27747  0.65061  0.50862  1.0000
  C   C28       1.0  0.38015  0.58902  0.53081  1.0000
  C   C29       1.0  0.41727  0.78613  0.48893  1.0000
  C   C30       1.0  0.22139  0.63294  0.52229  1.0000
  N   N7        1.0  0.40346  0.55906  0.56326  1.0000
  N   N8        1.0  0.44439  0.83343  0.45926  1.0000
  N   N9        1.0  0.17401  0.61586  0.54282  1.0000
  C   C31       1.0  0.47436  0.89454  0.46926  1.0000
  C   C32       1.0  0.11258  0.58369  0.53761  1.0000
  C   C33       1.0  0.56123  0.98905  0.46212  1.0000
  C   C34       1.0  0.00984  0.57294  0.49453  1.0000
  C   C35       1.0  0.53212  0.02014  0.48355  1.0000
  C   C36       1.0  0.98486  0.51410  0.51861  1.0000
  C   C37       1.0  0.47316  0.98573  0.49901  1.0000
  C   C38       1.0  0.02710  0.49217  0.55778  1.0000
  C   C39       1.0  0.44401  0.92401  0.49118  1.0000
  C   C40       1.0  0.09025  0.52593  0.56808  1.0000
  C   C41       1.0  0.52576  0.43805  0.49572  1.0000
  C   C42       1.0  0.91740  0.47639  0.50484  1.0000
  C   C43       1.0  0.49719  0.37461  0.47809  1.0000
  C   C44       1.0  0.88541  0.50346  0.53161  1.0000
  C   C45       1.0  0.53325  0.34896  0.48462  1.0000
  C   C46       1.0  0.82255  0.46759  0.52258  1.0000
  C   C47       1.0  0.59905  0.38564  0.50653  1.0000
  C   C48       1.0  0.78949  0.40306  0.48883  1.0000
  C   C49       1.0  0.62822  0.44889  0.52514  1.0000
  C   C50       1.0  0.82000  0.37524  0.45762  1.0000
  C   C51       1.0  0.59244  0.47452  0.52109  1.0000
  C   C52       1.0  0.88239  0.41121  0.46442  1.0000
  C   C53       1.0  0.63580  0.35799  0.50223  1.0000
  C   C54       1.0  0.64305  0.27496  0.49152  1.0000
  C   C55       1.0  0.72497  0.36582  0.49033  1.0000
  C   C56       1.0  0.40589  0.68966  0.51872  1.0000
  C   C57       1.0  0.31838  0.71353  0.50476  1.0000
  C   C58       1.0  0.29272  0.60379  0.50488  1.0000
  N   N10       1.0  0.60802  0.29840  0.49852  1.0000
  N   N11       1.0  0.70118  0.30645  0.48483  1.0000
  N   N12       1.0  0.69436  0.39380  0.49981  1.0000
  O   O4        1.0  0.46046  0.70619  0.52383  1.0000
  O   O5        1.0  0.30105  0.75021  0.49986  1.0000
  O   O6        1.0  0.25367  0.54963  0.49717  1.0000
  C   C59       1.0  0.53325  0.92727  0.45450  1.0000
  C   C60       1.0  0.07293  0.60788  0.50423  1.0000
  H   H9        1.0  0.60615  0.01298  0.44724  1.0000
  H   H10       1.0  0.97841  0.59109  0.46330  1.0000
  H   H11       1.0  0.44941  0.00757  0.51997  1.0000
  H   H12       1.0  0.01100  0.44829  0.58577  1.0000
  H   H13       1.0  0.39855  0.89784  0.50315  1.0000
  H   H14       1.0  0.12325  0.50936  0.60104  1.0000
  H   H15       1.0  0.44593  0.34472  0.45844  1.0000
  H   H16       1.0  0.91103  0.55363  0.56455  1.0000
  H   H17       1.0  0.51101  0.30004  0.47082  1.0000
  H   H18       1.0  0.79856  0.48881  0.54615  1.0000
  H   H19       1.0  0.67914  0.47698  0.54186  1.0000
  H   H20       1.0  0.79354  0.32505  0.42642  1.0000
  H   H21       1.0  0.61704  0.52398  0.54043  1.0000
  H   H22       1.0  0.90361  0.38812  0.43331  1.0000
  H   H23       1.0  0.55577  0.90382  0.43501  1.0000
  H   H24       1.0  0.09178  0.65282  0.48264  1.0000
  C  Sn1       1.0  0.27549  0.86445  0.03836  1.0000
  C   C61       1.0  0.33530  0.90586  0.03596  1.0000
  C  Sn2       1.0  0.55886  0.99424  0.97999  1.0000
  C  Sn3       1.0  0.52912  0.92922  0.92515  1.0000
  C   C62       1.0  0.46934  0.88785  0.92753  1.0000
  C  Sn4       1.0  0.43864  0.91007  0.98352  1.0000
  O  Te1       1.0  0.24570  0.88774  0.09481  1.0000
  O  Te2       1.0  0.61865  0.03655  0.97882  1.0000
  O  Te3       1.0  0.55897  0.90595  0.86868  1.0000
  O  Te4       1.0  0.37888  0.86780  0.98468  1.0000
  Mg  Mg1       1.0  0.64009  0.98212  0.89063  1.0000
  Mg  Mg2       1.0  0.16448  0.81153  0.07273  1.0000
  C  Sn5       1.0  0.64302  0.14049  0.53669  1.0000
  C   C63       1.0  0.58343  0.09900  0.53992  1.0000
  C  Sn6       1.0  0.53381  0.11131  0.50193  1.0000
  C  Sn7       1.0  0.54393  0.16623  0.45971  1.0000
  C   C64       1.0  0.60348  0.20769  0.45647  1.0000
  C  Sn8       1.0  0.65314  0.19541  0.49448  1.0000
  O  Te5       1.0  0.69194  0.12724  0.57510  1.0000
  O  Te6       1.0  0.47466  0.06914  0.50605  1.0000
  O  Te7       1.0  0.49494  0.17946  0.42130  1.0000
  O  Te8       1.0  0.71224  0.23754  0.49033  1.0000
  Mg  Mg3       1.0  0.42289  0.10774  0.44394  1.0000
  Mg  Mg4       1.0  0.76404  0.19897  0.55232  1.0000
  C  Sn9       1.0  0.57387  0.45627  0.91469  1.0000
  C   C65       1.0  0.51966  0.43354  0.94875  1.0000
  C  Sn10      1.0  0.31212  0.27619  0.03241  1.0000
  C  Sn11      1.0  0.35254  0.25174  0.08321  1.0000
  C   C66       1.0  0.40673  0.27448  0.04918  1.0000
  C  Sn12      1.0  0.61429  0.43181  0.96549  1.0000
  O  Te9       1.0  0.58759  0.50297  0.83091  1.0000
  O  Te10      1.0  0.25764  0.25420  0.06499  1.0000
  O  Te11      1.0  0.33878  0.20500  0.16704  1.0000
  O  Te12      1.0  0.66874  0.45382  0.93295  1.0000
  Mg  Mg5       1.0  0.25918  0.19026  0.18277  1.0000
  Mg  Mg6       1.0  0.66727  0.51777  0.81527  1.0000
  C  Sn13      1.0  0.51497  0.11926  0.93862  1.0000
  C   C67       1.0  0.04413  0.08533  0.93517  1.0000
  C  Sn14      1.0  0.61077  0.11592  0.97779  1.0000
  C  Sn15      1.0  0.45989  0.07117  0.02496  1.0000
  C   C68       1.0  0.43253  0.10506  0.02842  1.0000
  C  Sn16      1.0  0.55697  0.18515  0.98579  1.0000
  O  Te13      1.0  0.94820  0.08770  0.89553  1.0000
  O  Te14      1.0  0.13877  0.08099  0.97334  1.0000
  O  Te15      1.0  0.52850  0.10271  0.06805  1.0000
  O  Te16      1.0  0.53078  0.22004  0.99025  1.0000
  Mg  Mg7       1.0  0.54059  0.03462  0.04293  1.0000
  Mg  Mg8       1.0  0.43429  0.15582  0.92079  1.0000
  C  Sn17      1.0  0.47250  0.54174  0.41581  1.0000
  C   C69       1.0  0.42308  0.52289  0.46797  1.0000
  C  Sn18      1.0  0.40926  0.47645  0.55279  1.0000
  C  Sn19      1.0  0.44562  0.44830  0.58631  1.0000
  C   C70       1.0  0.49502  0.46715  0.53420  1.0000
  C  Sn20      1.0  0.50886  0.51358  0.44932  1.0000
  O  Te17      1.0  0.48548  0.58825  0.33120  1.0000
  O  Te18      1.0  0.35961  0.45837  0.60364  1.0000
  O  Te19      1.0  0.43260  0.40175  0.67098  1.0000
  O  Te20      1.0  0.55849  0.53167  0.39852  1.0000
  Mg  Mg9       1.0  0.36026  0.39307  0.71500  1.0000
  Mg  Mg10      1.0  0.55790  0.59699  0.28726  1.0000
  C  Sn21      1.0  0.52160  0.54469  0.09423  1.0000
  C   C71       1.0  0.49873  0.48254  0.07181  1.0000
  C  Sn22      1.0  0.62060  0.54580  0.98867  1.0000
  C  Sn23      1.0  0.57141  0.56084  0.92652  1.0000
  C   C72       1.0  0.59428  0.62296  0.94891  1.0000
  C  Sn24      1.0  0.47240  0.55973  0.03208  1.0000
  O  Te21      1.0  0.59284  0.59131  0.17772  1.0000
  O  Te22      1.0  0.59900  0.48401  0.96783  1.0000
  O  Te23      1.0  0.50012  0.51416  0.84298  1.0000
  O  Te24      1.0  0.49401  0.62149  0.05289  1.0000
  Mg  Mg11      1.0  0.49635  0.43698  0.84554  1.0000
  Mg  Mg12      1.0  0.59664  0.66854  0.17506  1.0000
