data_image0
_chemical_formula_structural       C6N3C6N3O3C6N3C6N3O3SnCSn2CSnTe4Mg2SnCSn2CSnTe4Mg2SnCSn2CSnTe4Mg2SnCSn2CSnTe4Mg2SnCSn2CSnTe4Mg2SnCSn2CSnTe4Mg2SnCSn2CSnTe4Mg2SnCSn2CSnTe4Mg2SnCSn2CSnTe4Mg2SnCSn2CSnTe4Mg2SnCSn2CSnTe4Mg2SnCSn2CSnTe4Mg2
_chemical_formula_sum              "C48 N12 O6 Sn48 Te48 Mg24"
_cell_length_a       26.0962
_cell_length_b       26.2396
_cell_length_c       8.12484
_cell_angle_alpha    92.76
_cell_angle_beta     116.181
_cell_angle_gamma    119.938

_symmetry_space_group_name_H-M    'P1'
_space_group_IT_number       1

loop_
  _space_group_symop_operation_xyz
  'x, y, z'

loop_
  _atom_site_type_symbol
  _atom_site_label
  _atom_site_symmetry_multiplicity
  _atom_site_fract_x
  _atom_site_fract_y
  _atom_site_fract_z
  _atom_site_occupancy
  C   C1        1.0  0.35031  0.62436  0.00553  1.0000
  C   C2        1.0  0.37670  0.72883  0.00339  1.0000
  C   C3        1.0  0.27387  0.65228  0.01502  1.0000
  C   C4        1.0  0.36552  0.58259  0.99185  1.0000
  C   C5        1.0  0.41377  0.78491  0.98657  1.0000
  C   C6        1.0  0.21741  0.63553  0.02576  1.0000
  N   N1        1.0  0.37813  0.54633  0.96739  1.0000
  N   N2        1.0  0.44328  0.83306  0.96397  1.0000
  N   N3        1.0  0.16843  0.61896  0.03798  1.0000
  C   C7        1.0  0.62942  0.35625  0.99743  1.0000
  C   C8        1.0  0.63854  0.27423  0.99229  1.0000
  C   C9        1.0  0.71939  0.36505  0.98770  1.0000
  C   C10       1.0  0.39808  0.68652  0.00638  1.0000
  C   C11       1.0  0.31529  0.71461  0.00783  1.0000
  C   C12       1.0  0.28734  0.60425  0.00859  1.0000
  N   N4        1.0  0.60304  0.29721  0.99885  1.0000
  N   N5        1.0  0.69647  0.30597  0.98474  1.0000
  N   N6        1.0  0.68751  0.39211  0.99276  1.0000
  O   O1        1.0  0.45110  0.70130  0.00455  1.0000
  O   O2        1.0  0.29989  0.75262  0.00605  1.0000
  O   O3        1.0  0.24781  0.55060  0.00333  1.0000
  C   C13       1.0  0.35887  0.62700  0.51699  1.0000
  C   C14       1.0  0.38163  0.73003  0.50743  1.0000
  C   C15       1.0  0.27747  0.65061  0.50862  1.0000
  C   C16       1.0  0.38015  0.58902  0.53081  1.0000
  C   C17       1.0  0.41727  0.78613  0.48893  1.0000
  C   C18       1.0  0.22139  0.63294  0.52229  1.0000
  N   N7        1.0  0.40346  0.55906  0.56326  1.0000
  N   N8        1.0  0.44439  0.83343  0.45926  1.0000
  N   N9        1.0  0.17401  0.61586  0.54282  1.0000
  C   C19       1.0  0.63580  0.35799  0.50223  1.0000
  C   C20       1.0  0.64305  0.27496  0.49152  1.0000
  C   C21       1.0  0.72497  0.36582  0.49033  1.0000
  C   C22       1.0  0.40589  0.68966  0.51872  1.0000
  C   C23       1.0  0.31838  0.71353  0.50476  1.0000
  C   C24       1.0  0.29272  0.60379  0.50488  1.0000
  N   N10       1.0  0.60802  0.29840  0.49852  1.0000
  N   N11       1.0  0.70118  0.30645  0.48483  1.0000
  N   N12       1.0  0.69436  0.39380  0.49981  1.0000
  O   O4        1.0  0.46046  0.70619  0.52383  1.0000
  O   O5        1.0  0.30105  0.75021  0.49986  1.0000
  O   O6        1.0  0.25367  0.54963  0.49717  1.0000
  C  Sn1       1.0  0.39921  0.42802  0.91970  1.0000
  C   C25       1.0  0.46683  0.45756  0.95623  1.0000
  C  Sn2       1.0  0.32037  0.41222  0.03161  1.0000
  C  Sn3       1.0  0.29879  0.44876  0.07144  1.0000
  C   C26       1.0  0.23121  0.41923  0.03495  1.0000
  C  Sn4       1.0  0.37763  0.46457  0.95952  1.0000
  O  Te1       1.0  0.35367  0.36267  0.84431  1.0000
  O  Te2       1.0  0.38769  0.44068  0.06687  1.0000
  O  Te3       1.0  0.34440  0.51416  0.14688  1.0000
  O  Te4       1.0  0.31035  0.43610  0.92431  1.0000
  Mg  Mg1       1.0  0.43071  0.53118  0.17035  1.0000
  Mg  Mg2       1.0  0.26731  0.34562  0.82093  1.0000
  C  Sn5       1.0  0.36263  0.83700  0.03077  1.0000
  C   C27       1.0  0.30090  0.79458  0.02315  1.0000
  C  Sn6       1.0  0.44354  0.91728  0.97691  1.0000
  C  Sn7       1.0  0.45520  0.97286  0.93732  1.0000
  C   C28       1.0  0.51688  0.01523  0.94492  1.0000
  C  Sn8       1.0  0.56717  0.00323  0.99119  1.0000
  O  Te5       1.0  0.41214  0.82400  0.07730  1.0000
  O  Te6       1.0  0.38225  0.87418  0.97025  1.0000
  O  Te7       1.0  0.40562  0.98583  0.89077  1.0000
  O  Te8       1.0  0.62842  0.04628  0.99782  1.0000
  Mg  Mg3       1.0  0.33045  0.91277  0.89995  1.0000
  Mg  Mg4       1.0  0.48735  0.89707  0.06801  1.0000
  C  Sn9       1.0  0.00712  0.57676  0.93735  1.0000
  C   C29       1.0  0.97695  0.51880  0.96265  1.0000
  C  Sn10      1.0  0.82411  0.38539  0.04758  1.0000
  C  Sn11      1.0  0.89581  0.42133  0.10860  1.0000
  C   C30       1.0  0.92594  0.47926  0.08332  1.0000
  C  Sn12      1.0  0.07882  0.61270  0.99837  1.0000
  O  Te9       1.0  0.96609  0.59860  0.85212  1.0000
  O  Te10      1.0  0.79278  0.32730  0.07129  1.0000
  O  Te11      1.0  0.93683  0.39944  0.19388  1.0000
  O  Te12      1.0  0.11011  0.67076  0.97468  1.0000
  Mg  Mg5       1.0  0.87040  0.31761  0.19510  1.0000
  Mg  Mg6       1.0  0.03256  0.68051  0.85099  1.0000
  C  Sn13      1.0  0.70578  0.45696  0.97946  1.0000
  C   C31       1.0  0.76059  0.48008  0.94783  1.0000
  C  Sn14      1.0  0.79946  0.54275  0.96332  1.0000
  C  Sn15      1.0  0.59034  0.47252  0.01155  1.0000
  C   C32       1.0  0.53557  0.44939  0.04317  1.0000
  C  Sn16      1.0  0.49667  0.38672  0.02768  1.0000
  O  Te13      1.0  0.66763  0.39415  0.96320  1.0000
  O  Te14      1.0  0.85400  0.56479  0.93098  1.0000
  O  Te15      1.0  0.62856  0.53537  0.02778  1.0000
  O  Te16      1.0  0.44217  0.36469  0.06002  1.0000
  Mg  Mg7       1.0  0.89084  0.65403  0.97027  1.0000
  Mg  Mg8       1.0  0.40532  0.27547  0.02088  1.0000
  C  Sn17      1.0  0.36159  0.05678  0.05928  1.0000
  C   C33       1.0  0.41886  0.09764  0.04567  1.0000
  C  Sn18      1.0  0.64095  0.18570  0.98336  1.0000
  C  Sn19      1.0  0.61230  0.12090  0.93348  1.0000
  C   C34       1.0  0.05687  0.08007  0.94707  1.0000
  C  Sn20      1.0  0.83474  0.99198  0.00941  1.0000
  O  Te17      1.0  0.33323  0.08040  0.12192  1.0000
  O  Te18      1.0  0.69821  0.22746  0.97098  1.0000
  O  Te19      1.0  0.64071  0.09730  0.87082  1.0000
  O  Te20      1.0  0.77752  0.95025  0.02175  1.0000
  Mg  Mg9       1.0  0.71847  0.17275  0.87783  1.0000
  Mg  Mg10      1.0  0.75719  0.00490  0.11479  1.0000
  C  Sn21      1.0  0.01323  0.58681  0.97031  1.0000
  C   C35       1.0  0.97321  0.52245  0.93486  1.0000
  C  Sn22      1.0  0.00225  0.48901  0.95014  1.0000
  C  Sn23      1.0  0.87990  0.40991  0.00205  1.0000
  C   C36       1.0  0.91988  0.47423  0.03750  1.0000
  C  Sn24      1.0  0.89088  0.50771  0.02222  1.0000
  O  Te21      1.0  0.98312  0.61931  0.95419  1.0000
  O  Te22      1.0  0.96120  0.42469  0.91395  1.0000
  O  Te23      1.0  0.90999  0.37735  0.01815  1.0000
  O  Te24      1.0  0.93189  0.57199  0.05841  1.0000
  Mg  Mg11      1.0  0.02580  0.40089  0.95465  1.0000
  Mg  Mg12      1.0  0.86736  0.59584  0.01785  1.0000
  C  Sn25      1.0  0.52047  0.54289  0.52424  1.0000
  C   C37       1.0  0.50512  0.48502  0.54209  1.0000
  C  Sn26      1.0  0.44414  0.44285  0.53812  1.0000
  C  Sn27      1.0  0.39751  0.45884  0.51570  1.0000
  C   C38       1.0  0.41286  0.51667  0.49783  1.0000
  C  Sn28      1.0  0.47384  0.55888  0.50182  1.0000
  O  Te25      1.0  0.58173  0.58432  0.52859  1.0000
  O  Te26      1.0  0.42993  0.38527  0.55631  1.0000
  O  Te27      1.0  0.33622  0.41734  0.51137  1.0000
  O  Te28      1.0  0.48805  0.61642  0.48361  1.0000
  Mg  Mg13      1.0  0.33981  0.34459  0.54167  1.0000
  Mg  Mg14      1.0  0.57813  0.65712  0.49813  1.0000
  C  Sn29      1.0  0.54586  0.97003  0.40029  1.0000
  C   C39       1.0  0.52474  0.00762  0.42720  1.0000
  C  Sn30      1.0  0.47993  0.99007  0.49573  1.0000
  C  Sn31      1.0  0.45575  0.93378  0.53836  1.0000
  C   C40       1.0  0.47688  0.89622  0.51148  1.0000
  C  Sn32      1.0  0.52169  0.91374  0.44292  1.0000
  O  Te29      1.0  0.59069  0.98850  0.33164  1.0000
  O  Te30      1.0  0.45952  0.02841  0.52142  1.0000
  O  Te31      1.0  0.41089  0.91533  0.60705  1.0000
  O  Te32      1.0  0.54210  0.87544  0.41727  1.0000
  Mg  Mg15      1.0  0.39785  0.98325  0.61837  1.0000
  Mg  Mg16      1.0  0.60380  0.92057  0.32042  1.0000
  C  Sn33      1.0  0.06735  0.50652  0.51098  1.0000
  C   C41       1.0  0.09912  0.56506  0.49021  1.0000
  C  Sn34      1.0  0.07678  0.60292  0.50148  1.0000
  C  Sn35      1.0  0.02156  0.58183  0.53432  1.0000
  C   C42       1.0  0.98983  0.52333  0.55510  1.0000
  C  Sn36      1.0  0.01213  0.48543  0.54381  1.0000
  O  Te33      1.0  0.09053  0.46946  0.49920  1.0000
  O  Te34      1.0  0.10933  0.66126  0.48020  1.0000
  O  Te35      1.0  0.99838  0.61895  0.54608  1.0000
  O  Te36      1.0  0.97961  0.42713  0.56511  1.0000
  Mg  Mg17      1.0  0.05922  0.69476  0.50780  1.0000
  Mg  Mg18      1.0  0.02970  0.39360  0.53764  1.0000
  C  Sn37      1.0  0.51040  0.37013  0.53674  1.0000
  C   C43       1.0  0.53022  0.43097  0.54552  1.0000
  C  Sn38      1.0  0.58430  0.47020  0.51802  1.0000
  C  Sn39      1.0  0.61927  0.44816  0.48084  1.0000
  C   C44       1.0  0.59944  0.38736  0.47204  1.0000
  C  Sn40      1.0  0.54537  0.34809  0.49956  1.0000
  O  Te37      1.0  0.45620  0.33172  0.56466  1.0000
  O  Te38      1.0  0.60319  0.53084  0.52753  1.0000
  O  Te39      1.0  0.67351  0.48663  0.45291  1.0000
  O  Te40      1.0  0.52647  0.28748  0.49003  1.0000
  Mg  Mg19      1.0  0.68022  0.56546  0.47958  1.0000
  Mg  Mg20      1.0  0.44943  0.25282  0.53786  1.0000
  C  Sn41      1.0  0.55917  0.16902  0.56111  1.0000
  C   C45       1.0  0.61641  0.20930  0.54666  1.0000
  C  Sn42      1.0  0.64464  0.18592  0.48238  1.0000
  C  Sn43      1.0  0.61501  0.12092  0.43136  1.0000
  C   C46       1.0  0.55780  0.08067  0.44578  1.0000
  C  Sn44      1.0  0.52954  0.10401  0.51008  1.0000
  O  Te41      1.0  0.53180  0.19341  0.62571  1.0000
  O  Te42      1.0  0.70189  0.22711  0.46920  1.0000
  O  Te43      1.0  0.64244  0.09654  0.36672  1.0000
  O  Te44      1.0  0.47232  0.06286  0.52324  1.0000
  Mg  Mg21      1.0  0.72061  0.17142  0.37331  1.0000
  Mg  Mg22      1.0  0.45354  0.11849  0.61901  1.0000
  C  Sn45      1.0  0.84416  0.38230  0.51346  1.0000
  C   C47       1.0  0.80649  0.40194  0.53922  1.0000
  C  Sn46      1.0  0.82029  0.46004  0.52908  1.0000
  C  Sn47      1.0  0.87282  0.49933  0.49230  1.0000
  C   C48       1.0  0.91045  0.47968  0.46653  1.0000
  C  Sn48      1.0  0.89669  0.42158  0.47668  1.0000
  O  Te45      1.0  0.82948  0.32402  0.52419  1.0000
  O  Te46      1.0  0.78195  0.47867  0.55538  1.0000
  O  Te47      1.0  0.88748  0.55764  0.48158  1.0000
  O  Te48      1.0  0.93498  0.40294  0.45036  1.0000
  Mg  Mg23      1.0  0.82117  0.56222  0.52730  1.0000
  Mg  Mg24      1.0  0.89579  0.31940  0.47831  1.0000
