data_image0
_chemical_formula_structural       C6N3C16N3O3C2H8C6N3C28N3O3C2H16C2Sn2C2HTe2HMgC2Sn2C2HTe2HMgC2Sn2C2HTe2HMgC2Sn2C2HTe2HMgC2Sn2C2HTe2HMgC2Sn2C2HTe2HMg
_chemical_formula_sum              "C84 N12 O6 H36 Sn12 Te12 Mg6"
_cell_length_a       26.0962
_cell_length_b       26.2396
_cell_length_c       8.12484
_cell_angle_alpha    92.76
_cell_angle_beta     116.181
_cell_angle_gamma    119.938

_symmetry_space_group_name_H-M    'P1'
_space_group_IT_number       1

loop_
  _space_group_symop_operation_xyz
  'x, y, z'

loop_
  _atom_site_type_symbol
  _atom_site_label
  _atom_site_symmetry_multiplicity
  _atom_site_fract_x
  _atom_site_fract_y
  _atom_site_fract_z
  _atom_site_occupancy
  C   C1        1.0  0.35031  0.62436  0.00553  1.0000
  C   C2        1.0  0.37670  0.72883  0.00339  1.0000
  C   C3        1.0  0.27387  0.65228  0.01502  1.0000
  C   C4        1.0  0.36552  0.58259  0.99185  1.0000
  C   C5        1.0  0.41377  0.78491  0.98657  1.0000
  C   C6        1.0  0.21741  0.63553  0.02576  1.0000
  N   N1        1.0  0.37813  0.54633  0.96739  1.0000
  N   N2        1.0  0.44328  0.83306  0.96397  1.0000
  N   N3        1.0  0.16843  0.61896  0.03798  1.0000
  C   C7        1.0  0.47225  0.89359  0.96879  1.0000
  C   C8        1.0  0.10746  0.58658  0.03500  1.0000
  C   C9        1.0  0.56205  0.99009  0.97771  1.0000
  C   C10       1.0  0.00451  0.57441  0.99574  1.0000
  C   C11       1.0  0.52937  0.01924  0.98303  1.0000
  C   C12       1.0  0.97981  0.51520  0.01742  1.0000
  C   C13       1.0  0.46681  0.98262  0.98064  1.0000
  C   C14       1.0  0.02243  0.49381  0.05276  1.0000
  C   C15       1.0  0.43800  0.92097  0.97299  1.0000
  C   C16       1.0  0.08535  0.52833  0.06199  1.0000
  C   C17       1.0  0.62942  0.35625  0.99743  1.0000
  C   C18       1.0  0.63854  0.27423  0.99229  1.0000
  C   C19       1.0  0.71939  0.36505  0.98770  1.0000
  C   C20       1.0  0.39808  0.68652  0.00638  1.0000
  C   C21       1.0  0.31529  0.71461  0.00783  1.0000
  C   C22       1.0  0.28734  0.60425  0.00859  1.0000
  N   N4        1.0  0.60304  0.29721  0.99885  1.0000
  N   N5        1.0  0.69647  0.30597  0.98474  1.0000
  N   N6        1.0  0.68751  0.39211  0.99276  1.0000
  O   O1        1.0  0.45110  0.70130  0.00455  1.0000
  O   O2        1.0  0.29989  0.75262  0.00605  1.0000
  O   O3        1.0  0.24781  0.55060  0.00333  1.0000
  C   C23       1.0  0.53444  0.92830  0.97025  1.0000
  C   C24       1.0  0.06748  0.61028  0.00506  1.0000
  H   H1        1.0  0.60994  0.01574  0.97707  1.0000
  H   H2        1.0  0.97306  0.59244  0.96694  1.0000
  H   H3        1.0  0.43945  0.00253  0.98545  1.0000
  H   H4        1.0  0.00691  0.44958  0.07803  1.0000
  H   H5        1.0  0.38988  0.89334  0.97192  1.0000
  H   H6        1.0  0.11835  0.51187  0.09105  1.0000
  H   H7        1.0  0.56003  0.90647  0.96438  1.0000
  H   H8        1.0  0.08581  0.65560  0.98603  1.0000
  C   C25       1.0  0.35887  0.62700  0.51699  1.0000
  C   C26       1.0  0.38163  0.73003  0.50743  1.0000
  C   C27       1.0  0.27747  0.65061  0.50862  1.0000
  C   C28       1.0  0.38015  0.58902  0.53081  1.0000
  C   C29       1.0  0.41727  0.78613  0.48893  1.0000
  C   C30       1.0  0.22139  0.63294  0.52229  1.0000
  N   N7        1.0  0.40346  0.55906  0.56326  1.0000
  N   N8        1.0  0.44439  0.83343  0.45926  1.0000
  N   N9        1.0  0.17401  0.61586  0.54282  1.0000
  C   C31       1.0  0.47436  0.89454  0.46926  1.0000
  C   C32       1.0  0.11258  0.58369  0.53761  1.0000
  C   C33       1.0  0.56123  0.98905  0.46212  1.0000
  C   C34       1.0  0.00984  0.57294  0.49453  1.0000
  C   C35       1.0  0.53212  0.02014  0.48355  1.0000
  C   C36       1.0  0.98486  0.51410  0.51861  1.0000
  C   C37       1.0  0.47316  0.98573  0.49901  1.0000
  C   C38       1.0  0.02710  0.49217  0.55778  1.0000
  C   C39       1.0  0.44401  0.92401  0.49118  1.0000
  C   C40       1.0  0.09025  0.52593  0.56808  1.0000
  C   C41       1.0  0.52576  0.43805  0.49572  1.0000
  C   C42       1.0  0.56092  0.08520  0.48608  1.0000
  C   C43       1.0  0.49719  0.37461  0.47809  1.0000
  C   C44       1.0  0.62132  0.12088  0.47785  1.0000
  C   C45       1.0  0.53325  0.34896  0.48462  1.0000
  C   C46       1.0  0.64846  0.18220  0.48100  1.0000
  C   C47       1.0  0.59905  0.38564  0.50653  1.0000
  C   C48       1.0  0.61590  0.21055  0.49189  1.0000
  C   C49       1.0  0.62822  0.44889  0.52514  1.0000
  C   C50       1.0  0.55611  0.17583  0.50160  1.0000
  C   C51       1.0  0.59244  0.47452  0.52109  1.0000
  C   C52       1.0  0.52935  0.11470  0.49874  1.0000
  C   C53       1.0  0.63580  0.35799  0.50223  1.0000
  C   C54       1.0  0.64305  0.27496  0.49152  1.0000
  C   C55       1.0  0.72497  0.36582  0.49033  1.0000
  C   C56       1.0  0.40589  0.68966  0.51872  1.0000
  C   C57       1.0  0.31838  0.71353  0.50476  1.0000
  C   C58       1.0  0.29272  0.60379  0.50488  1.0000
  N   N10       1.0  0.60802  0.29840  0.49852  1.0000
  N   N11       1.0  0.70118  0.30645  0.48483  1.0000
  N   N12       1.0  0.69436  0.39380  0.49981  1.0000
  O   O4        1.0  0.46046  0.70619  0.52383  1.0000
  O   O5        1.0  0.30105  0.75021  0.49986  1.0000
  O   O6        1.0  0.25367  0.54963  0.49717  1.0000
  C   C59       1.0  0.53325  0.92727  0.45450  1.0000
  C   C60       1.0  0.07293  0.60788  0.50423  1.0000
  H   H9        1.0  0.60615  0.01298  0.44724  1.0000
  H   H10       1.0  0.97841  0.59109  0.46330  1.0000
  H   H11       1.0  0.44941  0.00757  0.51997  1.0000
  H   H12       1.0  0.01100  0.44829  0.58577  1.0000
  H   H13       1.0  0.39855  0.89784  0.50315  1.0000
  H   H14       1.0  0.12325  0.50936  0.60104  1.0000
  H   H15       1.0  0.44593  0.34472  0.45844  1.0000
  H   H16       1.0  0.64761  0.10045  0.46716  1.0000
  H   H17       1.0  0.51101  0.30004  0.47082  1.0000
  H   H18       1.0  0.69470  0.20880  0.47278  1.0000
  H   H19       1.0  0.67914  0.47698  0.54186  1.0000
  H   H20       1.0  0.53169  0.19818  0.51348  1.0000
  H   H21       1.0  0.61704  0.52398  0.54043  1.0000
  H   H22       1.0  0.48358  0.09017  0.50941  1.0000
  H   H23       1.0  0.55577  0.90382  0.43501  1.0000
  H   H24       1.0  0.09178  0.65282  0.48264  1.0000
  C   C61       1.0  0.86508  0.50251  0.03016  1.0000
  C   C62       1.0  0.90694  0.48525  0.02257  1.0000
  C  Sn1       1.0  0.07673  0.53334  0.98441  1.0000
  C  Sn2       1.0  0.01046  0.48732  0.95328  1.0000
  C   C63       1.0  0.96895  0.50506  0.96104  1.0000
  C   C64       1.0  0.99259  0.56779  0.99939  1.0000
  H   H25       1.0  0.88334  0.55104  0.05973  1.0000
  O  Te1       1.0  0.11923  0.51691  0.97742  1.0000
  O  Te2       1.0  0.98609  0.42447  0.91479  1.0000
  H   H26       1.0  0.76725  0.47048  0.00513  1.0000
  Mg  Mg1       1.0  0.06305  0.42522  0.92007  1.0000
  C   C65       1.0  0.63112  0.13500  0.97483  1.0000
  C   C66       1.0  0.07731  0.09400  0.99452  1.0000
  C  Sn3       1.0  0.84323  0.00063  0.00724  1.0000
  C  Sn4       1.0  0.35631  0.06010  0.00001  1.0000
  C   C67       1.0  0.60493  0.21142  0.98015  1.0000
  C   C68       1.0  0.64583  0.19366  0.96761  1.0000
  H   H27       1.0  0.66275  0.12125  0.96502  1.0000
  O  Te3       1.0  0.78787  0.95910  0.02694  1.0000
  O  Te4       1.0  0.31596  0.07856  0.01233  1.0000
  H   H28       1.0  0.68886  0.22540  0.95224  1.0000
  Mg  Mg2       1.0  0.24615  0.00561  0.03805  1.0000
  C   C69       1.0  0.83823  0.48356  0.53590  1.0000
  C   C70       1.0  0.79365  0.41855  0.48195  1.0000
  C  Sn5       1.0  0.81324  0.38082  0.44390  1.0000
  C  Sn6       1.0  0.87872  0.40884  0.46033  1.0000
  C   C71       1.0  0.92296  0.47393  0.51453  1.0000
  C   C72       1.0  0.90283  0.51124  0.55221  1.0000
  H   H29       1.0  0.82268  0.51243  0.56516  1.0000
  O  Te5       1.0  0.76807  0.31594  0.39009  1.0000
  O  Te6       1.0  0.89961  0.37225  0.42320  1.0000
  H   H30       1.0  0.93737  0.56158  0.59410  1.0000
  Mg  Mg3       1.0  0.81991  0.28591  0.35446  1.0000
  C   C73       1.0  0.51589  0.54434  0.03271  1.0000
  C   C74       1.0  0.49718  0.48418  0.03094  1.0000
  C  Sn7       1.0  0.62451  0.54972  0.99893  1.0000
  C  Sn8       1.0  0.57691  0.56526  0.96810  1.0000
  C   C75       1.0  0.59611  0.62556  0.97001  1.0000
  C   C76       1.0  0.46896  0.55970  0.00224  1.0000
  H   H31       1.0  0.56674  0.57898  0.05754  1.0000
  O  Te7       1.0  0.60667  0.48984  0.99770  1.0000
  O  Te8       1.0  0.51104  0.52107  0.93569  1.0000
  H   H32       1.0  0.48342  0.60626  0.00347  1.0000
  Mg  Mg4       1.0  0.51086  0.44578  0.94745  1.0000
  C   C77       1.0  0.59256  0.46958  0.97547  1.0000
  C   C78       1.0  0.53370  0.44470  0.98902  1.0000
  C  Sn9       1.0  0.31258  0.27722  0.02179  1.0000
  C  Sn10      1.0  0.34398  0.24482  0.04136  1.0000
  C   C79       1.0  0.40289  0.27013  0.02771  1.0000
  C   C80       1.0  0.62359  0.43767  0.99483  1.0000
  H   H33       1.0  0.61411  0.51362  0.95014  1.0000
  O  Te9       1.0  0.25374  0.25302  0.03486  1.0000
  O  Te10      1.0  0.31686  0.18796  0.07425  1.0000
  H   H34       1.0  0.66919  0.45694  0.98448  1.0000
  Mg  Mg5       1.0  0.23599  0.17399  0.08087  1.0000
  C   C81       1.0  0.50638  0.53697  0.45879  1.0000
  C   C82       1.0  0.49722  0.48249  0.49556  1.0000
  C  Sn11      1.0  0.44833  0.44702  0.54458  1.0000
  C  Sn12      1.0  0.40790  0.46655  0.55686  1.0000
  C   C83       1.0  0.41742  0.52110  0.51967  1.0000
  C   C84       1.0  0.46651  0.55626  0.47079  1.0000
  H   H35       1.0  0.54433  0.56415  0.42087  1.0000
  O  Te11      1.0  0.43987  0.39273  0.58093  1.0000
  O  Te12      1.0  0.35865  0.43197  0.60549  1.0000
  H   H36       1.0  0.47355  0.59841  0.44220  1.0000
  Mg  Mg6       1.0  0.36618  0.36139  0.64199  1.0000
