data_image0
_chemical_formula_structural       C6N3C6N3O3C6N3C6N3O3C2Sn2C2HTe2HMgC2Sn2C2HTe2HMgC2Sn2C2HTe2HMgC2Sn2C2HTe2HMgC2Sn2C2HTe2HMgC2Sn2C2HTe2HMgC2Sn2C2HTe2HMgC2Sn2C2HTe2HMgC2Sn2C2HTe2HMgC2Sn2C2HTe2HMgC2Sn2C2HTe2HMgC2Sn2C2HTe2HMg
_chemical_formula_sum              "C72 N12 O6 Sn24 H24 Te24 Mg12"
_cell_length_a       26.0962
_cell_length_b       26.2396
_cell_length_c       8.12484
_cell_angle_alpha    92.76
_cell_angle_beta     116.181
_cell_angle_gamma    119.938

_symmetry_space_group_name_H-M    'P1'
_space_group_IT_number       1

loop_
  _space_group_symop_operation_xyz
  'x, y, z'

loop_
  _atom_site_type_symbol
  _atom_site_label
  _atom_site_symmetry_multiplicity
  _atom_site_fract_x
  _atom_site_fract_y
  _atom_site_fract_z
  _atom_site_occupancy
  C   C1        1.0  0.35031  0.62436  0.00553  1.0000
  C   C2        1.0  0.37670  0.72883  0.00339  1.0000
  C   C3        1.0  0.27387  0.65228  0.01502  1.0000
  C   C4        1.0  0.36552  0.58259  0.99185  1.0000
  C   C5        1.0  0.41377  0.78491  0.98657  1.0000
  C   C6        1.0  0.21741  0.63553  0.02576  1.0000
  N   N1        1.0  0.37813  0.54633  0.96739  1.0000
  N   N2        1.0  0.44328  0.83306  0.96397  1.0000
  N   N3        1.0  0.16843  0.61896  0.03798  1.0000
  C   C7        1.0  0.62942  0.35625  0.99743  1.0000
  C   C8        1.0  0.63854  0.27423  0.99229  1.0000
  C   C9        1.0  0.71939  0.36505  0.98770  1.0000
  C   C10       1.0  0.39808  0.68652  0.00638  1.0000
  C   C11       1.0  0.31529  0.71461  0.00783  1.0000
  C   C12       1.0  0.28734  0.60425  0.00859  1.0000
  N   N4        1.0  0.60304  0.29721  0.99885  1.0000
  N   N5        1.0  0.69647  0.30597  0.98474  1.0000
  N   N6        1.0  0.68751  0.39211  0.99276  1.0000
  O   O1        1.0  0.45110  0.70130  0.00455  1.0000
  O   O2        1.0  0.29989  0.75262  0.00605  1.0000
  O   O3        1.0  0.24781  0.55060  0.00333  1.0000
  C   C13       1.0  0.35887  0.62700  0.51699  1.0000
  C   C14       1.0  0.38163  0.73003  0.50743  1.0000
  C   C15       1.0  0.27747  0.65061  0.50862  1.0000
  C   C16       1.0  0.38015  0.58902  0.53081  1.0000
  C   C17       1.0  0.41727  0.78613  0.48893  1.0000
  C   C18       1.0  0.22139  0.63294  0.52229  1.0000
  N   N7        1.0  0.40346  0.55906  0.56326  1.0000
  N   N8        1.0  0.44439  0.83343  0.45926  1.0000
  N   N9        1.0  0.17401  0.61586  0.54282  1.0000
  C   C19       1.0  0.63580  0.35799  0.50223  1.0000
  C   C20       1.0  0.64305  0.27496  0.49152  1.0000
  C   C21       1.0  0.72497  0.36582  0.49033  1.0000
  C   C22       1.0  0.40589  0.68966  0.51872  1.0000
  C   C23       1.0  0.31838  0.71353  0.50476  1.0000
  C   C24       1.0  0.29272  0.60379  0.50488  1.0000
  N   N10       1.0  0.60802  0.29840  0.49852  1.0000
  N   N11       1.0  0.70118  0.30645  0.48483  1.0000
  N   N12       1.0  0.69436  0.39380  0.49981  1.0000
  O   O4        1.0  0.46046  0.70619  0.52383  1.0000
  O   O5        1.0  0.30105  0.75021  0.49986  1.0000
  O   O6        1.0  0.25367  0.54963  0.49717  1.0000
  C   C25       1.0  0.40382  0.42918  0.98087  1.0000
  C   C26       1.0  0.46823  0.45603  0.99705  1.0000
  C  Sn1       1.0  0.31584  0.40875  0.02116  1.0000
  C  Sn2       1.0  0.29128  0.44580  0.02923  1.0000
  C   C27       1.0  0.22680  0.41850  0.01304  1.0000
  C   C28       1.0  0.37957  0.46569  0.98889  1.0000
  H   H1        1.0  0.37279  0.38009  0.96229  1.0000
  O  Te1       1.0  0.38006  0.43483  0.03701  1.0000
  O  Te2       1.0  0.33072  0.50926  0.05330  1.0000
  H   H2        1.0  0.32972  0.44492  0.97649  1.0000
  Mg  Mg1       1.0  0.41482  0.52338  0.06800  1.0000
  C   C29       1.0  0.43780  0.93505  0.98032  1.0000
  C   C30       1.0  0.45938  0.89739  0.95829  1.0000
  C  Sn3       1.0  0.52055  0.92258  0.95665  1.0000
  C  Sn4       1.0  0.56077  0.98669  0.97752  1.0000
  C   C31       1.0  0.53877  0.02399  0.99961  1.0000
  C   C32       1.0  0.28457  0.88764  0.00099  1.0000
  H   H3        1.0  0.39039  0.91519  0.98149  1.0000
  O  Te3       1.0  0.54134  0.88428  0.93443  1.0000
  O  Te4       1.0  0.62214  0.01307  0.97646  1.0000
  H   H4        1.0  0.26790  0.91683  0.01817  1.0000
  Mg  Mg2       1.0  0.62884  0.94185  0.94205  1.0000
  C   C33       1.0  0.01839  0.58976  0.99855  1.0000
  C   C34       1.0  0.79087  0.41844  0.00322  1.0000
  C  Sn5       1.0  0.82258  0.38687  0.03719  1.0000
  C  Sn6       1.0  0.89024  0.41673  0.06703  1.0000
  C   C35       1.0  0.92447  0.47746  0.06221  1.0000
  C   C36       1.0  0.89224  0.50861  0.02805  1.0000
  H   H5        1.0  0.99348  0.61388  0.97223  1.0000
  O  Te5       1.0  0.78723  0.32626  0.04131  1.0000
  O  Te6       1.0  0.92316  0.38627  0.10134  1.0000
  H   H6        1.0  0.91909  0.55560  0.02457  1.0000
  Mg  Mg3       1.0  0.85379  0.30403  0.09331  1.0000
  C   C37       1.0  0.59256  0.46958  0.97547  1.0000
  C   C38       1.0  0.53370  0.44470  0.98902  1.0000
  C  Sn7       1.0  0.31258  0.27722  0.02179  1.0000
  C  Sn8       1.0  0.34398  0.24482  0.04136  1.0000
  C   C39       1.0  0.40289  0.27013  0.02771  1.0000
  C   C40       1.0  0.62359  0.43767  0.99483  1.0000
  H   H7        1.0  0.61411  0.51362  0.95014  1.0000
  O  Te7       1.0  0.25374  0.25302  0.03486  1.0000
  O  Te8       1.0  0.31686  0.18796  0.07425  1.0000
  H   H8        1.0  0.66919  0.45694  0.98448  1.0000
  Mg  Mg4       1.0  0.23599  0.17399  0.08087  1.0000
  C   C41       1.0  0.33191  0.01637  0.00369  1.0000
  C   C42       1.0  0.04868  0.08996  0.98006  1.0000
  C  Sn9       1.0  0.60636  0.11523  0.96949  1.0000
  C  Sn10      1.0  0.64434  0.17880  0.98293  1.0000
  C   C43       1.0  0.42895  0.10484  0.00670  1.0000
  C   C44       1.0  0.36935  0.07907  0.01703  1.0000
  H   H9        1.0  0.78762  0.99644  0.01180  1.0000
  O  Te9       1.0  0.12948  0.07755  0.94579  1.0000
  O  Te10      1.0  0.70398  0.20525  0.97288  1.0000
  H   H10       1.0  0.35230  0.10778  0.03546  1.0000
  Mg  Mg5       1.0  0.71224  0.13496  0.93993  1.0000
  C   C45       1.0  0.83296  0.48355  0.03640  1.0000
  C   C46       1.0  0.98139  0.52914  0.98155  1.0000
  C  Sn11      1.0  0.00132  0.49169  0.94384  1.0000
  C  Sn12      1.0  0.06703  0.52004  0.96154  1.0000
  C   C47       1.0  0.91826  0.47453  0.01664  1.0000
  C   C48       1.0  0.89779  0.51156  0.05396  1.0000
  H   H11       1.0  0.81714  0.51221  0.06539  1.0000
  O  Te11      1.0  0.95625  0.42675  0.88912  1.0000
  O  Te12      1.0  0.08826  0.48372  0.92479  1.0000
  H   H12       1.0  0.93225  0.56194  0.09655  1.0000
  Mg  Mg6       1.0  0.00859  0.39718  0.85446  1.0000
  C   C49       1.0  0.50638  0.53697  0.45879  1.0000
  C   C50       1.0  0.49722  0.48249  0.49556  1.0000
  C  Sn13      1.0  0.44833  0.44702  0.54458  1.0000
  C  Sn14      1.0  0.40790  0.46655  0.55686  1.0000
  C   C51       1.0  0.41742  0.52110  0.51967  1.0000
  C   C52       1.0  0.46651  0.55626  0.47079  1.0000
  H   H13       1.0  0.54433  0.56415  0.42087  1.0000
  O  Te13      1.0  0.43987  0.39273  0.58093  1.0000
  O  Te14      1.0  0.35865  0.43197  0.60549  1.0000
  H   H14       1.0  0.47355  0.59841  0.44220  1.0000
  Mg  Mg7       1.0  0.36618  0.36139  0.64199  1.0000
  C   C53       1.0  0.54563  0.94113  0.44768  1.0000
  C   C54       1.0  0.49183  0.90191  0.47627  1.0000
  C  Sn15      1.0  0.45443  0.92180  0.50250  1.0000
  C  Sn16      1.0  0.47131  0.98209  0.49994  1.0000
  C   C55       1.0  0.52519  0.02096  0.47110  1.0000
  C   C56       1.0  0.56230  0.00060  0.44506  1.0000
  H   H15       1.0  0.57432  0.92536  0.42742  1.0000
  O  Te15      1.0  0.40085  0.88203  0.53095  1.0000
  O  Te16      1.0  0.43475  0.00314  0.52571  1.0000
  H   H16       1.0  0.60392  0.03096  0.42280  1.0000
  Mg  Mg8       1.0  0.36612  0.93186  0.55948  1.0000
  C   C57       1.0  0.07823  0.51240  0.57677  1.0000
  C   C58       1.0  0.10748  0.56771  0.53676  1.0000
  C  Sn17      1.0  0.07527  0.59888  0.49483  1.0000
  C  Sn18      1.0  0.01263  0.57412  0.49309  1.0000
  C   C59       1.0  0.98381  0.51879  0.53345  1.0000
  C   C60       1.0  0.01646  0.48797  0.57516  1.0000
  H   H17       1.0  0.10351  0.48857  0.60915  1.0000
  O  Te17      1.0  0.10518  0.65407  0.45511  1.0000
  O  Te18      1.0  0.97936  0.60434  0.45171  1.0000
  H   H18       1.0  0.99383  0.44517  0.60626  1.0000
  Mg  Mg9       1.0  0.04034  0.67816  0.40685  1.0000
  C   C61       1.0  0.49698  0.36028  0.47124  1.0000
  C   C62       1.0  0.51874  0.42235  0.49979  1.0000
  C  Sn19      1.0  0.58312  0.46770  0.52564  1.0000
  C  Sn20      1.0  0.62640  0.45046  0.52272  1.0000
  C   C63       1.0  0.60413  0.38823  0.49392  1.0000
  C   C64       1.0  0.53962  0.34322  0.46827  1.0000
  H   H19       1.0  0.44705  0.32545  0.45128  1.0000
  O  Te19      1.0  0.60408  0.52951  0.55406  1.0000
  O  Te20      1.0  0.69098  0.49484  0.54811  1.0000
  H   H20       1.0  0.52276  0.29516  0.44605  1.0000
  Mg  Mg10      1.0  0.69659  0.57306  0.58199  1.0000
  C   C65       1.0  0.54151  0.16078  0.49775  1.0000
  C   C66       1.0  0.60263  0.20405  0.50381  1.0000
  C  Sn21      1.0  0.64349  0.18618  0.49189  1.0000
  C  Sn22      1.0  0.62264  0.12380  0.47352  1.0000
  C   C67       1.0  0.56138  0.08086  0.46746  1.0000
  C   C68       1.0  0.52089  0.09924  0.47956  1.0000
  H   H21       1.0  0.51016  0.17499  0.50701  1.0000
  O  Te21      1.0  0.70441  0.23001  0.49824  1.0000
  O  Te22      1.0  0.66249  0.10469  0.46125  1.0000
  H   H22       1.0  0.47356  0.06572  0.47474  1.0000
  Mg  Mg11      1.0  0.74124  0.18152  0.47640  1.0000
  C   C69       1.0  0.83286  0.37565  0.44753  1.0000
  C   C70       1.0  0.79814  0.39515  0.49252  1.0000
  C  Sn23      1.0  0.82235  0.45802  0.53553  1.0000
  C  Sn24      1.0  0.88244  0.50207  0.53329  1.0000
  C   C71       1.0  0.91677  0.48209  0.48797  1.0000
  C   C72       1.0  0.89211  0.41907  0.44522  1.0000
  H   H23       1.0  0.81376  0.32689  0.41434  1.0000
  O  Te23      1.0  0.78706  0.47670  0.58024  1.0000
  O  Te24      1.0  0.90774  0.56519  0.57565  1.0000
  H   H24       1.0  0.91897  0.40398  0.41027  1.0000
  Mg  Mg12      1.0  0.84169  0.56786  0.62792  1.0000
