data_image0
_chemical_formula_structural       H8C12N8H8C12N8C2Sn2C2HTe2HMgC2Sn2C2HTe2HMgC2Sn2C2HTe2HMgC2Sn2C2HTe2HMgC2Sn2C2HTe2HMgC2Sn2C2HTe2HMgC2Sn2C2HTe2HMgC2Sn2C2HTe2HMgC2Sn2C2HTe2HMgC2Sn2C2HTe2HMgC2Sn2C2HTe2HMgC2Sn2C2HTe2HMgC2Sn2C2HTe2HMgC2Sn2C2HTe2HMgC2Sn2C2HTe2HMgC2Sn2C2HTe2HMgC2Sn2C2HTe2HMgC2Sn2C2HTe2HMg
_chemical_formula_sum              "H52 C96 N16 Sn36 Te36 Mg18"
_cell_length_a       32.2917
_cell_length_b       19.0936
_cell_length_c       8.39937
_cell_angle_alpha    93.4754
_cell_angle_beta     90.8801
_cell_angle_gamma    126.046

_symmetry_space_group_name_H-M    'P1'
_space_group_IT_number       1

loop_
  _space_group_symop_operation_xyz
  'x, y, z'

loop_
  _atom_site_type_symbol
  _atom_site_label
  _atom_site_symmetry_multiplicity
  _atom_site_fract_x
  _atom_site_fract_y
  _atom_site_fract_z
  _atom_site_occupancy
  H   H1        1.0  0.19531  0.58877  0.16318  1.0000
  H   H2        1.0  0.29674  0.10361  0.25351  1.0000
  H   H3        1.0  0.46326  0.36009  0.48751  1.0000
  H   H4        1.0  0.36659  0.40096  0.45049  1.0000
  H   H5        1.0  0.80186  0.50326  0.53362  1.0000
  H   H6        1.0  0.36662  0.04662  0.47269  1.0000
  H   H7        1.0  0.56164  0.85460  0.72802  1.0000
  H   H8        1.0  0.94474  0.94622  0.54486  1.0000
  C   C1        1.0  0.21427  0.58146  0.77776  1.0000
  C   C2        1.0  0.33905  0.23387  0.83174  1.0000
  C   C3        1.0  0.33300  0.15492  0.80581  1.0000
  C   C4        1.0  0.37009  0.14390  0.85798  1.0000
  C   C5        1.0  0.41836  0.21717  0.92684  1.0000
  C   C6        1.0  0.42602  0.29733  0.93964  1.0000
  C   C7        1.0  0.38749  0.30733  0.89923  1.0000
  C   C8        1.0  0.39850  0.39253  0.94035  1.0000
  C   C9        1.0  0.78250  0.49990  0.13461  1.0000
  C   C10       1.0  0.35467  0.05504  0.86326  1.0000
  C   C11       1.0  0.53223  0.85567  0.18523  1.0000
  C   C12       1.0  0.98294  0.94957  0.08122  1.0000
  N   N1        1.0  0.16664  0.24746  0.87190  1.0000
  N   N2        1.0  0.57791  0.19242  0.15788  1.0000
  N   N3        1.0  0.25303  0.65119  0.85527  1.0000
  N   N4        1.0  0.44503  0.46045  0.97646  1.0000
  N   N5        1.0  0.80022  0.56794  0.23246  1.0000
  N   N6        1.0  0.32334  0.99280  0.75594  1.0000
  N   N7        1.0  0.48624  0.78508  0.15660  1.0000
  N   N8        1.0  0.98470  0.89013  0.13938  1.0000
  H   H9        1.0  0.19119  0.58205  0.68073  1.0000
  H   H10       1.0  0.29676  0.09736  0.75336  1.0000
  H   H11       1.0  0.46249  0.35592  0.98815  1.0000
  H   H12       1.0  0.36592  0.39636  0.93987  1.0000
  H   H13       1.0  0.80308  0.50017  0.03114  1.0000
  H   H14       1.0  0.36864  0.04322  0.97110  1.0000
  H   H15       1.0  0.56577  0.85446  0.20004  1.0000
  H   H16       1.0  0.94622  0.93802  0.04685  1.0000
  C   C13       1.0  0.21512  0.58672  0.26864  1.0000
  C   C14       1.0  0.33963  0.24011  0.33276  1.0000
  C   C15       1.0  0.33304  0.16077  0.30638  1.0000
  C   C16       1.0  0.36960  0.14862  0.35856  1.0000
  C   C17       1.0  0.41824  0.22127  0.42625  1.0000
  C   C18       1.0  0.42651  0.30194  0.43956  1.0000
  C   C19       1.0  0.38828  0.31292  0.40072  1.0000
  C   C20       1.0  0.39935  0.39777  0.44603  1.0000
  C   C21       1.0  0.78108  0.50275  0.63669  1.0000
  C   C22       1.0  0.35315  0.05925  0.36478  1.0000
  C   C23       1.0  0.52865  0.85668  0.70639  1.0000
  C   C24       1.0  0.98096  0.95455  0.57182  1.0000
  N   N9        1.0  0.16739  0.25403  0.37458  1.0000
  N   N10       1.0  0.57680  0.19331  0.65581  1.0000
  N   N11       1.0  0.25175  0.65572  0.35365  1.0000
  N   N12       1.0  0.44581  0.46619  0.48094  1.0000
  N   N13       1.0  0.79849  0.57114  0.73365  1.0000
  N   N14       1.0  0.32120  0.99727  0.25809  1.0000
  N   N15       1.0  0.48305  0.78677  0.66868  1.0000
  N   N16       1.0  0.98161  0.89301  0.62504  1.0000
  C   C25       1.0  0.23290  0.15270  0.87092  1.0000
  C   C26       1.0  0.28076  0.21290  0.81238  1.0000
  C  Sn1       1.0  0.29225  0.29015  0.75935  1.0000
  C  Sn2       1.0  0.25506  0.30727  0.76523  1.0000
  C   C27       1.0  0.20731  0.24665  0.82410  1.0000
  C   C28       1.0  0.19620  0.16955  0.87681  1.0000
  H   H17       1.0  0.22431  0.09306  0.91178  1.0000
  O  Te1       1.0  0.34025  0.34958  0.70117  1.0000
  O  Te2       1.0  0.26555  0.38397  0.71305  1.0000
  H   H18       1.0  0.15915  0.12297  0.92222  1.0000
  Mg  Mg1       1.0  0.33643  0.44482  0.64379  1.0000
  C   C29       1.0  0.14887  0.39704  0.71643  1.0000
  C   C30       1.0  0.18622  0.47692  0.80002  1.0000
  C  Sn3       1.0  0.22192  0.48383  0.90855  1.0000
  C  Sn4       1.0  0.22012  0.40928  0.93359  1.0000
  C   C31       1.0  0.18264  0.32967  0.84930  1.0000
  C   C32       1.0  0.14708  0.32348  0.74101  1.0000
  H   H19       1.0  0.12138  0.39225  0.63258  1.0000
  O  Te3       1.0  0.25896  0.56413  0.99110  1.0000
  O  Te4       1.0  0.23505  0.36749  0.04132  1.0000
  H   H20       1.0  0.11820  0.26164  0.67624  1.0000
  Mg  Mg2       1.0  0.27829  0.49133  0.12536  1.0000
  C   C33       1.0  0.09234  0.07245  0.10474  1.0000
  C   C34       1.0  0.04117  0.03963  0.06985  1.0000
  C  Sn5       1.0  0.04928  0.12597  0.96277  1.0000
  C  Sn6       1.0  0.08914  0.19963  0.88942  1.0000
  C   C35       1.0  0.14020  0.23193  0.92504  1.0000
  C   C36       1.0  0.13167  0.14509  0.03240  1.0000
  H   H21       1.0  0.10145  0.04150  0.18773  1.0000
  O  Te5       1.0  0.99796  0.09236  0.92930  1.0000
  O  Te6       1.0  0.07803  0.24031  0.78192  1.0000
  H   H22       1.0  0.17129  0.17048  0.05931  1.0000
  Mg  Mg3       1.0  0.00220  0.17041  0.77480  1.0000
  C   C37       1.0  0.52902  0.27767  0.16225  1.0000
  C   C38       1.0  0.53885  0.21719  0.11842  1.0000
  C  Sn7       1.0  0.53008  0.20037  0.99230  1.0000
  C  Sn8       1.0  0.49046  0.19735  0.90872  1.0000
  C   C39       1.0  0.48096  0.25819  0.95342  1.0000
  C   C40       1.0  0.48997  0.27476  0.07983  1.0000
  H   H23       1.0  0.55172  0.32679  0.25999  1.0000
  O  Te7       1.0  0.54039  0.14043  0.95011  1.0000
  O  Te8       1.0  0.46083  0.13440  0.78218  1.0000
  H   H24       1.0  0.48238  0.32161  0.11367  1.0000
  Mg  Mg4       1.0  0.48952  0.06693  0.76942  1.0000
  C   C41       1.0  0.49909  0.96571  0.17016  1.0000
  C   C42       1.0  0.53244  0.94196  0.18222  1.0000
  C  Sn9       1.0  0.58540  0.00573  0.20291  1.0000
  C  Sn10      1.0  0.25729  0.09486  0.21171  1.0000
  C   C43       1.0  0.22360  0.11795  0.19963  1.0000
  C   C44       1.0  0.17067  0.05361  0.17889  1.0000
  H   H25       1.0  0.45813  0.91594  0.15420  1.0000
  O  Te9       1.0  0.61819  0.98087  0.21468  1.0000
  O  Te10      1.0  0.31005  0.15993  0.23242  1.0000
  H   H26       1.0  0.14485  0.07202  0.16966  1.0000
  Mg  Mg5       1.0  0.33921  0.09345  0.24212  1.0000
  C   C45       1.0  0.67683  0.28028  0.03886  1.0000
  C   C46       1.0  0.63894  0.26490  0.14057  1.0000
  C  Sn11      1.0  0.64791  0.33131  0.24979  1.0000
  C  Sn12      1.0  0.69574  0.41461  0.25701  1.0000
  C   C47       1.0  0.73338  0.42936  0.15466  1.0000
  C   C48       1.0  0.72400  0.36243  0.04585  1.0000
  H   H27       1.0  0.68987  0.27538  0.95461  1.0000
  O  Te11      1.0  0.60964  0.31483  0.35059  1.0000
  O  Te12      1.0  0.70572  0.48216  0.36500  1.0000
  H   H28       1.0  0.77364  0.42124  0.96704  1.0000
  Mg  Mg6       1.0  0.64146  0.42778  0.47754  1.0000
  C   C49       1.0  0.42254  0.60499  0.16037  1.0000
  C   C50       1.0  0.46722  0.68706  0.13854  1.0000
  C  Sn13      1.0  0.50617  0.69479  0.05218  1.0000
  C  Sn14      1.0  0.52046  0.66570  0.98658  1.0000
  C   C51       1.0  0.45529  0.53702  0.00900  1.0000
  C   C52       1.0  0.41657  0.53004  0.09565  1.0000
  H   H29       1.0  0.39257  0.59958  0.22734  1.0000
  O  Te13      1.0  0.55056  0.77728  0.03154  1.0000
  O  Te14      1.0  0.55877  0.67155  0.89971  1.0000
  H   H30       1.0  0.38197  0.46649  0.11245  1.0000
  Mg  Mg7       1.0  0.61225  0.79851  0.90402  1.0000
  C   C53       1.0  0.33919  0.87378  0.88222  1.0000
  C   C54       1.0  0.31806  0.90587  0.79161  1.0000
  C  Sn15      1.0  0.26852  0.84936  0.71928  1.0000
  C  Sn16      1.0  0.23968  0.75907  0.73825  1.0000
  C   C55       1.0  0.26115  0.72761  0.82923  1.0000
  C   C56       1.0  0.31076  0.78473  0.90104  1.0000
  H   H31       1.0  0.37757  0.91797  0.93786  1.0000
  O  Te15      1.0  0.24800  0.88251  0.62911  1.0000
  O  Te16      1.0  0.19007  0.70114  0.66731  1.0000
  H   H32       1.0  0.32710  0.75987  0.97127  1.0000
  Mg  Mg8       1.0  0.17883  0.77761  0.55579  1.0000
  C   C57       1.0  0.90255  0.66615  0.12748  1.0000
  C   C58       1.0  0.85873  0.64568  0.20200  1.0000
  C  Sn17      1.0  0.85473  0.71164  0.25893  1.0000
  C  Sn18      1.0  0.89541  0.79967  0.24070  1.0000
  C   C59       1.0  0.93908  0.81947  0.16588  1.0000
  C   C60       1.0  0.94269  0.75296  0.10940  1.0000
  H   H33       1.0  0.90534  0.61469  0.08370  1.0000
  O  Te17      1.0  0.81069  0.69005  0.33314  1.0000
  O  Te18      1.0  0.89241  0.86688  0.29644  1.0000
  H   H34       1.0  0.97661  0.76882  0.05161  1.0000
  Mg  Mg9       1.0  0.82458  0.80463  0.38934  1.0000
  C   C61       1.0  0.20962  0.15746  0.36517  1.0000
  C   C62       1.0  0.20478  0.22387  0.33778  1.0000
  C  Sn19      1.0  0.24610  0.30204  0.28580  1.0000
  C  Sn20      1.0  0.29310  0.31373  0.26084  1.0000
  C   C63       1.0  0.29754  0.24687  0.28847  1.0000
  C   C64       1.0  0.25595  0.16893  0.34052  1.0000
  H   H35       1.0  0.17743  0.09713  0.40537  1.0000
  O  Te19      1.0  0.24062  0.36773  0.25906  1.0000
  O  Te20      1.0  0.33500  0.39119  0.20886  1.0000
  H   H36       1.0  0.25969  0.11749  0.36162  1.0000
  Mg  Mg10      1.0  0.30870  0.46155  0.18886  1.0000
  C   C65       1.0  0.14360  0.35671  0.21858  1.0000
  C   C66       1.0  0.17027  0.33629  0.31439  1.0000
  C  Sn21      1.0  0.21163  0.40076  0.41768  1.0000
  C  Sn22      1.0  0.22648  0.48719  0.42496  1.0000
  C   C67       1.0  0.19953  0.50694  0.32871  1.0000
  C   C68       1.0  0.15820  0.44194  0.22574  1.0000
  H   H37       1.0  0.11160  0.30641  0.13897  1.0000
  O  Te21      1.0  0.23787  0.37925  0.51252  1.0000
  O  Te22      1.0  0.26767  0.55287  0.52718  1.0000
  H   H38       1.0  0.13754  0.45776  0.15165  1.0000
  Mg  Mg11      1.0  0.29144  0.49140  0.63282  1.0000
  C   C69       1.0  0.03430  0.11672  0.42711  1.0000
  C   C70       1.0  0.02711  0.05155  0.51712  1.0000
  C  Sn23      1.0  0.06938  0.05789  0.58228  1.0000
  C  Sn24      1.0  0.11974  0.13090  0.55670  1.0000
  C   C71       1.0  0.12653  0.19578  0.46657  1.0000
  C   C72       1.0  0.08396  0.18877  0.40187  1.0000
  H   H39       1.0  0.00137  0.11133  0.37712  1.0000
  O  Te23      1.0  0.40944  0.99218  0.67186  1.0000
  O  Te24      1.0  0.16266  0.13889  0.62050  1.0000
  H   H40       1.0  0.08954  0.23927  0.33228  1.0000
  Mg  Mg12      1.0  0.48012  0.03243  0.73409  1.0000
  C   C73       1.0  0.49166  0.13618  0.44223  1.0000
  C   C74       1.0  0.53163  0.18977  0.55852  1.0000
  C  Sn25      1.0  0.53455  0.25736  0.64585  1.0000
  C  Sn26      1.0  0.49668  0.27136  0.61596  1.0000
  C   C75       1.0  0.45683  0.21734  0.49945  1.0000
  C   C76       1.0  0.45428  0.14992  0.41272  1.0000
  H   H41       1.0  0.48967  0.08398  0.37519  1.0000
  O  Te25      1.0  0.57475  0.31032  0.76156  1.0000
  O  Te26      1.0  0.49866  0.33841  0.70154  1.0000
  H   H42       1.0  0.42331  0.10840  0.32276  1.0000
  Mg  Mg13      1.0  0.56090  0.39319  0.84695  1.0000
  C   C77       1.0  0.60728  0.08652  0.73377  1.0000
  C   C78       1.0  0.57539  0.10930  0.68500  1.0000
  C  Sn27      1.0  0.52254  0.04580  0.65875  1.0000
  C  Sn28      1.0  0.84926  0.95793  0.68189  1.0000
  C   C79       1.0  0.88149  0.93582  0.73081  1.0000
  C   C80       1.0  0.93432  0.99987  0.75668  1.0000
  H   H43       1.0  0.64815  0.13608  0.75388  1.0000
  O  Te27      1.0  0.49124  0.06968  0.60999  1.0000
  O  Te28      1.0  0.79657  0.89317  0.65657  1.0000
  H   H44       1.0  0.95900  0.98223  0.79454  1.0000
  Mg  Mg14      1.0  0.76971  0.95797  0.59077  1.0000
  C   C81       1.0  0.70475  0.32071  0.54780  1.0000
  C   C82       1.0  0.72778  0.40299  0.62764  1.0000
  C  Sn29      1.0  0.70107  0.41704  0.73866  1.0000
  C  Sn30      1.0  0.65038  0.34730  0.77011  1.0000
  C   C83       1.0  0.62770  0.26521  0.68968  1.0000
  C   C84       1.0  0.65477  0.25188  0.57879  1.0000
  H   H45       1.0  0.72570  0.31038  0.46206  1.0000
  O  Te29      1.0  0.72465  0.49967  0.81733  1.0000
  O  Te30      1.0  0.62283  0.35953  0.88053  1.0000
  H   H46       1.0  0.63694  0.18815  0.51706  1.0000
  Mg  Mg15      1.0  0.67145  0.48399  0.95733  1.0000
  C   C85       1.0  0.51489  0.68959  0.52286  1.0000
  C   C86       1.0  0.48426  0.70853  0.60108  1.0000
  C  Sn31      1.0  0.43795  0.64206  0.65950  1.0000
  C  Sn32      1.0  0.42213  0.55507  0.63910  1.0000
  C   C87       1.0  0.45307  0.53680  0.56079  1.0000
  C   C88       1.0  0.49932  0.60381  0.50275  1.0000
  H   H47       1.0  0.55069  0.74144  0.47803  1.0000
  O  Te31      1.0  0.40781  0.66212  0.73730  1.0000
  O  Te32      1.0  0.37605  0.48738  0.69637  1.0000
  H   H48       1.0  0.52304  0.58913  0.44229  1.0000
  Mg  Mg16      1.0  0.34820  0.54744  0.79425  1.0000
  C   C89       1.0  0.32884  0.83209  0.38346  1.0000
  C   C90       1.0  0.27946  0.75618  0.34560  1.0000
  C  Sn33      1.0  0.24287  0.75937  0.26251  1.0000
  C  Sn34      1.0  0.25607  0.84016  0.21660  1.0000
  C   C91       1.0  0.30558  0.91573  0.25494  1.0000
  C   C92       1.0  0.34189  0.91179  0.33817  1.0000
  H   H49       1.0  0.35695  0.82905  0.44778  1.0000
  O  Te33      1.0  0.19371  0.68291  0.22570  1.0000
  O  Te34      1.0  0.22024  0.84520  0.13341  1.0000
  H   H50       1.0  0.38013  0.97057  0.36737  1.0000
  Mg  Mg17      1.0  0.15824  0.72312  0.11078  1.0000
  C   C93       1.0  0.88342  0.79490  0.75592  1.0000
  C   C94       1.0  0.92812  0.81529  0.68778  1.0000
  C  Sn35      1.0  0.93116  0.74913  0.62485  1.0000
  C  Sn36      1.0  0.88861  0.66097  0.63037  1.0000
  C   C95       1.0  0.84406  0.64124  0.69870  1.0000
  C   C96       1.0  0.84143  0.70796  0.76137  1.0000
  H   H51       1.0  0.88137  0.84651  0.80433  1.0000
  O  Te35      1.0  0.97611  0.77065  0.55724  1.0000
  O  Te36      1.0  0.89061  0.59356  0.56830  1.0000
  H   H52       1.0  0.80681  0.69214  0.81403  1.0000
  Mg  Mg18      1.0  0.96029  0.65579  0.48846  1.0000
