data_image0
_chemical_formula_structural       H20C48N8H32C30N8SnCSn2CSnTe4Mg2SnCSn2CSnTe4Mg2SnCSn2CSnTe4Mg2SnCSn2CSnTe4Mg2SnCSn2CSnTe4Mg2SnCSn2CSnTe4Mg2SnCSn2CSnTe4Mg2SnCSn2CSnTe4Mg2SnCSn2CSnTe4Mg2
_chemical_formula_sum              "H52 C96 N16 Sn36 Te36 Mg18"
_cell_length_a       32.2917
_cell_length_b       19.0936
_cell_length_c       8.39937
_cell_angle_alpha    93.4754
_cell_angle_beta     90.8801
_cell_angle_gamma    126.046

_symmetry_space_group_name_H-M    'P1'
_space_group_IT_number       1

loop_
  _space_group_symop_operation_xyz
  'x, y, z'

loop_
  _atom_site_type_symbol
  _atom_site_label
  _atom_site_symmetry_multiplicity
  _atom_site_fract_x
  _atom_site_fract_y
  _atom_site_fract_z
  _atom_site_occupancy
  H   H1        1.0  0.16814  0.11076  0.39016  1.0000
  H   H2        1.0  0.24223  0.11015  0.38194  1.0000
  H   H3        1.0  0.32924  0.36441  0.21327  1.0000
  H   H4        1.0  0.25694  0.37128  0.24567  1.0000
  H   H5        1.0  0.19531  0.58877  0.16318  1.0000
  H   H6        1.0  0.29674  0.10361  0.25351  1.0000
  H   H7        1.0  0.46326  0.36009  0.48751  1.0000
  H   H8        1.0  0.44004  0.10851  0.31030  1.0000
  H   H9        1.0  0.50770  0.09801  0.41007  1.0000
  H   H10       1.0  0.55948  0.31184  0.76065  1.0000
  H   H11       1.0  0.49223  0.32156  0.66369  1.0000
  H   H12       1.0  0.65142  0.21171  0.48549  1.0000
  H   H13       1.0  0.74036  0.34459  0.47875  1.0000
  H   H14       1.0  0.70859  0.47804  0.82918  1.0000
  H   H15       1.0  0.62172  0.34289  0.84875  1.0000
  H   H16       1.0  0.36659  0.40096  0.45049  1.0000
  H   H17       1.0  0.80186  0.50326  0.53362  1.0000
  H   H18       1.0  0.36662  0.04662  0.47269  1.0000
  H   H19       1.0  0.56164  0.85460  0.72802  1.0000
  H   H20       1.0  0.94474  0.94622  0.54486  1.0000
  C   C1        1.0  0.17612  0.32987  0.84981  1.0000
  C   C2        1.0  0.21951  0.40531  0.93173  1.0000
  C   C3        1.0  0.23196  0.48693  0.91068  1.0000
  C   C4        1.0  0.20033  0.49598  0.80983  1.0000
  C   C5        1.0  0.15648  0.42057  0.73132  1.0000
  C   C6        1.0  0.14482  0.33853  0.74841  1.0000
  C   C7        1.0  0.21427  0.58146  0.77776  1.0000
  C   C8        1.0  0.33905  0.23387  0.83174  1.0000
  C   C9        1.0  0.33300  0.15492  0.80581  1.0000
  C   C10       1.0  0.37009  0.14390  0.85798  1.0000
  C   C11       1.0  0.41836  0.21717  0.92684  1.0000
  C   C12       1.0  0.42602  0.29733  0.93964  1.0000
  C   C13       1.0  0.38749  0.30733  0.89923  1.0000
  C   C14       1.0  0.45955  0.21109  0.98285  1.0000
  C   C15       1.0  0.46558  0.14854  0.91486  1.0000
  C   C16       1.0  0.50479  0.14416  0.96980  1.0000
  C   C17       1.0  0.53937  0.20108  0.09702  1.0000
  C   C18       1.0  0.53483  0.26552  0.16214  1.0000
  C   C19       1.0  0.49584  0.27022  0.10576  1.0000
  C   C20       1.0  0.63039  0.26821  0.16148  1.0000
  C   C21       1.0  0.56652  0.10975  0.17419  1.0000
  C   C22       1.0  0.51514  0.03367  0.16320  1.0000
  C   C23       1.0  0.50387  0.95200  0.17108  1.0000
  C   C24       1.0  0.54300  0.94114  0.19397  1.0000
  C   C25       1.0  0.59362  0.01675  0.21769  1.0000
  C   C26       1.0  0.60534  0.09911  0.20925  1.0000
  C   C27       1.0  0.66446  0.26875  0.05916  1.0000
  C   C28       1.0  0.71457  0.34297  0.05484  1.0000
  C   C29       1.0  0.73161  0.41961  0.14993  1.0000
  C   C30       1.0  0.69751  0.41824  0.25404  1.0000
  C   C31       1.0  0.64802  0.34336  0.26206  1.0000
  C   C32       1.0  0.39850  0.39253  0.94035  1.0000
  C   C33       1.0  0.78250  0.49990  0.13461  1.0000
  C   C34       1.0  0.45449  0.53972  0.02880  1.0000
  C   C35       1.0  0.84773  0.64619  0.21207  1.0000
  C   C36       1.0  0.50093  0.61608  0.98958  1.0000
  C   C37       1.0  0.51229  0.69729  0.03261  1.0000
  C   C38       1.0  0.47823  0.70559  0.12037  1.0000
  C   C39       1.0  0.43227  0.62917  0.16305  1.0000
  C   C40       1.0  0.42080  0.54802  0.11857  1.0000
  C   C41       1.0  0.88971  0.65324  0.14495  1.0000
  C   C42       1.0  0.93499  0.73429  0.12666  1.0000
  C   C43       1.0  0.93910  0.81099  0.16807  1.0000
  C   C44       1.0  0.89790  0.80403  0.24045  1.0000
  C   C45       1.0  0.85358  0.72302  0.26589  1.0000
  C   C46       1.0  0.35467  0.05504  0.86326  1.0000
  C   C47       1.0  0.53223  0.85567  0.18523  1.0000
  C   C48       1.0  0.98294  0.94957  0.08122  1.0000
  N   N1        1.0  0.16664  0.24746  0.87190  1.0000
  N   N2        1.0  0.57791  0.19242  0.15788  1.0000
  N   N3        1.0  0.25303  0.65119  0.85527  1.0000
  N   N4        1.0  0.44503  0.46045  0.97646  1.0000
  N   N5        1.0  0.80022  0.56794  0.23246  1.0000
  N   N6        1.0  0.32334  0.99280  0.75594  1.0000
  N   N7        1.0  0.48624  0.78508  0.15660  1.0000
  N   N8        1.0  0.98470  0.89013  0.13938  1.0000
  H   H21       1.0  0.24364  0.39847  0.01092  1.0000
  H   H22       1.0  0.26597  0.54510  0.97222  1.0000
  H   H23       1.0  0.13257  0.42667  0.64902  1.0000
  H   H24       1.0  0.11310  0.28273  0.67538  1.0000
  H   H25       1.0  0.19119  0.58205  0.68073  1.0000
  H   H26       1.0  0.29676  0.09736  0.75336  1.0000
  H   H27       1.0  0.46249  0.35592  0.98815  1.0000
  H   H28       1.0  0.44088  0.10535  0.81178  1.0000
  H   H29       1.0  0.50908  0.09652  0.91222  1.0000
  H   H30       1.0  0.55964  0.30937  0.26357  1.0000
  H   H31       1.0  0.49192  0.31804  0.16526  1.0000
  H   H32       1.0  0.48380  0.03897  0.14589  1.0000
  H   H33       1.0  0.46425  0.89430  0.15768  1.0000
  H   H34       1.0  0.62465  0.01069  0.24041  1.0000
  H   H35       1.0  0.64506  0.15547  0.22610  1.0000
  H   H36       1.0  0.65051  0.21132  0.97892  1.0000
  H   H37       1.0  0.74002  0.34287  0.97138  1.0000
  H   H38       1.0  0.71117  0.47660  0.33132  1.0000
  H   H39       1.0  0.62373  0.34267  0.35070  1.0000
  H   H40       1.0  0.36592  0.39636  0.93987  1.0000
  H   H41       1.0  0.80308  0.50017  0.03114  1.0000
  H   H42       1.0  0.52640  0.60922  0.91848  1.0000
  H   H43       1.0  0.54687  0.75525  0.99312  1.0000
  H   H44       1.0  0.40653  0.63555  0.23368  1.0000
  H   H45       1.0  0.38582  0.48991  0.15575  1.0000
  H   H46       1.0  0.88687  0.59469  0.10980  1.0000
  H   H47       1.0  0.96773  0.74040  0.07652  1.0000
  H   H48       1.0  0.90181  0.86298  0.28083  1.0000
  H   H49       1.0  0.82204  0.71693  0.32527  1.0000
  H   H50       1.0  0.36864  0.04322  0.97110  1.0000
  H   H51       1.0  0.56577  0.85446  0.20004  1.0000
  H   H52       1.0  0.94622  0.93802  0.04685  1.0000
  C   C49       1.0  0.20780  0.24639  0.34337  1.0000
  C   C50       1.0  0.20401  0.16986  0.36274  1.0000
  C   C51       1.0  0.24635  0.16848  0.35182  1.0000
  C   C52       1.0  0.29437  0.24079  0.31171  1.0000
  C   C53       1.0  0.29521  0.31098  0.26439  1.0000
  C   C54       1.0  0.25354  0.31448  0.28084  1.0000
  C   C55       1.0  0.21512  0.58672  0.26864  1.0000
  C   C56       1.0  0.33963  0.24011  0.33276  1.0000
  C   C57       1.0  0.33304  0.16077  0.30638  1.0000
  C   C58       1.0  0.36960  0.14862  0.35856  1.0000
  C   C59       1.0  0.41824  0.22127  0.42625  1.0000
  C   C60       1.0  0.42651  0.30194  0.43956  1.0000
  C   C61       1.0  0.38828  0.31292  0.40072  1.0000
  C   C62       1.0  0.45899  0.21400  0.48208  1.0000
  C   C63       1.0  0.46462  0.15097  0.41407  1.0000
  C   C64       1.0  0.50364  0.14584  0.46830  1.0000
  C   C65       1.0  0.53849  0.20264  0.59524  1.0000
  C   C66       1.0  0.53430  0.26757  0.66025  1.0000
  C   C67       1.0  0.49557  0.27299  0.60445  1.0000
  C   C68       1.0  0.62942  0.26875  0.66195  1.0000
  C   C69       1.0  0.66441  0.26942  0.56378  1.0000
  C   C70       1.0  0.71440  0.34441  0.56034  1.0000
  C   C71       1.0  0.73050  0.42158  0.65212  1.0000
  C   C72       1.0  0.69570  0.41948  0.75387  1.0000
  C   C73       1.0  0.64640  0.34403  0.76121  1.0000
  C   C74       1.0  0.39935  0.39777  0.44603  1.0000
  C   C75       1.0  0.78108  0.50275  0.63669  1.0000
  C   C76       1.0  0.35315  0.05925  0.36478  1.0000
  C   C77       1.0  0.52865  0.85668  0.70639  1.0000
  C   C78       1.0  0.98096  0.95455  0.57182  1.0000
  N   N9        1.0  0.16739  0.25403  0.37458  1.0000
  N   N10       1.0  0.57680  0.19331  0.65581  1.0000
  N   N11       1.0  0.25175  0.65572  0.35365  1.0000
  N   N12       1.0  0.44581  0.46619  0.48094  1.0000
  N   N13       1.0  0.79849  0.57114  0.73365  1.0000
  N   N14       1.0  0.32120  0.99727  0.25809  1.0000
  N   N15       1.0  0.48305  0.78677  0.66868  1.0000
  N   N16       1.0  0.98161  0.89301  0.62504  1.0000
  C  Sn1       1.0  0.85410  0.74575  0.72830  1.0000
  C   C79       1.0  0.84321  0.66409  0.68874  1.0000
  C  Sn2       1.0  0.88226  0.65684  0.64604  1.0000
  C  Sn3       1.0  0.93327  0.73278  0.64291  1.0000
  C   C80       1.0  0.94415  0.81437  0.68248  1.0000
  C  Sn4       1.0  0.90512  0.82169  0.72517  1.0000
  O  Te1       1.0  0.81447  0.75146  0.77063  1.0000
  O  Te2       1.0  0.87043  0.57450  0.60692  1.0000
  O  Te3       1.0  0.97292  0.72701  0.60053  1.0000
  O  Te4       1.0  0.91693  0.90397  0.76430  1.0000
  Mg  Mg1       1.0  0.93762  0.60034  0.55713  1.0000
  Mg  Mg2       1.0  0.84977  0.87821  0.81419  1.0000
  C  Sn5       1.0  0.11338  0.10224  0.52018  1.0000
  C   C81       1.0  0.11950  0.16703  0.43149  1.0000
  C  Sn6       1.0  0.07854  0.17192  0.40368  1.0000
  C  Sn7       1.0  0.03047  0.11081  0.46590  1.0000
  C   C82       1.0  0.02437  0.04607  0.55455  1.0000
  C  Sn8       1.0  0.06531  0.04113  0.58240  1.0000
  O  Te5       1.0  0.15486  0.09858  0.54651  1.0000
  O  Te6       1.0  0.08558  0.23726  0.31462  1.0000
  O  Te7       1.0  0.98898  0.11451  0.43948  1.0000
  O  Te8       1.0  0.40622  0.97585  0.67142  1.0000
  Mg  Mg3       1.0  0.01754  0.21541  0.31103  1.0000
  Mg  Mg4       1.0  0.47424  0.99766  0.67516  1.0000
  C  Sn9       1.0  0.43285  0.61291  0.71096  1.0000
  C   C83       1.0  0.47430  0.69460  0.67157  1.0000
  C  Sn10      1.0  0.50507  0.70163  0.54931  1.0000
  C  Sn11      1.0  0.49418  0.62542  0.46458  1.0000
  C   C84       1.0  0.45274  0.54380  0.50396  1.0000
  C  Sn12      1.0  0.42195  0.53671  0.62624  1.0000
  O  Te9       1.0  0.40259  0.60742  0.83361  1.0000
  O  Te10      1.0  0.54631  0.78401  0.51212  1.0000
  O  Te11      1.0  0.52448  0.63097  0.34185  1.0000
  O  Te12      1.0  0.38073  0.45439  0.66341  1.0000
  Mg  Mg5       1.0  0.57633  0.75780  0.33534  1.0000
  Mg  Mg6       1.0  0.35067  0.48052  0.84010  1.0000
  C  Sn13      1.0  0.24582  0.76740  0.68472  1.0000
  C   C85       1.0  0.26860  0.73663  0.77078  1.0000
  C  Sn14      1.0  0.31170  0.79352  0.87499  1.0000
  C  Sn15      1.0  0.33245  0.88304  0.89366  1.0000
  C   C86       1.0  0.30966  0.91377  0.80766  1.0000
  C  Sn16      1.0  0.26656  0.85691  0.70340  1.0000
  O  Te13      1.0  0.20275  0.70934  0.58122  1.0000
  O  Te14      1.0  0.33383  0.76124  0.95969  1.0000
  O  Te15      1.0  0.37555  0.94110  0.99727  1.0000
  O  Te16      1.0  0.24443  0.88915  0.61875  1.0000
  Mg  Mg7       1.0  0.37172  0.81908  0.08636  1.0000
  Mg  Mg8       1.0  0.18622  0.78449  0.49212  1.0000
  C  Sn17      1.0  0.08920  0.08792  0.13865  1.0000
  C   C87       1.0  0.03833  0.05135  0.08913  1.0000
  C  Sn18      1.0  0.04741  0.12392  0.95261  1.0000
  C  Sn19      1.0  0.08788  0.18745  0.86367  1.0000
  C   C88       1.0  0.13871  0.22398  0.91318  1.0000
  C  Sn20      1.0  0.12967  0.15146  0.04970  1.0000
  O  Te17      1.0  0.09952  0.06126  0.27549  1.0000
  O  Te18      1.0  0.99625  0.08645  0.90549  1.0000
  O  Te19      1.0  0.07751  0.21410  0.72674  1.0000
  O  Te20      1.0  0.18079  0.18888  0.09681  1.0000
  Mg  Mg9       1.0  0.00167  0.14408  0.71066  1.0000
  Mg  Mg10      1.0  0.17541  0.13127  0.29156  1.0000
  C  Sn21      1.0  0.24378  0.77196  0.18621  1.0000
  C   C89       1.0  0.26773  0.74187  0.26782  1.0000
  C  Sn22      1.0  0.31137  0.79912  0.36985  1.0000
  C  Sn23      1.0  0.33146  0.88830  0.39085  1.0000
  C   C90       1.0  0.30750  0.91835  0.30930  1.0000
  C  Sn24      1.0  0.26387  0.86114  0.20721  1.0000
  O  Te21      1.0  0.20020  0.71356  0.08482  1.0000
  O  Te22      1.0  0.33466  0.76751  0.45010  1.0000
  O  Te23      1.0  0.37507  0.94670  0.49234  1.0000
  O  Te24      1.0  0.24057  0.89270  0.12702  1.0000
  Mg  Mg11      1.0  0.39317  0.87248  0.57534  1.0000
  Mg  Mg12      1.0  0.18205  0.78779  0.00182  1.0000
  C  Sn25      1.0  0.23882  0.48089  0.40026  1.0000
  C   C91       1.0  0.21467  0.50101  0.29217  1.0000
  C  Sn26      1.0  0.16650  0.43555  0.21875  1.0000
  C  Sn27      1.0  0.14193  0.34816  0.25416  1.0000
  C   C92       1.0  0.16607  0.32808  0.36220  1.0000
  C  Sn28      1.0  0.21425  0.39350  0.43567  1.0000
  O  Te25      1.0  0.28698  0.54737  0.47227  1.0000
  O  Te26      1.0  0.14312  0.45725  0.11105  1.0000
  O  Te27      1.0  0.09374  0.28166  0.18204  1.0000
  O  Te28      1.0  0.23762  0.37183  0.54332  1.0000
  Mg  Mg13      1.0  0.07743  0.34378  0.04367  1.0000
  Mg  Mg14      1.0  0.30329  0.48525  0.61083  1.0000
  C  Sn29      1.0  0.29180  0.31940  0.80131  1.0000
  C   C93       1.0  0.29584  0.25238  0.83145  1.0000
  C  Sn30      1.0  0.25189  0.16890  0.84944  1.0000
  C  Sn31      1.0  0.20286  0.15203  0.83694  1.0000
  C   C94       1.0  0.19884  0.21902  0.80679  1.0000
  C  Sn32      1.0  0.24278  0.30252  0.78882  1.0000
  O  Te29      1.0  0.33626  0.40235  0.78374  1.0000
  O  Te30      1.0  0.25690  0.10297  0.87956  1.0000
  O  Te31      1.0  0.15839  0.06900  0.85454  1.0000
  O  Te32      1.0  0.23778  0.36843  0.75868  1.0000
  Mg  Mg15      1.0  0.53296  0.00067  0.89430  1.0000
  Mg  Mg16      1.0  0.30962  0.47073  0.74384  1.0000
  C  Sn33      1.0  0.59509  0.04038  0.78401  1.0000
  C   C95       1.0  0.89493  0.95983  0.76652  1.0000
  C  Sn34      1.0  0.85317  0.95148  0.69138  1.0000
  C  Sn35      1.0  0.85960  0.02516  0.63238  1.0000
  C   C96       1.0  0.55973  0.10565  0.64985  1.0000
  C  Sn36      1.0  0.60152  0.11406  0.72501  1.0000
  O  Te33      1.0  0.63630  0.04722  0.85952  1.0000
  O  Te34      1.0  0.80547  0.87029  0.67535  1.0000
  O  Te35      1.0  0.81833  0.01826  0.55683  1.0000
  O  Te36      1.0  0.64920  0.19519  0.74103  1.0000
  Mg  Mg17      1.0  0.76097  0.89386  0.56356  1.0000
  Mg  Mg18      1.0  0.69373  0.17168  0.85271  1.0000
