data_image0
_chemical_formula_structural       H24C42N8H28C36N8C2Sn2C2HTe2HMgC2Sn2C2HTe2HMgC2Sn2C2HTe2HMgC2Sn2C2HTe2HMgC2Sn2C2HTe2HMgC2Sn2C2HTe2HMgC2Sn2C2HTe2HMgC2Sn2C2HTe2HMgC2Sn2C2HTe2HMg
_chemical_formula_sum              "H70 C114 N16 Sn18 Te18 Mg9"
_cell_length_a       32.2917
_cell_length_b       19.0936
_cell_length_c       8.39937
_cell_angle_alpha    93.4754
_cell_angle_beta     90.8801
_cell_angle_gamma    126.046

_symmetry_space_group_name_H-M    'P1'
_space_group_IT_number       1

loop_
  _space_group_symop_operation_xyz
  'x, y, z'

loop_
  _atom_site_type_symbol
  _atom_site_label
  _atom_site_symmetry_multiplicity
  _atom_site_fract_x
  _atom_site_fract_y
  _atom_site_fract_z
  _atom_site_occupancy
  H   H1        1.0  0.16814  0.11076  0.39016  1.0000
  H   H2        1.0  0.24223  0.11015  0.38194  1.0000
  H   H3        1.0  0.32924  0.36441  0.21327  1.0000
  H   H4        1.0  0.25694  0.37128  0.24567  1.0000
  H   H5        1.0  0.19531  0.58877  0.16318  1.0000
  H   H6        1.0  0.29674  0.10361  0.25351  1.0000
  H   H7        1.0  0.46326  0.36009  0.48751  1.0000
  H   H8        1.0  0.65142  0.21171  0.48549  1.0000
  H   H9        1.0  0.74036  0.34459  0.47875  1.0000
  H   H10       1.0  0.70859  0.47804  0.82918  1.0000
  H   H11       1.0  0.62172  0.34289  0.84875  1.0000
  H   H12       1.0  0.36659  0.40096  0.45049  1.0000
  H   H13       1.0  0.80186  0.50326  0.53362  1.0000
  H   H14       1.0  0.34068  0.79386  0.44455  1.0000
  H   H15       1.0  0.37532  0.94685  0.40360  1.0000
  H   H16       1.0  0.23325  0.85822  0.15312  1.0000
  H   H17       1.0  0.19860  0.70483  0.19274  1.0000
  H   H18       1.0  0.88291  0.59797  0.59405  1.0000
  H   H19       1.0  0.96245  0.74287  0.55096  1.0000
  H   H20       1.0  0.90137  0.86677  0.78727  1.0000
  H   H21       1.0  0.82239  0.72101  0.83723  1.0000
  H   H22       1.0  0.36662  0.04662  0.47269  1.0000
  H   H23       1.0  0.56164  0.85460  0.72802  1.0000
  H   H24       1.0  0.94474  0.94622  0.54486  1.0000
  C   C1        1.0  0.17612  0.32987  0.84981  1.0000
  C   C2        1.0  0.12037  0.18041  0.93847  1.0000
  C   C3        1.0  0.21951  0.40531  0.93173  1.0000
  C   C4        1.0  0.23196  0.48693  0.91068  1.0000
  C   C5        1.0  0.20033  0.49598  0.80983  1.0000
  C   C6        1.0  0.15648  0.42057  0.73132  1.0000
  C   C7        1.0  0.14482  0.33853  0.74841  1.0000
  C   C8        1.0  0.07195  0.15924  0.89207  1.0000
  C   C9        1.0  0.02745  0.08676  0.94670  1.0000
  C   C10       1.0  0.02943  0.03229  0.04637  1.0000
  C   C11       1.0  0.07802  0.05867  0.10549  1.0000
  C   C12       1.0  0.12221  0.13213  0.05543  1.0000
  C   C13       1.0  0.21427  0.58146  0.77776  1.0000
  C   C14       1.0  0.33905  0.23387  0.83174  1.0000
  C   C15       1.0  0.33300  0.15492  0.80581  1.0000
  C   C16       1.0  0.37009  0.14390  0.85798  1.0000
  C   C17       1.0  0.41836  0.21717  0.92684  1.0000
  C   C18       1.0  0.42602  0.29733  0.93964  1.0000
  C   C19       1.0  0.38749  0.30733  0.89923  1.0000
  C   C20       1.0  0.45955  0.21109  0.98285  1.0000
  C   C21       1.0  0.46558  0.14854  0.91486  1.0000
  C   C22       1.0  0.50479  0.14416  0.96980  1.0000
  C   C23       1.0  0.53937  0.20108  0.09702  1.0000
  C   C24       1.0  0.53483  0.26552  0.16214  1.0000
  C   C25       1.0  0.49584  0.27022  0.10576  1.0000
  C   C26       1.0  0.63039  0.26821  0.16148  1.0000
  C   C27       1.0  0.66446  0.26875  0.05916  1.0000
  C   C28       1.0  0.71457  0.34297  0.05484  1.0000
  C   C29       1.0  0.73161  0.41961  0.14993  1.0000
  C   C30       1.0  0.69751  0.41824  0.25404  1.0000
  C   C31       1.0  0.64802  0.34336  0.26206  1.0000
  C   C32       1.0  0.39850  0.39253  0.94035  1.0000
  C   C33       1.0  0.78250  0.49990  0.13461  1.0000
  C   C34       1.0  0.45449  0.53972  0.02880  1.0000
  C   C35       1.0  0.50093  0.61608  0.98958  1.0000
  C   C36       1.0  0.51229  0.69729  0.03261  1.0000
  C   C37       1.0  0.47823  0.70559  0.12037  1.0000
  C   C38       1.0  0.43227  0.62917  0.16305  1.0000
  C   C39       1.0  0.42080  0.54802  0.11857  1.0000
  C   C40       1.0  0.35467  0.05504  0.86326  1.0000
  C   C41       1.0  0.53223  0.85567  0.18523  1.0000
  C   C42       1.0  0.98294  0.94957  0.08122  1.0000
  N   N1        1.0  0.16664  0.24746  0.87190  1.0000
  N   N2        1.0  0.57791  0.19242  0.15788  1.0000
  N   N3        1.0  0.25303  0.65119  0.85527  1.0000
  N   N4        1.0  0.44503  0.46045  0.97646  1.0000
  N   N5        1.0  0.80022  0.56794  0.23246  1.0000
  N   N6        1.0  0.32334  0.99280  0.75594  1.0000
  N   N7        1.0  0.48624  0.78508  0.15660  1.0000
  N   N8        1.0  0.98470  0.89013  0.13938  1.0000
  H   H25       1.0  0.24364  0.39847  0.01092  1.0000
  H   H26       1.0  0.26597  0.54510  0.97222  1.0000
  H   H27       1.0  0.13257  0.42667  0.64902  1.0000
  H   H28       1.0  0.11310  0.28273  0.67538  1.0000
  H   H29       1.0  0.06821  0.19594  0.80724  1.0000
  H   H30       1.0  0.99034  0.06956  0.90316  1.0000
  H   H31       1.0  0.08014  0.02090  0.19288  1.0000
  H   H32       1.0  0.15914  0.15296  0.10664  1.0000
  H   H33       1.0  0.19119  0.58205  0.68073  1.0000
  H   H34       1.0  0.29676  0.09736  0.75336  1.0000
  H   H35       1.0  0.46249  0.35592  0.98815  1.0000
  H   H36       1.0  0.44088  0.10535  0.81178  1.0000
  H   H37       1.0  0.50908  0.09652  0.91222  1.0000
  H   H38       1.0  0.55964  0.30937  0.26357  1.0000
  H   H39       1.0  0.49192  0.31804  0.16526  1.0000
  H   H40       1.0  0.65051  0.21132  0.97892  1.0000
  H   H41       1.0  0.74002  0.34287  0.97138  1.0000
  H   H42       1.0  0.71117  0.47660  0.33132  1.0000
  H   H43       1.0  0.62373  0.34267  0.35070  1.0000
  H   H44       1.0  0.36592  0.39636  0.93987  1.0000
  H   H45       1.0  0.80308  0.50017  0.03114  1.0000
  H   H46       1.0  0.52640  0.60922  0.91848  1.0000
  H   H47       1.0  0.54687  0.75525  0.99312  1.0000
  H   H48       1.0  0.40653  0.63555  0.23368  1.0000
  H   H49       1.0  0.38582  0.48991  0.15575  1.0000
  H   H50       1.0  0.36864  0.04322  0.97110  1.0000
  H   H51       1.0  0.56577  0.85446  0.20004  1.0000
  H   H52       1.0  0.94622  0.93802  0.04685  1.0000
  C   C43       1.0  0.20780  0.24639  0.34337  1.0000
  C   C44       1.0  0.20401  0.16986  0.36274  1.0000
  C   C45       1.0  0.24635  0.16848  0.35182  1.0000
  C   C46       1.0  0.29437  0.24079  0.31171  1.0000
  C   C47       1.0  0.29521  0.31098  0.26439  1.0000
  C   C48       1.0  0.25354  0.31448  0.28084  1.0000
  C   C49       1.0  0.21512  0.58672  0.26864  1.0000
  C   C50       1.0  0.33963  0.24011  0.33276  1.0000
  C   C51       1.0  0.33304  0.16077  0.30638  1.0000
  C   C52       1.0  0.36960  0.14862  0.35856  1.0000
  C   C53       1.0  0.41824  0.22127  0.42625  1.0000
  C   C54       1.0  0.42651  0.30194  0.43956  1.0000
  C   C55       1.0  0.38828  0.31292  0.40072  1.0000
  C   C56       1.0  0.62942  0.26875  0.66195  1.0000
  C   C57       1.0  0.66441  0.26942  0.56378  1.0000
  C   C58       1.0  0.71440  0.34441  0.56034  1.0000
  C   C59       1.0  0.73050  0.42158  0.65212  1.0000
  C   C60       1.0  0.69570  0.41948  0.75387  1.0000
  C   C61       1.0  0.64640  0.34403  0.76121  1.0000
  C   C62       1.0  0.39935  0.39777  0.44603  1.0000
  C   C63       1.0  0.78108  0.50275  0.63669  1.0000
  C   C64       1.0  0.26761  0.73891  0.32146  1.0000
  C   C65       1.0  0.84580  0.64967  0.71126  1.0000
  C   C66       1.0  0.31747  0.80872  0.38095  1.0000
  C   C67       1.0  0.33648  0.89402  0.35859  1.0000
  C   C68       1.0  0.30564  0.91273  0.27964  1.0000
  C   C69       1.0  0.25630  0.84297  0.21641  1.0000
  C   C70       1.0  0.23735  0.75761  0.23839  1.0000
  C   C71       1.0  0.88647  0.65660  0.63437  1.0000
  C   C72       1.0  0.93113  0.73733  0.61077  1.0000
  C   C73       1.0  0.93634  0.81452  0.65841  1.0000
  C   C74       1.0  0.89679  0.80782  0.74216  1.0000
  C   C75       1.0  0.85283  0.72678  0.77107  1.0000
  C   C76       1.0  0.35315  0.05925  0.36478  1.0000
  C   C77       1.0  0.52865  0.85668  0.70639  1.0000
  C   C78       1.0  0.98096  0.95455  0.57182  1.0000
  N   N9        1.0  0.16739  0.25403  0.37458  1.0000
  N   N10       1.0  0.57680  0.19331  0.65581  1.0000
  N   N11       1.0  0.25175  0.65572  0.35365  1.0000
  N   N12       1.0  0.44581  0.46619  0.48094  1.0000
  N   N13       1.0  0.79849  0.57114  0.73365  1.0000
  N   N14       1.0  0.32120  0.99727  0.25809  1.0000
  N   N15       1.0  0.48305  0.78677  0.66868  1.0000
  N   N16       1.0  0.98161  0.89301  0.62504  1.0000
  C   C79       1.0  0.11481  0.11386  0.57030  1.0000
  C   C80       1.0  0.12188  0.17484  0.46851  1.0000
  C  Sn1       1.0  0.07961  0.16820  0.40248  1.0000
  C  Sn2       1.0  0.02937  0.09917  0.43930  1.0000
  C   C81       1.0  0.02270  0.03852  0.54136  1.0000
  C   C82       1.0  0.06528  0.04577  0.60673  1.0000
  H   H53       1.0  0.14775  0.11948  0.62096  1.0000
  O  Te1       1.0  0.08735  0.22967  0.30096  1.0000
  O  Te2       1.0  0.98644  0.09101  0.37501  1.0000
  H   H54       1.0  0.40773  0.99857  0.68562  1.0000
  Mg  Mg1       1.0  0.01672  0.19090  0.24287  1.0000
  C   C83       1.0  0.50595  0.27981  0.63576  1.0000
  C   C84       1.0  0.47058  0.23436  0.50444  1.0000
  C  Sn3       1.0  0.46818  0.16769  0.41543  1.0000
  C  Sn4       1.0  0.50185  0.14627  0.45900  1.0000
  C   C85       1.0  0.53707  0.19209  0.59064  1.0000
  C   C86       1.0  0.53916  0.25870  0.67885  1.0000
  H   H55       1.0  0.50755  0.33132  0.70407  1.0000
  O  Te3       1.0  0.43262  0.12296  0.28454  1.0000
  O  Te4       1.0  0.50026  0.07991  0.37215  1.0000
  H   H56       1.0  0.56653  0.29384  0.78058  1.0000
  Mg  Mg2       1.0  0.44515  0.03774  0.20347  1.0000
  C   C87       1.0  0.22563  0.43520  0.45122  1.0000
  C   C88       1.0  0.18475  0.35318  0.38377  1.0000
  C  Sn5       1.0  0.15126  0.34547  0.26475  1.0000
  C  Sn6       1.0  0.15896  0.42141  0.21250  1.0000
  C   C89       1.0  0.20000  0.50317  0.28065  1.0000
  C   C90       1.0  0.23326  0.51014  0.39971  1.0000
  H   H57       1.0  0.25139  0.44060  0.54327  1.0000
  O  Te5       1.0  0.11059  0.26302  0.19868  1.0000
  O  Te6       1.0  0.12608  0.41558  0.09369  1.0000
  H   H58       1.0  0.26494  0.57366  0.45183  1.0000
  Mg  Mg3       1.0  0.07616  0.28868  0.04020  1.0000
  C   C91       1.0  0.49657  0.96743  0.67822  1.0000
  C   C92       1.0  0.52941  0.94315  0.69929  1.0000
  C  Sn7       1.0  0.58237  0.00646  0.72210  1.0000
  C  Sn8       1.0  0.25480  0.09568  0.72384  1.0000
  C   C93       1.0  0.22163  0.11930  0.70277  1.0000
  C   C94       1.0  0.16869  0.05541  0.67999  1.0000
  H   H59       1.0  0.45561  0.91800  0.66068  1.0000
  O  Te7       1.0  0.61463  0.98107  0.74290  1.0000
  O  Te8       1.0  0.30758  0.16030  0.74647  1.0000
  H   H60       1.0  0.14327  0.07423  0.66378  1.0000
  Mg  Mg4       1.0  0.33591  0.09318  0.76955  1.0000
  C   C95       1.0  0.50788  0.64560  0.49052  1.0000
  C   C96       1.0  0.46841  0.56383  0.53597  1.0000
  C  Sn9       1.0  0.42983  0.55423  0.62731  1.0000
  C  Sn10      1.0  0.43087  0.62797  0.67378  1.0000
  C   C97       1.0  0.47050  0.70948  0.62760  1.0000
  C   C98       1.0  0.50892  0.71836  0.53625  1.0000
  H   H61       1.0  0.53759  0.65247  0.41977  1.0000
  O  Te9       1.0  0.39069  0.47207  0.67174  1.0000
  O  Te10      1.0  0.39278  0.62022  0.76501  1.0000
  H   H62       1.0  0.53945  0.78167  0.50099  1.0000
  Mg  Mg5       1.0  0.34746  0.49459  0.79621  1.0000
  C   C99       1.0  0.23665  0.76909  0.72291  1.0000
  C   C100      1.0  0.26051  0.73604  0.79404  1.0000
  C  Sn11      1.0  0.31036  0.79245  0.86420  1.0000
  C  Sn12      1.0  0.33670  0.88361  0.86299  1.0000
  C   C101      1.0  0.31248  0.91602  0.79163  1.0000
  C   C102      1.0  0.26259  0.85899  0.72172  1.0000
  H   H63       1.0  0.19804  0.72497  0.66890  1.0000
  O  Te11      1.0  0.33364  0.75833  0.93470  1.0000
  O  Te12      1.0  0.38654  0.94145  0.93231  1.0000
  H   H64       1.0  0.24411  0.88460  0.66676  1.0000
  Mg  Mg6       1.0  0.38172  0.81663  0.01363  1.0000
  C   C103      1.0  0.60354  0.04061  0.21519  1.0000
  C   C104      1.0  0.90381  0.95969  0.21266  1.0000
  C  Sn13      1.0  0.85860  0.95266  0.18680  1.0000
  C  Sn14      1.0  0.51336  0.02815  0.16302  1.0000
  C   C105      1.0  0.56123  0.10879  0.16565  1.0000
  C   C106      1.0  0.60622  0.11509  0.19168  1.0000
  H   H65       1.0  0.63835  0.04548  0.23524  1.0000
  O  Te13      1.0  0.81130  0.87131  0.18470  1.0000
  O  Te14      1.0  0.46878  0.02297  0.13686  1.0000
  H   H66       1.0  0.64312  0.17774  0.19353  1.0000
  Mg  Mg7       1.0  0.76132  0.89753  0.14462  1.0000
  C   C107      1.0  0.88429  0.79102  0.25212  1.0000
  C   C108      1.0  0.93018  0.81175  0.19326  1.0000
  C  Sn15      1.0  0.93437  0.74581  0.13774  1.0000
  C  Sn16      1.0  0.89175  0.65754  0.14133  1.0000
  C   C109      1.0  0.84600  0.63748  0.20034  1.0000
  C   C110      1.0  0.84223  0.70398  0.25564  1.0000
  H   H67       1.0  0.88137  0.84247  0.29484  1.0000
  O  Te15      1.0  0.98050  0.76767  0.07938  1.0000
  O  Te16      1.0  0.89488  0.59035  0.08652  1.0000
  H   H68       1.0  0.80669  0.68791  0.30111  1.0000
  Mg  Mg8       1.0  0.96594  0.65300  0.01810  1.0000
  C   C111      1.0  0.28731  0.31321  0.74832  1.0000
  C   C112      1.0  0.29412  0.25111  0.79298  1.0000
  C  Sn17      1.0  0.25376  0.17488  0.85337  1.0000
  C  Sn18      1.0  0.20573  0.16071  0.86916  1.0000
  C   C113      1.0  0.19930  0.22321  0.82403  1.0000
  C   C114      1.0  0.23995  0.29928  0.76379  1.0000
  H   H69       1.0  0.31876  0.37205  0.70163  1.0000
  O  Te17      1.0  0.26122  0.11353  0.89748  1.0000
  O  Te18      1.0  0.16474  0.08508  0.92911  1.0000
  H   H70       1.0  0.23466  0.34732  0.72912  1.0000
  Mg  Mg9       1.0  0.54169  0.02076  0.97301  1.0000
