data_image0
_chemical_formula_structural       H8C12N8H8C12N8SnCSn2CSnTe4Mg2SnCSn2CSnTe4Mg2SnCSn2CSnTe4Mg2SnCSn2CSnTe4Mg2SnCSn2CSnTe4Mg2SnCSn2CSnTe4Mg2SnCSn2CSnTe4Mg2SnCSn2CSnTe4Mg2SnCSn2CSnTe4Mg2SnCSn2CSnTe4Mg2SnCSn2CSnTe4Mg2SnCSn2CSnTe4Mg2SnCSn2CSnTe4Mg2SnCSn2CSnTe4Mg2SnCSn2CSnTe4Mg2SnCSn2CSnTe4Mg2SnCSn2CSnTe4Mg2SnCSn2CSnTe4Mg2
_chemical_formula_sum              "H16 C60 N16 Sn72 Te72 Mg36"
_cell_length_a       32.2917
_cell_length_b       19.0936
_cell_length_c       8.39937
_cell_angle_alpha    93.4754
_cell_angle_beta     90.8801
_cell_angle_gamma    126.046

_symmetry_space_group_name_H-M    'P1'
_space_group_IT_number       1

loop_
  _space_group_symop_operation_xyz
  'x, y, z'

loop_
  _atom_site_type_symbol
  _atom_site_label
  _atom_site_symmetry_multiplicity
  _atom_site_fract_x
  _atom_site_fract_y
  _atom_site_fract_z
  _atom_site_occupancy
  H   H1        1.0  0.19531  0.58877  0.16318  1.0000
  H   H2        1.0  0.29674  0.10361  0.25351  1.0000
  H   H3        1.0  0.46326  0.36009  0.48751  1.0000
  H   H4        1.0  0.36659  0.40096  0.45049  1.0000
  H   H5        1.0  0.80186  0.50326  0.53362  1.0000
  H   H6        1.0  0.36662  0.04662  0.47269  1.0000
  H   H7        1.0  0.56164  0.85460  0.72802  1.0000
  H   H8        1.0  0.94474  0.94622  0.54486  1.0000
  C   C1        1.0  0.21427  0.58146  0.77776  1.0000
  C   C2        1.0  0.33905  0.23387  0.83174  1.0000
  C   C3        1.0  0.33300  0.15492  0.80581  1.0000
  C   C4        1.0  0.37009  0.14390  0.85798  1.0000
  C   C5        1.0  0.41836  0.21717  0.92684  1.0000
  C   C6        1.0  0.42602  0.29733  0.93964  1.0000
  C   C7        1.0  0.38749  0.30733  0.89923  1.0000
  C   C8        1.0  0.39850  0.39253  0.94035  1.0000
  C   C9        1.0  0.78250  0.49990  0.13461  1.0000
  C   C10       1.0  0.35467  0.05504  0.86326  1.0000
  C   C11       1.0  0.53223  0.85567  0.18523  1.0000
  C   C12       1.0  0.98294  0.94957  0.08122  1.0000
  N   N1        1.0  0.16664  0.24746  0.87190  1.0000
  N   N2        1.0  0.57791  0.19242  0.15788  1.0000
  N   N3        1.0  0.25303  0.65119  0.85527  1.0000
  N   N4        1.0  0.44503  0.46045  0.97646  1.0000
  N   N5        1.0  0.80022  0.56794  0.23246  1.0000
  N   N6        1.0  0.32334  0.99280  0.75594  1.0000
  N   N7        1.0  0.48624  0.78508  0.15660  1.0000
  N   N8        1.0  0.98470  0.89013  0.13938  1.0000
  H   H9        1.0  0.19119  0.58205  0.68073  1.0000
  H   H10       1.0  0.29676  0.09736  0.75336  1.0000
  H   H11       1.0  0.46249  0.35592  0.98815  1.0000
  H   H12       1.0  0.36592  0.39636  0.93987  1.0000
  H   H13       1.0  0.80308  0.50017  0.03114  1.0000
  H   H14       1.0  0.36864  0.04322  0.97110  1.0000
  H   H15       1.0  0.56577  0.85446  0.20004  1.0000
  H   H16       1.0  0.94622  0.93802  0.04685  1.0000
  C   C13       1.0  0.21512  0.58672  0.26864  1.0000
  C   C14       1.0  0.33963  0.24011  0.33276  1.0000
  C   C15       1.0  0.33304  0.16077  0.30638  1.0000
  C   C16       1.0  0.36960  0.14862  0.35856  1.0000
  C   C17       1.0  0.41824  0.22127  0.42625  1.0000
  C   C18       1.0  0.42651  0.30194  0.43956  1.0000
  C   C19       1.0  0.38828  0.31292  0.40072  1.0000
  C   C20       1.0  0.39935  0.39777  0.44603  1.0000
  C   C21       1.0  0.78108  0.50275  0.63669  1.0000
  C   C22       1.0  0.35315  0.05925  0.36478  1.0000
  C   C23       1.0  0.52865  0.85668  0.70639  1.0000
  C   C24       1.0  0.98096  0.95455  0.57182  1.0000
  N   N9        1.0  0.16739  0.25403  0.37458  1.0000
  N   N10       1.0  0.57680  0.19331  0.65581  1.0000
  N   N11       1.0  0.25175  0.65572  0.35365  1.0000
  N   N12       1.0  0.44581  0.46619  0.48094  1.0000
  N   N13       1.0  0.79849  0.57114  0.73365  1.0000
  N   N14       1.0  0.32120  0.99727  0.25809  1.0000
  N   N15       1.0  0.48305  0.78677  0.66868  1.0000
  N   N16       1.0  0.98161  0.89301  0.62504  1.0000
  C  Sn1       1.0  0.23079  0.14643  0.81732  1.0000
  C   C25       1.0  0.27999  0.21161  0.77367  1.0000
  C  Sn2       1.0  0.29475  0.29610  0.76313  1.0000
  C  Sn3       1.0  0.25962  0.31589  0.79702  1.0000
  C   C26       1.0  0.21047  0.25074  0.84066  1.0000
  C  Sn4       1.0  0.19567  0.16622  0.85120  1.0000
  O  Te1       1.0  0.21686  0.06242  0.82710  1.0000
  O  Te2       1.0  0.34413  0.36015  0.71921  1.0000
  O  Te3       1.0  0.27359  0.39998  0.78719  1.0000
  O  Te4       1.0  0.14632  0.10220  0.89512  1.0000
  Mg  Mg1       1.0  0.34512  0.46491  0.72251  1.0000
  Mg  Mg2       1.0  0.49323  0.99744  0.89194  1.0000
  C  Sn5       1.0  0.24105  0.47455  0.88664  1.0000
  C   C27       1.0  0.21464  0.49544  0.79078  1.0000
  C  Sn6       1.0  0.16437  0.43100  0.73096  1.0000
  C  Sn7       1.0  0.13996  0.34387  0.76781  1.0000
  C   C28       1.0  0.16636  0.32302  0.86364  1.0000
  C  Sn8       1.0  0.21665  0.38742  0.92349  1.0000
  O  Te5       1.0  0.29129  0.54002  0.94515  1.0000
  O  Te6       1.0  0.13875  0.45346  0.63532  1.0000
  O  Te7       1.0  0.08968  0.27838  0.70920  1.0000
  O  Te8       1.0  0.22195  0.31813  0.01909  1.0000
  Mg  Mg3       1.0  0.07074  0.34126  0.58403  1.0000
  Mg  Mg4       1.0  0.28995  0.43027  0.07052  1.0000
  C  Sn9       1.0  0.03460  0.08758  0.89251  1.0000
  C   C29       1.0  0.35756  0.98615  0.00579  1.0000
  C  Sn10      1.0  0.05181  0.01126  0.10677  1.0000
  C  Sn11      1.0  0.09966  0.09263  0.09434  1.0000
  C   C30       1.0  0.12461  0.19402  0.98113  1.0000
  C  Sn12      1.0  0.08245  0.16895  0.88008  1.0000
  O  Te9       1.0  0.99192  0.06115  0.79280  1.0000
  O  Te10      1.0  0.39413  0.95559  0.21905  1.0000
  O  Te11      1.0  0.14235  0.11903  0.19417  1.0000
  O  Te12      1.0  0.08804  0.22458  0.76787  1.0000
  Mg  Mg5       1.0  0.11552  0.02061  0.32810  1.0000
  Mg  Mg6       1.0  0.01874  0.15965  0.65883  1.0000
  C  Sn13      1.0  0.51474  0.29086  0.09425  1.0000
  C   C31       1.0  0.49694  0.28527  0.97231  1.0000
  C  Sn14      1.0  0.48683  0.20612  0.91462  1.0000
  C  Sn15      1.0  0.51539  0.17880  0.98024  1.0000
  C   C32       1.0  0.53316  0.18437  0.10211  1.0000
  C  Sn16      1.0  0.54330  0.26354  0.15986  1.0000
  O  Te13      1.0  0.52420  0.36974  0.15009  1.0000
  O  Te14      1.0  0.44855  0.15480  0.79261  1.0000
  O  Te15      1.0  0.50590  0.09985  0.92427  1.0000
  O  Te16      1.0  0.58155  0.31484  0.28182  1.0000
  Mg  Mg7       1.0  0.44988  0.05271  0.75662  1.0000
  Mg  Mg8       1.0  0.58023  0.41691  0.31795  1.0000
  C  Sn17      1.0  0.50395  0.96533  0.12009  1.0000
  C   C33       1.0  0.53776  0.94375  0.14883  1.0000
  C  Sn18      1.0  0.58784  0.00722  0.21146  1.0000
  C  Sn19      1.0  0.25655  0.09407  0.24619  1.0000
  C   C34       1.0  0.22276  0.11561  0.21749  1.0000
  C  Sn20      1.0  0.17266  0.05218  0.15482  1.0000
  O  Te17      1.0  0.45405  0.90081  0.05743  1.0000
  O  Te18      1.0  0.62095  0.98409  0.23912  1.0000
  O  Te19      1.0  0.30650  0.15859  0.30889  1.0000
  O  Te20      1.0  0.13957  0.07527  0.12719  1.0000
  Mg  Mg9       1.0  0.33731  0.09507  0.32583  1.0000
  Mg  Mg10      1.0  0.42319  0.96434  0.04057  1.0000
  C  Sn21      1.0  0.69193  0.39755  0.29796  1.0000
  C   C35       1.0  0.72888  0.41155  0.19330  1.0000
  C  Sn22      1.0  0.71512  0.35359  0.05888  1.0000
  C  Sn23      1.0  0.66335  0.28013  0.02836  1.0000
  C   C36       1.0  0.62643  0.26616  0.13297  1.0000
  C  Sn24      1.0  0.64016  0.32408  0.26745  1.0000
  O  Te21      1.0  0.70655  0.45634  0.43161  1.0000
  O  Te22      1.0  0.77304  0.41582  0.95600  1.0000
  O  Te23      1.0  0.66906  0.26820  0.89459  1.0000
  O  Te24      1.0  0.60257  0.30877  0.37027  1.0000
  Mg  Mg11      1.0  0.73421  0.31712  0.78975  1.0000
  Mg  Mg12      1.0  0.64136  0.40744  0.53650  1.0000
  C  Sn25      1.0  0.52597  0.72781  0.97720  1.0000
  C   C37       1.0  0.47734  0.70087  0.06746  1.0000
  C  Sn26      1.0  0.43839  0.63899  0.15839  1.0000
  C  Sn27      1.0  0.42756  0.55545  0.15923  1.0000
  C   C38       1.0  0.45588  0.53554  0.06903  1.0000
  C  Sn28      1.0  0.51514  0.64426  0.97803  1.0000
  O  Te25      1.0  0.56474  0.79068  0.88717  1.0000
  O  Te26      1.0  0.41058  0.66044  0.24762  1.0000
  O  Te27      1.0  0.38876  0.49257  0.24935  1.0000
  O  Te28      1.0  0.54295  0.62286  0.88887  1.0000
  Mg  Mg13      1.0  0.36154  0.55275  0.35123  1.0000
  Mg  Mg14      1.0  0.59201  0.73050  0.78529  1.0000
  C  Sn29      1.0  0.31979  0.82569  0.92631  1.0000
  C   C39       1.0  0.27216  0.75023  0.86987  1.0000
  C  Sn30      1.0  0.24296  0.75278  0.74909  1.0000
  C  Sn31      1.0  0.26177  0.83241  0.68326  1.0000
  C   C40       1.0  0.30937  0.90781  0.73968  1.0000
  C  Sn32      1.0  0.33860  0.90532  0.86049  1.0000
  O  Te29      1.0  0.32802  0.77475  0.04713  1.0000
  O  Te30      1.0  0.19545  0.67650  0.69465  1.0000
  O  Te31      1.0  0.23318  0.83643  0.56235  1.0000
  O  Te32      1.0  0.38608  0.98154  0.91490  1.0000
  Mg  Mg15      1.0  0.17077  0.71511  0.52804  1.0000
  Mg  Mg16      1.0  0.39050  0.89612  0.08144  1.0000
  C  Sn33      1.0  0.89314  0.79068  0.29397  1.0000
  C   C41       1.0  0.93662  0.80938  0.21958  1.0000
  C  Sn34      1.0  0.93492  0.74423  0.12741  1.0000
  C  Sn35      1.0  0.88879  0.65861  0.10910  1.0000
  C   C42       1.0  0.84534  0.63995  0.18343  1.0000
  C  Sn36      1.0  0.84701  0.70506  0.27567  1.0000
  O  Te33      1.0  0.89571  0.85682  0.38556  1.0000
  O  Te34      1.0  0.97888  0.76449  0.05424  1.0000
  O  Te35      1.0  0.88625  0.59246  0.01742  1.0000
  O  Te36      1.0  0.80308  0.68483  0.34878  1.0000
  Mg  Mg17      1.0  0.97656  0.69905  0.94139  1.0000
  Mg  Mg18      1.0  0.82565  0.79711  0.46158  1.0000
  C  Sn37      1.0  0.29328  0.32690  0.31139  1.0000
  C   C43       1.0  0.29629  0.25791  0.33215  1.0000
  C  Sn38      1.0  0.25169  0.17395  0.34129  1.0000
  C  Sn39      1.0  0.20306  0.15861  0.32934  1.0000
  C   C44       1.0  0.20008  0.22757  0.30858  1.0000
  C  Sn40      1.0  0.24466  0.31157  0.29944  1.0000
  O  Te37      1.0  0.33837  0.41031  0.30256  1.0000
  O  Te38      1.0  0.25566  0.10601  0.36212  1.0000
  O  Te39      1.0  0.15796  0.07512  0.33820  1.0000
  O  Te40      1.0  0.24070  0.37947  0.27860  1.0000
  Mg  Mg19      1.0  0.53118  0.00386  0.36708  1.0000
  Mg  Mg20      1.0  0.31309  0.48163  0.27355  1.0000
  C  Sn41      1.0  0.14378  0.40136  0.24413  1.0000
  C   C45       1.0  0.18189  0.48183  0.32436  1.0000
  C  Sn42      1.0  0.22244  0.49235  0.41302  1.0000
  C  Sn43      1.0  0.22496  0.42097  0.42159  1.0000
  C   C46       1.0  0.18687  0.34057  0.34137  1.0000
  C  Sn44      1.0  0.14631  0.32998  0.25270  1.0000
  O  Te41      1.0  0.10360  0.39232  0.15620  1.0000
  O  Te42      1.0  0.26008  0.57342  0.49225  1.0000
  O  Te43      1.0  0.26519  0.43008  0.50962  1.0000
  O  Te44      1.0  0.10869  0.24898  0.17348  1.0000
  Mg  Mg21      1.0  0.30723  0.55335  0.59664  1.0000
  Mg  Mg22      1.0  0.06154  0.26898  0.06900  1.0000
  C  Sn45      1.0  0.03484  0.09825  0.39239  1.0000
  C   C47       1.0  0.02888  0.03880  0.49616  1.0000
  C  Sn46      1.0  0.07057  0.05842  0.59307  1.0000
  C  Sn47      1.0  0.11923  0.13916  0.58621  1.0000
  C   C48       1.0  0.12517  0.19856  0.48252  1.0000
  C  Sn48      1.0  0.08350  0.17899  0.38553  1.0000
  O  Te45      1.0  0.99263  0.07728  0.29659  1.0000
  O  Te46      1.0  0.41161  0.99794  0.69583  1.0000
  O  Te47      1.0  0.16145  0.16010  0.68212  1.0000
  O  Te48      1.0  0.09037  0.23943  0.28284  1.0000
  Mg  Mg23      1.0  0.13280  0.05643  0.80276  1.0000
  Mg  Mg24      1.0  0.02127  0.18103  0.17592  1.0000
  C  Sn49      1.0  0.51767  0.25642  0.68735  1.0000
  C   C49       1.0  0.52963  0.20042  0.63010  1.0000
  C  Sn50      1.0  0.50955  0.15415  0.48024  1.0000
  C  Sn51      1.0  0.47686  0.16410  0.38556  1.0000
  C   C50       1.0  0.46492  0.22009  0.44279  1.0000
  C  Sn52      1.0  0.48498  0.26637  0.59267  1.0000
  O  Te49      1.0  0.53818  0.30202  0.83752  1.0000
  O  Te50      1.0  0.52204  0.09853  0.42559  1.0000
  O  Te51      1.0  0.45635  0.11844  0.23528  1.0000
  O  Te52      1.0  0.47251  0.32197  0.64731  1.0000
  Mg  Mg25      1.0  0.48461  0.05052  0.21304  1.0000
  Mg  Mg26      1.0  0.50994  0.37004  0.85979  1.0000
  C  Sn53      1.0  0.85326  0.01740  0.71384  1.0000
  C   C51       1.0  0.55357  0.09769  0.72653  1.0000
  C  Sn54      1.0  0.59811  0.10164  0.72051  1.0000
  C  Sn55      1.0  0.94227  0.02372  0.70130  1.0000
  C   C52       1.0  0.89405  0.94350  0.68859  1.0000
  C  Sn56      1.0  0.84949  0.93948  0.69463  1.0000
  O  Te53      1.0  0.80925  0.01500  0.72016  1.0000
  O  Te54      1.0  0.64591  0.18267  0.73351  1.0000
  O  Te55      1.0  0.98634  0.02618  0.69499  1.0000
  O  Te56      1.0  0.80171  0.85852  0.68162  1.0000
  Mg  Mg27      1.0  0.69475  0.15220  0.71800  1.0000
  Mg  Mg28      1.0  0.75285  0.88891  0.69703  1.0000
  C  Sn57      1.0  0.69021  0.39919  0.79846  1.0000
  C   C53       1.0  0.72772  0.41367  0.69586  1.0000
  C  Sn58      1.0  0.71487  0.35509  0.56332  1.0000
  C  Sn59      1.0  0.66344  0.28050  0.53260  1.0000
  C   C54       1.0  0.62596  0.26606  0.63515  1.0000
  C  Sn60      1.0  0.63878  0.32460  0.76775  1.0000
  O  Te57      1.0  0.70393  0.45862  0.93025  1.0000
  O  Te58      1.0  0.75304  0.37094  0.46249  1.0000
  O  Te59      1.0  0.64974  0.22106  0.40068  1.0000
  O  Te60      1.0  0.60065  0.30878  0.86852  1.0000
  Mg  Mg29      1.0  0.71538  0.27103  0.29828  1.0000
  Mg  Mg30      1.0  0.61795  0.36180  0.03271  1.0000
  C  Sn61      1.0  0.50343  0.68558  0.48487  1.0000
  C   C55       1.0  0.47469  0.70363  0.57759  1.0000
  C  Sn62      1.0  0.43682  0.64093  0.67009  1.0000
  C  Sn63      1.0  0.42751  0.55847  0.67000  1.0000
  C   C56       1.0  0.45625  0.54046  0.57735  1.0000
  C  Sn64      1.0  0.49412  0.60313  0.48478  1.0000
  O  Te61      1.0  0.54110  0.74924  0.39332  1.0000
  O  Te62      1.0  0.40857  0.66048  0.76177  1.0000
  O  Te63      1.0  0.38981  0.49480  0.76166  1.0000
  O  Te64      1.0  0.52237  0.58362  0.39317  1.0000
  Mg  Mg31      1.0  0.36144  0.55235  0.86673  1.0000
  Mg  Mg32      1.0  0.56953  0.69170  0.28823  1.0000
  C  Sn65      1.0  0.34117  0.87604  0.32745  1.0000
  C   C57       1.0  0.31631  0.90642  0.25254  1.0000
  C  Sn66      1.0  0.26308  0.85231  0.22254  1.0000
  C  Sn67      1.0  0.23406  0.76604  0.26847  1.0000
  C   C58       1.0  0.25891  0.73571  0.34335  1.0000
  C  Sn68      1.0  0.31215  0.78977  0.37337  1.0000
  O  Te65      1.0  0.39442  0.93127  0.35626  1.0000
  O  Te66      1.0  0.23909  0.88414  0.14744  1.0000
  O  Te67      1.0  0.18076  0.71081  0.23958  1.0000
  O  Te68      1.0  0.33613  0.75799  0.44845  1.0000
  Mg  Mg33      1.0  0.16567  0.78405  0.13406  1.0000
  Mg  Mg34      1.0  0.40955  0.85803  0.46196  1.0000
  C  Sn69      1.0  0.85410  0.74575  0.72830  1.0000
  C   C59       1.0  0.84321  0.66409  0.68874  1.0000
  C  Sn70      1.0  0.88226  0.65684  0.64604  1.0000
  C  Sn71      1.0  0.93327  0.73278  0.64291  1.0000
  C   C60       1.0  0.94415  0.81437  0.68248  1.0000
  C  Sn72      1.0  0.90512  0.82169  0.72517  1.0000
  O  Te69      1.0  0.81447  0.75146  0.77063  1.0000
  O  Te70      1.0  0.87043  0.57450  0.60692  1.0000
  O  Te71      1.0  0.97292  0.72701  0.60053  1.0000
  O  Te72      1.0  0.91693  0.90397  0.76430  1.0000
  Mg  Mg35      1.0  0.93762  0.60034  0.55713  1.0000
  Mg  Mg36      1.0  0.84977  0.87821  0.81419  1.0000
