data_image0
_chemical_formula_structural       H72C96N12C2Sn2C2HTe2HMgC2Sn2C2HTe2HMgC2Sn2C2HTe2HMgC2Sn2C2HTe2HMgC2Sn2C2HTe2HMgC2Sn2C2HTe2HMgC2Sn2C2HTe2HMgC2Sn2C2HTe2HMgC2Sn2C2HTe2HMgC2Sn2C2HTe2HMgC2Sn2C2HTe2HMgC2Sn2C2HTe2HMg
_chemical_formula_sum              "H96 C144 N12 Sn24 Te24 Mg12"
_cell_length_a       37.3037
_cell_length_b       37.2454
_cell_length_c       8.11736
_cell_angle_alpha    74.6631
_cell_angle_beta     114.971
_cell_angle_gamma    120.132

_symmetry_space_group_name_H-M    'P1'
_space_group_IT_number       1

loop_
  _space_group_symop_operation_xyz
  'x, y, z'

loop_
  _atom_site_type_symbol
  _atom_site_label
  _atom_site_symmetry_multiplicity
  _atom_site_fract_x
  _atom_site_fract_y
  _atom_site_fract_z
  _atom_site_occupancy
  H   H1        1.0  0.30068  0.58944  0.26132  1.0000
  H   H2        1.0  0.41113  0.70926  0.26777  1.0000
  H   H3        1.0  0.28909  0.69893  0.24815  1.0000
  H   H4        1.0  0.70057  0.41028  0.27372  1.0000
  H   H5        1.0  0.59115  0.28916  0.26754  1.0000
  H   H6        1.0  0.71169  0.30091  0.27152  1.0000
  H   H7        1.0  0.41601  0.51217  0.30184  1.0000
  H   H8        1.0  0.48585  0.90294  0.21085  1.0000
  H   H9        1.0  0.10157  0.58970  0.24711  1.0000
  H   H10       1.0  0.58708  0.48416  0.28248  1.0000
  H   H11       1.0  0.51506  0.10248  0.25187  1.0000
  H   H12       1.0  0.89990  0.41413  0.24039  1.0000
  H   H13       1.0  0.47485  0.42193  0.31401  1.0000
  H   H14       1.0  0.57281  0.05029  0.20854  1.0000
  H   H15       1.0  0.95518  0.52805  0.28565  1.0000
  H   H16       1.0  0.52796  0.57419  0.26640  1.0000
  H   H17       1.0  0.42700  0.95273  0.26644  1.0000
  H   H18       1.0  0.04565  0.47591  0.21224  1.0000
  H   H19       1.0  0.62851  0.61256  0.15273  1.0000
  H   H20       1.0  0.57055  0.60323  0.08684  1.0000
  H   H21       1.0  0.61212  0.54430  0.31143  1.0000
  H   H22       1.0  0.35838  0.38407  0.27532  1.0000
  H   H23       1.0  0.39765  0.39476  0.16467  1.0000
  H   H24       1.0  0.40599  0.45096  0.41057  1.0000
  H   H25       1.0  0.46653  0.06156  0.35650  1.0000
  H   H26       1.0  0.38382  0.98326  0.18350  1.0000
  H   H27       1.0  0.38730  0.02492  0.28213  1.0000
  H   H28       1.0  0.93915  0.39277  0.25928  1.0000
  H   H29       1.0  0.00411  0.41864  0.06249  1.0000
  H   H30       1.0  0.96515  0.36556  0.11847  1.0000
  H   H31       1.0  0.61264  0.97419  0.22283  1.0000
  H   H32       1.0  0.61515  0.01168  0.34473  1.0000
  H   H33       1.0  0.53299  0.94534  0.09204  1.0000
  H   H34       1.0  0.06151  0.61108  0.23239  1.0000
  H   H35       1.0  0.99790  0.58643  0.43450  1.0000
  H   H36       1.0  0.03675  0.63931  0.37561  1.0000
  H   H37       1.0  0.29810  0.58829  0.76221  1.0000
  H   H38       1.0  0.40898  0.70742  0.76345  1.0000
  H   H39       1.0  0.28826  0.69864  0.75145  1.0000
  H   H40       1.0  0.70253  0.40946  0.77614  1.0000
  H   H41       1.0  0.58951  0.29103  0.76516  1.0000
  H   H42       1.0  0.70590  0.29740  0.75035  1.0000
  H   H43       1.0  0.41775  0.51303  0.80146  1.0000
  H   H44       1.0  0.48544  0.90275  0.70756  1.0000
  H   H45       1.0  0.09927  0.58885  0.74988  1.0000
  H   H46       1.0  0.59269  0.49157  0.77916  1.0000
  H   H47       1.0  0.51018  0.10083  0.75277  1.0000
  H   H48       1.0  0.89947  0.40909  0.74233  1.0000
  H   H49       1.0  0.48262  0.42750  0.82072  1.0000
  H   H50       1.0  0.56995  0.05078  0.71052  1.0000
  H   H51       1.0  0.95219  0.52189  0.79319  1.0000
  H   H52       1.0  0.52511  0.57812  0.72910  1.0000
  H   H53       1.0  0.42292  0.95015  0.74690  1.0000
  H   H54       1.0  0.04509  0.47632  0.69819  1.0000
  H   H55       1.0  0.63302  0.62189  0.66672  1.0000
  H   H56       1.0  0.59438  0.61741  0.76632  1.0000
  H   H57       1.0  0.59620  0.54790  0.63776  1.0000
  H   H58       1.0  0.36641  0.38531  0.80213  1.0000
  H   H59       1.0  0.40454  0.39633  0.68488  1.0000
  H   H60       1.0  0.41262  0.45358  0.92506  1.0000
  H   H61       1.0  0.44972  0.06210  0.74186  1.0000
  H   H62       1.0  0.39442  0.97119  0.85116  1.0000
  H   H63       1.0  0.38560  0.01717  0.82735  1.0000
  H   H64       1.0  0.93808  0.38986  0.73945  1.0000
  H   H65       1.0  0.01018  0.41767  0.57872  1.0000
  H   H66       1.0  0.96957  0.36426  0.62106  1.0000
  H   H67       1.0  0.61544  0.97816  0.74668  1.0000
  H   H68       1.0  0.61406  0.01441  0.86093  1.0000
  H   H69       1.0  0.53550  0.94634  0.60673  1.0000
  H   H70       1.0  0.05868  0.60833  0.74547  1.0000
  H   H71       1.0  0.98879  0.58133  0.91776  1.0000
  H   H72       1.0  0.02883  0.63457  0.86999  1.0000
  C   C1        1.0  0.29001  0.64158  0.25385  1.0000
  C   C2        1.0  0.35918  0.64728  0.26449  1.0000
  C   C3        1.0  0.35274  0.71034  0.25608  1.0000
  C   C4        1.0  0.71173  0.35919  0.26899  1.0000
  C   C5        1.0  0.64306  0.35226  0.27328  1.0000
  C   C6        1.0  0.64944  0.29027  0.26990  1.0000
  C   C7        1.0  0.31536  0.62313  0.25965  1.0000
  C   C8        1.0  0.37723  0.69064  0.26397  1.0000
  C   C9        1.0  0.30893  0.68505  0.25076  1.0000
  C   C10       1.0  0.68636  0.37674  0.27193  1.0000
  C   C11       1.0  0.62481  0.30892  0.26908  1.0000
  C   C12       1.0  0.69280  0.31559  0.27124  1.0000
  C   C13       1.0  0.44915  0.53352  0.29614  1.0000
  C   C14       1.0  0.46447  0.91370  0.22145  1.0000
  C   C15       1.0  0.08902  0.55593  0.25031  1.0000
  C   C16       1.0  0.55295  0.46278  0.27558  1.0000
  C   C17       1.0  0.53660  0.08965  0.25949  1.0000
  C   C18       1.0  0.91259  0.44725  0.25402  1.0000
  C   C19       1.0  0.47511  0.51490  0.29232  1.0000
  C   C20       1.0  0.48215  0.95856  0.22289  1.0000
  C   C21       1.0  0.04358  0.52946  0.24631  1.0000
  C   C22       1.0  0.52692  0.48123  0.27947  1.0000
  C   C23       1.0  0.51726  0.04475  0.24983  1.0000
  C   C24       1.0  0.95724  0.47450  0.25105  1.0000
  C   C25       1.0  0.45905  0.47087  0.30529  1.0000
  C   C26       1.0  0.52475  0.98603  0.20962  1.0000
  C   C27       1.0  0.01831  0.54529  0.26929  1.0000
  C   C28       1.0  0.54297  0.52529  0.26596  1.0000
  C   C29       1.0  0.47460  0.01735  0.26199  1.0000
  C   C30       1.0  0.98237  0.45879  0.22585  1.0000
  C   C31       1.0  0.48550  0.45530  0.29846  1.0000
  C   C32       1.0  0.54108  0.02843  0.22392  1.0000
  C   C33       1.0  0.97578  0.51719  0.27087  1.0000
  C   C34       1.0  0.51644  0.54079  0.27287  1.0000
  C   C35       1.0  0.45843  0.97487  0.24895  1.0000
  C   C36       1.0  0.02497  0.48689  0.22525  1.0000
  C   C37       1.0  0.41617  0.44179  0.32715  1.0000
  C   C38       1.0  0.55107  0.97090  0.18056  1.0000
  C   C39       1.0  0.03587  0.58964  0.29021  1.0000
  C   C40       1.0  0.58612  0.55435  0.24761  1.0000
  C   C41       1.0  0.44834  0.03223  0.29249  1.0000
  C   C42       1.0  0.96510  0.41460  0.20383  1.0000
  C   C43       1.0  0.59562  0.59214  0.15873  1.0000
  C   C44       1.0  0.38941  0.40492  0.25219  1.0000
  C   C45       1.0  0.97906  0.39895  0.12484  1.0000
  C   C46       1.0  0.40421  0.01245  0.24967  1.0000
  C   C47       1.0  0.59531  0.98653  0.25323  1.0000
  C   C48       1.0  0.02265  0.60583  0.37033  1.0000
  C   C49       1.0  0.28830  0.64095  0.75552  1.0000
  C   C50       1.0  0.35689  0.64582  0.76436  1.0000
  C   C51       1.0  0.35139  0.70936  0.75645  1.0000
  C   C52       1.0  0.71012  0.35683  0.76288  1.0000
  C   C53       1.0  0.64335  0.35310  0.77254  1.0000
  C   C54       1.0  0.64573  0.28950  0.75943  1.0000
  C   C55       1.0  0.31315  0.62201  0.76063  1.0000
  C   C56       1.0  0.37528  0.68924  0.76242  1.0000
  C   C57       1.0  0.30770  0.68443  0.75299  1.0000
  C   C58       1.0  0.68668  0.37590  0.77113  1.0000
  C   C59       1.0  0.62320  0.30963  0.76566  1.0000
  C   C60       1.0  0.68905  0.31332  0.75849  1.0000
  C   C61       1.0  0.45057  0.53530  0.79453  1.0000
  C   C62       1.0  0.46396  0.91292  0.72164  1.0000
  C   C63       1.0  0.08667  0.55528  0.74617  1.0000
  C   C64       1.0  0.55816  0.46996  0.76579  1.0000
  C   C65       1.0  0.53074  0.08858  0.74546  1.0000
  C   C66       1.0  0.91165  0.44217  0.75451  1.0000
  C   C67       1.0  0.47774  0.51829  0.78881  1.0000
  C   C68       1.0  0.48081  0.95766  0.72335  1.0000
  C   C69       1.0  0.04133  0.52789  0.74180  1.0000
  C   C70       1.0  0.53082  0.48756  0.76518  1.0000
  C   C71       1.0  0.51236  0.04365  0.73956  1.0000
  C   C72       1.0  0.95602  0.47030  0.75034  1.0000
  C   C73       1.0  0.46384  0.47454  0.80812  1.0000
  C   C74       1.0  0.52361  0.98597  0.71415  1.0000
  C   C75       1.0  0.01540  0.54210  0.77026  1.0000
  C   C76       1.0  0.54423  0.53128  0.74119  1.0000
  C   C77       1.0  0.46969  0.01534  0.75045  1.0000
  C   C78       1.0  0.98179  0.45622  0.71965  1.0000
  C   C79       1.0  0.49102  0.46046  0.79693  1.0000
  C   C80       1.0  0.53807  0.02820  0.72284  1.0000
  C   C81       1.0  0.97341  0.51260  0.77371  1.0000
  C   C82       1.0  0.51709  0.54526  0.75420  1.0000
  C   C83       1.0  0.45528  0.97302  0.74083  1.0000
  C   C84       1.0  0.02380  0.48571  0.71666  1.0000
  C   C85       1.0  0.42243  0.44441  0.84024  1.0000
  C   C86       1.0  0.55189  0.97207  0.69292  1.0000
  C   C87       1.0  0.03153  0.58603  0.79358  1.0000
  C   C88       1.0  0.58372  0.56082  0.69448  1.0000
  C   C89       1.0  0.44098  0.02904  0.76877  1.0000
  C   C90       1.0  0.96586  0.41240  0.69564  1.0000
  C   C91       1.0  0.60473  0.60215  0.71056  1.0000
  C   C92       1.0  0.39653  0.40668  0.77256  1.0000
  C   C93       1.0  0.98294  0.39754  0.62886  1.0000
  C   C94       1.0  0.40501  0.00439  0.81662  1.0000
  C   C95       1.0  0.59614  0.98920  0.77082  1.0000
  C   C96       1.0  0.01534  0.60123  0.86349  1.0000
  N   N1        1.0  0.46431  0.57338  0.29393  1.0000
  N   N2        1.0  0.42626  0.88801  0.23684  1.0000
  N   N3        1.0  0.11414  0.54032  0.26160  1.0000
  N   N4        1.0  0.53741  0.42315  0.26778  1.0000
  N   N5        1.0  0.57770  0.11377  0.27818  1.0000
  N   N6        1.0  0.88921  0.46123  0.27418  1.0000
  N   N7        1.0  0.46446  0.57492  0.79280  1.0000
  N   N8        1.0  0.42620  0.88689  0.74024  1.0000
  N   N9        1.0  0.11175  0.54023  0.75164  1.0000
  N   N10       1.0  0.54275  0.43035  0.75854  1.0000
  N   N11       1.0  0.57052  0.11344  0.74655  1.0000
  N   N12       1.0  0.88791  0.45590  0.77313  1.0000
  C   C97       1.0  0.45671  0.63574  0.38238  1.0000
  C   C98       1.0  0.44276  0.59876  0.31084  1.0000
  C  Sn1       1.0  0.39838  0.57620  0.20790  1.0000
  C  Sn2       1.0  0.36747  0.59101  0.17618  1.0000
  C   C99       1.0  0.38176  0.62805  0.24823  1.0000
  C   C100      1.0  0.42624  0.65038  0.35110  1.0000
  H   H73       1.0  0.49113  0.65302  0.46189  1.0000
  O  Te1       1.0  0.38500  0.53931  0.13749  1.0000
  O  Te2       1.0  0.32292  0.56908  0.07372  1.0000
  H   H74       1.0  0.43704  0.67902  0.40637  1.0000
  Mg  Mg1       1.0  0.32074  0.52047  0.00651  1.0000
  C   C101      1.0  0.42109  0.79230  0.20803  1.0000
  C   C102      1.0  0.38410  0.76235  0.25365  1.0000
  C  Sn3       1.0  0.35809  0.77441  0.28786  1.0000
  C  Sn4       1.0  0.36938  0.81727  0.27602  1.0000
  C   C103      1.0  0.40643  0.84700  0.23016  1.0000
  C   C104      1.0  0.43225  0.83459  0.19626  1.0000
  H   H75       1.0  0.44105  0.78270  0.18170  1.0000
  O  Te3       1.0  0.32125  0.74408  0.33334  1.0000
  O  Te4       1.0  0.34395  0.83019  0.30946  1.0000
  H   H76       1.0  0.46087  0.85778  0.16082  1.0000
  Mg  Mg2       1.0  0.29690  0.77715  0.36670  1.0000
  C   C105      1.0  0.17604  0.61409  0.13248  1.0000
  C   C106      1.0  0.15822  0.57534  0.22304  1.0000
  C  Sn5       1.0  0.18538  0.55683  0.34101  1.0000
  C  Sn6       1.0  0.23122  0.57756  0.36859  1.0000
  C   C107      1.0  0.24874  0.61633  0.27745  1.0000
  C   C108      1.0  0.22126  0.63457  0.15967  1.0000
  H   H77       1.0  0.15479  0.62821  0.04143  1.0000
  O  Te5       1.0  0.16703  0.51810  0.43034  1.0000
  O  Te6       1.0  0.25912  0.55977  0.48579  1.0000
  H   H78       1.0  0.23507  0.66458  0.08967  1.0000
  Mg  Mg3       1.0  0.21855  0.50652  0.57646  1.0000
  C   C109      1.0  0.62306  0.42192  0.19160  1.0000
  C   C110      1.0  0.62124  0.38288  0.26563  1.0000
  C  Sn7       1.0  0.58844  0.35440  0.33878  1.0000
  C  Sn8       1.0  0.55692  0.36528  0.33754  1.0000
  C   C111      1.0  0.55901  0.40441  0.26304  1.0000
  C   C112      1.0  0.59198  0.43268  0.19026  1.0000
  H   H79       1.0  0.64856  0.44379  0.13519  1.0000
  O  Te7       1.0  0.58710  0.31553  0.41228  1.0000
  O  Te8       1.0  0.52378  0.33740  0.40969  1.0000
  H   H80       1.0  0.59337  0.46289  0.13283  1.0000
  Mg  Mg4       1.0  0.53568  0.28820  0.49454  1.0000
  C   C113      1.0  0.65493  0.21304  0.41418  1.0000
  C   C114      1.0  0.63804  0.24007  0.29512  1.0000
  C  Sn9       1.0  0.59616  0.22435  0.16101  1.0000
  C  Sn10      1.0  0.57078  0.18073  0.14617  1.0000
  C   C115      1.0  0.58795  0.15394  0.26601  1.0000
  C   C116      1.0  0.62991  0.17001  0.39968  1.0000
  H   H81       1.0  0.68738  0.22546  0.51767  1.0000
  O  Te9       1.0  0.57979  0.25180  0.04313  1.0000
  O  Te10      1.0  0.52881  0.16418  0.01342  1.0000
  H   H82       1.0  0.64296  0.14907  0.49191  1.0000
  Mg  Mg5       1.0  0.60504  0.19892  0.88453  1.0000
  C   C117      1.0  0.79299  0.43602  0.33516  1.0000
  C   C118      1.0  0.76187  0.39667  0.27092  1.0000
  C  Sn11      1.0  0.77347  0.37428  0.20570  1.0000
  C  Sn12      1.0  0.81707  0.39170  0.20500  1.0000
  C   C119      1.0  0.84798  0.43108  0.26968  1.0000
  C   C120      1.0  0.83601  0.45321  0.33458  1.0000
  H   H83       1.0  0.78374  0.45314  0.38547  1.0000
  O  Te11      1.0  0.74196  0.33501  0.14194  1.0000
  O  Te12      1.0  0.82956  0.36999  0.14064  1.0000
  H   H84       1.0  0.86013  0.48367  0.38442  1.0000
  Mg  Mg6       1.0  0.77485  0.31754  0.06778  1.0000
  C   C121      1.0  0.45491  0.63549  0.88362  1.0000
  C   C122      1.0  0.44170  0.59878  0.81196  1.0000
  C  Sn13      1.0  0.39747  0.57575  0.70878  1.0000
  C  Sn14      1.0  0.36596  0.58981  0.67694  1.0000
  C   C123      1.0  0.37951  0.62659  0.74912  1.0000
  C   C124      1.0  0.42385  0.64939  0.85222  1.0000
  H   H85       1.0  0.48922  0.65314  0.96331  1.0000
  O  Te13      1.0  0.38483  0.53913  0.63825  1.0000
  O  Te14      1.0  0.32154  0.56741  0.57424  1.0000
  H   H86       1.0  0.43407  0.67783  0.90758  1.0000
  Mg  Mg7       1.0  0.32047  0.51942  0.50695  1.0000
  C   C125      1.0  0.35163  0.78508  0.78901  1.0000
  C   C126      1.0  0.36444  0.75954  0.75201  1.0000
  C  Sn15      1.0  0.40315  0.77691  0.71229  1.0000
  C  Sn16      1.0  0.42945  0.82067  0.70972  1.0000
  C   C127      1.0  0.41635  0.84595  0.74705  1.0000
  C   C128      1.0  0.37755  0.82825  0.78657  1.0000
  H   H87       1.0  0.32162  0.77139  0.81968  1.0000
  O  Te15      1.0  0.41546  0.75094  0.67558  1.0000
  O  Te16      1.0  0.46829  0.83884  0.67051  1.0000
  H   H88       1.0  0.36765  0.84803  0.81533  1.0000
  Mg  Mg8       1.0  0.47121  0.79042  0.62946  1.0000
  C   C129      1.0  0.19760  0.62653  0.62449  1.0000
  C   C130      1.0  0.23514  0.62050  0.73205  1.0000
  C  Sn17      1.0  0.23160  0.58502  0.85088  1.0000
  C  Sn18      1.0  0.18966  0.55507  0.86189  1.0000
  C   C131      1.0  0.15230  0.56137  0.75361  1.0000
  C   C132      1.0  0.15622  0.59699  0.63522  1.0000
  H   H89       1.0  0.20062  0.65407  0.53281  1.0000
  O  Te17      1.0  0.26944  0.57950  0.95742  1.0000
  O  Te18      1.0  0.18518  0.51933  0.97944  1.0000
  H   H90       1.0  0.12715  0.60164  0.55187  1.0000
  Mg  Mg9       1.0  0.16226  0.54107  0.09696  1.0000
  C   C133      1.0  0.55940  0.36225  0.83582  1.0000
  C   C134      1.0  0.56622  0.40338  0.78087  1.0000
  C  Sn19      1.0  0.60004  0.43077  0.71160  1.0000
  C  Sn20      1.0  0.62748  0.41663  0.69718  1.0000
  C   C135      1.0  0.62036  0.37542  0.75240  1.0000
  C   C136      1.0  0.58643  0.34828  0.82158  1.0000
  H   H91       1.0  0.53313  0.34124  0.88925  1.0000
  O  Te19      1.0  0.60641  0.47176  0.65739  1.0000
  O  Te20      1.0  0.66151  0.44335  0.62837  1.0000
  H   H92       1.0  0.58114  0.31643  0.86400  1.0000
  Mg  Mg10      1.0  0.65714  0.49638  0.57238  1.0000
  C   C137      1.0  0.57163  0.21185  0.61824  1.0000
  C   C138      1.0  0.61274  0.23859  0.73188  1.0000
  C  Sn21      1.0  0.64284  0.22343  0.85221  1.0000
  C  Sn22      1.0  0.63147  0.18070  0.85854  1.0000
  C   C139      1.0  0.59027  0.15421  0.74420  1.0000
  C   C140      1.0  0.56040  0.16970  0.62434  1.0000
  H   H93       1.0  0.54852  0.22384  0.52543  1.0000
  O  Te21      1.0  0.68376  0.25057  0.96484  1.0000
  O  Te22      1.0  0.66093  0.16473  0.97747  1.0000
  H   H94       1.0  0.52858  0.14899  0.53629  1.0000
  Mg  Mg11      1.0  0.62852  0.22937  0.10397  1.0000
  C   C141      1.0  0.80927  0.37767  0.70996  1.0000
  C   C142      1.0  0.83882  0.41907  0.74976  1.0000
  C  Sn23      1.0  0.82722  0.44260  0.80808  1.0000
  C  Sn24      1.0  0.78526  0.42426  0.82683  1.0000
  C   C143      1.0  0.75595  0.38281  0.78680  1.0000
  C   C144      1.0  0.76788  0.35955  0.72849  1.0000
  H   H95       1.0  0.81851  0.35967  0.66494  1.0000
  O  Te23      1.0  0.85713  0.48392  0.84720  1.0000
  O  Te24      1.0  0.77283  0.44706  0.88493  1.0000
  H   H96       1.0  0.74501  0.32750  0.69780  1.0000
  Mg  Mg12      1.0  0.82500  0.50226  0.92177  1.0000
