data_image0
_chemical_formula_structural       H96C132N12SnCSn2CSnTe4Mg2SnCSn2CSnTe4Mg2SnCSn2CSnTe4Mg2SnCSn2CSnTe4Mg2SnCSn2CSnTe4Mg2SnCSn2CSnTe4Mg2
_chemical_formula_sum              "H96 C144 N12 Sn24 Te24 Mg12"
_cell_length_a       37.3037
_cell_length_b       37.2454
_cell_length_c       8.11736
_cell_angle_alpha    74.6631
_cell_angle_beta     114.971
_cell_angle_gamma    120.132

_symmetry_space_group_name_H-M    'P1'
_space_group_IT_number       1

loop_
  _space_group_symop_operation_xyz
  'x, y, z'

loop_
  _atom_site_type_symbol
  _atom_site_label
  _atom_site_symmetry_multiplicity
  _atom_site_fract_x
  _atom_site_fract_y
  _atom_site_fract_z
  _atom_site_occupancy
  H   H1        1.0  0.30068  0.58944  0.26132  1.0000
  H   H2        1.0  0.41113  0.70926  0.26777  1.0000
  H   H3        1.0  0.28909  0.69893  0.24815  1.0000
  H   H4        1.0  0.70057  0.41028  0.27372  1.0000
  H   H5        1.0  0.59115  0.28916  0.26754  1.0000
  H   H6        1.0  0.71169  0.30091  0.27152  1.0000
  H   H7        1.0  0.42883  0.76808  0.19105  1.0000
  H   H8        1.0  0.65177  0.43084  0.14781  1.0000
  H   H9        1.0  0.46151  0.84308  0.18123  1.0000
  H   H10       1.0  0.60744  0.46235  0.14348  1.0000
  H   H11       1.0  0.35471  0.83471  0.29437  1.0000
  H   H12       1.0  0.52752  0.34831  0.38130  1.0000
  H   H13       1.0  0.32185  0.75815  0.31036  1.0000
  H   H14       1.0  0.57375  0.31697  0.39448  1.0000
  H   H15       1.0  0.41601  0.51217  0.30184  1.0000
  H   H16       1.0  0.48585  0.90294  0.21085  1.0000
  H   H17       1.0  0.10157  0.58970  0.24711  1.0000
  H   H18       1.0  0.58708  0.48416  0.28248  1.0000
  H   H19       1.0  0.51506  0.10248  0.25187  1.0000
  H   H20       1.0  0.89990  0.41413  0.24039  1.0000
  H   H21       1.0  0.47485  0.42193  0.31401  1.0000
  H   H22       1.0  0.57281  0.05029  0.20854  1.0000
  H   H23       1.0  0.95518  0.52805  0.28565  1.0000
  H   H24       1.0  0.52796  0.57419  0.26640  1.0000
  H   H25       1.0  0.42700  0.95273  0.26644  1.0000
  H   H26       1.0  0.04565  0.47591  0.21224  1.0000
  H   H27       1.0  0.62851  0.61256  0.15273  1.0000
  H   H28       1.0  0.57055  0.60323  0.08684  1.0000
  H   H29       1.0  0.61212  0.54430  0.31143  1.0000
  H   H30       1.0  0.35838  0.38407  0.27532  1.0000
  H   H31       1.0  0.39765  0.39476  0.16467  1.0000
  H   H32       1.0  0.40599  0.45096  0.41057  1.0000
  H   H33       1.0  0.46653  0.06156  0.35650  1.0000
  H   H34       1.0  0.38382  0.98326  0.18350  1.0000
  H   H35       1.0  0.38730  0.02492  0.28213  1.0000
  H   H36       1.0  0.93915  0.39277  0.25928  1.0000
  H   H37       1.0  0.00411  0.41864  0.06249  1.0000
  H   H38       1.0  0.96515  0.36556  0.11847  1.0000
  H   H39       1.0  0.61264  0.97419  0.22283  1.0000
  H   H40       1.0  0.61515  0.01168  0.34473  1.0000
  H   H41       1.0  0.53299  0.94534  0.09204  1.0000
  H   H42       1.0  0.06151  0.61108  0.23239  1.0000
  H   H43       1.0  0.99790  0.58643  0.43450  1.0000
  H   H44       1.0  0.03675  0.63931  0.37561  1.0000
  H   H45       1.0  0.29810  0.58829  0.76221  1.0000
  H   H46       1.0  0.40898  0.70742  0.76345  1.0000
  H   H47       1.0  0.28826  0.69864  0.75145  1.0000
  H   H48       1.0  0.70253  0.40946  0.77614  1.0000
  H   H49       1.0  0.58951  0.29103  0.76516  1.0000
  H   H50       1.0  0.70590  0.29740  0.75035  1.0000
  H   H51       1.0  0.32964  0.57634  0.60322  1.0000
  H   H52       1.0  0.21750  0.65655  0.55620  1.0000
  H   H53       1.0  0.56209  0.23826  0.55192  1.0000
  H   H54       1.0  0.75678  0.33424  0.65983  1.0000
  H   H55       1.0  0.37519  0.54511  0.61179  1.0000
  H   H56       1.0  0.14076  0.61446  0.55630  1.0000
  H   H57       1.0  0.52881  0.16181  0.54252  1.0000
  H   H58       1.0  0.83273  0.37426  0.66742  1.0000
  H   H59       1.0  0.49071  0.64021  0.94803  1.0000
  H   H60       1.0  0.17844  0.52467  0.94198  1.0000
  H   H61       1.0  0.64949  0.16156  0.93957  1.0000
  H   H62       1.0  0.84415  0.47764  0.86173  1.0000
  H   H63       1.0  0.44497  0.67137  0.94266  1.0000
  H   H64       1.0  0.25588  0.56779  0.94855  1.0000
  H   H65       1.0  0.68278  0.23831  0.95198  1.0000
  H   H66       1.0  0.76773  0.43670  0.86128  1.0000
  H   H67       1.0  0.41775  0.51303  0.80146  1.0000
  H   H68       1.0  0.48544  0.90275  0.70756  1.0000
  H   H69       1.0  0.09927  0.58885  0.74988  1.0000
  H   H70       1.0  0.59269  0.49157  0.77916  1.0000
  H   H71       1.0  0.51018  0.10083  0.75277  1.0000
  H   H72       1.0  0.89947  0.40909  0.74233  1.0000
  H   H73       1.0  0.48262  0.42750  0.82072  1.0000
  H   H74       1.0  0.56995  0.05078  0.71052  1.0000
  H   H75       1.0  0.95219  0.52189  0.79319  1.0000
  H   H76       1.0  0.52511  0.57812  0.72910  1.0000
  H   H77       1.0  0.42292  0.95015  0.74690  1.0000
  H   H78       1.0  0.04509  0.47632  0.69819  1.0000
  H   H79       1.0  0.63302  0.62189  0.66672  1.0000
  H   H80       1.0  0.59438  0.61741  0.76632  1.0000
  H   H81       1.0  0.59620  0.54790  0.63776  1.0000
  H   H82       1.0  0.36641  0.38531  0.80213  1.0000
  H   H83       1.0  0.40454  0.39633  0.68488  1.0000
  H   H84       1.0  0.41262  0.45358  0.92506  1.0000
  H   H85       1.0  0.44972  0.06210  0.74186  1.0000
  H   H86       1.0  0.39442  0.97119  0.85116  1.0000
  H   H87       1.0  0.38560  0.01717  0.82735  1.0000
  H   H88       1.0  0.93808  0.38986  0.73945  1.0000
  H   H89       1.0  0.01018  0.41767  0.57872  1.0000
  H   H90       1.0  0.96957  0.36426  0.62106  1.0000
  H   H91       1.0  0.61544  0.97816  0.74668  1.0000
  H   H92       1.0  0.61406  0.01441  0.86093  1.0000
  H   H93       1.0  0.53550  0.94634  0.60673  1.0000
  H   H94       1.0  0.05868  0.60833  0.74547  1.0000
  H   H95       1.0  0.98879  0.58133  0.91776  1.0000
  H   H96       1.0  0.02883  0.63457  0.86999  1.0000
  C   C1        1.0  0.29001  0.64158  0.25385  1.0000
  C   C2        1.0  0.35918  0.64728  0.26449  1.0000
  C   C3        1.0  0.35274  0.71034  0.25608  1.0000
  C   C4        1.0  0.71173  0.35919  0.26899  1.0000
  C   C5        1.0  0.64306  0.35226  0.27328  1.0000
  C   C6        1.0  0.64944  0.29027  0.26990  1.0000
  C   C7        1.0  0.31536  0.62313  0.25965  1.0000
  C   C8        1.0  0.37723  0.69064  0.26397  1.0000
  C   C9        1.0  0.30893  0.68505  0.25076  1.0000
  C   C10       1.0  0.68636  0.37674  0.27193  1.0000
  C   C11       1.0  0.62481  0.30892  0.26908  1.0000
  C   C12       1.0  0.69280  0.31559  0.27124  1.0000
  C   C13       1.0  0.37249  0.75625  0.25260  1.0000
  C   C14       1.0  0.61699  0.37153  0.27538  1.0000
  C   C15       1.0  0.41258  0.78197  0.21916  1.0000
  C   C16       1.0  0.62595  0.41300  0.20736  1.0000
  C   C17       1.0  0.43126  0.82502  0.21278  1.0000
  C   C18       1.0  0.60063  0.43084  0.20363  1.0000
  C   C19       1.0  0.41056  0.84494  0.23905  1.0000
  C   C20       1.0  0.56461  0.40774  0.26615  1.0000
  C   C21       1.0  0.37045  0.81953  0.27114  1.0000
  C   C22       1.0  0.55493  0.36606  0.33078  1.0000
  C   C23       1.0  0.35207  0.77636  0.27878  1.0000
  C   C24       1.0  0.58094  0.34869  0.33716  1.0000
  C   C25       1.0  0.44915  0.53352  0.29614  1.0000
  C   C26       1.0  0.46447  0.91370  0.22145  1.0000
  C   C27       1.0  0.08902  0.55593  0.25031  1.0000
  C   C28       1.0  0.55295  0.46278  0.27558  1.0000
  C   C29       1.0  0.53660  0.08965  0.25949  1.0000
  C   C30       1.0  0.91259  0.44725  0.25402  1.0000
  C   C31       1.0  0.47511  0.51490  0.29232  1.0000
  C   C32       1.0  0.48215  0.95856  0.22289  1.0000
  C   C33       1.0  0.04358  0.52946  0.24631  1.0000
  C   C34       1.0  0.52692  0.48123  0.27947  1.0000
  C   C35       1.0  0.51726  0.04475  0.24983  1.0000
  C   C36       1.0  0.95724  0.47450  0.25105  1.0000
  C   C37       1.0  0.45905  0.47087  0.30529  1.0000
  C   C38       1.0  0.52475  0.98603  0.20962  1.0000
  C   C39       1.0  0.01831  0.54529  0.26929  1.0000
  C   C40       1.0  0.54297  0.52529  0.26596  1.0000
  C   C41       1.0  0.47460  0.01735  0.26199  1.0000
  C   C42       1.0  0.98237  0.45879  0.22585  1.0000
  C   C43       1.0  0.48550  0.45530  0.29846  1.0000
  C   C44       1.0  0.54108  0.02843  0.22392  1.0000
  C   C45       1.0  0.97578  0.51719  0.27087  1.0000
  C   C46       1.0  0.51644  0.54079  0.27287  1.0000
  C   C47       1.0  0.45843  0.97487  0.24895  1.0000
  C   C48       1.0  0.02497  0.48689  0.22525  1.0000
  C   C49       1.0  0.41617  0.44179  0.32715  1.0000
  C   C50       1.0  0.55107  0.97090  0.18056  1.0000
  C   C51       1.0  0.03587  0.58964  0.29021  1.0000
  C   C52       1.0  0.58612  0.55435  0.24761  1.0000
  C   C53       1.0  0.44834  0.03223  0.29249  1.0000
  C   C54       1.0  0.96510  0.41460  0.20383  1.0000
  C   C55       1.0  0.59562  0.59214  0.15873  1.0000
  C   C56       1.0  0.38941  0.40492  0.25219  1.0000
  C   C57       1.0  0.97906  0.39895  0.12484  1.0000
  C   C58       1.0  0.40421  0.01245  0.24967  1.0000
  C   C59       1.0  0.59531  0.98653  0.25323  1.0000
  C   C60       1.0  0.02265  0.60583  0.37033  1.0000
  C   C61       1.0  0.28830  0.64095  0.75552  1.0000
  C   C62       1.0  0.35689  0.64582  0.76436  1.0000
  C   C63       1.0  0.35139  0.70936  0.75645  1.0000
  C   C64       1.0  0.71012  0.35683  0.76288  1.0000
  C   C65       1.0  0.64335  0.35310  0.77254  1.0000
  C   C66       1.0  0.64573  0.28950  0.75943  1.0000
  C   C67       1.0  0.31315  0.62201  0.76063  1.0000
  C   C68       1.0  0.37528  0.68924  0.76242  1.0000
  C   C69       1.0  0.30770  0.68443  0.75299  1.0000
  C   C70       1.0  0.68668  0.37590  0.77113  1.0000
  C   C71       1.0  0.62320  0.30963  0.76566  1.0000
  C   C72       1.0  0.68905  0.31332  0.75849  1.0000
  C   C73       1.0  0.24256  0.61566  0.75455  1.0000
  C   C74       1.0  0.38364  0.62625  0.77208  1.0000
  C   C75       1.0  0.75568  0.38179  0.76094  1.0000
  C   C76       1.0  0.62474  0.24382  0.75433  1.0000
  C   C77       1.0  0.36471  0.58983  0.68390  1.0000
  C   C78       1.0  0.20941  0.62838  0.64569  1.0000
  C   C79       1.0  0.58101  0.22149  0.64112  1.0000
  C   C80       1.0  0.77594  0.36514  0.71062  1.0000
  C   C81       1.0  0.39026  0.57192  0.68967  1.0000
  C   C82       1.0  0.16622  0.60466  0.64469  1.0000
  C   C83       1.0  0.56208  0.17843  0.63632  1.0000
  C   C84       1.0  0.81937  0.38793  0.71544  1.0000
  C   C85       1.0  0.43618  0.58995  0.78587  1.0000
  C   C86       1.0  0.15458  0.56678  0.75111  1.0000
  C   C87       1.0  0.58662  0.15636  0.74579  1.0000
  C   C88       1.0  0.84472  0.42913  0.76997  1.0000
  C   C89       1.0  0.45535  0.62657  0.87291  1.0000
  C   C90       1.0  0.18752  0.55366  0.85826  1.0000
  C   C91       1.0  0.63070  0.17877  0.85632  1.0000
  C   C92       1.0  0.82443  0.44611  0.81741  1.0000
  C   C93       1.0  0.42955  0.64401  0.86775  1.0000
  C   C94       1.0  0.23066  0.57791  0.86101  1.0000
  C   C95       1.0  0.64907  0.22153  0.86190  1.0000
  C   C96       1.0  0.78116  0.42295  0.81429  1.0000
  C   C97       1.0  0.45057  0.53530  0.79453  1.0000
  C   C98       1.0  0.46396  0.91292  0.72164  1.0000
  C   C99       1.0  0.08667  0.55528  0.74617  1.0000
  C   C100      1.0  0.55816  0.46996  0.76579  1.0000
  C   C101      1.0  0.53074  0.08858  0.74546  1.0000
  C   C102      1.0  0.91165  0.44217  0.75451  1.0000
  C   C103      1.0  0.47774  0.51829  0.78881  1.0000
  C   C104      1.0  0.48081  0.95766  0.72335  1.0000
  C   C105      1.0  0.04133  0.52789  0.74180  1.0000
  C   C106      1.0  0.53082  0.48756  0.76518  1.0000
  C   C107      1.0  0.51236  0.04365  0.73956  1.0000
  C   C108      1.0  0.95602  0.47030  0.75034  1.0000
  C   C109      1.0  0.46384  0.47454  0.80812  1.0000
  C   C110      1.0  0.52361  0.98597  0.71415  1.0000
  C   C111      1.0  0.01540  0.54210  0.77026  1.0000
  C   C112      1.0  0.54423  0.53128  0.74119  1.0000
  C   C113      1.0  0.46969  0.01534  0.75045  1.0000
  C   C114      1.0  0.98179  0.45622  0.71965  1.0000
  C   C115      1.0  0.49102  0.46046  0.79693  1.0000
  C   C116      1.0  0.53807  0.02820  0.72284  1.0000
  C   C117      1.0  0.97341  0.51260  0.77371  1.0000
  C   C118      1.0  0.51709  0.54526  0.75420  1.0000
  C   C119      1.0  0.45528  0.97302  0.74083  1.0000
  C   C120      1.0  0.02380  0.48571  0.71666  1.0000
  C   C121      1.0  0.42243  0.44441  0.84024  1.0000
  C   C122      1.0  0.55189  0.97207  0.69292  1.0000
  C   C123      1.0  0.03153  0.58603  0.79358  1.0000
  C   C124      1.0  0.58372  0.56082  0.69448  1.0000
  C   C125      1.0  0.44098  0.02904  0.76877  1.0000
  C   C126      1.0  0.96586  0.41240  0.69564  1.0000
  C   C127      1.0  0.60473  0.60215  0.71056  1.0000
  C   C128      1.0  0.39653  0.40668  0.77256  1.0000
  C   C129      1.0  0.98294  0.39754  0.62886  1.0000
  C   C130      1.0  0.40501  0.00439  0.81662  1.0000
  C   C131      1.0  0.59614  0.98920  0.77082  1.0000
  C   C132      1.0  0.01534  0.60123  0.86349  1.0000
  N   N1        1.0  0.46431  0.57338  0.29393  1.0000
  N   N2        1.0  0.42626  0.88801  0.23684  1.0000
  N   N3        1.0  0.11414  0.54032  0.26160  1.0000
  N   N4        1.0  0.53741  0.42315  0.26778  1.0000
  N   N5        1.0  0.57770  0.11377  0.27818  1.0000
  N   N6        1.0  0.88921  0.46123  0.27418  1.0000
  N   N7        1.0  0.46446  0.57492  0.79280  1.0000
  N   N8        1.0  0.42620  0.88689  0.74024  1.0000
  N   N9        1.0  0.11175  0.54023  0.75164  1.0000
  N   N10       1.0  0.54275  0.43035  0.75854  1.0000
  N   N11       1.0  0.57052  0.11344  0.74655  1.0000
  N   N12       1.0  0.88791  0.45590  0.77313  1.0000
  C  Sn1       1.0  0.42191  0.81517  0.65852  1.0000
  C   C133      1.0  0.40777  0.84007  0.69160  1.0000
  C  Sn2       1.0  0.37623  0.82268  0.77584  1.0000
  C  Sn3       1.0  0.35848  0.77951  0.82823  1.0000
  C   C134      1.0  0.37262  0.75464  0.79519  1.0000
  C  Sn4       1.0  0.40416  0.77200  0.71092  1.0000
  O  Te1       1.0  0.45348  0.83321  0.57413  1.0000
  O  Te2       1.0  0.36259  0.84820  0.80742  1.0000
  O  Te3       1.0  0.32689  0.76148  0.91268  1.0000
  O  Te4       1.0  0.41780  0.74651  0.67937  1.0000
  Mg  Mg1       1.0  0.31885  0.80911  0.92658  1.0000
  Mg  Mg2       1.0  0.46155  0.78557  0.56031  1.0000
  C  Sn5       1.0  0.17291  0.60458  0.09722  1.0000
  C   C135      1.0  0.15691  0.56801  0.20352  1.0000
  C  Sn6       1.0  0.18617  0.55612  0.35381  1.0000
  C  Sn7       1.0  0.23239  0.58132  0.39889  1.0000
  C   C136      1.0  0.24836  0.61787  0.29265  1.0000
  C  Sn8       1.0  0.21912  0.62978  0.14230  1.0000
  O  Te5       1.0  0.22723  0.60055  0.94758  1.0000
  O  Te6       1.0  0.16939  0.51941  0.45800  1.0000
  O  Te7       1.0  0.26224  0.57000  0.54866  1.0000
  O  Te8       1.0  0.23588  0.66647  0.03817  1.0000
  Mg  Mg3       1.0  0.22332  0.51723  0.64880  1.0000
  Mg  Mg4       1.0  0.26616  0.65337  0.84740  1.0000
  C  Sn9       1.0  0.79098  0.36796  0.25856  1.0000
  C   C137      1.0  0.76613  0.37929  0.30505  1.0000
  C  Sn10      1.0  0.78001  0.42103  0.32248  1.0000
  C  Sn11      1.0  0.81954  0.45210  0.29270  1.0000
  C   C138      1.0  0.84436  0.44076  0.24621  1.0000
  C  Sn12      1.0  0.83051  0.39902  0.22879  1.0000
  O  Te9       1.0  0.77648  0.32604  0.24188  1.0000
  O  Te10      1.0  0.75461  0.43160  0.36914  1.0000
  O  Te11      1.0  0.83402  0.49404  0.30943  1.0000
  O  Te12      1.0  0.85588  0.38845  0.18213  1.0000
  Mg  Mg5       1.0  0.78808  0.49290  0.37548  1.0000
  Mg  Mg6       1.0  0.82243  0.32717  0.17565  1.0000
  C  Sn13      1.0  0.44193  0.65040  0.32949  1.0000
  C   C139      1.0  0.39635  0.63687  0.24566  1.0000
  C  Sn14      1.0  0.36871  0.59660  0.18683  1.0000
  C  Sn15      1.0  0.38701  0.56927  0.21241  1.0000
  C   C140      1.0  0.43257  0.58280  0.29622  1.0000
  C  Sn16      1.0  0.46024  0.62307  0.35507  1.0000
  O  Te13      1.0  0.46894  0.69079  0.38724  1.0000
  O  Te14      1.0  0.32323  0.58379  0.10332  1.0000
  O  Te15      1.0  0.35996  0.52886  0.15457  1.0000
  O  Te16      1.0  0.50568  0.63589  0.43855  1.0000
  Mg  Mg7       1.0  0.30008  0.52583  0.04811  1.0000
  Mg  Mg8       1.0  0.52886  0.69383  0.49390  1.0000
  C  Sn17      1.0  0.60432  0.42995  0.64756  1.0000
  C   C141      1.0  0.56947  0.41415  0.71203  1.0000
  C  Sn18      1.0  0.56087  0.37810  0.82845  1.0000
  C  Sn19      1.0  0.58766  0.35742  0.88165  1.0000
  C   C142      1.0  0.62249  0.37322  0.81722  1.0000
  C  Sn20      1.0  0.63111  0.40927  0.70076  1.0000
  O  Te17      1.0  0.61232  0.46604  0.53130  1.0000
  O  Te18      1.0  0.52584  0.36289  0.89107  1.0000
  O  Te19      1.0  0.57963  0.32130  0.99799  1.0000
  O  Te20      1.0  0.66612  0.42448  0.63818  1.0000
  Mg  Mg9       1.0  0.44392  0.32803  0.04709  1.0000
  Mg  Mg10      1.0  0.66390  0.47466  0.48224  1.0000
  C  Sn21      1.0  0.57585  0.21081  0.17659  1.0000
  C   C143      1.0  0.61743  0.23810  0.28521  1.0000
  C  Sn22      1.0  0.65054  0.22518  0.38179  1.0000
  C  Sn23      1.0  0.64192  0.18413  0.36949  1.0000
  C   C144      1.0  0.60037  0.15686  0.26090  1.0000
  C  Sn24      1.0  0.56724  0.16975  0.16428  1.0000
  O  Te21      1.0  0.54325  0.22439  0.08121  1.0000
  O  Te22      1.0  0.69184  0.25303  0.48954  1.0000
  O  Te23      1.0  0.67457  0.17056  0.46499  1.0000
  O  Te24      1.0  0.52596  0.14194  0.05657  1.0000
  Mg  Mg11      1.0  0.72555  0.21995  0.59356  1.0000
  Mg  Mg12      1.0  0.57642  0.15966  0.95242  1.0000
