data_image0
_chemical_formula_structural       H72C96N12SnCSn2CSnTe4Mg2SnCSn2CSnTe4Mg2SnCSn2CSnTe4Mg2SnCSn2CSnTe4Mg2SnCSn2CSnTe4Mg2SnCSn2CSnTe4Mg2SnCSn2CSnTe4Mg2SnCSn2CSnTe4Mg2SnCSn2CSnTe4Mg2SnCSn2CSnTe4Mg2SnCSn2CSnTe4Mg2SnCSn2CSnTe4Mg2
_chemical_formula_sum              "H72 C120 N12 Sn48 Te48 Mg24"
_cell_length_a       37.3037
_cell_length_b       37.2454
_cell_length_c       8.11736
_cell_angle_alpha    74.6631
_cell_angle_beta     114.971
_cell_angle_gamma    120.132

_symmetry_space_group_name_H-M    'P1'
_space_group_IT_number       1

loop_
  _space_group_symop_operation_xyz
  'x, y, z'

loop_
  _atom_site_type_symbol
  _atom_site_label
  _atom_site_symmetry_multiplicity
  _atom_site_fract_x
  _atom_site_fract_y
  _atom_site_fract_z
  _atom_site_occupancy
  H   H1        1.0  0.30068  0.58944  0.26132  1.0000
  H   H2        1.0  0.41113  0.70926  0.26777  1.0000
  H   H3        1.0  0.28909  0.69893  0.24815  1.0000
  H   H4        1.0  0.70057  0.41028  0.27372  1.0000
  H   H5        1.0  0.59115  0.28916  0.26754  1.0000
  H   H6        1.0  0.71169  0.30091  0.27152  1.0000
  H   H7        1.0  0.41601  0.51217  0.30184  1.0000
  H   H8        1.0  0.48585  0.90294  0.21085  1.0000
  H   H9        1.0  0.10157  0.58970  0.24711  1.0000
  H   H10       1.0  0.58708  0.48416  0.28248  1.0000
  H   H11       1.0  0.51506  0.10248  0.25187  1.0000
  H   H12       1.0  0.89990  0.41413  0.24039  1.0000
  H   H13       1.0  0.47485  0.42193  0.31401  1.0000
  H   H14       1.0  0.57281  0.05029  0.20854  1.0000
  H   H15       1.0  0.95518  0.52805  0.28565  1.0000
  H   H16       1.0  0.52796  0.57419  0.26640  1.0000
  H   H17       1.0  0.42700  0.95273  0.26644  1.0000
  H   H18       1.0  0.04565  0.47591  0.21224  1.0000
  H   H19       1.0  0.62851  0.61256  0.15273  1.0000
  H   H20       1.0  0.57055  0.60323  0.08684  1.0000
  H   H21       1.0  0.61212  0.54430  0.31143  1.0000
  H   H22       1.0  0.35838  0.38407  0.27532  1.0000
  H   H23       1.0  0.39765  0.39476  0.16467  1.0000
  H   H24       1.0  0.40599  0.45096  0.41057  1.0000
  H   H25       1.0  0.46653  0.06156  0.35650  1.0000
  H   H26       1.0  0.38382  0.98326  0.18350  1.0000
  H   H27       1.0  0.38730  0.02492  0.28213  1.0000
  H   H28       1.0  0.93915  0.39277  0.25928  1.0000
  H   H29       1.0  0.00411  0.41864  0.06249  1.0000
  H   H30       1.0  0.96515  0.36556  0.11847  1.0000
  H   H31       1.0  0.61264  0.97419  0.22283  1.0000
  H   H32       1.0  0.61515  0.01168  0.34473  1.0000
  H   H33       1.0  0.53299  0.94534  0.09204  1.0000
  H   H34       1.0  0.06151  0.61108  0.23239  1.0000
  H   H35       1.0  0.99790  0.58643  0.43450  1.0000
  H   H36       1.0  0.03675  0.63931  0.37561  1.0000
  H   H37       1.0  0.29810  0.58829  0.76221  1.0000
  H   H38       1.0  0.40898  0.70742  0.76345  1.0000
  H   H39       1.0  0.28826  0.69864  0.75145  1.0000
  H   H40       1.0  0.70253  0.40946  0.77614  1.0000
  H   H41       1.0  0.58951  0.29103  0.76516  1.0000
  H   H42       1.0  0.70590  0.29740  0.75035  1.0000
  H   H43       1.0  0.41775  0.51303  0.80146  1.0000
  H   H44       1.0  0.48544  0.90275  0.70756  1.0000
  H   H45       1.0  0.09927  0.58885  0.74988  1.0000
  H   H46       1.0  0.59269  0.49157  0.77916  1.0000
  H   H47       1.0  0.51018  0.10083  0.75277  1.0000
  H   H48       1.0  0.89947  0.40909  0.74233  1.0000
  H   H49       1.0  0.48262  0.42750  0.82072  1.0000
  H   H50       1.0  0.56995  0.05078  0.71052  1.0000
  H   H51       1.0  0.95219  0.52189  0.79319  1.0000
  H   H52       1.0  0.52511  0.57812  0.72910  1.0000
  H   H53       1.0  0.42292  0.95015  0.74690  1.0000
  H   H54       1.0  0.04509  0.47632  0.69819  1.0000
  H   H55       1.0  0.63302  0.62189  0.66672  1.0000
  H   H56       1.0  0.59438  0.61741  0.76632  1.0000
  H   H57       1.0  0.59620  0.54790  0.63776  1.0000
  H   H58       1.0  0.36641  0.38531  0.80213  1.0000
  H   H59       1.0  0.40454  0.39633  0.68488  1.0000
  H   H60       1.0  0.41262  0.45358  0.92506  1.0000
  H   H61       1.0  0.44972  0.06210  0.74186  1.0000
  H   H62       1.0  0.39442  0.97119  0.85116  1.0000
  H   H63       1.0  0.38560  0.01717  0.82735  1.0000
  H   H64       1.0  0.93808  0.38986  0.73945  1.0000
  H   H65       1.0  0.01018  0.41767  0.57872  1.0000
  H   H66       1.0  0.96957  0.36426  0.62106  1.0000
  H   H67       1.0  0.61544  0.97816  0.74668  1.0000
  H   H68       1.0  0.61406  0.01441  0.86093  1.0000
  H   H69       1.0  0.53550  0.94634  0.60673  1.0000
  H   H70       1.0  0.05868  0.60833  0.74547  1.0000
  H   H71       1.0  0.98879  0.58133  0.91776  1.0000
  H   H72       1.0  0.02883  0.63457  0.86999  1.0000
  C   C1        1.0  0.29001  0.64158  0.25385  1.0000
  C   C2        1.0  0.35918  0.64728  0.26449  1.0000
  C   C3        1.0  0.35274  0.71034  0.25608  1.0000
  C   C4        1.0  0.71173  0.35919  0.26899  1.0000
  C   C5        1.0  0.64306  0.35226  0.27328  1.0000
  C   C6        1.0  0.64944  0.29027  0.26990  1.0000
  C   C7        1.0  0.31536  0.62313  0.25965  1.0000
  C   C8        1.0  0.37723  0.69064  0.26397  1.0000
  C   C9        1.0  0.30893  0.68505  0.25076  1.0000
  C   C10       1.0  0.68636  0.37674  0.27193  1.0000
  C   C11       1.0  0.62481  0.30892  0.26908  1.0000
  C   C12       1.0  0.69280  0.31559  0.27124  1.0000
  C   C13       1.0  0.44915  0.53352  0.29614  1.0000
  C   C14       1.0  0.46447  0.91370  0.22145  1.0000
  C   C15       1.0  0.08902  0.55593  0.25031  1.0000
  C   C16       1.0  0.55295  0.46278  0.27558  1.0000
  C   C17       1.0  0.53660  0.08965  0.25949  1.0000
  C   C18       1.0  0.91259  0.44725  0.25402  1.0000
  C   C19       1.0  0.47511  0.51490  0.29232  1.0000
  C   C20       1.0  0.48215  0.95856  0.22289  1.0000
  C   C21       1.0  0.04358  0.52946  0.24631  1.0000
  C   C22       1.0  0.52692  0.48123  0.27947  1.0000
  C   C23       1.0  0.51726  0.04475  0.24983  1.0000
  C   C24       1.0  0.95724  0.47450  0.25105  1.0000
  C   C25       1.0  0.45905  0.47087  0.30529  1.0000
  C   C26       1.0  0.52475  0.98603  0.20962  1.0000
  C   C27       1.0  0.01831  0.54529  0.26929  1.0000
  C   C28       1.0  0.54297  0.52529  0.26596  1.0000
  C   C29       1.0  0.47460  0.01735  0.26199  1.0000
  C   C30       1.0  0.98237  0.45879  0.22585  1.0000
  C   C31       1.0  0.48550  0.45530  0.29846  1.0000
  C   C32       1.0  0.54108  0.02843  0.22392  1.0000
  C   C33       1.0  0.97578  0.51719  0.27087  1.0000
  C   C34       1.0  0.51644  0.54079  0.27287  1.0000
  C   C35       1.0  0.45843  0.97487  0.24895  1.0000
  C   C36       1.0  0.02497  0.48689  0.22525  1.0000
  C   C37       1.0  0.41617  0.44179  0.32715  1.0000
  C   C38       1.0  0.55107  0.97090  0.18056  1.0000
  C   C39       1.0  0.03587  0.58964  0.29021  1.0000
  C   C40       1.0  0.58612  0.55435  0.24761  1.0000
  C   C41       1.0  0.44834  0.03223  0.29249  1.0000
  C   C42       1.0  0.96510  0.41460  0.20383  1.0000
  C   C43       1.0  0.59562  0.59214  0.15873  1.0000
  C   C44       1.0  0.38941  0.40492  0.25219  1.0000
  C   C45       1.0  0.97906  0.39895  0.12484  1.0000
  C   C46       1.0  0.40421  0.01245  0.24967  1.0000
  C   C47       1.0  0.59531  0.98653  0.25323  1.0000
  C   C48       1.0  0.02265  0.60583  0.37033  1.0000
  C   C49       1.0  0.28830  0.64095  0.75552  1.0000
  C   C50       1.0  0.35689  0.64582  0.76436  1.0000
  C   C51       1.0  0.35139  0.70936  0.75645  1.0000
  C   C52       1.0  0.71012  0.35683  0.76288  1.0000
  C   C53       1.0  0.64335  0.35310  0.77254  1.0000
  C   C54       1.0  0.64573  0.28950  0.75943  1.0000
  C   C55       1.0  0.31315  0.62201  0.76063  1.0000
  C   C56       1.0  0.37528  0.68924  0.76242  1.0000
  C   C57       1.0  0.30770  0.68443  0.75299  1.0000
  C   C58       1.0  0.68668  0.37590  0.77113  1.0000
  C   C59       1.0  0.62320  0.30963  0.76566  1.0000
  C   C60       1.0  0.68905  0.31332  0.75849  1.0000
  C   C61       1.0  0.45057  0.53530  0.79453  1.0000
  C   C62       1.0  0.46396  0.91292  0.72164  1.0000
  C   C63       1.0  0.08667  0.55528  0.74617  1.0000
  C   C64       1.0  0.55816  0.46996  0.76579  1.0000
  C   C65       1.0  0.53074  0.08858  0.74546  1.0000
  C   C66       1.0  0.91165  0.44217  0.75451  1.0000
  C   C67       1.0  0.47774  0.51829  0.78881  1.0000
  C   C68       1.0  0.48081  0.95766  0.72335  1.0000
  C   C69       1.0  0.04133  0.52789  0.74180  1.0000
  C   C70       1.0  0.53082  0.48756  0.76518  1.0000
  C   C71       1.0  0.51236  0.04365  0.73956  1.0000
  C   C72       1.0  0.95602  0.47030  0.75034  1.0000
  C   C73       1.0  0.46384  0.47454  0.80812  1.0000
  C   C74       1.0  0.52361  0.98597  0.71415  1.0000
  C   C75       1.0  0.01540  0.54210  0.77026  1.0000
  C   C76       1.0  0.54423  0.53128  0.74119  1.0000
  C   C77       1.0  0.46969  0.01534  0.75045  1.0000
  C   C78       1.0  0.98179  0.45622  0.71965  1.0000
  C   C79       1.0  0.49102  0.46046  0.79693  1.0000
  C   C80       1.0  0.53807  0.02820  0.72284  1.0000
  C   C81       1.0  0.97341  0.51260  0.77371  1.0000
  C   C82       1.0  0.51709  0.54526  0.75420  1.0000
  C   C83       1.0  0.45528  0.97302  0.74083  1.0000
  C   C84       1.0  0.02380  0.48571  0.71666  1.0000
  C   C85       1.0  0.42243  0.44441  0.84024  1.0000
  C   C86       1.0  0.55189  0.97207  0.69292  1.0000
  C   C87       1.0  0.03153  0.58603  0.79358  1.0000
  C   C88       1.0  0.58372  0.56082  0.69448  1.0000
  C   C89       1.0  0.44098  0.02904  0.76877  1.0000
  C   C90       1.0  0.96586  0.41240  0.69564  1.0000
  C   C91       1.0  0.60473  0.60215  0.71056  1.0000
  C   C92       1.0  0.39653  0.40668  0.77256  1.0000
  C   C93       1.0  0.98294  0.39754  0.62886  1.0000
  C   C94       1.0  0.40501  0.00439  0.81662  1.0000
  C   C95       1.0  0.59614  0.98920  0.77082  1.0000
  C   C96       1.0  0.01534  0.60123  0.86349  1.0000
  N   N1        1.0  0.46431  0.57338  0.29393  1.0000
  N   N2        1.0  0.42626  0.88801  0.23684  1.0000
  N   N3        1.0  0.11414  0.54032  0.26160  1.0000
  N   N4        1.0  0.53741  0.42315  0.26778  1.0000
  N   N5        1.0  0.57770  0.11377  0.27818  1.0000
  N   N6        1.0  0.88921  0.46123  0.27418  1.0000
  N   N7        1.0  0.46446  0.57492  0.79280  1.0000
  N   N8        1.0  0.42620  0.88689  0.74024  1.0000
  N   N9        1.0  0.11175  0.54023  0.75164  1.0000
  N   N10       1.0  0.54275  0.43035  0.75854  1.0000
  N   N11       1.0  0.57052  0.11344  0.74655  1.0000
  N   N12       1.0  0.88791  0.45590  0.77313  1.0000
  C  Sn1       1.0  0.44193  0.65040  0.32949  1.0000
  C   C97       1.0  0.39635  0.63687  0.24566  1.0000
  C  Sn2       1.0  0.36871  0.59660  0.18683  1.0000
  C  Sn3       1.0  0.38701  0.56927  0.21241  1.0000
  C   C98       1.0  0.43257  0.58280  0.29622  1.0000
  C  Sn4       1.0  0.46024  0.62307  0.35507  1.0000
  O  Te1       1.0  0.46894  0.69079  0.38724  1.0000
  O  Te2       1.0  0.32323  0.58379  0.10332  1.0000
  O  Te3       1.0  0.35996  0.52886  0.15457  1.0000
  O  Te4       1.0  0.50568  0.63589  0.43855  1.0000
  Mg  Mg1       1.0  0.30008  0.52583  0.04811  1.0000
  Mg  Mg2       1.0  0.52886  0.69383  0.49390  1.0000
  C  Sn5       1.0  0.42260  0.81635  0.15734  1.0000
  C   C99       1.0  0.40801  0.84105  0.18879  1.0000
  C  Sn6       1.0  0.37634  0.82352  0.27245  1.0000
  C  Sn7       1.0  0.35892  0.78040  0.32591  1.0000
  C   C100      1.0  0.37352  0.75572  0.29448  1.0000
  C  Sn8       1.0  0.40518  0.77323  0.21080  1.0000
  O  Te5       1.0  0.45429  0.83454  0.07351  1.0000
  O  Te6       1.0  0.36225  0.84885  0.30240  1.0000
  O  Te7       1.0  0.32721  0.76222  0.40979  1.0000
  O  Te8       1.0  0.41928  0.74793  0.18087  1.0000
  Mg  Mg3       1.0  0.31851  0.80961  0.42137  1.0000
  Mg  Mg4       1.0  0.46302  0.78713  0.06200  1.0000
  C  Sn9       1.0  0.22182  0.56480  0.32976  1.0000
  C   C101      1.0  0.23853  0.60290  0.23317  1.0000
  C  Sn10      1.0  0.21451  0.62599  0.15405  1.0000
  C  Sn11      1.0  0.17292  0.61070  0.17195  1.0000
  C   C102      1.0  0.15623  0.57263  0.26852  1.0000
  C  Sn12      1.0  0.18023  0.54951  0.34766  1.0000
  O  Te9       1.0  0.24641  0.54224  0.40774  1.0000
  O  Te10      1.0  0.23189  0.66399  0.05807  1.0000
  O  Te11      1.0  0.14833  0.63330  0.09386  1.0000
  O  Te12      1.0  0.16288  0.51154  0.44361  1.0000
  Mg  Mg5       1.0  0.27016  0.66802  0.97639  1.0000
  Mg  Mg6       1.0  0.20877  0.49218  0.52543  1.0000
  C  Sn13      1.0  0.59928  0.42545  0.14861  1.0000
  C   C103      1.0  0.56441  0.40802  0.21432  1.0000
  C  Sn14      1.0  0.55728  0.37199  0.33104  1.0000
  C  Sn15      1.0  0.58561  0.35299  0.38327  1.0000
  C   C104      1.0  0.62046  0.37041  0.31759  1.0000
  C  Sn16      1.0  0.62761  0.40645  0.20083  1.0000
  O  Te13      1.0  0.60579  0.46148  0.03207  1.0000
  O  Te14      1.0  0.52219  0.35514  0.39492  1.0000
  O  Te15      1.0  0.57907  0.31692  0.49989  1.0000
  O  Te16      1.0  0.66268  0.42330  0.13700  1.0000
  Mg  Mg7       1.0  0.52682  0.30574  0.55084  1.0000
  Mg  Mg8       1.0  0.74227  0.45739  0.98115  1.0000
  C  Sn17      1.0  0.57585  0.21081  0.17659  1.0000
  C   C105      1.0  0.61743  0.23810  0.28521  1.0000
  C  Sn18      1.0  0.65054  0.22518  0.38179  1.0000
  C  Sn19      1.0  0.64192  0.18413  0.36949  1.0000
  C   C106      1.0  0.60037  0.15686  0.26090  1.0000
  C  Sn20      1.0  0.56724  0.16975  0.16428  1.0000
  O  Te17      1.0  0.54325  0.22439  0.08121  1.0000
  O  Te18      1.0  0.69184  0.25303  0.48954  1.0000
  O  Te19      1.0  0.67457  0.17056  0.46499  1.0000
  O  Te20      1.0  0.52596  0.14194  0.05657  1.0000
  Mg  Mg9       1.0  0.72555  0.21995  0.59356  1.0000
  Mg  Mg10      1.0  0.57642  0.15966  0.95242  1.0000
  C  Sn21      1.0  0.79098  0.36796  0.25856  1.0000
  C   C107      1.0  0.76613  0.37929  0.30505  1.0000
  C  Sn22      1.0  0.78001  0.42103  0.32248  1.0000
  C  Sn23      1.0  0.81954  0.45210  0.29270  1.0000
  C   C108      1.0  0.84436  0.44076  0.24621  1.0000
  C  Sn24      1.0  0.83051  0.39902  0.22879  1.0000
  O  Te21      1.0  0.77648  0.32604  0.24188  1.0000
  O  Te22      1.0  0.75461  0.43160  0.36914  1.0000
  O  Te23      1.0  0.83402  0.49404  0.30943  1.0000
  O  Te24      1.0  0.85588  0.38845  0.18213  1.0000
  Mg  Mg11      1.0  0.78808  0.49290  0.37548  1.0000
  Mg  Mg12      1.0  0.82243  0.32717  0.17565  1.0000
  C  Sn25      1.0  0.43973  0.64971  0.83085  1.0000
  C   C109      1.0  0.39406  0.63552  0.74684  1.0000
  C  Sn26      1.0  0.36707  0.59522  0.68793  1.0000
  C  Sn27      1.0  0.38613  0.56853  0.71360  1.0000
  C   C110      1.0  0.43178  0.58272  0.79759  1.0000
  C  Sn28      1.0  0.45879  0.62302  0.85653  1.0000
  O  Te25      1.0  0.46608  0.69011  0.88868  1.0000
  O  Te26      1.0  0.32150  0.58174  0.60424  1.0000
  O  Te27      1.0  0.35974  0.52810  0.65568  1.0000
  O  Te28      1.0  0.50434  0.63650  0.94019  1.0000
  Mg  Mg13      1.0  0.29942  0.52404  0.54898  1.0000
  Mg  Mg14      1.0  0.52644  0.69419  0.99559  1.0000
  C  Sn29      1.0  0.42493  0.78966  0.77013  1.0000
  C   C111      1.0  0.38526  0.76057  0.79738  1.0000
  C  Sn30      1.0  0.35442  0.77310  0.78305  1.0000
  C  Sn31      1.0  0.36342  0.81559  0.74047  1.0000
  C   C112      1.0  0.40307  0.84465  0.71322  1.0000
  C  Sn32      1.0  0.43393  0.83215  0.72756  1.0000
  O  Te29      1.0  0.45528  0.77644  0.78514  1.0000
  O  Te30      1.0  0.31499  0.74345  0.81094  1.0000
  O  Te31      1.0  0.33303  0.82879  0.72549  1.0000
  O  Te32      1.0  0.47333  0.86177  0.69966  1.0000
  Mg  Mg15      1.0  0.28404  0.77672  0.77550  1.0000
  Mg  Mg16      1.0  0.50430  0.82854  0.73497  1.0000
  C  Sn33      1.0  0.20249  0.63172  0.67847  1.0000
  C   C113      1.0  0.23856  0.62280  0.77354  1.0000
  C  Sn34      1.0  0.23214  0.58275  0.85124  1.0000
  C  Sn35      1.0  0.18876  0.55094  0.83346  1.0000
  C   C114      1.0  0.15272  0.55987  0.73842  1.0000
  C  Sn36      1.0  0.15911  0.59991  0.66069  1.0000
  O  Te33      1.0  0.20969  0.67198  0.60189  1.0000
  O  Te34      1.0  0.26872  0.57458  0.94571  1.0000
  O  Te35      1.0  0.18159  0.51067  0.91015  1.0000
  O  Te36      1.0  0.12256  0.60808  0.56625  1.0000
  Mg  Mg17      1.0  0.15778  0.53019  0.02584  1.0000
  Mg  Mg18      1.0  0.14927  0.66778  0.48599  1.0000
  C  Sn37      1.0  0.56769  0.35057  0.78831  1.0000
  C   C115      1.0  0.60521  0.36765  0.74008  1.0000
  C  Sn38      1.0  0.62832  0.41070  0.71196  1.0000
  C  Sn39      1.0  0.61366  0.43724  0.73260  1.0000
  C   C116      1.0  0.57618  0.42015  0.78083  1.0000
  C  Sn40      1.0  0.55303  0.37710  0.80894  1.0000
  O  Te37      1.0  0.54510  0.30744  0.81575  1.0000
  O  Te38      1.0  0.66572  0.42706  0.66376  1.0000
  O  Te39      1.0  0.63629  0.48040  0.70510  1.0000
  O  Te40      1.0  0.51566  0.36075  0.85714  1.0000
  Mg  Mg19      1.0  0.68539  0.48781  0.64119  1.0000
  Mg  Mg20      1.0  0.49598  0.30000  0.87984  1.0000
  C  Sn41      1.0  0.56782  0.18916  0.58816  1.0000
  C   C117      1.0  0.58669  0.16240  0.69077  1.0000
  C  Sn42      1.0  0.62475  0.17580  0.84508  1.0000
  C  Sn43      1.0  0.64434  0.21679  0.89801  1.0000
  C   C118      1.0  0.62547  0.24353  0.79546  1.0000
  C  Sn44      1.0  0.58741  0.23016  0.64110  1.0000
  O  Te41      1.0  0.52977  0.17511  0.43440  1.0000
  O  Te42      1.0  0.64302  0.14848  0.94545  1.0000
  O  Te43      1.0  0.59823  0.24615  0.05191  1.0000
  O  Te44      1.0  0.56914  0.25745  0.54078  1.0000
  Mg  Mg21      1.0  0.61079  0.19739  0.14433  1.0000
  Mg  Mg22      1.0  0.51718  0.22389  0.34194  1.0000
  C  Sn45      1.0  0.78603  0.43449  0.76661  1.0000
  C   C119      1.0  0.75670  0.39337  0.72153  1.0000
  C  Sn46      1.0  0.77202  0.36712  0.70945  1.0000
  C  Sn47      1.0  0.81762  0.38228  0.74326  1.0000
  C   C120      1.0  0.84693  0.42337  0.78834  1.0000
  C  Sn48      1.0  0.83164  0.44965  0.80041  1.0000
  O  Te45      1.0  0.76999  0.46018  0.77792  1.0000
  O  Te46      1.0  0.74205  0.32613  0.66410  1.0000
  O  Te47      1.0  0.83365  0.35655  0.73190  1.0000
  O  Te48      1.0  0.86158  0.49061  0.84577  1.0000
  Mg  Mg23      1.0  0.77990  0.30314  0.66563  1.0000
  Mg  Mg24      1.0  0.82377  0.51362  0.84436  1.0000
