data_image0
_chemical_formula_structural       H16N8C16H8C12H8SnCSn2CSnTe4Mg2SnCSn2CSnTe4Mg2SnCSn2CSnTe4Mg2SnCSn2CSnTe4Mg2SnCSn2CSnTe4Mg2SnCSn2CSnTe4Mg2SnCSn2CSnTe4Mg2SnCSn2CSnTe4Mg2SnCSn2CSnTe4Mg2SnCSn2CSnTe4Mg2SnCSn2CSnTe4Mg2SnCSn2CSnTe4Mg2
_chemical_formula_sum              "H32 N8 C52 Sn48 Te48 Mg24"
_cell_length_a       24.583
_cell_length_b       23.5023
_cell_length_c       6.8034
_cell_angle_alpha    89.3854
_cell_angle_beta     90.6715
_cell_angle_gamma    89.781

_symmetry_space_group_name_H-M    'P1'
_space_group_IT_number       1

loop_
  _space_group_symop_operation_xyz
  'x, y, z'

loop_
  _atom_site_type_symbol
  _atom_site_label
  _atom_site_symmetry_multiplicity
  _atom_site_fract_x
  _atom_site_fract_y
  _atom_site_fract_z
  _atom_site_occupancy
  H   H1        1.0  0.02165  0.38511  0.08969  1.0000
  H   H2        1.0  0.98012  0.59384  0.10439  1.0000
  H   H3        1.0  0.59361  0.02164  0.09106  1.0000
  H   H4        1.0  0.39745  0.96544  0.10940  1.0000
  H   H5        1.0  0.97021  0.39001  0.90539  1.0000
  H   H6        1.0  0.03026  0.59321  0.91900  1.0000
  H   H7        1.0  0.39324  0.01956  0.92555  1.0000
  H   H8        1.0  0.59147  0.96912  0.90513  1.0000
  H   H9        1.0  0.46673  0.09832  0.92435  1.0000
  H   H10       1.0  0.52006  0.89253  0.90889  1.0000
  H   H11       1.0  0.90018  0.47049  0.91485  1.0000
  H   H12       1.0  0.10023  0.51254  0.91403  1.0000
  H   H13       1.0  0.51902  0.09664  0.10571  1.0000
  H   H14       1.0  0.47078  0.89070  0.09715  1.0000
  H   H15       1.0  0.09818  0.45805  0.09655  1.0000
  H   H16       1.0  0.90448  0.52229  0.10198  1.0000
  N   N1        1.0  0.33134  0.81802  0.34360  1.0000
  N   N2        1.0  0.64012  0.18821  0.35250  1.0000
  N   N3        1.0  0.16623  0.32044  0.33876  1.0000
  N   N4        1.0  0.83436  0.67033  0.34572  1.0000
  N   N5        1.0  0.66733  0.82176  0.66409  1.0000
  N   N6        1.0  0.32448  0.15729  0.68124  1.0000
  N   N7        1.0  0.83761  0.30502  0.63655  1.0000
  N   N8        1.0  0.17471  0.65766  0.66198  1.0000
  C   C1        1.0  0.28767  0.83810  0.26129  1.0000
  C   C2        1.0  0.67120  0.17111  0.21374  1.0000
  C   C3        1.0  0.21402  0.33636  0.28392  1.0000
  C   C4        1.0  0.85408  0.71036  0.23758  1.0000
  C   C5        1.0  0.71872  0.83190  0.68204  1.0000
  C   C6        1.0  0.34242  0.20355  0.75924  1.0000
  C   C7        1.0  0.80435  0.32351  0.76636  1.0000
  C   C8        1.0  0.16147  0.70875  0.71121  1.0000
  C   C9        1.0  0.96313  0.45307  0.13543  1.0000
  C   C10       1.0  0.03964  0.52626  0.13858  1.0000
  C   C11       1.0  0.53239  0.95602  0.13510  1.0000
  C   C12       1.0  0.45748  0.03149  0.14323  1.0000
  C   C13       1.0  0.03559  0.45146  0.87144  1.0000
  C   C14       1.0  0.96522  0.53174  0.87569  1.0000
  C   C15       1.0  0.45647  0.95630  0.87718  1.0000
  C   C16       1.0  0.52862  0.03433  0.87527  1.0000
  H   H17       1.0  0.27353  0.88183  0.28806  1.0000
  H   H18       1.0  0.67453  0.12575  0.17617  1.0000
  H   H19       1.0  0.23388  0.37454  0.34308  1.0000
  H   H20       1.0  0.89806  0.71898  0.23353  1.0000
  H   H21       1.0  0.73927  0.86242  0.58441  1.0000
  H   H22       1.0  0.38407  0.21883  0.73332  1.0000
  H   H23       1.0  0.80157  0.36903  0.80201  1.0000
  H   H24       1.0  0.12574  0.73059  0.64631  1.0000
  C   C17       1.0  0.99757  0.41516  0.99937  1.0000
  C   C18       1.0  0.00384  0.56596  0.00868  1.0000
  C   C19       1.0  0.56617  0.99552  0.00075  1.0000
  C   C20       1.0  0.42164  0.99304  0.01304  1.0000
  C   C21       1.0  0.49283  0.06981  0.01302  1.0000
  C   C22       1.0  0.49522  0.91923  0.00490  1.0000
  C   C23       1.0  0.92871  0.49444  0.00772  1.0000
  C   C24       1.0  0.07289  0.48707  0.00602  1.0000
  C   C25       1.0  0.00204  0.48861  0.26395  1.0000
  C   C26       1.0  0.49611  0.99321  0.26609  1.0000
  C   C27       1.0  0.99982  0.49232  0.74693  1.0000
  C   C28       1.0  0.49127  0.99629  0.74950  1.0000
  H   H25       1.0  0.97776  0.51511  0.36167  1.0000
  H   H26       1.0  0.02711  0.46037  0.35734  1.0000
  H   H27       1.0  0.47243  0.96537  0.36243  1.0000
  H   H28       1.0  0.52132  0.02015  0.36095  1.0000
  H   H29       1.0  0.02537  0.51859  0.65157  1.0000
  H   H30       1.0  0.97334  0.46706  0.65100  1.0000
  H   H31       1.0  0.51684  0.97156  0.65064  1.0000
  H   H32       1.0  0.46457  0.02303  0.65686  1.0000
  C  Sn1       1.0  0.42842  0.84552  0.52530  1.0000
  C   C29       1.0  0.37205  0.83810  0.51821  1.0000
  C  Sn2       1.0  0.33781  0.87492  0.61930  1.0000
  C  Sn3       1.0  0.36036  0.92012  0.72970  1.0000
  C   C30       1.0  0.41669  0.92752  0.73673  1.0000
  C  Sn4       1.0  0.45097  0.89071  0.63569  1.0000
  O  Te1       1.0  0.46188  0.80820  0.42308  1.0000
  O  Te2       1.0  0.28159  0.86664  0.61006  1.0000
  O  Te3       1.0  0.32684  0.95744  0.83196  1.0000
  O  Te4       1.0  0.50716  0.89898  0.64487  1.0000
  Mg  Mg1       1.0  0.25284  0.92870  0.77424  1.0000
  Mg  Mg2       1.0  0.53593  0.83696  0.48068  1.0000
  C  Sn5       1.0  0.55080  0.15801  0.57069  1.0000
  C   C31       1.0  0.60611  0.15943  0.52579  1.0000
  C  Sn6       1.0  0.63976  0.11308  0.57237  1.0000
  C  Sn7       1.0  0.61766  0.06426  0.66567  1.0000
  C   C32       1.0  0.56239  0.06284  0.71049  1.0000
  C  Sn8       1.0  0.52870  0.10919  0.66399  1.0000
  O  Te5       1.0  0.51791  0.20484  0.52277  1.0000
  O  Te6       1.0  0.69493  0.11550  0.52608  1.0000
  O  Te7       1.0  0.65060  0.01741  0.71358  1.0000
  O  Te8       1.0  0.47356  0.10677  0.71020  1.0000
  Mg  Mg3       1.0  0.72320  0.04100  0.62072  1.0000
  Mg  Mg4       1.0  0.44525  0.18124  0.61554  1.0000
  C  Sn9       1.0  0.08039  0.32980  0.58996  1.0000
  C   C33       1.0  0.11802  0.35082  0.45527  1.0000
  C  Sn10      1.0  0.13738  0.40642  0.47061  1.0000
  C  Sn11      1.0  0.11878  0.44173  0.62386  1.0000
  C   C34       1.0  0.08119  0.42070  0.75845  1.0000
  C  Sn12      1.0  0.06179  0.36511  0.74320  1.0000
  O  Te9       1.0  0.06159  0.27408  0.57181  1.0000
  O  Te10      1.0  0.17497  0.42650  0.33417  1.0000
  O  Te11      1.0  0.13762  0.49748  0.64190  1.0000
  O  Te12      1.0  0.02423  0.34503  0.87955  1.0000
  Mg  Mg5       1.0  0.18861  0.50541  0.42038  1.0000
  Mg  Mg6       1.0  0.01058  0.26611  0.79355  1.0000
  C  Sn13      1.0  0.89973  0.54938  0.52795  1.0000
  C   C35       1.0  0.93481  0.56694  0.67841  1.0000
  C  Sn14      1.0  0.93289  0.62284  0.74581  1.0000
  C  Sn15      1.0  0.89509  0.66199  0.66115  1.0000
  C   C36       1.0  0.86003  0.64443  0.51080  1.0000
  C  Sn16      1.0  0.86193  0.58854  0.44328  1.0000
  O  Te13      1.0  0.90236  0.49329  0.46287  1.0000
  O  Te14      1.0  0.96838  0.63940  0.89636  1.0000
  O  Te15      1.0  0.89249  0.71812  0.72636  1.0000
  O  Te16      1.0  0.82646  0.57196  0.29285  1.0000
  Mg  Mg7       1.0  0.94923  0.72039  0.93491  1.0000
  Mg  Mg8       1.0  0.84555  0.49099  0.25426  1.0000
  C  Sn17      1.0  0.62123  0.92501  0.54678  1.0000
  C   C37       1.0  0.62603  0.86587  0.56266  1.0000
  C  Sn18      1.0  0.60575  0.83106  0.41389  1.0000
  C  Sn19      1.0  0.58016  0.85588  0.24567  1.0000
  C   C38       1.0  0.57538  0.91499  0.22984  1.0000
  C  Sn20      1.0  0.59564  0.94983  0.37856  1.0000
  O  Te17      1.0  0.64180  0.95899  0.69728  1.0000
  O  Te18      1.0  0.61101  0.77204  0.43311  1.0000
  O  Te19      1.0  0.55958  0.82184  0.09513  1.0000
  O  Te20      1.0  0.59406  0.00882  0.35939  1.0000
  Mg  Mg9       1.0  0.57654  0.74367  0.18881  1.0000
  Mg  Mg10      1.0  0.62853  0.03722  0.60353  1.0000
  C  Sn21      1.0  0.42681  0.13579  0.33496  1.0000
  C   C39       1.0  0.43126  0.07679  0.31688  1.0000
  C  Sn22      1.0  0.39285  0.04096  0.40284  1.0000
  C  Sn23      1.0  0.34906  0.06459  0.50899  1.0000
  C   C40       1.0  0.34461  0.12356  0.52701  1.0000
  C  Sn24      1.0  0.38301  0.15943  0.44112  1.0000
  O  Te21      1.0  0.46568  0.17081  0.24781  1.0000
  O  Te22      1.0  0.39452  0.98210  0.38281  1.0000
  O  Te23      1.0  0.31018  0.02952  0.59617  1.0000
  O  Te24      1.0  0.37771  0.21825  0.46107  1.0000
  Mg  Mg11      1.0  0.33128  0.95205  0.52791  1.0000
  Mg  Mg12      1.0  0.44091  0.24835  0.31596  1.0000
  C  Sn25      1.0  0.86341  0.42592  0.34317  1.0000
  C   C41       1.0  0.91956  0.42589  0.31334  1.0000
  C  Sn26      1.0  0.95147  0.37979  0.37679  1.0000
  C  Sn27      1.0  0.92675  0.33271  0.47194  1.0000
  C   C42       1.0  0.87063  0.33275  0.50170  1.0000
  C  Sn28      1.0  0.83869  0.37884  0.43832  1.0000
  O  Te25      1.0  0.83230  0.47246  0.27851  1.0000
  O  Te26      1.0  0.00753  0.38075  0.34538  1.0000
  O  Te27      1.0  0.95792  0.28616  0.53661  1.0000
  O  Te28      1.0  0.78266  0.37789  0.46966  1.0000
  Mg  Mg13      1.0  0.03265  0.30731  0.45999  1.0000
  Mg  Mg14      1.0  0.75750  0.45129  0.35502  1.0000
  C  Sn29      1.0  0.14281  0.55255  0.32554  1.0000
  C   C43       1.0  0.08613  0.55100  0.30822  1.0000
  C  Sn30      1.0  0.05426  0.59273  0.39616  1.0000
  C  Sn31      1.0  0.07956  0.63695  0.50356  1.0000
  C   C44       1.0  0.13620  0.63849  0.52082  1.0000
  C  Sn32      1.0  0.16811  0.59677  0.43295  1.0000
  O  Te29      1.0  0.17387  0.51039  0.23641  1.0000
  O  Te30      1.0  0.99767  0.59027  0.37685  1.0000
  O  Te31      1.0  0.04845  0.67912  0.59272  1.0000
  O  Te32      1.0  0.22466  0.59922  0.45219  1.0000
  Mg  Mg15      1.0  0.97286  0.65747  0.52475  1.0000
  Mg  Mg16      1.0  0.24952  0.53206  0.30427  1.0000
  C  Sn33      1.0  0.19159  0.82084  0.03867  1.0000
  C   C45       1.0  0.23783  0.80343  0.14495  1.0000
  C  Sn34      1.0  0.26622  0.75447  0.09164  1.0000
  C  Sn35      1.0  0.25130  0.71915  0.92863  1.0000
  C   C46       1.0  0.20510  0.73657  0.82242  1.0000
  C  Sn36      1.0  0.17667  0.78551  0.87565  1.0000
  O  Te33      1.0  0.16384  0.86992  0.09457  1.0000
  O  Te34      1.0  0.31232  0.73790  0.20019  1.0000
  O  Te35      1.0  0.27910  0.67003  0.87278  1.0000
  O  Te36      1.0  0.13060  0.80209  0.76719  1.0000
  Mg  Mg17      1.0  0.33640  0.66792  0.06652  1.0000
  Mg  Mg18      1.0  0.10651  0.87208  0.90065  1.0000
  C  Sn37      1.0  0.75204  0.19163  0.93407  1.0000
  C   C47       1.0  0.71733  0.20739  0.09784  1.0000
  C  Sn38      1.0  0.70569  0.26385  0.14437  1.0000
  C  Sn39      1.0  0.72588  0.30862  0.02465  1.0000
  C   C48       1.0  0.76056  0.29285  0.86098  1.0000
  C  Sn40      1.0  0.77223  0.23639  0.81436  1.0000
  O  Te37      1.0  0.76317  0.13487  0.89033  1.0000
  O  Te38      1.0  0.67418  0.27544  0.30887  1.0000
  O  Te39      1.0  0.71473  0.36540  0.06854  1.0000
  O  Te40      1.0  0.80372  0.22480  0.64995  1.0000
  Mg  Mg19      1.0  0.67001  0.35958  0.30792  1.0000
  Mg  Mg20      1.0  0.80789  0.14067  0.65071  1.0000
  C  Sn41      1.0  0.30475  0.32412  0.03662  1.0000
  C   C49       1.0  0.25091  0.31488  0.09208  1.0000
  C  Sn42      1.0  0.22605  0.26255  0.05711  1.0000
  C  Sn43      1.0  0.25887  0.21541  0.96489  1.0000
  C   C50       1.0  0.31267  0.22465  0.90952  1.0000
  C  Sn44      1.0  0.33757  0.27697  0.94440  1.0000
  O  Te41      1.0  0.32879  0.37676  0.07303  1.0000
  O  Te42      1.0  0.17218  0.25433  0.11381  1.0000
  O  Te43      1.0  0.23477  0.16273  0.92850  1.0000
  O  Te44      1.0  0.39141  0.28519  0.88779  1.0000
  Mg  Mg21      1.0  0.15723  0.17520  0.03283  1.0000
  Mg  Mg22      1.0  0.40640  0.36429  0.96878  1.0000
  C  Sn45      1.0  0.75179  0.73280  0.06117  1.0000
  C   C51       1.0  0.80857  0.73245  0.07432  1.0000
  C  Sn46      1.0  0.84214  0.77010  0.97310  1.0000
  C  Sn47      1.0  0.81516  0.81212  0.85639  1.0000
  C   C52       1.0  0.75842  0.81246  0.84330  1.0000
  C  Sn48      1.0  0.72806  0.77170  0.94446  1.0000
  O  Te45      1.0  0.72230  0.69164  0.16364  1.0000
  O  Te46      1.0  0.89887  0.76888  0.98847  1.0000
  O  Te47      1.0  0.84471  0.85330  0.75389  1.0000
  O  Te48      1.0  0.67138  0.77292  0.92916  1.0000
  Mg  Mg23      1.0  0.92117  0.83400  0.82131  1.0000
  Mg  Mg24      1.0  0.64578  0.71096  0.09632  1.0000
