data_image0
_chemical_formula_structural       H16N8C16H8C12H8C2Sn2C2HTe2HMgC2Sn2C2HTe2HMgC2Sn2C2HTe2HMgC2Sn2C2HTe2HMgC2Sn2C2HTe2HMgC2Sn2C2HTe2HMgC2Sn2C2HTe2HMgC2Sn2C2HTe2HMgC2Sn2C2HTe2HMgC2Sn2C2HTe2HMgC2Sn2C2HTe2HMgC2Sn2C2HTe2HMg
_chemical_formula_sum              "H56 N8 C76 Sn24 Te24 Mg12"
_cell_length_a       24.583
_cell_length_b       23.5023
_cell_length_c       6.8034
_cell_angle_alpha    89.3854
_cell_angle_beta     90.6715
_cell_angle_gamma    89.781

_symmetry_space_group_name_H-M    'P1'
_space_group_IT_number       1

loop_
  _space_group_symop_operation_xyz
  'x, y, z'

loop_
  _atom_site_type_symbol
  _atom_site_label
  _atom_site_symmetry_multiplicity
  _atom_site_fract_x
  _atom_site_fract_y
  _atom_site_fract_z
  _atom_site_occupancy
  H   H1        1.0  0.02165  0.38511  0.08969  1.0000
  H   H2        1.0  0.98012  0.59384  0.10439  1.0000
  H   H3        1.0  0.59361  0.02164  0.09106  1.0000
  H   H4        1.0  0.39745  0.96544  0.10940  1.0000
  H   H5        1.0  0.97021  0.39001  0.90539  1.0000
  H   H6        1.0  0.03026  0.59321  0.91900  1.0000
  H   H7        1.0  0.39324  0.01956  0.92555  1.0000
  H   H8        1.0  0.59147  0.96912  0.90513  1.0000
  H   H9        1.0  0.46673  0.09832  0.92435  1.0000
  H   H10       1.0  0.52006  0.89253  0.90889  1.0000
  H   H11       1.0  0.90018  0.47049  0.91485  1.0000
  H   H12       1.0  0.10023  0.51254  0.91403  1.0000
  H   H13       1.0  0.51902  0.09664  0.10571  1.0000
  H   H14       1.0  0.47078  0.89070  0.09715  1.0000
  H   H15       1.0  0.09818  0.45805  0.09655  1.0000
  H   H16       1.0  0.90448  0.52229  0.10198  1.0000
  N   N1        1.0  0.33134  0.81802  0.34360  1.0000
  N   N2        1.0  0.64012  0.18821  0.35250  1.0000
  N   N3        1.0  0.16623  0.32044  0.33876  1.0000
  N   N4        1.0  0.83436  0.67033  0.34572  1.0000
  N   N5        1.0  0.66733  0.82176  0.66409  1.0000
  N   N6        1.0  0.32448  0.15729  0.68124  1.0000
  N   N7        1.0  0.83761  0.30502  0.63655  1.0000
  N   N8        1.0  0.17471  0.65766  0.66198  1.0000
  C   C1        1.0  0.28767  0.83810  0.26129  1.0000
  C   C2        1.0  0.67120  0.17111  0.21374  1.0000
  C   C3        1.0  0.21402  0.33636  0.28392  1.0000
  C   C4        1.0  0.85408  0.71036  0.23758  1.0000
  C   C5        1.0  0.71872  0.83190  0.68204  1.0000
  C   C6        1.0  0.34242  0.20355  0.75924  1.0000
  C   C7        1.0  0.80435  0.32351  0.76636  1.0000
  C   C8        1.0  0.16147  0.70875  0.71121  1.0000
  C   C9        1.0  0.96313  0.45307  0.13543  1.0000
  C   C10       1.0  0.03964  0.52626  0.13858  1.0000
  C   C11       1.0  0.53239  0.95602  0.13510  1.0000
  C   C12       1.0  0.45748  0.03149  0.14323  1.0000
  C   C13       1.0  0.03559  0.45146  0.87144  1.0000
  C   C14       1.0  0.96522  0.53174  0.87569  1.0000
  C   C15       1.0  0.45647  0.95630  0.87718  1.0000
  C   C16       1.0  0.52862  0.03433  0.87527  1.0000
  H   H17       1.0  0.27353  0.88183  0.28806  1.0000
  H   H18       1.0  0.67453  0.12575  0.17617  1.0000
  H   H19       1.0  0.23388  0.37454  0.34308  1.0000
  H   H20       1.0  0.89806  0.71898  0.23353  1.0000
  H   H21       1.0  0.73927  0.86242  0.58441  1.0000
  H   H22       1.0  0.38407  0.21883  0.73332  1.0000
  H   H23       1.0  0.80157  0.36903  0.80201  1.0000
  H   H24       1.0  0.12574  0.73059  0.64631  1.0000
  C   C17       1.0  0.99757  0.41516  0.99937  1.0000
  C   C18       1.0  0.00384  0.56596  0.00868  1.0000
  C   C19       1.0  0.56617  0.99552  0.00075  1.0000
  C   C20       1.0  0.42164  0.99304  0.01304  1.0000
  C   C21       1.0  0.49283  0.06981  0.01302  1.0000
  C   C22       1.0  0.49522  0.91923  0.00490  1.0000
  C   C23       1.0  0.92871  0.49444  0.00772  1.0000
  C   C24       1.0  0.07289  0.48707  0.00602  1.0000
  C   C25       1.0  0.00204  0.48861  0.26395  1.0000
  C   C26       1.0  0.49611  0.99321  0.26609  1.0000
  C   C27       1.0  0.99982  0.49232  0.74693  1.0000
  C   C28       1.0  0.49127  0.99629  0.74950  1.0000
  H   H25       1.0  0.97776  0.51511  0.36167  1.0000
  H   H26       1.0  0.02711  0.46037  0.35734  1.0000
  H   H27       1.0  0.47243  0.96537  0.36243  1.0000
  H   H28       1.0  0.52132  0.02015  0.36095  1.0000
  H   H29       1.0  0.02537  0.51859  0.65157  1.0000
  H   H30       1.0  0.97334  0.46706  0.65100  1.0000
  H   H31       1.0  0.51684  0.97156  0.65064  1.0000
  H   H32       1.0  0.46457  0.02303  0.65686  1.0000
  C   C29       1.0  0.35156  0.90859  0.74529  1.0000
  C   C30       1.0  0.40797  0.91466  0.76091  1.0000
  C  Sn1       1.0  0.44201  0.88860  0.62537  1.0000
  C  Sn2       1.0  0.41903  0.85589  0.47147  1.0000
  C   C31       1.0  0.36254  0.85011  0.45704  1.0000
  C   C32       1.0  0.32886  0.87636  0.59349  1.0000
  H   H33       1.0  0.32550  0.92893  0.85079  1.0000
  O  Te1       1.0  0.49828  0.89508  0.64317  1.0000
  O  Te2       1.0  0.45210  0.82940  0.33397  1.0000
  H   H34       1.0  0.28519  0.87168  0.58129  1.0000
  Mg  Mg1       1.0  0.52642  0.85075  0.41995  1.0000
  C   C33       1.0  0.53085  0.12933  0.59853  1.0000
  C   C34       1.0  0.55106  0.08165  0.70027  1.0000
  C  Sn3       1.0  0.60653  0.06860  0.69641  1.0000
  C  Sn4       1.0  0.64233  0.10403  0.58861  1.0000
  C   C35       1.0  0.62171  0.15165  0.48743  1.0000
  C   C36       1.0  0.56613  0.16431  0.49223  1.0000
  H   H35       1.0  0.48785  0.13915  0.60232  1.0000
  O  Te3       1.0  0.62604  0.02078  0.79882  1.0000
  O  Te4       1.0  0.69795  0.09198  0.58233  1.0000
  H   H36       1.0  0.55050  0.20125  0.41355  1.0000
  Mg  Mg2       1.0  0.70508  0.02205  0.74565  1.0000
  C   C37       1.0  0.09161  0.32555  0.64124  1.0000
  C   C38       1.0  0.12518  0.34582  0.49185  1.0000
  C  Sn5       1.0  0.13417  0.40417  0.46942  1.0000
  C  Sn6       1.0  0.10904  0.44285  0.59920  1.0000
  C   C39       1.0  0.07557  0.42215  0.74827  1.0000
  C   C40       1.0  0.06684  0.36366  0.76936  1.0000
  H   H37       1.0  0.08488  0.28030  0.65764  1.0000
  O  Te5       1.0  0.16780  0.42371  0.31934  1.0000
  O  Te6       1.0  0.11735  0.50139  0.58014  1.0000
  H   H38       1.0  0.04087  0.34798  0.88511  1.0000
  Mg  Mg3       1.0  0.16661  0.50732  0.35272  1.0000
  C   C41       1.0  0.92929  0.64421  0.72651  1.0000
  C   C42       1.0  0.92908  0.58517  0.75314  1.0000
  C  Sn7       1.0  0.89801  0.55092  0.62873  1.0000
  C  Sn8       1.0  0.86661  0.57638  0.47490  1.0000
  C   C43       1.0  0.86711  0.63548  0.44940  1.0000
  C   C44       1.0  0.89834  0.66935  0.57478  1.0000
  H   H39       1.0  0.95347  0.67042  0.82344  1.0000
  O  Te7       1.0  0.89825  0.49201  0.65744  1.0000
  O  Te8       1.0  0.83520  0.54315  0.34839  1.0000
  H   H40       1.0  0.89852  0.71506  0.55404  1.0000
  Mg  Mg4       1.0  0.84884  0.46475  0.44686  1.0000
  C   C45       1.0  0.57360  0.84563  0.28551  1.0000
  C   C46       1.0  0.56724  0.90462  0.26937  1.0000
  C  Sn9       1.0  0.59854  0.94068  0.38662  1.0000
  C  Sn10      1.0  0.63690  0.91714  0.52239  1.0000
  C   C47       1.0  0.64298  0.85807  0.53733  1.0000
  C   C48       1.0  0.61144  0.82237  0.41933  1.0000
  H   H41       1.0  0.54922  0.81801  0.19415  1.0000
  O  Te9       1.0  0.59530  0.99951  0.36867  1.0000
  O  Te10      1.0  0.66872  0.95220  0.64132  1.0000
  H   H42       1.0  0.61640  0.77671  0.43177  1.0000
  Mg  Mg5       1.0  0.64813  0.02970  0.56293  1.0000
  C   C49       1.0  0.39946  0.15656  0.36716  1.0000
  C   C50       1.0  0.36167  0.13689  0.50362  1.0000
  C  Sn11      1.0  0.35512  0.07854  0.53623  1.0000
  C  Sn12      1.0  0.38707  0.03925  0.43007  1.0000
  C   C51       1.0  0.42479  0.05936  0.29397  1.0000
  C   C52       1.0  0.43100  0.11784  0.26245  1.0000
  H   H43       1.0  0.40429  0.20181  0.34284  1.0000
  O  Te11      1.0  0.31717  0.05962  0.67305  1.0000
  O  Te12      1.0  0.37771  0.98070  0.45983  1.0000
  H   H44       1.0  0.46029  0.13306  0.15688  1.0000
  Mg  Mg6       1.0  0.32057  0.97573  0.66192  1.0000
  C   C53       1.0  0.95377  0.36375  0.43267  1.0000
  C   C54       1.0  0.93563  0.40440  0.29528  1.0000
  C  Sn13      1.0  0.88015  0.41643  0.27467  1.0000
  C  Sn14      1.0  0.84221  0.38716  0.39405  1.0000
  C   C55       1.0  0.86077  0.34660  0.53116  1.0000
  C   C56       1.0  0.91638  0.33488  0.55053  1.0000
  H   H45       1.0  0.99680  0.35470  0.44775  1.0000
  O  Te13      1.0  0.86272  0.45715  0.13663  1.0000
  O  Te14      1.0  0.78652  0.39837  0.37654  1.0000
  H   H46       1.0  0.93041  0.30343  0.65700  1.0000
  Mg  Mg7       1.0  0.78269  0.45753  0.16736  1.0000
  C   C57       1.0  0.14662  0.56589  0.27937  1.0000
  C   C58       1.0  0.09018  0.55909  0.27244  1.0000
  C  Sn15      1.0  0.05699  0.58990  0.39861  1.0000
  C  Sn16      1.0  0.08086  0.62821  0.53402  1.0000
  C   C59       1.0  0.13736  0.63475  0.53971  1.0000
  C   C60       1.0  0.17019  0.60369  0.41284  1.0000
  H   H47       1.0  0.17202  0.54189  0.18114  1.0000
  O  Te15      1.0  0.00068  0.58257  0.38979  1.0000
  O  Te16      1.0  0.04865  0.65956  0.66174  1.0000
  H   H48       1.0  0.21389  0.60899  0.41815  1.0000
  Mg  Mg8       1.0  0.97390  0.63483  0.59399  1.0000
  C   C61       1.0  0.20274  0.82625  0.98641  1.0000
  C   C62       1.0  0.24227  0.81124  0.10908  1.0000
  C  Sn17      1.0  0.26274  0.75590  0.09529  1.0000
  C  Sn18      1.0  0.24312  0.71500  0.95591  1.0000
  C   C63       1.0  0.20035  0.73356  0.83376  1.0000
  C   C64       1.0  0.18017  0.78902  0.84885  1.0000
  H   H49       1.0  0.18714  0.86917  0.99800  1.0000
  O  Te17      1.0  0.30549  0.73848  0.21903  1.0000
  O  Te18      1.0  0.26281  0.65947  0.93896  1.0000
  H   H50       1.0  0.14707  0.80305  0.75376  1.0000
  Mg  Mg9       1.0  0.31832  0.65869  0.14026  1.0000
  C   C65       1.0  0.71516  0.28260  0.14717  1.0000
  C   C66       1.0  0.70161  0.22608  0.10869  1.0000
  C  Sn19      1.0  0.72817  0.19477  0.95052  1.0000
  C  Sn20      1.0  0.76572  0.22380  0.82892  1.0000
  C   C67       1.0  0.77904  0.28033  0.86873  1.0000
  C   C68       1.0  0.75221  0.31127  0.02735  1.0000
  H   H51       1.0  0.69695  0.30412  0.26995  1.0000
  O  Te19      1.0  0.71417  0.13830  0.91412  1.0000
  O  Te20      1.0  0.78963  0.19663  0.66992  1.0000
  H   H52       1.0  0.76274  0.35502  0.05718  1.0000
  Mg  Mg10      1.0  0.75757  0.11951  0.67993  1.0000
  C   C69       1.0  0.22338  0.24443  0.01077  1.0000
  C   C70       1.0  0.23920  0.29004  0.12820  1.0000
  C  Sn21      1.0  0.29189  0.31179  0.11619  1.0000
  C  Sn22      1.0  0.33259  0.28422  0.98398  1.0000
  C   C71       1.0  0.31635  0.23863  0.86702  1.0000
  C   C72       1.0  0.26354  0.21719  0.88027  1.0000
  H   H53       1.0  0.18251  0.22786  0.02093  1.0000
  O  Te21      1.0  0.30703  0.35736  0.23463  1.0000
  O  Te22      1.0  0.38549  0.30513  0.96896  1.0000
  H   H54       1.0  0.25129  0.18190  0.78923  1.0000
  Mg  Mg11      1.0  0.38365  0.37092  0.16113  1.0000
  C   C73       1.0  0.74793  0.74678  0.10407  1.0000
  C   C74       1.0  0.80453  0.74102  0.10824  1.0000
  C  Sn23      1.0  0.83947  0.76720  0.97161  1.0000
  C  Sn24      1.0  0.81390  0.80290  0.82837  1.0000
  C   C75       1.0  0.75724  0.80841  0.82553  1.0000
  C   C76       1.0  0.72593  0.77888  0.96289  1.0000
  H   H55       1.0  0.72370  0.72396  0.21041  1.0000
  O  Te23      1.0  0.89597  0.76095  0.97781  1.0000
  O  Te24      1.0  0.84459  0.83269  0.69014  1.0000
  H   H56       1.0  0.68210  0.78338  0.95971  1.0000
  Mg  Mg12      1.0  0.92027  0.81030  0.75822  1.0000
