data_image0
_chemical_formula_structural       C3N2C11H6C14N2C2H13C2N2C10H6C20N2C2H15SnCSn2CSnTe4Mg2SnCSn2CSnTe4Mg2SnCSn2CSnTe4Mg2SnCSn2CSnTe4Mg2SnCSn2CSnTe4Mg2SnCSn2CSnTe4Mg2SnCSn2CSnTe4Mg2SnCSn2CSnTe4Mg2
_chemical_formula_sum              "C80 N8 H40 Sn32 Te32 Mg16"
_cell_length_a       19.4564
_cell_length_b       15.9889
_cell_length_c       10.931
_cell_angle_alpha    90.2718
_cell_angle_beta     93.8675
_cell_angle_gamma    90.0419

_symmetry_space_group_name_H-M    'P1'
_space_group_IT_number       1

loop_
  _space_group_symop_operation_xyz
  'x, y, z'

loop_
  _atom_site_type_symbol
  _atom_site_label
  _atom_site_symmetry_multiplicity
  _atom_site_fract_x
  _atom_site_fract_y
  _atom_site_fract_z
  _atom_site_occupancy
  C   C1        1.0  0.42548  0.08095  0.15785  1.0000
  C   C2        1.0  0.37009  0.12758  0.19491  1.0000
  C   C3        1.0  0.33719  0.18738  0.11679  1.0000
  N   N1        1.0  0.27996  0.22855  0.16053  1.0000
  N   N2        1.0  0.29267  0.74508  0.13917  1.0000
  C   C4        1.0  0.45118  0.09418  0.04216  1.0000
  C   C5        1.0  0.06511  0.40679  0.20145  1.0000
  C   C6        1.0  0.08343  0.40940  0.07963  1.0000
  C   C7        1.0  0.13740  0.36009  0.04254  1.0000
  C   C8        1.0  0.10245  0.35391  0.28470  1.0000
  C   C9        1.0  0.17659  0.31029  0.12682  1.0000
  C   C10       1.0  0.15849  0.30819  0.24945  1.0000
  C   C11       1.0  0.23497  0.26336  0.08461  1.0000
  C   C12       1.0  0.22919  0.75137  0.09688  1.0000
  C   C13       1.0  0.00722  0.54279  0.24685  1.0000
  C   C14       1.0  0.00780  0.45706  0.24688  1.0000
  H   H1        1.0  0.05521  0.44952  0.01370  1.0000
  H   H2        1.0  0.09720  0.23117  0.54436  1.0000
  H   H3        1.0  0.08767  0.35142  0.37887  1.0000
  H   H4        1.0  0.18919  0.27014  0.31491  1.0000
  H   H5        1.0  0.44902  0.03363  0.21853  1.0000
  H   H6        1.0  0.35060  0.11833  0.28477  1.0000
  C   C15       1.0  0.86292  0.29988  0.24804  1.0000
  C   C16       1.0  0.91832  0.34654  0.21250  1.0000
  C   C17       1.0  0.93021  0.41277  0.41251  1.0000
  C   C18       1.0  0.87683  0.36288  0.45002  1.0000
  C   C19       1.0  0.84130  0.30756  0.36788  1.0000
  C   C20       1.0  0.77954  0.74369  0.39228  1.0000
  C   C21       1.0  0.78218  0.26107  0.40855  1.0000
  C   C22       1.0  0.95146  0.40564  0.29271  1.0000
  C   C23       1.0  0.56315  0.90238  0.44824  1.0000
  C   C24       1.0  0.58296  0.90561  0.32702  1.0000
  C   C25       1.0  0.63374  0.85220  0.28812  1.0000
  C   C26       1.0  0.59678  0.15497  0.02518  1.0000
  C   C27       1.0  0.66923  0.79803  0.37138  1.0000
  C   C28       1.0  0.65016  0.79511  0.49325  1.0000
  N   N3        1.0  0.72121  0.74671  0.32884  1.0000
  N   N4        1.0  0.73808  0.22568  0.33158  1.0000
  C   C29       1.0  0.50902  0.04082  0.49256  1.0000
  C   C30       1.0  0.50737  0.95499  0.49431  1.0000
  H   H7        1.0  0.55777  0.94951  0.26272  1.0000
  H   H8        1.0  0.64786  0.85309  0.19358  1.0000
  H   H9        1.0  0.58120  0.16011  0.11848  1.0000
  H   H10       1.0  0.67714  0.24745  0.05270  1.0000
  H   H11       1.0  0.83528  0.25702  0.18452  1.0000
  H   H12       1.0  0.93540  0.33983  0.12021  1.0000
  H   H13       1.0  0.95554  0.45746  0.47609  1.0000
  H   H14       1.0  0.91550  0.23138  0.95033  1.0000
  H   H15       1.0  0.85985  0.63045  0.04759  1.0000
  H   H16       1.0  0.21525  0.20574  0.52778  1.0000
  H   H17       1.0  0.23845  0.73169  0.48091  1.0000
  H   H18       1.0  0.79032  0.78439  0.47283  1.0000
  H   H19       1.0  0.77586  0.26054  0.50791  1.0000
  C   C31       1.0  0.36483  0.20342  0.00314  1.0000
  C   C32       1.0  0.42122  0.15814  0.96783  1.0000
  N   N5        1.0  0.29423  0.25437  0.64767  1.0000
  N   N6        1.0  0.27756  0.77287  0.65516  1.0000
  C   C33       1.0  0.06700  0.40746  0.71085  1.0000
  C   C34       1.0  0.05419  0.33528  0.63842  1.0000
  C   C35       1.0  0.10817  0.28629  0.60138  1.0000
  C   C36       1.0  0.13629  0.42797  0.74527  1.0000
  C   C37       1.0  0.17704  0.30587  0.63847  1.0000
  C   C38       1.0  0.19019  0.37788  0.71116  1.0000
  C   C39       1.0  0.23151  0.25084  0.60042  1.0000
  C   C40       1.0  0.23416  0.73356  0.58078  1.0000
  C   C41       1.0  0.00865  0.54315  0.75242  1.0000
  C   C42       1.0  0.00809  0.45739  0.75105  1.0000
  H   H20       1.0  0.00134  0.31804  0.61039  1.0000
  H   H21       1.0  0.15042  0.36081  0.94732  1.0000
  H   H22       1.0  0.14762  0.48330  0.80123  1.0000
  H   H23       1.0  0.24332  0.39338  0.73999  1.0000
  H   H24       1.0  0.34272  0.25158  0.94244  1.0000
  H   H25       1.0  0.44183  0.17089  0.87966  1.0000
  C   C43       1.0  0.82498  0.37844  0.78211  1.0000
  C   C44       1.0  0.86521  0.70148  0.75525  1.0000
  C   C45       1.0  0.87957  0.42856  0.75103  1.0000
  C   C46       1.0  0.92070  0.65480  0.71994  1.0000
  C   C47       1.0  0.96004  0.33554  0.85989  1.0000
  C   C48       1.0  0.93008  0.58639  0.91761  1.0000
  C   C49       1.0  0.90534  0.28671  0.89421  1.0000
  C   C50       1.0  0.87632  0.63590  0.95486  1.0000
  C   C51       1.0  0.83710  0.30640  0.85398  1.0000
  C   C52       1.0  0.84190  0.69207  0.87356  1.0000
  C   C53       1.0  0.78217  0.73785  0.91314  1.0000
  C   C54       1.0  0.78105  0.25127  0.88593  1.0000
  C   C55       1.0  0.95251  0.59455  0.79887  1.0000
  C   C56       1.0  0.94834  0.40775  0.78813  1.0000
  C   C57       1.0  0.56336  0.09625  0.94578  1.0000
  C   C58       1.0  0.58316  0.09111  0.82458  1.0000
  C   C59       1.0  0.63409  0.14383  0.78454  1.0000
  C   C60       1.0  0.59645  0.84503  0.52920  1.0000
  C   C61       1.0  0.66979  0.19918  0.86673  1.0000
  C   C62       1.0  0.65063  0.20415  0.98842  1.0000
  N   N7        1.0  0.73861  0.77285  0.83534  1.0000
  N   N8        1.0  0.72208  0.25001  0.82442  1.0000
  C   C63       1.0  0.50783  0.04443  0.99411  1.0000
  C   C64       1.0  0.50932  0.95851  0.99346  1.0000
  H   H26       1.0  0.55796  0.04621  0.76113  1.0000
  H   H27       1.0  0.64813  0.14140  0.68997  1.0000
  H   H28       1.0  0.58099  0.84159  0.62279  1.0000
  H   H29       1.0  0.67662  0.75264  0.55822  1.0000
  H   H30       1.0  0.77214  0.39362  0.75090  1.0000
  H   H31       1.0  0.83898  0.74582  0.69301  1.0000
  H   H32       1.0  0.86929  0.48403  0.69554  1.0000
  H   H33       1.0  0.93915  0.66244  0.62887  1.0000
  H   H34       1.0  0.01256  0.31812  0.88947  1.0000
  H   H35       1.0  0.95496  0.54151  0.98076  1.0000
  H   H36       1.0  0.86137  0.36768  0.54356  1.0000
  H   H37       1.0  0.23814  0.25993  0.98451  1.0000
  H   H38       1.0  0.21190  0.79955  0.03021  1.0000
  H   H39       1.0  0.77478  0.73817  0.01213  1.0000
  H   H40       1.0  0.79229  0.20896  0.96398  1.0000
  C  Sn1       1.0  0.38602  0.78799  0.49572  1.0000
  C   C65       1.0  0.35203  0.79448  0.60397  1.0000
  C  Sn2       1.0  0.36345  0.86338  0.68176  1.0000
  C  Sn3       1.0  0.40979  0.92717  0.65066  1.0000
  C   C66       1.0  0.44374  0.92067  0.54245  1.0000
  C  Sn4       1.0  0.43236  0.85178  0.46462  1.0000
  O  Te1       1.0  0.37381  0.71856  0.41932  1.0000
  O  Te2       1.0  0.32888  0.86847  0.78951  1.0000
  O  Te3       1.0  0.42197  0.99663  0.72717  1.0000
  O  Te4       1.0  0.46688  0.84668  0.35692  1.0000
  Mg  Mg1       1.0  0.36261  0.97528  0.86379  1.0000
  Mg  Mg2       1.0  0.43317  0.73992  0.28254  1.0000
  C  Sn5       1.0  0.14916  0.59299  0.26587  1.0000
  C   C67       1.0  0.07841  0.60267  0.23856  1.0000
  C  Sn6       1.0  0.05410  0.65709  0.14590  1.0000
  C  Sn7       1.0  0.10148  0.70276  0.07906  1.0000
  C   C68       1.0  0.17218  0.69306  0.10636  1.0000
  C  Sn8       1.0  0.19654  0.63866  0.19903  1.0000
  O  Te5       1.0  0.17231  0.53824  0.35888  1.0000
  O  Te6       1.0  0.98313  0.66575  0.12029  1.0000
  O  Te7       1.0  0.11616  0.76082  0.98599  1.0000
  O  Te8       1.0  0.26746  0.62998  0.22463  1.0000
  Mg  Mg3       1.0  0.01470  0.75123  0.98514  1.0000
  Mg  Mg4       1.0  0.27385  0.54776  0.35971  1.0000
  C  Sn9       1.0  0.65184  0.08584  0.51608  1.0000
  C   C69       1.0  0.58185  0.09783  0.48362  1.0000
  C  Sn10      1.0  0.56098  0.14850  0.38421  1.0000
  C  Sn11      1.0  0.61111  0.18797  0.31576  1.0000
  C   C70       1.0  0.68106  0.17597  0.34822  1.0000
  C  Sn12      1.0  0.70198  0.12532  0.44763  1.0000
  O  Te9       1.0  0.67153  0.03492  0.61580  1.0000
  O  Te10      1.0  0.49071  0.15957  0.35353  1.0000
  O  Te11      1.0  0.59137  0.23893  0.21598  1.0000
  O  Te12      1.0  0.77220  0.11423  0.47830  1.0000
  Mg  Mg5       1.0  0.48952  0.23474  0.21000  1.0000
  Mg  Mg6       1.0  0.77345  0.03904  0.62177  1.0000
  C  Sn13      1.0  0.10737  0.57610  0.57532  1.0000
  C   C71       1.0  0.08256  0.57442  0.69232  1.0000
  C  Sn14      1.0  0.10044  0.63759  0.77730  1.0000
  C  Sn15      1.0  0.14400  0.70387  0.74464  1.0000
  C   C72       1.0  0.16878  0.70553  0.62770  1.0000
  C  Sn16      1.0  0.15093  0.64237  0.54266  1.0000
  O  Te13      1.0  0.08883  0.51228  0.49183  1.0000
  O  Te14      1.0  0.07501  0.63455  0.89372  1.0000
  O  Te15      1.0  0.16253  0.76770  0.82825  1.0000
  O  Te16      1.0  0.17632  0.64540  0.42629  1.0000
  Mg  Mg7       1.0  0.11482  0.73598  0.97548  1.0000
  Mg  Mg8       1.0  0.13652  0.54403  0.34445  1.0000
  C  Sn17      1.0  0.36694  0.93316  0.03838  1.0000
  C   C73       1.0  0.43785  0.91957  0.05620  1.0000
  C  Sn18      1.0  0.46317  0.84056  0.08938  1.0000
  C  Sn19      1.0  0.41665  0.77372  0.10499  1.0000
  C   C74       1.0  0.34579  0.78732  0.08715  1.0000
  C  Sn20      1.0  0.32042  0.86632  0.05399  1.0000
  O  Te17      1.0  0.34217  0.01266  0.00523  1.0000
  O  Te18      1.0  0.53427  0.82851  0.10673  1.0000
  O  Te19      1.0  0.44088  0.69418  0.13817  1.0000
  O  Te20      1.0  0.24937  0.87839  0.03662  1.0000
  Mg  Mg9       1.0  0.54213  0.70886  0.15133  1.0000
  Mg  Mg10      1.0  0.27935  0.00127  0.99196  1.0000
  C  Sn21      1.0  0.65417  0.94266  0.96120  1.0000
  C   C75       1.0  0.58411  0.92871  0.93144  1.0000
  C  Sn22      1.0  0.56147  0.85214  0.88150  1.0000
  C  Sn23      1.0  0.60987  0.78815  0.86094  1.0000
  C   C76       1.0  0.67988  0.80211  0.89072  1.0000
  C  Sn24      1.0  0.70257  0.87867  0.94065  1.0000
  O  Te21      1.0  0.63715  0.01641  0.01104  1.0000
  O  Te22      1.0  0.49116  0.83967  0.85244  1.0000
  O  Te23      1.0  0.58833  0.71108  0.81106  1.0000
  O  Te24      1.0  0.77283  0.89115  0.96972  1.0000
  Mg  Mg11      1.0  0.48719  0.72407  0.78660  1.0000
  Mg  Mg12      1.0  0.73836  0.00343  0.03562  1.0000
  C  Sn25      1.0  0.33762  0.09470  0.56685  1.0000
  C   C77       1.0  0.34285  0.17170  0.62782  1.0000
  C  Sn26      1.0  0.40425  0.21726  0.63151  1.0000
  C  Sn27      1.0  0.46161  0.18522  0.57297  1.0000
  C   C78       1.0  0.45636  0.10828  0.51202  1.0000
  C  Sn28      1.0  0.39498  0.06266  0.50830  1.0000
  O  Te25      1.0  0.27573  0.05023  0.56432  1.0000
  O  Te26      1.0  0.40824  0.29407  0.69307  1.0000
  O  Te27      1.0  0.52353  0.22977  0.57554  1.0000
  O  Te28      1.0  0.39157  0.98590  0.44677  1.0000
  Mg  Mg13      1.0  0.50364  0.33141  0.67095  1.0000
  Mg  Mg14      1.0  0.29620  0.94854  0.46878  1.0000
  C  Sn29      1.0  0.94929  0.66144  0.40360  1.0000
  C   C79       1.0  0.94709  0.59214  0.32502  1.0000
  C  Sn30      1.0  0.88731  0.57367  0.25189  1.0000
  C  Sn31      1.0  0.82849  0.62557  0.25735  1.0000
  C   C80       1.0  0.83071  0.69482  0.33587  1.0000
  C  Sn32      1.0  0.89048  0.71333  0.40906  1.0000
  O  Te29      1.0  0.00961  0.67872  0.47588  1.0000
  O  Te30      1.0  0.88634  0.50404  0.17408  1.0000
  O  Te31      1.0  0.76815  0.60822  0.18498  1.0000
  O  Te32      1.0  0.89146  0.78293  0.48681  1.0000
  Mg  Mg15      1.0  0.79213  0.50638  0.09351  1.0000
  Mg  Mg16      1.0  0.98565  0.78067  0.56737  1.0000
