data_image0
_chemical_formula_structural       N8C108O8H71C4N8C84O8H57C6Sn2C2HTe2HMgC2Sn2C2HTe2HMgC2Sn2C2HTe2HMgC2Sn2C2HTe2HMgC2Sn2C2HTe2HMgC2Sn2C2HTe2HMgC2Sn2C2HTe2HMgC2Sn2C2HTe2HMgC2Sn2C2HTe2HMgC2Sn2C2HTe2HMgC2Sn2C2HTe2HMgC2Sn2C2HTe2HMgC2Sn2C2HTe2HMgC2Sn2C2HTe2HMgC2Sn2C2HTe2HMgC2Sn2C2HTe2HMgC2Sn2C2HTe2HMgC2Sn2C2HTe2HMgC2Sn2C2HTe2HMgC2Sn2C2HTe2HMgC2Sn2C2HTe2HMgC2Sn2C2HTe2HMgC2Sn2C2HTe2HMgC2Sn2C2HTe2HMg
_chemical_formula_sum              "N16 C296 O16 H176 Sn48 Te48 Mg24"
_cell_length_a       32.0311
_cell_length_b       40.9028
_cell_length_c       10.6384
_cell_angle_alpha    87.487
_cell_angle_beta     106.585
_cell_angle_gamma    90.0753

_symmetry_space_group_name_H-M    'P1'
_space_group_IT_number       1

loop_
  _space_group_symop_operation_xyz
  'x, y, z'

loop_
  _atom_site_type_symbol
  _atom_site_label
  _atom_site_symmetry_multiplicity
  _atom_site_fract_x
  _atom_site_fract_y
  _atom_site_fract_z
  _atom_site_occupancy
  N   N1        1.0  0.35877  0.10391  0.22686  1.0000
  N   N2        1.0  0.63990  0.10664  0.28726  1.0000
  N   N3        1.0  0.85876  0.60437  0.23834  1.0000
  N   N4        1.0  0.14310  0.60190  0.26672  1.0000
  N   N5        1.0  0.64163  0.89438  0.29368  1.0000
  N   N6        1.0  0.35860  0.89463  0.20178  1.0000
  N   N7        1.0  0.14361  0.39530  0.28522  1.0000
  N   N8        1.0  0.85874  0.39614  0.21156  1.0000
  C   C1        1.0  0.35252  0.13073  0.15495  1.0000
  C   C2        1.0  0.64676  0.13210  0.35775  1.0000
  C   C3        1.0  0.84953  0.63016  0.16025  1.0000
  C   C4        1.0  0.14836  0.62750  0.33645  1.0000
  C   C5        1.0  0.65114  0.86871  0.37232  1.0000
  C   C6        1.0  0.35039  0.87016  0.12566  1.0000
  C   C7        1.0  0.14760  0.36754  0.35061  1.0000
  C   C8        1.0  0.85237  0.37224  0.13310  1.0000
  C   C9        1.0  0.81910  0.65505  0.17570  1.0000
  C   C10       1.0  0.18078  0.65213  0.32941  1.0000
  C   C11       1.0  0.67969  0.84321  0.35058  1.0000
  C   C12       1.0  0.32187  0.84400  0.14726  1.0000
  C   C13       1.0  0.64289  0.70105  0.35711  1.0000
  C   C14       1.0  0.35672  0.69866  0.14790  1.0000
  C   C15       1.0  0.15064  0.79753  0.33965  1.0000
  C   C16       1.0  0.35028  0.29935  0.14592  1.0000
  C   C17       1.0  0.64962  0.30037  0.33807  1.0000
  C   C18       1.0  0.68569  0.70705  0.35732  1.0000
  C   C19       1.0  0.31463  0.70608  0.15033  1.0000
  C   C20       1.0  0.19311  0.78932  0.34348  1.0000
  C   C21       1.0  0.30823  0.29120  0.14675  1.0000
  C   C22       1.0  0.69166  0.29232  0.33713  1.0000
  C   C23       1.0  0.69467  0.72549  0.25316  1.0000
  C   C24       1.0  0.30724  0.72329  0.25415  1.0000
  C   C25       1.0  0.20158  0.77191  0.24170  1.0000
  C   C26       1.0  0.30083  0.27308  0.25404  1.0000
  C   C27       1.0  0.69893  0.27485  0.23371  1.0000
  C   C28       1.0  0.65947  0.73680  0.14783  1.0000
  C   C29       1.0  0.34341  0.73254  0.35569  1.0000
  C   C30       1.0  0.16629  0.76350  0.13573  1.0000
  C   C31       1.0  0.33668  0.26415  0.36129  1.0000
  C   C32       1.0  0.66283  0.26599  0.13120  1.0000
  C   C33       1.0  0.61661  0.73007  0.14578  1.0000
  C   C34       1.0  0.38565  0.72468  0.35470  1.0000
  C   C35       1.0  0.12375  0.77223  0.13049  1.0000
  C   C36       1.0  0.37886  0.27277  0.36175  1.0000
  C   C37       1.0  0.62064  0.27448  0.13092  1.0000
  C   C38       1.0  0.53998  0.03789  0.27489  1.0000
  C   C39       1.0  0.04013  0.53664  0.25937  1.0000
  C   C40       1.0  0.45979  0.96338  0.22506  1.0000
  C   C41       1.0  0.03936  0.46171  0.26429  1.0000
  C   C42       1.0  0.95993  0.46384  0.23422  1.0000
  C   C43       1.0  0.55384  0.04708  0.16454  1.0000
  C   C44       1.0  0.05534  0.54273  0.14926  1.0000
  C   C45       1.0  0.42302  0.96996  0.26789  1.0000
  C   C46       1.0  0.08326  0.47201  0.29074  1.0000
  C   C47       1.0  0.95103  0.44980  0.34664  1.0000
  C   C48       1.0  0.58785  0.06881  0.17435  1.0000
  C   C49       1.0  0.09021  0.56355  0.15531  1.0000
  C   C50       1.0  0.38929  0.94764  0.25363  1.0000
  C   C51       1.0  0.11709  0.45024  0.29691  1.0000
  C   C52       1.0  0.91607  0.42892  0.33573  1.0000
  C   C53       1.0  0.60769  0.08382  0.29282  1.0000
  C   C54       1.0  0.11026  0.57954  0.27154  1.0000
  C   C55       1.0  0.39039  0.91757  0.19520  1.0000
  C   C56       1.0  0.10952  0.41650  0.28440  1.0000
  C   C57       1.0  0.89060  0.41965  0.21142  1.0000
  C   C58       1.0  0.59407  0.07475  0.40414  1.0000
  C   C59       1.0  0.09638  0.57230  0.38404  1.0000
  C   C60       1.0  0.42580  0.91152  0.14533  1.0000
  C   C61       1.0  0.06651  0.40554  0.26216  1.0000
  C   C62       1.0  0.89855  0.43430  0.09834  1.0000
  C   C63       1.0  0.56072  0.05209  0.39441  1.0000
  C   C64       1.0  0.06150  0.55137  0.37717  1.0000
  C   C65       1.0  0.45913  0.93400  0.15906  1.0000
  C   C66       1.0  0.03261  0.42760  0.25094  1.0000
  C   C67       1.0  0.93260  0.45649  0.11035  1.0000
  C   C68       1.0  0.60787  0.71269  0.25204  1.0000
  C   C69       1.0  0.39270  0.70803  0.24993  1.0000
  C   C70       1.0  0.11553  0.78886  0.23369  1.0000
  C   C71       1.0  0.38603  0.28999  0.25299  1.0000
  C   C72       1.0  0.61369  0.29139  0.23520  1.0000
  C   C73       1.0  0.79457  0.65028  0.26559  1.0000
  C   C74       1.0  0.21063  0.64760  0.25674  1.0000
  C   C75       1.0  0.70258  0.84788  0.25636  1.0000
  C   C76       1.0  0.29734  0.84712  0.23689  1.0000
  C   C77       1.0  0.76785  0.67506  0.28504  1.0000
  C   C78       1.0  0.23812  0.67263  0.23997  1.0000
  C   C79       1.0  0.72781  0.82285  0.23146  1.0000
  C   C80       1.0  0.27240  0.82142  0.26312  1.0000
  C   C81       1.0  0.76575  0.70603  0.21950  1.0000
  C   C82       1.0  0.23633  0.70370  0.29153  1.0000
  C   C83       1.0  0.73004  0.79171  0.29570  1.0000
  C   C84       1.0  0.27204  0.79094  0.20534  1.0000
  C   C85       1.0  0.78870  0.71007  0.12495  1.0000
  C   C86       1.0  0.20881  0.70711  0.37292  1.0000
  C   C87       1.0  0.70837  0.78755  0.39342  1.0000
  C   C88       1.0  0.29522  0.78844  0.11154  1.0000
  C   C89       1.0  0.81470  0.68501  0.10281  1.0000
  C   C90       1.0  0.18159  0.68193  0.39134  1.0000
  C   C91       1.0  0.68384  0.81288  0.42097  1.0000
  C   C92       1.0  0.31942  0.81450  0.08233  1.0000
  C   C93       1.0  0.25604  0.26401  0.25928  1.0000
  C   C94       1.0  0.74392  0.26612  0.22916  1.0000
  C   C95       1.0  0.75538  0.76458  0.26306  1.0000
  C   C96       1.0  0.24681  0.76310  0.24004  1.0000
  C   C97       1.0  0.73999  0.73334  0.24887  1.0000
  C   C98       1.0  0.26224  0.73147  0.25987  1.0000
  C   C99       1.0  0.24095  0.23265  0.24417  1.0000
  C   C100      1.0  0.75919  0.23445  0.25281  1.0000
  C   C101      1.0  0.07021  0.79571  0.23375  1.0000
  C   C102      1.0  0.92766  0.80177  0.23815  1.0000
  C   C103      1.0  0.56884  0.29831  0.23951  1.0000
  C   C104      1.0  0.43096  0.29687  0.24873  1.0000
  C   C105      1.0  0.93514  0.20160  0.25200  1.0000
  C   C106      1.0  0.06633  0.20570  0.27303  1.0000
  C   C107      1.0  0.43763  0.70214  0.24418  1.0000
  C   C108      1.0  0.56233  0.70849  0.25608  1.0000
  O   O1        1.0  0.56016  0.30786  0.33724  1.0000
  O   O2        1.0  0.43990  0.30683  0.14893  1.0000
  O   O3        1.0  0.06023  0.80357  0.33175  1.0000
  O   O4        1.0  0.93549  0.81269  0.13787  1.0000
  O   O5        1.0  0.44615  0.69351  0.14479  1.0000
  O   O6        1.0  0.55223  0.70122  0.35694  1.0000
  O   O7        1.0  0.94409  0.19183  0.15497  1.0000
  O   O8        1.0  0.05793  0.19647  0.37466  1.0000
  H   H1        1.0  0.37210  0.13724  0.08788  1.0000
  H   H2        1.0  0.62781  0.13757  0.42605  1.0000
  H   H3        1.0  0.86463  0.63472  0.08034  1.0000
  H   H4        1.0  0.12730  0.63290  0.39881  1.0000
  H   H5        1.0  0.63776  0.86440  0.45604  1.0000
  H   H6        1.0  0.36491  0.86737  0.04453  1.0000
  H   H7        1.0  0.12781  0.36159  0.41761  1.0000
  H   H8        1.0  0.87143  0.36905  0.06311  1.0000
  H   H9        1.0  0.63574  0.68771  0.43911  1.0000
  H   H10       1.0  0.36238  0.68595  0.06640  1.0000
  H   H11       1.0  0.14375  0.81039  0.41902  1.0000
  H   H12       1.0  0.35639  0.31257  0.06202  1.0000
  H   H13       1.0  0.64367  0.31330  0.41866  1.0000
  H   H14       1.0  0.71226  0.69861  0.44158  1.0000
  H   H15       1.0  0.28717  0.69952  0.06864  1.0000
  H   H16       1.0  0.21979  0.79539  0.42827  1.0000
  H   H17       1.0  0.28101  0.29782  0.06143  1.0000
  H   H18       1.0  0.71905  0.29862  0.41957  1.0000
  H   H19       1.0  0.66610  0.75085  0.06671  1.0000
  H   H20       1.0  0.33826  0.74581  0.43634  1.0000
  H   H21       1.0  0.17257  0.75023  0.05660  1.0000
  H   H22       1.0  0.33122  0.25063  0.44529  1.0000
  H   H23       1.0  0.66802  0.25257  0.05088  1.0000
  H   H24       1.0  0.58976  0.73839  0.06206  1.0000
  H   H25       1.0  0.41344  0.73129  0.43546  1.0000
  H   H26       1.0  0.09673  0.76638  0.04613  1.0000
  H   H27       1.0  0.40636  0.26647  0.44684  1.0000
  H   H28       1.0  0.59287  0.26835  0.04924  1.0000
  H   H29       1.0  0.53800  0.03677  0.07036  1.0000
  H   H30       1.0  0.03987  0.53091  0.05824  1.0000
  H   H31       1.0  0.42114  0.99221  0.31770  1.0000
  H   H32       1.0  0.09145  0.49747  0.30553  1.0000
  H   H33       1.0  0.97172  0.45541  0.44351  1.0000
  H   H34       1.0  0.59925  0.07510  0.08962  1.0000
  H   H35       1.0  0.10163  0.56842  0.06937  1.0000
  H   H36       1.0  0.36200  0.95275  0.29185  1.0000
  H   H37       1.0  0.15023  0.45901  0.31390  1.0000
  H   H38       1.0  0.90887  0.41859  0.42306  1.0000
  H   H39       1.0  0.42394  0.11578  0.60608  1.0000
  H   H40       1.0  0.87916  0.58218  0.52055  1.0000
  H   H41       1.0  0.06009  0.62272  0.76119  1.0000
  H   H42       1.0  0.93851  0.38265  0.67579  1.0000
  H   H43       1.0  0.55059  0.04548  0.48131  1.0000
  H   H44       1.0  0.05062  0.54638  0.46413  1.0000
  H   H45       1.0  0.48639  0.92803  0.12226  1.0000
  H   H46       1.0  0.99987  0.41807  0.23069  1.0000
  H   H47       1.0  0.93874  0.46741  0.02220  1.0000
  H   H48       1.0  0.79732  0.62685  0.32001  1.0000
  H   H49       1.0  0.21106  0.62426  0.21180  1.0000
  H   H50       1.0  0.69985  0.87151  0.20341  1.0000
  H   H51       1.0  0.29862  0.87011  0.28552  1.0000
  H   H52       1.0  0.74933  0.67063  0.35495  1.0000
  H   H53       1.0  0.26053  0.66825  0.18279  1.0000
  H   H54       1.0  0.74529  0.82725  0.15884  1.0000
  H   H55       1.0  0.25370  0.82485  0.33204  1.0000
  H   H56       1.0  0.78571  0.73306  0.06795  1.0000
  H   H57       1.0  0.20870  0.72982  0.42177  1.0000
  H   H58       1.0  0.71130  0.76434  0.44897  1.0000
  H   H59       1.0  0.29385  0.76590  0.06038  1.0000
  H   H60       1.0  0.83201  0.68859  0.02885  1.0000
  H   H61       1.0  0.16041  0.68541  0.45371  1.0000
  H   H62       1.0  0.66765  0.80926  0.49760  1.0000
  H   H63       1.0  0.33684  0.81199  0.00898  1.0000
  H   H64       1.0  0.04499  0.79277  0.13879  1.0000
  H   H65       1.0  0.95416  0.79748  0.33102  1.0000
  H   H66       1.0  0.54271  0.29377  0.14801  1.0000
  H   H67       1.0  0.45695  0.29186  0.34206  1.0000
  H   H68       1.0  0.96120  0.20603  0.34376  1.0000
  H   H69       1.0  0.03996  0.21131  0.18108  1.0000
  H   H70       1.0  0.46400  0.70660  0.33518  1.0000
  H   H71       1.0  0.53684  0.71301  0.16133  1.0000
  C   C109      1.0  0.00065  0.48322  0.24918  1.0000
  C   C110      1.0  0.50037  0.98338  0.25358  1.0000
  C   C111      1.0  0.00005  0.51691  0.24971  1.0000
  C   C112      1.0  0.50075  0.01674  0.25797  1.0000
  N   N9        1.0  0.35868  0.10636  0.72646  1.0000
  N   N10       1.0  0.64412  0.10598  0.79096  1.0000
  N   N11       1.0  0.85740  0.60395  0.73670  1.0000
  N   N12       1.0  0.14402  0.60596  0.79425  1.0000
  N   N13       1.0  0.64064  0.89519  0.78953  1.0000
  N   N14       1.0  0.36290  0.89494  0.70204  1.0000
  N   N15       1.0  0.14208  0.40001  0.75932  1.0000
  N   N16       1.0  0.85811  0.39622  0.69949  1.0000
  C   C113      1.0  0.34749  0.13160  0.64612  1.0000
  C   C114      1.0  0.65413  0.13028  0.86735  1.0000
  C   C115      1.0  0.85020  0.63003  0.66030  1.0000
  C   C116      1.0  0.14854  0.63289  0.85573  1.0000
  C   C117      1.0  0.64600  0.86826  0.86053  1.0000
  C   C118      1.0  0.35789  0.86964  0.63095  1.0000
  C   C119      1.0  0.14617  0.37276  0.82832  1.0000
  C   C120      1.0  0.85220  0.37104  0.62725  1.0000
  C   C121      1.0  0.31805  0.15668  0.66669  1.0000
  C   C122      1.0  0.67680  0.84321  0.84677  1.0000
  C   C123      1.0  0.17742  0.34737  0.82198  1.0000
  C   C124      1.0  0.64683  0.69884  0.86793  1.0000
  C   C125      1.0  0.35681  0.69811  0.65254  1.0000
  C   C126      1.0  0.84964  0.79967  0.65276  1.0000
  C   C127      1.0  0.68863  0.70650  0.86313  1.0000
  C   C128      1.0  0.31463  0.70650  0.65095  1.0000
  C   C129      1.0  0.80741  0.79217  0.65406  1.0000
  C   C130      1.0  0.69525  0.72435  0.75415  1.0000
  C   C131      1.0  0.30703  0.72477  0.75180  1.0000
  C   C132      1.0  0.79979  0.77340  0.75953  1.0000
  C   C133      1.0  0.65884  0.73332  0.64884  1.0000
  C   C134      1.0  0.34288  0.73403  0.85441  1.0000
  C   C135      1.0  0.83566  0.76288  0.86402  1.0000
  C   C136      1.0  0.61688  0.72491  0.65177  1.0000
  C   C137      1.0  0.38518  0.72520  0.85735  1.0000
  C   C138      1.0  0.87798  0.77096  0.86423  1.0000
  C   C139      1.0  0.46077  0.03935  0.73393  1.0000
  C   C140      1.0  0.95984  0.53831  0.74469  1.0000
  C   C141      1.0  0.03927  0.54029  0.77371  1.0000
  C   C142      1.0  0.96118  0.46399  0.72783  1.0000
  C   C143      1.0  0.42673  0.03143  0.78879  1.0000
  C   C144      1.0  0.94953  0.54649  0.85930  1.0000
  C   C145      1.0  0.08313  0.52939  0.80047  1.0000
  C   C146      1.0  0.91950  0.47337  0.73669  1.0000
  C   C147      1.0  0.39267  0.05335  0.78020  1.0000
  C   C148      1.0  0.91430  0.56698  0.85281  1.0000
  C   C149      1.0  0.11708  0.55100  0.80753  1.0000
  C   C150      1.0  0.88609  0.45102  0.72522  1.0000
  C   C151      1.0  0.39093  0.08437  0.71627  1.0000
  C   C152      1.0  0.88968  0.58133  0.73159  1.0000
  C   C153      1.0  0.10972  0.58506  0.79504  1.0000
  C   C154      1.0  0.89166  0.41800  0.70069  1.0000
  C   C155      1.0  0.42385  0.09202  0.65609  1.0000
  C   C156      1.0  0.89894  0.57240  0.61584  1.0000
  C   C157      1.0  0.06676  0.59652  0.77388  1.0000
  C   C158      1.0  0.93254  0.40823  0.68974  1.0000
  C   C159      1.0  0.45749  0.06991  0.66420  1.0000
  C   C160      1.0  0.93352  0.55093  0.62305  1.0000
  C   C161      1.0  0.03274  0.57472  0.76269  1.0000
  C   C162      1.0  0.96603  0.43056  0.70322  1.0000
  C   C163      1.0  0.61045  0.70818  0.76272  1.0000
  C   C164      1.0  0.39248  0.70749  0.75546  1.0000
  C   C165      1.0  0.88538  0.78908  0.75769  1.0000
  C   C166      1.0  0.29520  0.15212  0.76112  1.0000
  C   C167      1.0  0.70455  0.84894  0.76675  1.0000
  C   C168      1.0  0.20704  0.35190  0.74734  1.0000
  C   C169      1.0  0.26934  0.17703  0.78435  1.0000
  C   C170      1.0  0.73053  0.82401  0.74420  1.0000
  C   C171      1.0  0.23348  0.32626  0.73323  1.0000
  C   C172      1.0  0.26653  0.20803  0.71845  1.0000
  C   C173      1.0  0.72922  0.79184  0.79720  1.0000
  C   C174      1.0  0.23085  0.29464  0.78971  1.0000
  C   C175      1.0  0.28795  0.21192  0.62005  1.0000
  C   C176      1.0  0.70347  0.78690  0.88393  1.0000
  C   C177      1.0  0.20331  0.29099  0.87183  1.0000
  C   C178      1.0  0.31296  0.18672  0.59391  1.0000
  C   C179      1.0  0.67786  0.81196  0.90828  1.0000
  C   C180      1.0  0.17718  0.31676  0.88750  1.0000
  C   C181      1.0  0.25635  0.26669  0.76319  1.0000
  C   C182      1.0  0.74459  0.26571  0.72842  1.0000
  C   C183      1.0  0.75483  0.76476  0.76472  1.0000
  C   C184      1.0  0.24745  0.76593  0.73276  1.0000
  C   C185      1.0  0.73988  0.73336  0.74718  1.0000
  C   C186      1.0  0.26218  0.73418  0.75421  1.0000
  C   C187      1.0  0.24091  0.23538  0.74892  1.0000
  C   C188      1.0  0.76073  0.23438  0.74976  1.0000
  C   C189      1.0  0.07146  0.79543  0.74077  1.0000
  C   C190      1.0  0.93044  0.79577  0.75386  1.0000
  C   C191      1.0  0.56859  0.29538  0.73657  1.0000
  C   C192      1.0  0.43283  0.29340  0.75013  1.0000
  C   C193      1.0  0.93791  0.20475  0.75348  1.0000
  C   C194      1.0  0.06620  0.20638  0.77236  1.0000
  C   C195      1.0  0.43745  0.70010  0.75335  1.0000
  C   C196      1.0  0.56590  0.70181  0.77216  1.0000
  O   O9        1.0  0.55995  0.30505  0.83423  1.0000
  O   O10       1.0  0.44196  0.30206  0.64913  1.0000
  O   O11       1.0  0.06233  0.80516  0.83752  1.0000
  O   O12       1.0  0.93961  0.80660  0.65556  1.0000
  O   O13       1.0  0.44636  0.69017  0.65645  1.0000
  O   O14       1.0  0.55815  0.69321  0.87542  1.0000
  O   O15       1.0  0.94804  0.19661  0.65600  1.0000
  O   O16       1.0  0.05813  0.19801  0.87538  1.0000
  H   H72       1.0  0.36007  0.13595  0.56081  1.0000
  H   H73       1.0  0.64049  0.13369  0.94994  1.0000
  H   H74       1.0  0.86878  0.63559  0.58956  1.0000
  H   H75       1.0  0.12878  0.63855  0.92152  1.0000
  H   H76       1.0  0.62623  0.86202  0.92738  1.0000
  H   H77       1.0  0.37800  0.86487  0.56520  1.0000
  H   H78       1.0  0.12470  0.36655  0.89012  1.0000
  H   H79       1.0  0.87017  0.36734  0.55479  1.0000
  H   H80       1.0  0.64144  0.68595  0.95350  1.0000
  H   H81       1.0  0.36315  0.68464  0.57378  1.0000
  H   H82       1.0  0.85584  0.81346  0.57024  1.0000
  H   H83       1.0  0.71641  0.69976  0.94658  1.0000
  H   H84       1.0  0.28748  0.70002  0.56823  1.0000
  H   H85       1.0  0.78013  0.79985  0.57057  1.0000
  H   H86       1.0  0.66366  0.74673  0.56366  1.0000
  H   H87       1.0  0.33726  0.74806  0.93262  1.0000
  H   H88       1.0  0.83007  0.74852  0.94598  1.0000
  H   H89       1.0  0.58905  0.73105  0.56741  1.0000
  H   H90       1.0  0.41272  0.73167  0.93912  1.0000
  H   H91       1.0  0.90550  0.76336  0.94726  1.0000
  H   H92       1.0  0.42740  0.00835  0.84338  1.0000
  H   H93       1.0  0.96907  0.53648  0.95432  1.0000
  H   H94       1.0  0.09115  0.50359  0.81470  1.0000
  H   H95       1.0  0.91303  0.49834  0.75547  1.0000
  H   H96       1.0  0.36745  0.04713  0.82700  1.0000
  H   H97       1.0  0.90625  0.57317  0.94162  1.0000
  H   H98       1.0  0.15016  0.54177  0.82468  1.0000
  H   H99       1.0  0.85474  0.45887  0.73478  1.0000
  H   H100      1.0  0.60979  0.08507  0.49848  1.0000
  H   H101      1.0  0.11306  0.58291  0.47692  1.0000
  H   H102      1.0  0.42824  0.88849  0.10036  1.0000
  H   H103      1.0  0.05975  0.37964  0.24902  1.0000
  H   H104      1.0  0.87818  0.42832  0.00141  1.0000
  H   H105      1.0  0.48275  0.07684  0.61863  1.0000
  H   H106      1.0  0.94064  0.54435  0.53320  1.0000
  H   H107      1.0  0.00005  0.58471  0.74321  1.0000
  H   H108      1.0  0.99717  0.42168  0.69647  1.0000
  H   H109      1.0  0.29847  0.12871  0.81588  1.0000
  H   H110      1.0  0.70464  0.87328  0.72124  1.0000
  H   H111      1.0  0.20825  0.37574  0.69902  1.0000
  H   H112      1.0  0.25200  0.17261  0.85733  1.0000
  H   H113      1.0  0.75138  0.82940  0.68166  1.0000
  H   H114      1.0  0.25573  0.33061  0.67433  1.0000
  H   H115      1.0  0.28447  0.23492  0.56291  1.0000
  H   H116      1.0  0.70385  0.76310  0.93333  1.0000
  H   H117      1.0  0.20234  0.26768  0.92353  1.0000
  H   H118      1.0  0.32895  0.19028  0.51679  1.0000
  H   H119      1.0  0.65830  0.80733  0.97565  1.0000
  H   H120      1.0  0.15602  0.31317  0.95083  1.0000
  H   H121      1.0  0.04566  0.79009  0.64944  1.0000
  H   H122      1.0  0.95628  0.78988  0.84679  1.0000
  H   H123      1.0  0.54235  0.29047  0.64587  1.0000
  H   H124      1.0  0.45874  0.28867  0.84393  1.0000
  H   H125      1.0  0.96332  0.20870  0.84704  1.0000
  H   H126      1.0  0.03949  0.21095  0.68043  1.0000
  H   H127      1.0  0.46349  0.70454  0.84508  1.0000
  H   H128      1.0  0.53904  0.70576  0.68005  1.0000
  C   C197      1.0  0.99982  0.48543  0.74653  1.0000
  C   C198      1.0  0.50140  0.98582  0.75122  1.0000
  C   C199      1.0  0.00048  0.51899  0.75492  1.0000
  C   C200      1.0  0.50137  0.01918  0.75521  1.0000
  C   C201      1.0  0.15924  0.19789  0.38006  1.0000
  C   C202      1.0  0.11953  0.20908  0.29510  1.0000
  C  Sn1       1.0  0.11853  0.22753  0.18057  1.0000
  C  Sn2       1.0  0.15807  0.23486  0.15080  1.0000
  C   C203      1.0  0.19761  0.22353  0.23639  1.0000
  C   C204      1.0  0.19824  0.20509  0.35075  1.0000
  H   H129      1.0  0.15972  0.18361  0.46851  1.0000
  O  Te1       1.0  0.07859  0.23853  0.09679  1.0000
  O  Te2       1.0  0.15800  0.25324  0.03698  1.0000
  H   H130      1.0  0.22898  0.19641  0.41647  1.0000
  Mg  Mg1       1.0  0.19014  0.25144  0.95359  1.0000
  C   C205      1.0  0.32211  0.80551  0.58248  1.0000
  C   C206      1.0  0.32473  0.83796  0.61977  1.0000
  C  Sn3       1.0  0.30112  0.84852  0.70271  1.0000
  C  Sn4       1.0  0.27443  0.82611  0.74906  1.0000
  C   C207      1.0  0.27205  0.79369  0.71126  1.0000
  C   C208      1.0  0.29580  0.78339  0.62818  1.0000
  H   H131      1.0  0.34050  0.79754  0.51826  1.0000
  O  Te3       1.0  0.30411  0.88102  0.73897  1.0000
  O  Te4       1.0  0.25050  0.83600  0.83210  1.0000
  H   H132      1.0  0.29379  0.75826  0.59940  1.0000
  Mg  Mg2       1.0  0.26528  0.88283  0.85391  1.0000
  C   C209      1.0  0.60714  0.04516  0.73521  1.0000
  C   C210      1.0  0.61183  0.07675  0.78194  1.0000
  C  Sn5       1.0  0.58107  0.08960  0.83723  1.0000
  C  Sn6       1.0  0.54498  0.07039  0.84578  1.0000
  C   C211      1.0  0.54060  0.03880  0.79883  1.0000
  C   C212      1.0  0.57156  0.02620  0.74365  1.0000
  H   H133      1.0  0.63111  0.03540  0.69258  1.0000
  O  Te5       1.0  0.58625  0.12121  0.88340  1.0000
  O  Te6       1.0  0.51376  0.08261  0.90062  1.0000
  H   H134      1.0  0.56794  0.00173  0.70755  1.0000
  Mg  Mg3       1.0  0.53506  0.12705  0.94990  1.0000
  C   C213      1.0  0.80052  0.29409  0.58181  1.0000
  C   C214      1.0  0.77680  0.29177  0.67351  1.0000
  C  Sn7       1.0  0.77370  0.31854  0.74765  1.0000
  C  Sn8       1.0  0.79478  0.34816  0.72941  1.0000
  C   C215      1.0  0.81840  0.35025  0.63735  1.0000
  C   C216      1.0  0.82130  0.32330  0.56371  1.0000
  H   H135      1.0  0.80274  0.27325  0.52478  1.0000
  O  Te7       1.0  0.74989  0.31580  0.83889  1.0000
  O  Te8       1.0  0.79220  0.37530  0.80216  1.0000
  H   H136      1.0  0.83964  0.32511  0.49266  1.0000
  Mg  Mg4       1.0  0.75592  0.35954  0.91458  1.0000
  C   C217      1.0  0.15907  0.20031  0.88235  1.0000
  C   C218      1.0  0.11930  0.20995  0.79347  1.0000
  C  Sn9       1.0  0.11836  0.22745  0.67691  1.0000
  C  Sn10      1.0  0.15803  0.23541  0.64907  1.0000
  C   C219      1.0  0.19764  0.22564  0.73857  1.0000
  C   C220      1.0  0.19821  0.20814  0.85493  1.0000
  H   H137      1.0  0.15951  0.18676  0.97234  1.0000
  O  Te9       1.0  0.07835  0.23690  0.58922  1.0000
  O  Te10      1.0  0.15803  0.25287  0.53328  1.0000
  H   H138      1.0  0.22900  0.20067  0.92368  1.0000
  Mg  Mg5       1.0  0.09525  0.26032  0.44459  1.0000
  C   C221      1.0  0.78342  0.34789  0.23243  1.0000
  C   C222      1.0  0.81566  0.34783  0.16743  1.0000
  C  Sn11      1.0  0.82265  0.32011  0.10356  1.0000
  C  Sn12      1.0  0.79681  0.29197  0.10494  1.0000
  C   C223      1.0  0.76461  0.29228  0.17017  1.0000
  C   C224      1.0  0.75791  0.32014  0.23380  1.0000
  H   H139      1.0  0.77821  0.36945  0.28160  1.0000
  O  Te11      1.0  0.85501  0.32047  0.03913  1.0000
  O  Te12      1.0  0.80309  0.26394  0.04187  1.0000
  H   H140      1.0  0.73292  0.32019  0.28405  1.0000
  Mg  Mg6       1.0  0.94600  0.26502  0.96740  1.0000
  C   C225      1.0  0.72944  0.16720  0.23427  1.0000
  C   C226      1.0  0.73392  0.19935  0.27519  1.0000
  C  Sn13      1.0  0.71125  0.21011  0.36031  1.0000
  C  Sn14      1.0  0.68363  0.18823  0.40516  1.0000
  C   C227      1.0  0.67940  0.15611  0.36372  1.0000
  C   C228      1.0  0.70222  0.14560  0.27850  1.0000
  H   H141      1.0  0.74711  0.15906  0.16838  1.0000
  O  Te13      1.0  0.71609  0.24231  0.40019  1.0000
  O  Te14      1.0  0.66061  0.19834  0.49032  1.0000
  H   H142      1.0  0.69877  0.12070  0.24690  1.0000
  Mg  Mg7       1.0  0.67791  0.24459  0.51692  1.0000
  C   C229      1.0  0.95915  0.58033  0.19964  1.0000
  C   C230      1.0  0.96332  0.54708  0.23773  1.0000
  C  Sn15      1.0  0.92923  0.53069  0.27005  1.0000
  C  Sn16      1.0  0.89028  0.54798  0.26400  1.0000
  C   C231      1.0  0.88642  0.58123  0.22570  1.0000
  C   C232      1.0  0.92073  0.59739  0.19361  1.0000
  H   H143      1.0  0.98569  0.59284  0.17474  1.0000
  O  Te15      1.0  0.93395  0.49747  0.30794  1.0000
  O  Te16      1.0  0.85570  0.53220  0.29574  1.0000
  H   H144      1.0  0.91748  0.62313  0.16404  1.0000
  Mg  Mg8       1.0  0.87770  0.48674  0.34180  1.0000
  C   C233      1.0  0.16401  0.79922  0.85732  1.0000
  C   C234      1.0  0.12496  0.79369  0.76102  1.0000
  C  Sn17      1.0  0.12503  0.77648  0.65051  1.0000
  C  Sn18      1.0  0.16497  0.76459  0.63644  1.0000
  C   C235      1.0  0.20386  0.77023  0.73337  1.0000
  C   C236      1.0  0.20342  0.78749  0.84354  1.0000
  H   H145      1.0  0.16367  0.81256  0.94259  1.0000
  O  Te17      1.0  0.08572  0.77118  0.55521  1.0000
  O  Te18      1.0  0.16597  0.74730  0.52700  1.0000
  H   H146      1.0  0.23365  0.79175  0.91812  1.0000
  Mg  Mg9       1.0  0.10388  0.74630  0.42369  1.0000
  C   C237      1.0  0.20421  0.70829  0.89883  1.0000
  C   C238      1.0  0.23219  0.70783  0.81933  1.0000
  C  Sn19      1.0  0.23273  0.68109  0.74245  1.0000
  C  Sn20      1.0  0.20469  0.65436  0.74538  1.0000
  C   C239      1.0  0.17679  0.65508  0.82516  1.0000
  C   C240      1.0  0.17653  0.68195  0.90173  1.0000
  H   H147      1.0  0.20399  0.72909  0.95802  1.0000
  O  Te19      1.0  0.26090  0.68101  0.66362  1.0000
  O  Te20      1.0  0.20455  0.62733  0.66948  1.0000
  H   H148      1.0  0.15484  0.68231  0.96321  1.0000
  Mg  Mg10      1.0  0.24880  0.63863  0.57785  1.0000
  C   C241      1.0  0.84543  0.19989  0.63452  1.0000
  C   C242      1.0  0.88438  0.20917  0.72353  1.0000
  C  Sn21      1.0  0.88367  0.22655  0.83307  1.0000
  C  Sn22      1.0  0.84317  0.23475  0.85365  1.0000
  C   C243      1.0  0.80438  0.22533  0.76408  1.0000
  C   C244      1.0  0.80547  0.20795  0.65477  1.0000
  H   H149      1.0  0.84627  0.18643  0.54998  1.0000
  O  Te21      1.0  0.92288  0.23564  0.92100  1.0000
  O  Te22      1.0  0.84152  0.25210  0.96234  1.0000
  H   H150      1.0  0.77531  0.20076  0.58592  1.0000
  Mg  Mg11      1.0  0.80896  0.27034  0.05440  1.0000
  C   C245      1.0  0.28622  0.15203  0.26750  1.0000
  C   C246      1.0  0.31205  0.15228  0.18150  1.0000
  C  Sn23      1.0  0.31567  0.18083  0.10849  1.0000
  C  Sn24      1.0  0.29298  0.20963  0.12206  1.0000
  C   C247      1.0  0.26725  0.20913  0.20843  1.0000
  C   C248      1.0  0.26384  0.18042  0.28098  1.0000
  H   H151      1.0  0.28360  0.12983  0.32369  1.0000
  O  Te23      1.0  0.34160  0.18066  0.02298  1.0000
  O  Te24      1.0  0.29604  0.23850  0.05032  1.0000
  H   H152      1.0  0.24386  0.18024  0.34762  1.0000
  Mg  Mg12      1.0  0.43022  0.21473  0.94645  1.0000
  C   C249      1.0  0.34919  0.26250  0.87946  1.0000
  C   C250      1.0  0.30999  0.27207  0.78754  1.0000
  C  Sn25      1.0  0.31023  0.28955  0.67193  1.0000
  C  Sn26      1.0  0.35050  0.29755  0.64818  1.0000
  C   C251      1.0  0.38954  0.28784  0.74071  1.0000
  C   C252      1.0  0.38893  0.27037  0.85608  1.0000
  H   H153      1.0  0.34872  0.24896  0.96870  1.0000
  O  Te25      1.0  0.27076  0.29894  0.58116  1.0000
  O  Te26      1.0  0.35168  0.31499  0.53343  1.0000
  H   H154      1.0  0.41929  0.26294  0.92720  1.0000
  Mg  Mg13      1.0  0.28927  0.32236  0.43946  1.0000
  C   C253      1.0  0.43929  0.95034  0.85160  1.0000
  C   C254      1.0  0.46138  0.96059  0.76123  1.0000
  C  Sn27      1.0  0.44720  0.95094  0.63166  1.0000
  C  Sn28      1.0  0.41020  0.93065  0.59212  1.0000
  C   C255      1.0  0.38832  0.92054  0.68326  1.0000
  C   C256      1.0  0.40279  0.93034  0.81267  1.0000
  H   H155      1.0  0.45048  0.95793  0.95172  1.0000
  O  Te27      1.0  0.46965  0.96140  0.54264  1.0000
  O  Te28      1.0  0.39532  0.92065  0.46322  1.0000
  H   H156      1.0  0.38567  0.92241  0.88260  1.0000
  Mg  Mg14      1.0  0.43684  0.94128  0.37798  1.0000
  C   C257      1.0  0.68408  0.29618  0.84857  1.0000
  C   C258      1.0  0.69847  0.27708  0.76306  1.0000
  C  Sn29      1.0  0.66865  0.26496  0.65241  1.0000
  C  Sn30      1.0  0.62360  0.27214  0.62714  1.0000
  C   C259      1.0  0.60953  0.29129  0.71324  1.0000
  C   C260      1.0  0.63966  0.30328  0.82369  1.0000
  H   H157      1.0  0.70738  0.30548  0.93400  1.0000
  O  Te29      1.0  0.68358  0.24591  0.56802  1.0000
  O  Te30      1.0  0.59310  0.26035  0.51725  1.0000
  H   H158      1.0  0.62850  0.31808  0.88984  1.0000
  Mg  Mg15      1.0  0.62941  0.23544  0.43125  1.0000
  C   C261      1.0  0.42042  0.05881  0.36338  1.0000
  C   C262      1.0  0.39638  0.07793  0.25484  1.0000
  C  Sn31      1.0  0.40453  0.07573  0.13325  1.0000
  C  Sn32      1.0  0.43736  0.05396  0.12040  1.0000
  C   C263      1.0  0.46121  0.03492  0.22956  1.0000
  C   C264      1.0  0.45280  0.03732  0.35077  1.0000
  H   H159      1.0  0.41391  0.06065  0.45716  1.0000
  O  Te31      1.0  0.38021  0.09503  0.02582  1.0000
  O  Te32      1.0  0.44616  0.05127  0.00001  1.0000
  H   H160      1.0  0.47140  0.02250  0.43478  1.0000
  Mg  Mg16      1.0  0.49908  0.07137  0.88229  1.0000
  C   C265      1.0  0.76847  0.66559  0.77782  1.0000
  C   C266      1.0  0.76495  0.69830  0.73190  1.0000
  C  Sn33      1.0  0.78803  0.70943  0.64540  1.0000
  C  Sn34      1.0  0.81511  0.68735  0.60424  1.0000
  C   C267      1.0  0.81839  0.65467  0.65067  1.0000
  C   C268      1.0  0.79516  0.64379  0.73724  1.0000
  H   H161      1.0  0.75048  0.65716  0.84474  1.0000
  O  Te33      1.0  0.78415  0.74219  0.60052  1.0000
  O  Te34      1.0  0.83853  0.69783  0.51781  1.0000
  H   H162      1.0  0.79787  0.61846  0.77270  1.0000
  Mg  Mg17      1.0  0.82256  0.74481  0.48389  1.0000
  C   C269      1.0  0.57872  0.93932  0.64899  1.0000
  C   C270      1.0  0.60685  0.92460  0.76270  1.0000
  C  Sn35      1.0  0.59991  0.92884  0.88482  1.0000
  C  Sn36      1.0  0.56411  0.94818  0.89293  1.0000
  C   C271      1.0  0.53614  0.96279  0.77859  1.0000
  C   C272      1.0  0.54340  0.95839  0.65690  1.0000
  H   H163      1.0  0.58432  0.93591  0.55483  1.0000
  O  Te35      1.0  0.62834  0.91397  0.99745  1.0000
  O  Te36      1.0  0.46162  0.96412  0.01371  1.0000
  H   H164      1.0  0.52160  0.96978  0.56887  1.0000
  Mg  Mg18      1.0  0.50947  0.93883  0.13943  1.0000
  C   C273      1.0  0.84253  0.19852  0.13516  1.0000
  C   C274      1.0  0.88187  0.20744  0.22315  1.0000
  C  Sn37      1.0  0.88192  0.22504  0.33283  1.0000
  C  Sn38      1.0  0.84179  0.23382  0.35458  1.0000
  C   C275      1.0  0.80261  0.22476  0.26602  1.0000
  C   C276      1.0  0.80293  0.20716  0.15657  1.0000
  H   H165      1.0  0.84277  0.18489  0.05051  1.0000
  O  Te37      1.0  0.92152  0.23377  0.41973  1.0000
  O  Te38      1.0  0.84090  0.25140  0.46342  1.0000
  H   H166      1.0  0.77246  0.20023  0.08850  1.0000
  Mg  Mg19      1.0  0.90341  0.25768  0.55381  1.0000
  C   C277      1.0  0.20127  0.29047  0.40662  1.0000
  C   C278      1.0  0.22370  0.28916  0.31189  1.0000
  C  Sn39      1.0  0.22490  0.31662  0.23019  1.0000
  C  Sn40      1.0  0.20321  0.34591  0.24384  1.0000
  C   C279      1.0  0.18089  0.34697  0.33898  1.0000
  C   C280      1.0  0.17989  0.31935  0.42019  1.0000
  H   H167      1.0  0.20052  0.26910  0.46951  1.0000
  O  Te39      1.0  0.24744  0.31489  0.13601  1.0000
  O  Te40      1.0  0.20390  0.37372  0.16351  1.0000
  H   H168      1.0  0.16255  0.32037  0.49359  1.0000
  Mg  Mg20      1.0  0.23898  0.35926  0.04968  1.0000
  C   C281      1.0  0.58700  0.96862  0.22398  1.0000
  C   C282      1.0  0.54853  0.96502  0.26015  1.0000
  C  Sn41      1.0  0.54131  0.93646  0.32753  1.0000
  C  Sn42      1.0  0.57326  0.91109  0.35917  1.0000
  C   C283      1.0  0.61165  0.91494  0.32263  1.0000
  C   C284      1.0  0.61853  0.94361  0.25520  1.0000
  H   H169      1.0  0.59234  0.99081  0.17186  1.0000
  O  Te41      1.0  0.50270  0.93327  0.36288  1.0000
  O  Te42      1.0  0.56688  0.88230  0.42650  1.0000
  H   H170      1.0  0.64833  0.94640  0.22728  1.0000
  Mg  Mg21      1.0  0.50899  0.88943  0.45354  1.0000
  C   C285      1.0  0.69325  0.19290  0.91939  1.0000
  C   C286      1.0  0.68312  0.16285  0.86100  1.0000
  C  Sn43      1.0  0.70218  0.15355  0.76495  1.0000
  C  Sn44      1.0  0.73193  0.17478  0.72690  1.0000
  C   C287      1.0  0.74188  0.20478  0.78598  1.0000
  C   C288      1.0  0.72261  0.21385  0.88195  1.0000
  H   H171      1.0  0.67837  0.19991  0.99370  1.0000
  O  Te43      1.0  0.69168  0.12345  0.70758  1.0000
  O  Te44      1.0  0.75146  0.16609  0.63119  1.0000
  H   H172      1.0  0.73048  0.23711  0.92721  1.0000
  Mg  Mg22      1.0  0.72675  0.12253  0.58158  1.0000
  C   C289      1.0  0.09002  0.43197  0.89671  1.0000
  C   C290      1.0  0.10692  0.42282  0.79578  1.0000
  C  Sn45      1.0  0.09071  0.43718  0.66952  1.0000
  C  Sn46      1.0  0.05698  0.46113  0.64414  1.0000
  C   C291      1.0  0.04032  0.47013  0.74581  1.0000
  C   C292      1.0  0.05676  0.45560  0.87178  1.0000
  H   H173      1.0  0.10276  0.42074  0.99420  1.0000
  O  Te45      1.0  0.10795  0.42775  0.56980  1.0000
  O  Te46      1.0  0.04020  0.47588  0.51887  1.0000
  H   H174      1.0  0.04370  0.46270  0.94992  1.0000
  Mg  Mg23      1.0  0.07433  0.45486  0.41531  1.0000
  C   C293      1.0  0.84876  0.76508  0.37443  1.0000
  C   C294      1.0  0.80836  0.77213  0.28366  1.0000
  C  Sn47      1.0  0.80603  0.78945  0.16568  1.0000
  C  Sn48      1.0  0.84493  0.79988  0.13833  1.0000
  C   C295      1.0  0.88518  0.79270  0.22974  1.0000
  C   C296      1.0  0.88713  0.77535  0.34751  1.0000
  H   H175      1.0  0.85027  0.75165  0.46553  1.0000
  O  Te47      1.0  0.76541  0.79630  0.07610  1.0000
  O  Te48      1.0  0.84354  0.81723  0.02115  1.0000
  H   H176      1.0  0.91841  0.76988  0.41773  1.0000
  Mg  Mg24      1.0  0.87517  0.80933  0.93008  1.0000
