data_image0
_chemical_formula_structural       N8C90O8H62C4N8C102O8H66C4SnCSn2CSnTe4Mg2SnCSn2CSnTe4Mg2SnCSn2CSnTe4Mg2SnCSn2CSnTe4Mg2SnCSn2CSnTe4Mg2SnCSn2CSnTe4Mg2SnCSn2CSnTe4Mg2SnCSn2CSnTe4Mg2SnCSn2CSnTe4Mg2SnCSn2CSnTe4Mg2SnCSn2CSnTe4Mg2SnCSn2CSnTe4Mg2SnCSn2CSnTe4Mg2SnCSn2CSnTe4Mg2SnCSn2CSnTe4Mg2SnCSn2CSnTe4Mg2SnCSn2CSnTe4Mg2SnCSn2CSnTe4Mg2SnCSn2CSnTe4Mg2SnCSn2CSnTe4Mg2SnCSn2CSnTe4Mg2SnCSn2CSnTe4Mg2SnCSn2CSnTe4Mg2SnCSn2CSnTe4Mg2
_chemical_formula_sum              "N16 C248 O16 H128 Sn96 Te96 Mg48"
_cell_length_a       32.0311
_cell_length_b       40.9028
_cell_length_c       10.6384
_cell_angle_alpha    87.487
_cell_angle_beta     106.585
_cell_angle_gamma    90.0753

_symmetry_space_group_name_H-M    'P1'
_space_group_IT_number       1

loop_
  _space_group_symop_operation_xyz
  'x, y, z'

loop_
  _atom_site_type_symbol
  _atom_site_label
  _atom_site_symmetry_multiplicity
  _atom_site_fract_x
  _atom_site_fract_y
  _atom_site_fract_z
  _atom_site_occupancy
  N   N1        1.0  0.35877  0.10391  0.22686  1.0000
  N   N2        1.0  0.63990  0.10664  0.28726  1.0000
  N   N3        1.0  0.85876  0.60437  0.23834  1.0000
  N   N4        1.0  0.14310  0.60190  0.26672  1.0000
  N   N5        1.0  0.64163  0.89438  0.29368  1.0000
  N   N6        1.0  0.35860  0.89463  0.20178  1.0000
  N   N7        1.0  0.14361  0.39530  0.28522  1.0000
  N   N8        1.0  0.85874  0.39614  0.21156  1.0000
  C   C1        1.0  0.35252  0.13073  0.15495  1.0000
  C   C2        1.0  0.64676  0.13210  0.35775  1.0000
  C   C3        1.0  0.84953  0.63016  0.16025  1.0000
  C   C4        1.0  0.14836  0.62750  0.33645  1.0000
  C   C5        1.0  0.65114  0.86871  0.37232  1.0000
  C   C6        1.0  0.35039  0.87016  0.12566  1.0000
  C   C7        1.0  0.14760  0.36754  0.35061  1.0000
  C   C8        1.0  0.85237  0.37224  0.13310  1.0000
  C   C9        1.0  0.67862  0.15654  0.34236  1.0000
  C   C10       1.0  0.18078  0.65213  0.32941  1.0000
  C   C11       1.0  0.82142  0.34655  0.14314  1.0000
  C   C12       1.0  0.14727  0.19953  0.36611  1.0000
  C   C13       1.0  0.85449  0.19956  0.15051  1.0000
  C   C14       1.0  0.64289  0.70105  0.35711  1.0000
  C   C15       1.0  0.84674  0.80101  0.13897  1.0000
  C   C16       1.0  0.15064  0.79753  0.33965  1.0000
  C   C17       1.0  0.64962  0.30037  0.33807  1.0000
  C   C18       1.0  0.18928  0.20591  0.35975  1.0000
  C   C19       1.0  0.81218  0.20757  0.14900  1.0000
  C   C20       1.0  0.68569  0.70705  0.35732  1.0000
  C   C21       1.0  0.80547  0.79166  0.14377  1.0000
  C   C22       1.0  0.19311  0.78932  0.34348  1.0000
  C   C23       1.0  0.69166  0.29232  0.33713  1.0000
  C   C24       1.0  0.19623  0.22446  0.25275  1.0000
  C   C25       1.0  0.80425  0.22550  0.25021  1.0000
  C   C26       1.0  0.69467  0.72549  0.25316  1.0000
  C   C27       1.0  0.79979  0.77368  0.25382  1.0000
  C   C28       1.0  0.20158  0.77191  0.24170  1.0000
  C   C29       1.0  0.69893  0.27485  0.23371  1.0000
  C   C30       1.0  0.15986  0.23575  0.15145  1.0000
  C   C31       1.0  0.83998  0.23474  0.35315  1.0000
  C   C32       1.0  0.65947  0.73680  0.14783  1.0000
  C   C33       1.0  0.83669  0.76558  0.35903  1.0000
  C   C34       1.0  0.16629  0.76350  0.13573  1.0000
  C   C35       1.0  0.66283  0.26599  0.13120  1.0000
  C   C36       1.0  0.11772  0.22862  0.15578  1.0000
  C   C37       1.0  0.88241  0.22612  0.35642  1.0000
  C   C38       1.0  0.61661  0.73007  0.14578  1.0000
  C   C39       1.0  0.87808  0.77539  0.35526  1.0000
  C   C40       1.0  0.12375  0.77223  0.13049  1.0000
  C   C41       1.0  0.62064  0.27448  0.13092  1.0000
  C   C42       1.0  0.04013  0.53664  0.25937  1.0000
  C   C43       1.0  0.95993  0.46384  0.23422  1.0000
  C   C44       1.0  0.05534  0.54273  0.14926  1.0000
  C   C45       1.0  0.95103  0.44980  0.34664  1.0000
  C   C46       1.0  0.09021  0.56355  0.15531  1.0000
  C   C47       1.0  0.91607  0.42892  0.33573  1.0000
  C   C48       1.0  0.11026  0.57954  0.27154  1.0000
  C   C49       1.0  0.89060  0.41965  0.21142  1.0000
  C   C50       1.0  0.09638  0.57230  0.38404  1.0000
  C   C51       1.0  0.89855  0.43430  0.09834  1.0000
  C   C52       1.0  0.06150  0.55137  0.37717  1.0000
  C   C53       1.0  0.93260  0.45649  0.11035  1.0000
  C   C54       1.0  0.11110  0.21088  0.26422  1.0000
  C   C55       1.0  0.89007  0.20879  0.25405  1.0000
  C   C56       1.0  0.60787  0.71269  0.25204  1.0000
  C   C57       1.0  0.88349  0.79288  0.24464  1.0000
  C   C58       1.0  0.11553  0.78886  0.23369  1.0000
  C   C59       1.0  0.61369  0.29139  0.23520  1.0000
  C   C60       1.0  0.70584  0.15140  0.26168  1.0000
  C   C61       1.0  0.21063  0.64760  0.25674  1.0000
  C   C62       1.0  0.79264  0.35064  0.21959  1.0000
  C   C63       1.0  0.73297  0.17593  0.23765  1.0000
  C   C64       1.0  0.23812  0.67263  0.23997  1.0000
  C   C65       1.0  0.76677  0.32511  0.24199  1.0000
  C   C66       1.0  0.73333  0.20720  0.28952  1.0000
  C   C67       1.0  0.23633  0.70370  0.29153  1.0000
  C   C68       1.0  0.76931  0.29378  0.19330  1.0000
  C   C69       1.0  0.70840  0.21128  0.37784  1.0000
  C   C70       1.0  0.20881  0.70711  0.37292  1.0000
  C   C71       1.0  0.79608  0.29054  0.10947  1.0000
  C   C72       1.0  0.68159  0.18660  0.40356  1.0000
  C   C73       1.0  0.18159  0.68193  0.39134  1.0000
  C   C74       1.0  0.82139  0.31641  0.08424  1.0000
  C   C75       1.0  0.25604  0.26401  0.25928  1.0000
  C   C76       1.0  0.74392  0.26612  0.22916  1.0000
  C   C77       1.0  0.75538  0.76458  0.26306  1.0000
  C   C78       1.0  0.24681  0.76310  0.24004  1.0000
  C   C79       1.0  0.73999  0.73334  0.24887  1.0000
  C   C80       1.0  0.26224  0.73147  0.25987  1.0000
  C   C81       1.0  0.24095  0.23265  0.24417  1.0000
  C   C82       1.0  0.75919  0.23445  0.25281  1.0000
  C   C83       1.0  0.07021  0.79571  0.23375  1.0000
  C   C84       1.0  0.92766  0.80177  0.23815  1.0000
  C   C85       1.0  0.56884  0.29831  0.23951  1.0000
  C   C86       1.0  0.43096  0.29687  0.24873  1.0000
  C   C87       1.0  0.93514  0.20160  0.25200  1.0000
  C   C88       1.0  0.06633  0.20570  0.27303  1.0000
  C   C89       1.0  0.43763  0.70214  0.24418  1.0000
  C   C90       1.0  0.56233  0.70849  0.25608  1.0000
  O   O1        1.0  0.56016  0.30786  0.33724  1.0000
  O   O2        1.0  0.43990  0.30683  0.14893  1.0000
  O   O3        1.0  0.06023  0.80357  0.33175  1.0000
  O   O4        1.0  0.93549  0.81269  0.13787  1.0000
  O   O5        1.0  0.44615  0.69351  0.14479  1.0000
  O   O6        1.0  0.55223  0.70122  0.35694  1.0000
  O   O7        1.0  0.94409  0.19183  0.15497  1.0000
  O   O8        1.0  0.05793  0.19647  0.37466  1.0000
  H   H1        1.0  0.37210  0.13724  0.08788  1.0000
  H   H2        1.0  0.62781  0.13757  0.42605  1.0000
  H   H3        1.0  0.86463  0.63472  0.08034  1.0000
  H   H4        1.0  0.12730  0.63290  0.39881  1.0000
  H   H5        1.0  0.63776  0.86440  0.45604  1.0000
  H   H6        1.0  0.36491  0.86737  0.04453  1.0000
  H   H7        1.0  0.12781  0.36159  0.41761  1.0000
  H   H8        1.0  0.87143  0.36905  0.06311  1.0000
  H   H9        1.0  0.14160  0.18620  0.45043  1.0000
  H   H10       1.0  0.86087  0.18643  0.07103  1.0000
  H   H11       1.0  0.63574  0.68771  0.43911  1.0000
  H   H12       1.0  0.85136  0.81445  0.05347  1.0000
  H   H13       1.0  0.14375  0.81039  0.41902  1.0000
  H   H14       1.0  0.64367  0.31330  0.41866  1.0000
  H   H15       1.0  0.21693  0.19765  0.44097  1.0000
  H   H16       1.0  0.78515  0.20094  0.06622  1.0000
  H   H17       1.0  0.71226  0.69861  0.44158  1.0000
  H   H18       1.0  0.77741  0.79761  0.06007  1.0000
  H   H19       1.0  0.21979  0.79539  0.42827  1.0000
  H   H20       1.0  0.71905  0.29862  0.41957  1.0000
  H   H21       1.0  0.16492  0.25009  0.06870  1.0000
  H   H22       1.0  0.83421  0.24856  0.43169  1.0000
  H   H23       1.0  0.66610  0.75085  0.06671  1.0000
  H   H24       1.0  0.83276  0.75198  0.44498  1.0000
  H   H25       1.0  0.17257  0.75023  0.05660  1.0000
  H   H26       1.0  0.66802  0.25257  0.05088  1.0000
  H   H27       1.0  0.08968  0.23670  0.07529  1.0000
  H   H28       1.0  0.90973  0.23255  0.43891  1.0000
  H   H29       1.0  0.58976  0.73839  0.06206  1.0000
  H   H30       1.0  0.90642  0.76989  0.43882  1.0000
  H   H31       1.0  0.09673  0.76638  0.04613  1.0000
  H   H32       1.0  0.59287  0.26835  0.04924  1.0000
  H   H33       1.0  0.03987  0.53091  0.05824  1.0000
  H   H34       1.0  0.97172  0.45541  0.44351  1.0000
  H   H35       1.0  0.10163  0.56842  0.06937  1.0000
  H   H36       1.0  0.90887  0.41859  0.42306  1.0000
  H   H37       1.0  0.57552  0.11452  0.89514  1.0000
  H   H38       1.0  0.87916  0.58218  0.52055  1.0000
  H   H39       1.0  0.39365  0.91910  0.49648  1.0000
  H   H40       1.0  0.93851  0.38265  0.67579  1.0000
  H   H41       1.0  0.05062  0.54638  0.46413  1.0000
  H   H42       1.0  0.93874  0.46741  0.02220  1.0000
  H   H43       1.0  0.70455  0.12790  0.21662  1.0000
  H   H44       1.0  0.21106  0.62426  0.21180  1.0000
  H   H45       1.0  0.79171  0.37416  0.26273  1.0000
  H   H46       1.0  0.75325  0.17102  0.17434  1.0000
  H   H47       1.0  0.26053  0.66825  0.18279  1.0000
  H   H48       1.0  0.74502  0.32933  0.30140  1.0000
  H   H49       1.0  0.71014  0.23418  0.42677  1.0000
  H   H50       1.0  0.20870  0.72982  0.42177  1.0000
  H   H51       1.0  0.79710  0.26748  0.06364  1.0000
  H   H52       1.0  0.66253  0.19064  0.47158  1.0000
  H   H53       1.0  0.16041  0.68541  0.45371  1.0000
  H   H54       1.0  0.84178  0.31311  0.01937  1.0000
  H   H55       1.0  0.04499  0.79277  0.13879  1.0000
  H   H56       1.0  0.95416  0.79748  0.33102  1.0000
  H   H57       1.0  0.54271  0.29377  0.14801  1.0000
  H   H58       1.0  0.45695  0.29186  0.34206  1.0000
  H   H59       1.0  0.96120  0.20603  0.34376  1.0000
  H   H60       1.0  0.03996  0.21131  0.18108  1.0000
  H   H61       1.0  0.46400  0.70660  0.33518  1.0000
  H   H62       1.0  0.53684  0.71301  0.16133  1.0000
  C   C91       1.0  0.00065  0.48322  0.24918  1.0000
  C   C92       1.0  0.50037  0.98338  0.25358  1.0000
  C   C93       1.0  0.00005  0.51691  0.24971  1.0000
  C   C94       1.0  0.50075  0.01674  0.25797  1.0000
  N   N9        1.0  0.35868  0.10636  0.72646  1.0000
  N   N10       1.0  0.64412  0.10598  0.79096  1.0000
  N   N11       1.0  0.85740  0.60395  0.73670  1.0000
  N   N12       1.0  0.14402  0.60596  0.79425  1.0000
  N   N13       1.0  0.64064  0.89519  0.78953  1.0000
  N   N14       1.0  0.36290  0.89494  0.70204  1.0000
  N   N15       1.0  0.14208  0.40001  0.75932  1.0000
  N   N16       1.0  0.85811  0.39622  0.69949  1.0000
  C   C95       1.0  0.34749  0.13160  0.64612  1.0000
  C   C96       1.0  0.65413  0.13028  0.86735  1.0000
  C   C97       1.0  0.85020  0.63003  0.66030  1.0000
  C   C98       1.0  0.14854  0.63289  0.85573  1.0000
  C   C99       1.0  0.64600  0.86826  0.86053  1.0000
  C   C100      1.0  0.35789  0.86964  0.63095  1.0000
  C   C101      1.0  0.14617  0.37276  0.82832  1.0000
  C   C102      1.0  0.85220  0.37104  0.62725  1.0000
  C   C103      1.0  0.31805  0.15668  0.66669  1.0000
  C   C104      1.0  0.32663  0.84455  0.64423  1.0000
  C   C105      1.0  0.82183  0.34560  0.64213  1.0000
  C   C106      1.0  0.14707  0.20158  0.86739  1.0000
  C   C107      1.0  0.35681  0.69811  0.65254  1.0000
  C   C108      1.0  0.84964  0.79967  0.65276  1.0000
  C   C109      1.0  0.15214  0.79940  0.83898  1.0000
  C   C110      1.0  0.35227  0.29847  0.64916  1.0000
  C   C111      1.0  0.64915  0.29894  0.83388  1.0000
  C   C112      1.0  0.18908  0.20874  0.86309  1.0000
  C   C113      1.0  0.31463  0.70650  0.65095  1.0000
  C   C114      1.0  0.80741  0.79217  0.65406  1.0000
  C   C115      1.0  0.19453  0.79231  0.83849  1.0000
  C   C116      1.0  0.30983  0.29192  0.65088  1.0000
  C   C117      1.0  0.69147  0.29149  0.83408  1.0000
  C   C118      1.0  0.19610  0.22672  0.75498  1.0000
  C   C119      1.0  0.30703  0.72477  0.75180  1.0000
  C   C120      1.0  0.79979  0.77340  0.75953  1.0000
  C   C121      1.0  0.20245  0.77445  0.73709  1.0000
  C   C122      1.0  0.30165  0.27421  0.75791  1.0000
  C   C123      1.0  0.69940  0.27363  0.73267  1.0000
  C   C124      1.0  0.15986  0.23636  0.64999  1.0000
  C   C125      1.0  0.34288  0.73403  0.85441  1.0000
  C   C126      1.0  0.83566  0.76288  0.86402  1.0000
  C   C127      1.0  0.16673  0.76433  0.63607  1.0000
  C   C128      1.0  0.33724  0.26375  0.86348  1.0000
  C   C129      1.0  0.66363  0.26366  0.63139  1.0000
  C   C130      1.0  0.11771  0.22868  0.65302  1.0000
  C   C131      1.0  0.38518  0.72520  0.85735  1.0000
  C   C132      1.0  0.87798  0.77096  0.86423  1.0000
  C   C133      1.0  0.12423  0.77200  0.63482  1.0000
  C   C134      1.0  0.37981  0.27091  0.86337  1.0000
  C   C135      1.0  0.62114  0.27150  0.62996  1.0000
  C   C136      1.0  0.54171  0.03921  0.77930  1.0000
  C   C137      1.0  0.95984  0.53831  0.74469  1.0000
  C   C138      1.0  0.46202  0.96474  0.72957  1.0000
  C   C139      1.0  0.96118  0.46399  0.72783  1.0000
  C   C140      1.0  0.57754  0.03175  0.73331  1.0000
  C   C141      1.0  0.94953  0.54649  0.85930  1.0000
  C   C142      1.0  0.44756  0.95433  0.83740  1.0000
  C   C143      1.0  0.91950  0.47337  0.73669  1.0000
  C   C144      1.0  0.61160  0.05352  0.74333  1.0000
  C   C145      1.0  0.91430  0.56698  0.85281  1.0000
  C   C146      1.0  0.41352  0.93246  0.82259  1.0000
  C   C147      1.0  0.88609  0.45102  0.72522  1.0000
  C   C148      1.0  0.61167  0.08393  0.80020  1.0000
  C   C149      1.0  0.88968  0.58133  0.73159  1.0000
  C   C150      1.0  0.39466  0.91840  0.70141  1.0000
  C   C151      1.0  0.89166  0.41800  0.70069  1.0000
  C   C152      1.0  0.57698  0.09110  0.85173  1.0000
  C   C153      1.0  0.89894  0.57240  0.61584  1.0000
  C   C154      1.0  0.40878  0.92875  0.59248  1.0000
  C   C155      1.0  0.93254  0.40823  0.68974  1.0000
  C   C156      1.0  0.54330  0.06909  0.84243  1.0000
  C   C157      1.0  0.93352  0.55093  0.62305  1.0000
  C   C158      1.0  0.44189  0.95177  0.60709  1.0000
  C   C159      1.0  0.96603  0.43056  0.70322  1.0000
  C   C160      1.0  0.11093  0.21177  0.76305  1.0000
  C   C161      1.0  0.39248  0.70749  0.75546  1.0000
  C   C162      1.0  0.88538  0.78908  0.75769  1.0000
  C   C163      1.0  0.11658  0.78929  0.73727  1.0000
  C   C164      1.0  0.38768  0.28792  0.75517  1.0000
  C   C165      1.0  0.61355  0.28893  0.73218  1.0000
  C   C166      1.0  0.29520  0.15212  0.76112  1.0000
  C   C167      1.0  0.29886  0.84938  0.72343  1.0000
  C   C168      1.0  0.79587  0.34934  0.72739  1.0000
  C   C169      1.0  0.26934  0.17703  0.78435  1.0000
  C   C170      1.0  0.27245  0.82446  0.74776  1.0000
  C   C171      1.0  0.76984  0.32407  0.75076  1.0000
  C   C172      1.0  0.26653  0.20803  0.71845  1.0000
  C   C173      1.0  0.27325  0.79319  0.69704  1.0000
  C   C174      1.0  0.76967  0.29353  0.69376  1.0000
  C   C175      1.0  0.28795  0.21192  0.62005  1.0000
  C   C176      1.0  0.29897  0.78923  0.61086  1.0000
  C   C177      1.0  0.79376  0.29062  0.60256  1.0000
  C   C178      1.0  0.31296  0.18672  0.59391  1.0000
  C   C179      1.0  0.32517  0.81435  0.58497  1.0000
  C   C180      1.0  0.81925  0.31620  0.57661  1.0000
  C   C181      1.0  0.25635  0.26669  0.76319  1.0000
  C   C182      1.0  0.74459  0.26571  0.72842  1.0000
  C   C183      1.0  0.75483  0.76476  0.76472  1.0000
  C   C184      1.0  0.24745  0.76593  0.73276  1.0000
  C   C185      1.0  0.73988  0.73336  0.74718  1.0000
  C   C186      1.0  0.26218  0.73418  0.75421  1.0000
  C   C187      1.0  0.24091  0.23538  0.74892  1.0000
  C   C188      1.0  0.76073  0.23438  0.74976  1.0000
  C   C189      1.0  0.07146  0.79543  0.74077  1.0000
  C   C190      1.0  0.93044  0.79577  0.75386  1.0000
  C   C191      1.0  0.56859  0.29538  0.73657  1.0000
  C   C192      1.0  0.43283  0.29340  0.75013  1.0000
  C   C193      1.0  0.93791  0.20475  0.75348  1.0000
  C   C194      1.0  0.06620  0.20638  0.77236  1.0000
  C   C195      1.0  0.43745  0.70010  0.75335  1.0000
  C   C196      1.0  0.56590  0.70181  0.77216  1.0000
  O   O9        1.0  0.55995  0.30505  0.83423  1.0000
  O   O10       1.0  0.44196  0.30206  0.64913  1.0000
  O   O11       1.0  0.06233  0.80516  0.83752  1.0000
  O   O12       1.0  0.93961  0.80660  0.65556  1.0000
  O   O13       1.0  0.44636  0.69017  0.65645  1.0000
  O   O14       1.0  0.55815  0.69321  0.87542  1.0000
  O   O15       1.0  0.94804  0.19661  0.65600  1.0000
  O   O16       1.0  0.05813  0.19801  0.87538  1.0000
  H   H63       1.0  0.36007  0.13595  0.56081  1.0000
  H   H64       1.0  0.64049  0.13369  0.94994  1.0000
  H   H65       1.0  0.86878  0.63559  0.58956  1.0000
  H   H66       1.0  0.12878  0.63855  0.92152  1.0000
  H   H67       1.0  0.62623  0.86202  0.92738  1.0000
  H   H68       1.0  0.37800  0.86487  0.56520  1.0000
  H   H69       1.0  0.12470  0.36655  0.89012  1.0000
  H   H70       1.0  0.87017  0.36734  0.55479  1.0000
  H   H71       1.0  0.14138  0.18861  0.95237  1.0000
  H   H72       1.0  0.36315  0.68464  0.57378  1.0000
  H   H73       1.0  0.85584  0.81346  0.57024  1.0000
  H   H74       1.0  0.14570  0.81242  0.91864  1.0000
  H   H75       1.0  0.35892  0.31147  0.56564  1.0000
  H   H76       1.0  0.64275  0.31220  0.91303  1.0000
  H   H77       1.0  0.21660  0.20161  0.94672  1.0000
  H   H78       1.0  0.28748  0.70002  0.56823  1.0000
  H   H79       1.0  0.78013  0.79985  0.57057  1.0000
  H   H80       1.0  0.22167  0.79949  0.92003  1.0000
  H   H81       1.0  0.28273  0.29955  0.56675  1.0000
  H   H82       1.0  0.71857  0.29850  0.91597  1.0000
  H   H83       1.0  0.16494  0.24992  0.56551  1.0000
  H   H84       1.0  0.33726  0.74806  0.93262  1.0000
  H   H85       1.0  0.83007  0.74852  0.94598  1.0000
  H   H86       1.0  0.17268  0.75045  0.55797  1.0000
  H   H87       1.0  0.33125  0.25022  0.94667  1.0000
  H   H88       1.0  0.66946  0.24987  0.55291  1.0000
  H   H89       1.0  0.08989  0.23580  0.57016  1.0000
  H   H90       1.0  0.41272  0.73167  0.93912  1.0000
  H   H91       1.0  0.90550  0.76336  0.94726  1.0000
  H   H92       1.0  0.09680  0.76477  0.55417  1.0000
  H   H93       1.0  0.40712  0.26345  0.94731  1.0000
  H   H94       1.0  0.59370  0.26434  0.54923  1.0000
  H   H95       1.0  0.57833  0.00917  0.68449  1.0000
  H   H96       1.0  0.96907  0.53648  0.95432  1.0000
  H   H97       1.0  0.46293  0.96380  0.93349  1.0000
  H   H98       1.0  0.91303  0.49834  0.75547  1.0000
  H   H99       1.0  0.63824  0.04775  0.70321  1.0000
  H   H100      1.0  0.90625  0.57317  0.94162  1.0000
  H   H101      1.0  0.40149  0.92523  0.90522  1.0000
  H   H102      1.0  0.85474  0.45887  0.73478  1.0000
  H   H103      1.0  0.11306  0.58291  0.47692  1.0000
  H   H104      1.0  0.87818  0.42832  0.00141  1.0000
  H   H105      1.0  0.51671  0.07571  0.88120  1.0000
  H   H106      1.0  0.94064  0.54435  0.53320  1.0000
  H   H107      1.0  0.45246  0.95949  0.52205  1.0000
  H   H108      1.0  0.99717  0.42168  0.69647  1.0000
  H   H109      1.0  0.29847  0.12871  0.81588  1.0000
  H   H110      1.0  0.29937  0.87297  0.76728  1.0000
  H   H111      1.0  0.79721  0.37236  0.77579  1.0000
  H   H112      1.0  0.25200  0.17261  0.85733  1.0000
  H   H113      1.0  0.25177  0.82908  0.81011  1.0000
  H   H114      1.0  0.75037  0.32779  0.81733  1.0000
  H   H115      1.0  0.28447  0.23492  0.56291  1.0000
  H   H116      1.0  0.29834  0.76617  0.56370  1.0000
  H   H117      1.0  0.79227  0.26803  0.55159  1.0000
  H   H118      1.0  0.32895  0.19028  0.51679  1.0000
  H   H119      1.0  0.34490  0.81050  0.51867  1.0000
  H   H120      1.0  0.83755  0.31338  0.50570  1.0000
  H   H121      1.0  0.04566  0.79009  0.64944  1.0000
  H   H122      1.0  0.95628  0.78988  0.84679  1.0000
  H   H123      1.0  0.54235  0.29047  0.64587  1.0000
  H   H124      1.0  0.45874  0.28867  0.84393  1.0000
  H   H125      1.0  0.96332  0.20870  0.84704  1.0000
  H   H126      1.0  0.03949  0.21095  0.68043  1.0000
  H   H127      1.0  0.46349  0.70454  0.84508  1.0000
  H   H128      1.0  0.53904  0.70576  0.68005  1.0000
  C   C197      1.0  0.99982  0.48543  0.74653  1.0000
  C   C198      1.0  0.50140  0.98582  0.75122  1.0000
  C   C199      1.0  0.00048  0.51899  0.75492  1.0000
  C   C200      1.0  0.50137  0.01918  0.75521  1.0000
  C  Sn1       1.0  0.31178  0.78931  0.12801  1.0000
  C   C201      1.0  0.28598  0.78826  0.21414  1.0000
  C  Sn2       1.0  0.27391  0.81715  0.26063  1.0000
  C  Sn3       1.0  0.28791  0.84772  0.22014  1.0000
  C   C202      1.0  0.31369  0.84875  0.13405  1.0000
  C  Sn4       1.0  0.32577  0.81988  0.08752  1.0000
  O  Te1       1.0  0.32344  0.76013  0.08276  1.0000
  O  Te2       1.0  0.24812  0.81548  0.34670  1.0000
  O  Te3       1.0  0.27622  0.87691  0.26547  1.0000
  O  Te4       1.0  0.35155  0.82154  0.00148  1.0000
  Mg  Mg1       1.0  0.24069  0.86197  0.38125  1.0000
  Mg  Mg2       1.0  0.45375  0.76376  0.96682  1.0000
  C  Sn5       1.0  0.18701  0.29227  0.84917  1.0000
  C   C203      1.0  0.21755  0.29245  0.77799  1.0000
  C  Sn6       1.0  0.23225  0.32203  0.73649  1.0000
  C  Sn7       1.0  0.21611  0.35206  0.76682  1.0000
  C   C204      1.0  0.18559  0.35187  0.83798  1.0000
  C  Sn8       1.0  0.17087  0.32229  0.87951  1.0000
  O  Te5       1.0  0.17277  0.26240  0.88968  1.0000
  O  Te6       1.0  0.26279  0.32160  0.66541  1.0000
  O  Te7       1.0  0.23038  0.38194  0.72624  1.0000
  O  Te8       1.0  0.14035  0.32272  0.95056  1.0000
  Mg  Mg3       1.0  0.27224  0.36864  0.63197  1.0000
  Mg  Mg4       1.0  0.13090  0.27570  0.98411  1.0000
  C  Sn9       1.0  0.35429  0.74047  0.34458  1.0000
  C   C205      1.0  0.31507  0.73316  0.25226  1.0000
  C  Sn10      1.0  0.31391  0.70956  0.16033  1.0000
  C  Sn11      1.0  0.35276  0.69291  0.16072  1.0000
  C   C206      1.0  0.39196  0.70022  0.25300  1.0000
  C  Sn12      1.0  0.39315  0.72382  0.34496  1.0000
  O  Te9       1.0  0.35469  0.76415  0.43557  1.0000
  O  Te10      1.0  0.27431  0.70267  0.06898  1.0000
  O  Te11      1.0  0.35234  0.66922  0.06962  1.0000
  O  Te12      1.0  0.43272  0.73070  0.43629  1.0000
  Mg  Mg5       1.0  0.38520  0.65712  0.96488  1.0000
  Mg  Mg6       1.0  0.41664  0.76494  0.54047  1.0000
  C  Sn13      1.0  0.22077  0.65266  0.76678  1.0000
  C   C207      1.0  0.19433  0.65320  0.85089  1.0000
  C  Sn14      1.0  0.18558  0.68264  0.90072  1.0000
  C  Sn15      1.0  0.20361  0.71216  0.86569  1.0000
  C   C208      1.0  0.23003  0.71161  0.78161  1.0000
  C  Sn16      1.0  0.23881  0.68217  0.73175  1.0000
  O  Te13      1.0  0.22909  0.62295  0.71813  1.0000
  O  Te14      1.0  0.15906  0.68257  0.98468  1.0000
  O  Te15      1.0  0.19528  0.74188  0.91442  1.0000
  O  Te16      1.0  0.26530  0.68224  0.64782  1.0000
  Mg  Mg7       1.0  0.06242  0.74053  0.02546  1.0000
  Mg  Mg8       1.0  0.26716  0.63561  0.60693  1.0000
  C  Sn17      1.0  0.77799  0.65064  0.24749  1.0000
  C   C209      1.0  0.80496  0.65150  0.16476  1.0000
  C  Sn18      1.0  0.81505  0.68132  0.11191  1.0000
  C  Sn19      1.0  0.79786  0.71091  0.14244  1.0000
  C   C210      1.0  0.77092  0.71004  0.22515  1.0000
  C  Sn20      1.0  0.76080  0.68023  0.27803  1.0000
  O  Te17      1.0  0.76834  0.62055  0.29923  1.0000
  O  Te18      1.0  0.84207  0.68156  0.02940  1.0000
  O  Te19      1.0  0.80754  0.74101  0.09063  1.0000
  O  Te20      1.0  0.73381  0.67998  0.36051  1.0000
  Mg  Mg9       1.0  0.94060  0.71737  0.98317  1.0000
  Mg  Mg10      1.0  0.73005  0.63288  0.40684  1.0000
  C  Sn21      1.0  0.08122  0.42400  0.87606  1.0000
  C   C211      1.0  0.10045  0.41783  0.77681  1.0000
  C  Sn22      1.0  0.09204  0.43853  0.66424  1.0000
  C  Sn23      1.0  0.06384  0.46599  0.65060  1.0000
  C   C212      1.0  0.04464  0.47215  0.74981  1.0000
  C  Sn24      1.0  0.05302  0.45146  0.86242  1.0000
  O  Te21      1.0  0.09009  0.40298  0.98775  1.0000
  O  Te22      1.0  0.11164  0.43185  0.56632  1.0000
  O  Te23      1.0  0.05499  0.48701  0.53878  1.0000
  O  Te24      1.0  0.03345  0.45813  0.96030  1.0000
  Mg  Mg11      1.0  0.08946  0.46767  0.43249  1.0000
  Mg  Mg12      1.0  0.96084  0.43365  0.09419  1.0000
  C  Sn25      1.0  0.19701  0.30895  0.43825  1.0000
  C   C213      1.0  0.18906  0.34008  0.37623  1.0000
  C  Sn26      1.0  0.19942  0.34690  0.25892  1.0000
  C  Sn27      1.0  0.21810  0.32208  0.20236  1.0000
  C   C214      1.0  0.22604  0.29097  0.26435  1.0000
  C  Sn28      1.0  0.21569  0.28413  0.38168  1.0000
  O  Te25      1.0  0.18639  0.30268  0.55546  1.0000
  O  Te26      1.0  0.19118  0.37822  0.19877  1.0000
  O  Te27      1.0  0.22872  0.32838  0.08506  1.0000
  O  Te28      1.0  0.22392  0.25284  0.44181  1.0000
  Mg  Mg13      1.0  0.21130  0.37482  0.04026  1.0000
  Mg  Mg14      1.0  0.20378  0.25620  0.60028  1.0000
  C  Sn29      1.0  0.09030  0.47050  0.25392  1.0000
  C   C215      1.0  0.04631  0.46390  0.23784  1.0000
  C  Sn30      1.0  0.03279  0.43192  0.25430  1.0000
  C  Sn31      1.0  0.06390  0.40599  0.28760  1.0000
  C   C216      1.0  0.10786  0.41259  0.30367  1.0000
  C  Sn32      1.0  0.12140  0.44457  0.28722  1.0000
  O  Te29      1.0  0.10307  0.50267  0.23699  1.0000
  O  Te30      1.0  0.98863  0.42592  0.23766  1.0000
  O  Te31      1.0  0.05109  0.37381  0.30451  1.0000
  O  Te32      1.0  0.16553  0.45057  0.30385  1.0000
  Mg  Mg15      1.0  0.98726  0.37800  0.27132  1.0000
  Mg  Mg16      1.0  0.16695  0.49849  0.27028  1.0000
  C  Sn33      1.0  0.90818  0.52914  0.23029  1.0000
  C   C217      1.0  0.94851  0.53544  0.20853  1.0000
  C  Sn34      1.0  0.96401  0.56739  0.20981  1.0000
  C  Sn35      1.0  0.93870  0.59360  0.23342  1.0000
  C   C218      1.0  0.89840  0.58729  0.25519  1.0000
  C  Sn36      1.0  0.88287  0.55534  0.25390  1.0000
  O  Te33      1.0  0.89332  0.49700  0.22857  1.0000
  O  Te34      1.0  0.00442  0.57309  0.18776  1.0000
  O  Te35      1.0  0.95359  0.62576  0.23512  1.0000
  O  Te36      1.0  0.84249  0.54965  0.27596  1.0000
  Mg  Mg17      1.0  0.01067  0.62110  0.19986  1.0000
  Mg  Mg18      1.0  0.83622  0.50164  0.26395  1.0000
  C  Sn37      1.0  0.87506  0.22196  0.88358  1.0000
  C   C219      1.0  0.88959  0.20548  0.79135  1.0000
  C  Sn38      1.0  0.86199  0.20173  0.66500  1.0000
  C  Sn39      1.0  0.81898  0.21474  0.63006  1.0000
  C   C220      1.0  0.80447  0.23121  0.72225  1.0000
  C  Sn40      1.0  0.83205  0.23497  0.84864  1.0000
  O  Te37      1.0  0.80843  0.23674  0.00932  1.0000
  O  Te38      1.0  0.87725  0.18515  0.57451  1.0000
  O  Te39      1.0  0.79083  0.21125  0.50420  1.0000
  O  Te40      1.0  0.81682  0.25154  0.93909  1.0000
  Mg  Mg19      1.0  0.82664  0.18673  0.41545  1.0000
  Mg  Mg20      1.0  0.77262  0.26129  0.09814  1.0000
  C  Sn41      1.0  0.40565  0.05121  0.82069  1.0000
  C   C221      1.0  0.39789  0.08191  0.75493  1.0000
  C  Sn42      1.0  0.41977  0.09111  0.66284  1.0000
  C  Sn43      1.0  0.45002  0.06915  0.63585  1.0000
  C   C222      1.0  0.45776  0.03847  0.70157  1.0000
  C  Sn44      1.0  0.43590  0.02925  0.79370  1.0000
  O  Te41      1.0  0.38341  0.04253  0.91236  1.0000
  O  Te42      1.0  0.41148  0.12194  0.59838  1.0000
  O  Te43      1.0  0.47226  0.07786  0.54409  1.0000
  O  Te44      1.0  0.44417  0.99844  0.85812  1.0000
  Mg  Mg21      1.0  0.44986  0.12252  0.48174  1.0000
  Mg  Mg22      1.0  0.40579  0.99783  0.97472  1.0000
  C  Sn45      1.0  0.77519  0.65036  0.73242  1.0000
  C   C223      1.0  0.80427  0.65171  0.65631  1.0000
  C  Sn46      1.0  0.81680  0.68185  0.61270  1.0000
  C  Sn47      1.0  0.79993  0.71126  0.64592  1.0000
  C   C224      1.0  0.77088  0.70990  0.72201  1.0000
  C  Sn48      1.0  0.75832  0.67977  0.76565  1.0000
  O  Te45      1.0  0.76311  0.61995  0.77495  1.0000
  O  Te46      1.0  0.84591  0.68259  0.53668  1.0000
  O  Te47      1.0  0.81203  0.74168  0.60331  1.0000
  O  Te48      1.0  0.72924  0.67903  0.84163  1.0000
  Mg  Mg23      1.0  0.85257  0.72998  0.50215  1.0000
  Mg  Mg24      1.0  0.72257  0.63165  0.87628  1.0000
  C  Sn49      1.0  0.56050  0.90924  0.32629  1.0000
  C   C225      1.0  0.59728  0.91258  0.28124  1.0000
  C  Sn50      1.0  0.60976  0.94344  0.24431  1.0000
  C  Sn51      1.0  0.58497  0.97154  0.25267  1.0000
  C   C226      1.0  0.54821  0.96819  0.29772  1.0000
  C  Sn52      1.0  0.53571  0.93735  0.33465  1.0000
  O  Te49      1.0  0.54863  0.87816  0.36269  1.0000
  O  Te50      1.0  0.64665  0.94616  0.19953  1.0000
  O  Te51      1.0  0.59519  0.00264  0.21622  1.0000
  O  Te52      1.0  0.49884  0.93462  0.37943  1.0000
  Mg  Mg25      1.0  0.64970  0.99377  0.16142  1.0000
  Mg  Mg26      1.0  0.49578  0.88702  0.41762  1.0000
  C  Sn53      1.0  0.34524  0.27352  0.38650  1.0000
  C   C227      1.0  0.30656  0.27908  0.28600  1.0000
  C  Sn54      1.0  0.30770  0.28832  0.15906  1.0000
  C  Sn55      1.0  0.34834  0.29207  0.13197  1.0000
  C   C228      1.0  0.38699  0.28651  0.23243  1.0000
  C  Sn56      1.0  0.38589  0.27727  0.35941  1.0000
  O  Te53      1.0  0.34332  0.26429  0.51267  1.0000
  O  Te54      1.0  0.26859  0.29375  0.06021  1.0000
  O  Te55      1.0  0.35023  0.30130  0.00568  1.0000
  O  Te56      1.0  0.42496  0.27183  0.45821  1.0000
  Mg  Mg27      1.0  0.38290  0.29460  0.90402  1.0000
  Mg  Mg28      1.0  0.40547  0.25966  0.61442  1.0000
  C  Sn57      1.0  0.71810  0.17371  0.69678  1.0000
  C   C229      1.0  0.72689  0.20394  0.75458  1.0000
  C  Sn58      1.0  0.71709  0.20949  0.87172  1.0000
  C  Sn59      1.0  0.69813  0.18430  0.93240  1.0000
  C   C230      1.0  0.68935  0.15409  0.87462  1.0000
  C  Sn60      1.0  0.69913  0.14852  0.75746  1.0000
  O  Te57      1.0  0.72817  0.16871  0.57966  1.0000
  O  Te58      1.0  0.72617  0.23992  0.92762  1.0000
  O  Te59      1.0  0.59328  0.20064  0.04961  1.0000
  O  Te60      1.0  0.69007  0.11811  0.70158  1.0000
  Mg  Mg29      1.0  0.61178  0.24622  0.08778  1.0000
  Mg  Mg30      1.0  0.70969  0.12309  0.54147  1.0000
  C  Sn61      1.0  0.40328  0.06331  0.09623  1.0000
  C   C231      1.0  0.38636  0.07331  0.19593  1.0000
  C  Sn62      1.0  0.40985  0.06773  0.32761  1.0000
  C  Sn63      1.0  0.45114  0.05185  0.36033  1.0000
  C   C232      1.0  0.46804  0.04186  0.26066  1.0000
  C  Sn64      1.0  0.44457  0.04743  0.12894  1.0000
  O  Te61      1.0  0.47402  0.05784  0.96526  1.0000
  O  Te62      1.0  0.39226  0.07795  0.42557  1.0000
  O  Te63      1.0  0.47518  0.04602  0.49143  1.0000
  O  Te64      1.0  0.46215  0.03723  0.03103  1.0000
  Mg  Mg31      1.0  0.43744  0.06450  0.58965  1.0000
  Mg  Mg32      1.0  0.51179  0.03937  0.86692  1.0000
  C  Sn65      1.0  0.27710  0.14988  0.22774  1.0000
  C   C233      1.0  0.30610  0.15179  0.15140  1.0000
  C  Sn66      1.0  0.31809  0.18220  0.10850  1.0000
  C  Sn67      1.0  0.30077  0.21130  0.14268  1.0000
  C   C234      1.0  0.27180  0.20937  0.21899  1.0000
  C  Sn68      1.0  0.25978  0.17898  0.26192  1.0000
  O  Te65      1.0  0.26556  0.11923  0.26955  1.0000
  O  Te66      1.0  0.34712  0.18349  0.03224  1.0000
  O  Te67      1.0  0.31234  0.24196  0.10079  1.0000
  O  Te68      1.0  0.23078  0.17768  0.33815  1.0000
  Mg  Mg33      1.0  0.44776  0.21973  0.99894  1.0000
  Mg  Mg34      1.0  0.22492  0.13015  0.37156  1.0000
  C  Sn69      1.0  0.73357  0.83287  0.25777  1.0000
  C   C235      1.0  0.74033  0.80117  0.31482  1.0000
  C  Sn70      1.0  0.71303  0.78853  0.38616  1.0000
  C  Sn71      1.0  0.67822  0.80797  0.40071  1.0000
  C   C236      1.0  0.67146  0.83965  0.34367  1.0000
  C  Sn72      1.0  0.69875  0.85231  0.27233  1.0000
  O  Te69      1.0  0.76126  0.84500  0.18688  1.0000
  O  Te70      1.0  0.72045  0.75678  0.44233  1.0000
  O  Te71      1.0  0.65051  0.79581  0.47168  1.0000
  O  Te72      1.0  0.69134  0.88404  0.21616  1.0000
  Mg  Mg35      1.0  0.67385  0.75115  0.52975  1.0000
  Mg  Mg36      1.0  0.73791  0.88968  0.12866  1.0000
  C  Sn73      1.0  0.03624  0.58089  0.72423  1.0000
  C   C237      1.0  0.03793  0.54673  0.73748  1.0000
  C  Sn74      1.0  0.07760  0.53040  0.79357  1.0000
  C  Sn75      1.0  0.11639  0.54859  0.83741  1.0000
  C   C238      1.0  0.11468  0.58272  0.82418  1.0000
  C  Sn76      1.0  0.07502  0.59907  0.76808  1.0000
  O  Te73      1.0  0.99622  0.59670  0.66787  1.0000
  O  Te74      1.0  0.07847  0.49624  0.80573  1.0000
  O  Te75      1.0  0.15642  0.53274  0.89380  1.0000
  O  Te76      1.0  0.07414  0.63321  0.75593  1.0000
  Mg  Mg37      1.0  0.14088  0.48587  0.88909  1.0000
  Mg  Mg38      1.0  0.01175  0.64361  0.67265  1.0000
  C  Sn77      1.0  0.55231  0.94439  0.64486  1.0000
  C   C239      1.0  0.53513  0.95507  0.74302  1.0000
  C  Sn78      1.0  0.55841  0.95020  0.87524  1.0000
  C  Sn79      1.0  0.59974  0.93436  0.91008  1.0000
  C   C240      1.0  0.61691  0.92369  0.81196  1.0000
  C  Sn80      1.0  0.59364  0.92854  0.67970  1.0000
  O  Te77      1.0  0.52846  0.94951  0.51331  1.0000
  O  Te78      1.0  0.54055  0.96108  0.97163  1.0000
  O  Te79      1.0  0.52880  0.94054  0.04176  1.0000
  O  Te80      1.0  0.61149  0.91768  0.58335  1.0000
  Mg  Mg39      1.0  0.49074  0.95977  0.13728  1.0000
  Mg  Mg40      1.0  0.56656  0.93029  0.41767  1.0000
  C  Sn81      1.0  0.57176  0.07170  0.15415  1.0000
  C   C241      1.0  0.59702  0.08657  0.26600  1.0000
  C  Sn82      1.0  0.59621  0.07509  0.39088  1.0000
  C  Sn83      1.0  0.56961  0.04816  0.40426  1.0000
  C   C242      1.0  0.54437  0.03331  0.29246  1.0000
  C  Sn84      1.0  0.54516  0.04478  0.16753  1.0000
  O  Te81      1.0  0.57308  0.08359  0.03028  1.0000
  O  Te82      1.0  0.62174  0.09036  0.50125  1.0000
  O  Te83      1.0  0.56831  0.03628  0.52827  1.0000
  O  Te84      1.0  0.51965  0.02952  0.05721  1.0000
  Mg  Mg41      1.0  0.60890  0.06524  0.64895  1.0000
  Mg  Mg42      1.0  0.62727  0.04330  0.90948  1.0000
  C  Sn85      1.0  0.44081  0.91057  0.17879  1.0000
  C   C243      1.0  0.40278  0.91304  0.21741  1.0000
  C  Sn86      1.0  0.38913  0.94327  0.24876  1.0000
  C  Sn87      1.0  0.41400  0.97162  0.24128  1.0000
  C   C244      1.0  0.45201  0.96914  0.20266  1.0000
  C  Sn88      1.0  0.46569  0.93893  0.17131  1.0000
  O  Te85      1.0  0.45384  0.88011  0.14790  1.0000
  O  Te86      1.0  0.35100  0.94512  0.28716  1.0000
  O  Te87      1.0  0.39926  0.00210  0.27222  1.0000
  O  Te88      1.0  0.50379  0.93707  0.13291  1.0000
  Mg  Mg43      1.0  0.34666  0.99213  0.31933  1.0000
  Mg  Mg44      1.0  0.50814  0.89007  0.10066  1.0000
  C  Sn89      1.0  0.64744  0.74106  0.65669  1.0000
  C   C245      1.0  0.68684  0.73422  0.75261  1.0000
  C  Sn90      1.0  0.68898  0.71050  0.85289  1.0000
  C  Sn91      1.0  0.65095  0.69326  0.85736  1.0000
  C   C246      1.0  0.61158  0.70010  0.76147  1.0000
  C  Sn92      1.0  0.60941  0.72382  0.66116  1.0000
  O  Te89      1.0  0.64606  0.76487  0.55734  1.0000
  O  Te90      1.0  0.72873  0.70410  0.94771  1.0000
  O  Te91      1.0  0.65236  0.66944  0.95682  1.0000
  O  Te92      1.0  0.56969  0.73022  0.56637  1.0000
  Mg  Mg45      1.0  0.61932  0.68075  0.06347  1.0000
  Mg  Mg46      1.0  0.58429  0.76486  0.45054  1.0000
  C  Sn93      1.0  0.73578  0.83347  0.77430  1.0000
  C   C247      1.0  0.73949  0.80096  0.82265  1.0000
  C  Sn94      1.0  0.70833  0.78767  0.87837  1.0000
  C  Sn95      1.0  0.67270  0.80727  0.88584  1.0000
  C   C248      1.0  0.66900  0.83977  0.83749  1.0000
  C  Sn96      1.0  0.70015  0.85308  0.78177  1.0000
  O  Te93      1.0  0.76731  0.84625  0.71900  1.0000
  O  Te94      1.0  0.71274  0.75510  0.92608  1.0000
  O  Te95      1.0  0.64116  0.79447  0.94120  1.0000
  O  Te96      1.0  0.69575  0.88562  0.73405  1.0000
  Mg  Mg47      1.0  0.66139  0.74881  0.99261  1.0000
  Mg  Mg48      1.0  0.74707  0.89194  0.66745  1.0000
