data_image0
_chemical_formula_structural       N8C24O8H16C4N8C24O8H16C6Sn2C2HTe2HMgC2Sn2C2HTe2HMgC2Sn2C2HTe2HMgC2Sn2C2HTe2HMgC2Sn2C2HTe2HMgC2Sn2C2HTe2HMgC2Sn2C2HTe2HMgC2Sn2C2HTe2HMgC2Sn2C2HTe2HMgC2Sn2C2HTe2HMgC2Sn2C2HTe2HMgC2Sn2C2HTe2HMgC2Sn2C2HTe2HMgC2Sn2C2HTe2HMgC2Sn2C2HTe2HMgC2Sn2C2HTe2HMgC2Sn2C2HTe2HMgC2Sn2C2HTe2HMgC2Sn2C2HTe2HMgC2Sn2C2HTe2HMgC2Sn2C2HTe2HMgC2Sn2C2HTe2HMgC2Sn2C2HTe2HMgC2Sn2C2HTe2HMgC2Sn2C2HTe2HMgC2Sn2C2HTe2HMgC2Sn2C2HTe2HMgC2Sn2C2HTe2HMgC2Sn2C2HTe2HMgC2Sn2C2HTe2HMgC2Sn2C2HTe2HMgC2Sn2C2HTe2HMgC2Sn2C2HTe2HMgC2Sn2C2HTe2HMgC2Sn2C2HTe2HMgC2Sn2C2HTe2HMgC2Sn2C2HTe2HMgC2Sn2C2HTe2HMgC2Sn2C2HTe2HMgC2Sn2C2HTe2HMgC2Sn2C2HTe2HMgC2Sn2C2HTe2HMgC2Sn2C2HTe2HMgC2Sn2C2HTe2HMgC2Sn2C2HTe2HMgC2Sn2C2HTe2HMgC2Sn2C2HTe2HMgC2Sn2C2HTe2HMg
_chemical_formula_sum              "N16 C248 O16 H128 Sn96 Te96 Mg48"
_cell_length_a       32.0311
_cell_length_b       40.9028
_cell_length_c       10.6384
_cell_angle_alpha    87.487
_cell_angle_beta     106.585
_cell_angle_gamma    90.0753

_symmetry_space_group_name_H-M    'P1'
_space_group_IT_number       1

loop_
  _space_group_symop_operation_xyz
  'x, y, z'

loop_
  _atom_site_type_symbol
  _atom_site_label
  _atom_site_symmetry_multiplicity
  _atom_site_fract_x
  _atom_site_fract_y
  _atom_site_fract_z
  _atom_site_occupancy
  N   N1        1.0  0.35877  0.10391  0.22686  1.0000
  N   N2        1.0  0.63990  0.10664  0.28726  1.0000
  N   N3        1.0  0.85876  0.60437  0.23834  1.0000
  N   N4        1.0  0.14310  0.60190  0.26672  1.0000
  N   N5        1.0  0.64163  0.89438  0.29368  1.0000
  N   N6        1.0  0.35860  0.89463  0.20178  1.0000
  N   N7        1.0  0.14361  0.39530  0.28522  1.0000
  N   N8        1.0  0.85874  0.39614  0.21156  1.0000
  C   C1        1.0  0.35252  0.13073  0.15495  1.0000
  C   C2        1.0  0.64676  0.13210  0.35775  1.0000
  C   C3        1.0  0.84953  0.63016  0.16025  1.0000
  C   C4        1.0  0.14836  0.62750  0.33645  1.0000
  C   C5        1.0  0.65114  0.86871  0.37232  1.0000
  C   C6        1.0  0.35039  0.87016  0.12566  1.0000
  C   C7        1.0  0.14760  0.36754  0.35061  1.0000
  C   C8        1.0  0.85237  0.37224  0.13310  1.0000
  C   C9        1.0  0.25604  0.26401  0.25928  1.0000
  C   C10       1.0  0.74392  0.26612  0.22916  1.0000
  C   C11       1.0  0.75538  0.76458  0.26306  1.0000
  C   C12       1.0  0.24681  0.76310  0.24004  1.0000
  C   C13       1.0  0.73999  0.73334  0.24887  1.0000
  C   C14       1.0  0.26224  0.73147  0.25987  1.0000
  C   C15       1.0  0.24095  0.23265  0.24417  1.0000
  C   C16       1.0  0.75919  0.23445  0.25281  1.0000
  C   C17       1.0  0.07021  0.79571  0.23375  1.0000
  C   C18       1.0  0.92766  0.80177  0.23815  1.0000
  C   C19       1.0  0.56884  0.29831  0.23951  1.0000
  C   C20       1.0  0.43096  0.29687  0.24873  1.0000
  C   C21       1.0  0.93514  0.20160  0.25200  1.0000
  C   C22       1.0  0.06633  0.20570  0.27303  1.0000
  C   C23       1.0  0.43763  0.70214  0.24418  1.0000
  C   C24       1.0  0.56233  0.70849  0.25608  1.0000
  O   O1        1.0  0.56016  0.30786  0.33724  1.0000
  O   O2        1.0  0.43990  0.30683  0.14893  1.0000
  O   O3        1.0  0.06023  0.80357  0.33175  1.0000
  O   O4        1.0  0.93549  0.81269  0.13787  1.0000
  O   O5        1.0  0.44615  0.69351  0.14479  1.0000
  O   O6        1.0  0.55223  0.70122  0.35694  1.0000
  O   O7        1.0  0.94409  0.19183  0.15497  1.0000
  O   O8        1.0  0.05793  0.19647  0.37466  1.0000
  H   H1        1.0  0.37210  0.13724  0.08788  1.0000
  H   H2        1.0  0.62781  0.13757  0.42605  1.0000
  H   H3        1.0  0.86463  0.63472  0.08034  1.0000
  H   H4        1.0  0.12730  0.63290  0.39881  1.0000
  H   H5        1.0  0.63776  0.86440  0.45604  1.0000
  H   H6        1.0  0.36491  0.86737  0.04453  1.0000
  H   H7        1.0  0.12781  0.36159  0.41761  1.0000
  H   H8        1.0  0.87143  0.36905  0.06311  1.0000
  H   H9        1.0  0.04499  0.79277  0.13879  1.0000
  H   H10       1.0  0.95416  0.79748  0.33102  1.0000
  H   H11       1.0  0.54271  0.29377  0.14801  1.0000
  H   H12       1.0  0.45695  0.29186  0.34206  1.0000
  H   H13       1.0  0.96120  0.20603  0.34376  1.0000
  H   H14       1.0  0.03996  0.21131  0.18108  1.0000
  H   H15       1.0  0.46400  0.70660  0.33518  1.0000
  H   H16       1.0  0.53684  0.71301  0.16133  1.0000
  C   C25       1.0  0.00065  0.48322  0.24918  1.0000
  C   C26       1.0  0.50037  0.98338  0.25358  1.0000
  C   C27       1.0  0.00005  0.51691  0.24971  1.0000
  C   C28       1.0  0.50075  0.01674  0.25797  1.0000
  N   N9        1.0  0.35868  0.10636  0.72646  1.0000
  N   N10       1.0  0.64412  0.10598  0.79096  1.0000
  N   N11       1.0  0.85740  0.60395  0.73670  1.0000
  N   N12       1.0  0.14402  0.60596  0.79425  1.0000
  N   N13       1.0  0.64064  0.89519  0.78953  1.0000
  N   N14       1.0  0.36290  0.89494  0.70204  1.0000
  N   N15       1.0  0.14208  0.40001  0.75932  1.0000
  N   N16       1.0  0.85811  0.39622  0.69949  1.0000
  C   C29       1.0  0.34749  0.13160  0.64612  1.0000
  C   C30       1.0  0.65413  0.13028  0.86735  1.0000
  C   C31       1.0  0.85020  0.63003  0.66030  1.0000
  C   C32       1.0  0.14854  0.63289  0.85573  1.0000
  C   C33       1.0  0.64600  0.86826  0.86053  1.0000
  C   C34       1.0  0.35789  0.86964  0.63095  1.0000
  C   C35       1.0  0.14617  0.37276  0.82832  1.0000
  C   C36       1.0  0.85220  0.37104  0.62725  1.0000
  C   C37       1.0  0.25635  0.26669  0.76319  1.0000
  C   C38       1.0  0.74459  0.26571  0.72842  1.0000
  C   C39       1.0  0.75483  0.76476  0.76472  1.0000
  C   C40       1.0  0.24745  0.76593  0.73276  1.0000
  C   C41       1.0  0.73988  0.73336  0.74718  1.0000
  C   C42       1.0  0.26218  0.73418  0.75421  1.0000
  C   C43       1.0  0.24091  0.23538  0.74892  1.0000
  C   C44       1.0  0.76073  0.23438  0.74976  1.0000
  C   C45       1.0  0.07146  0.79543  0.74077  1.0000
  C   C46       1.0  0.93044  0.79577  0.75386  1.0000
  C   C47       1.0  0.56859  0.29538  0.73657  1.0000
  C   C48       1.0  0.43283  0.29340  0.75013  1.0000
  C   C49       1.0  0.93791  0.20475  0.75348  1.0000
  C   C50       1.0  0.06620  0.20638  0.77236  1.0000
  C   C51       1.0  0.43745  0.70010  0.75335  1.0000
  C   C52       1.0  0.56590  0.70181  0.77216  1.0000
  O   O9        1.0  0.55995  0.30505  0.83423  1.0000
  O   O10       1.0  0.44196  0.30206  0.64913  1.0000
  O   O11       1.0  0.06233  0.80516  0.83752  1.0000
  O   O12       1.0  0.93961  0.80660  0.65556  1.0000
  O   O13       1.0  0.44636  0.69017  0.65645  1.0000
  O   O14       1.0  0.55815  0.69321  0.87542  1.0000
  O   O15       1.0  0.94804  0.19661  0.65600  1.0000
  O   O16       1.0  0.05813  0.19801  0.87538  1.0000
  H   H17       1.0  0.36007  0.13595  0.56081  1.0000
  H   H18       1.0  0.64049  0.13369  0.94994  1.0000
  H   H19       1.0  0.86878  0.63559  0.58956  1.0000
  H   H20       1.0  0.12878  0.63855  0.92152  1.0000
  H   H21       1.0  0.62623  0.86202  0.92738  1.0000
  H   H22       1.0  0.37800  0.86487  0.56520  1.0000
  H   H23       1.0  0.12470  0.36655  0.89012  1.0000
  H   H24       1.0  0.87017  0.36734  0.55479  1.0000
  H   H25       1.0  0.04566  0.79009  0.64944  1.0000
  H   H26       1.0  0.95628  0.78988  0.84679  1.0000
  H   H27       1.0  0.54235  0.29047  0.64587  1.0000
  H   H28       1.0  0.45874  0.28867  0.84393  1.0000
  H   H29       1.0  0.96332  0.20870  0.84704  1.0000
  H   H30       1.0  0.03949  0.21095  0.68043  1.0000
  H   H31       1.0  0.46349  0.70454  0.84508  1.0000
  H   H32       1.0  0.53904  0.70576  0.68005  1.0000
  C   C53       1.0  0.99982  0.48543  0.74653  1.0000
  C   C54       1.0  0.50140  0.98582  0.75122  1.0000
  C   C55       1.0  0.00048  0.51899  0.75492  1.0000
  C   C56       1.0  0.50137  0.01918  0.75521  1.0000
  C   C57       1.0  0.15924  0.19789  0.38006  1.0000
  C   C58       1.0  0.11953  0.20908  0.29510  1.0000
  C  Sn1       1.0  0.11853  0.22753  0.18057  1.0000
  C  Sn2       1.0  0.15807  0.23486  0.15080  1.0000
  C   C59       1.0  0.19761  0.22353  0.23639  1.0000
  C   C60       1.0  0.19824  0.20509  0.35075  1.0000
  H   H33       1.0  0.15972  0.18361  0.46851  1.0000
  O  Te1       1.0  0.07859  0.23853  0.09679  1.0000
  O  Te2       1.0  0.15800  0.25324  0.03698  1.0000
  H   H34       1.0  0.22898  0.19641  0.41647  1.0000
  Mg  Mg1       1.0  0.19014  0.25144  0.95359  1.0000
  C   C61       1.0  0.87509  0.23107  0.37031  1.0000
  C   C62       1.0  0.88928  0.21131  0.28637  1.0000
  C  Sn3       1.0  0.85950  0.19973  0.17444  1.0000
  C  Sn4       1.0  0.81471  0.20813  0.14627  1.0000
  C   C63       1.0  0.80085  0.22793  0.23081  1.0000
  C   C64       1.0  0.83092  0.23938  0.34256  1.0000
  H   H35       1.0  0.89836  0.23994  0.45674  1.0000
  O  Te3       1.0  0.87422  0.18000  0.09165  1.0000
  O  Te4       1.0  0.78425  0.19690  0.03505  1.0000
  H   H36       1.0  0.81993  0.25469  0.40749  1.0000
  Mg  Mg2       1.0  0.91499  0.15939  0.95212  1.0000
  C   C65       1.0  0.62422  0.73477  0.13098  1.0000
  C   C66       1.0  0.60885  0.71512  0.21863  1.0000
  C  Sn5       1.0  0.63787  0.70144  0.33292  1.0000
  C  Sn6       1.0  0.68310  0.70760  0.35971  1.0000
  C   C67       1.0  0.69815  0.72731  0.27145  1.0000
  C   C68       1.0  0.66882  0.74087  0.15736  1.0000
  H   H37       1.0  0.60153  0.74527  0.04274  1.0000
  O  Te5       1.0  0.62197  0.68186  0.41941  1.0000
  O  Te6       1.0  0.71283  0.69425  0.47322  1.0000
  H   H38       1.0  0.68072  0.75610  0.08956  1.0000
  Mg  Mg3       1.0  0.67533  0.66916  0.56099  1.0000
  C   C69       1.0  0.37842  0.72939  0.36972  1.0000
  C   C70       1.0  0.39212  0.71046  0.28235  1.0000
  C  Sn7       1.0  0.36179  0.69898  0.17130  1.0000
  C  Sn8       1.0  0.31694  0.70664  0.14752  1.0000
  C   C71       1.0  0.30357  0.72562  0.23547  1.0000
  C   C72       1.0  0.33419  0.73697  0.34632  1.0000
  H   H39       1.0  0.40211  0.73818  0.45545  1.0000
  O  Te7       1.0  0.37604  0.68009  0.08504  1.0000
  O  Te8       1.0  0.28594  0.69550  0.03727  1.0000
  H   H40       1.0  0.32357  0.75164  0.41390  1.0000
  Mg  Mg4       1.0  0.41616  0.65926  0.94849  1.0000
  C   C73       1.0  0.84876  0.76508  0.37443  1.0000
  C   C74       1.0  0.80836  0.77213  0.28366  1.0000
  C  Sn9       1.0  0.80603  0.78945  0.16568  1.0000
  C  Sn10      1.0  0.84493  0.79988  0.13833  1.0000
  C   C75       1.0  0.88518  0.79270  0.22974  1.0000
  C   C76       1.0  0.88713  0.77535  0.34751  1.0000
  H   H41       1.0  0.85027  0.75165  0.46553  1.0000
  O  Te9       1.0  0.76541  0.79630  0.07610  1.0000
  O  Te10      1.0  0.84354  0.81723  0.02115  1.0000
  H   H42       1.0  0.91841  0.76988  0.41773  1.0000
  Mg  Mg5       1.0  0.87517  0.80933  0.93008  1.0000
  C   C77       1.0  0.16237  0.79690  0.35926  1.0000
  C   C78       1.0  0.12394  0.79311  0.25826  1.0000
  C  Sn11      1.0  0.12457  0.77667  0.14644  1.0000
  C  Sn12      1.0  0.16448  0.76380  0.13582  1.0000
  C   C79       1.0  0.20275  0.76769  0.23743  1.0000
  C   C80       1.0  0.20174  0.78420  0.34888  1.0000
  H   H43       1.0  0.16159  0.80965  0.44552  1.0000
  O  Te11      1.0  0.08588  0.77312  0.04643  1.0000
  O  Te12      1.0  0.16604  0.74725  0.02515  1.0000
  H   H44       1.0  0.23150  0.78710  0.42710  1.0000
  Mg  Mg6       1.0  0.19945  0.73736  0.91497  1.0000
  C   C81       1.0  0.31546  0.29595  0.13066  1.0000
  C   C82       1.0  0.30164  0.27692  0.22327  1.0000
  C  Sn13      1.0  0.33168  0.26554  0.33996  1.0000
  C  Sn14      1.0  0.37636  0.27340  0.36411  1.0000
  C   C83       1.0  0.38984  0.29247  0.27089  1.0000
  C   C84       1.0  0.35951  0.30372  0.15443  1.0000
  H   H45       1.0  0.29199  0.30467  0.04059  1.0000
  O  Te13      1.0  0.31733  0.24654  0.43141  1.0000
  O  Te14      1.0  0.40707  0.26236  0.47994  1.0000
  H   H46       1.0  0.37021  0.31847  0.08279  1.0000
  Mg  Mg7       1.0  0.37158  0.23722  0.57451  1.0000
  C   C85       1.0  0.68444  0.29701  0.35224  1.0000
  C   C86       1.0  0.69812  0.27827  0.26428  1.0000
  C  Sn15      1.0  0.66783  0.26723  0.15226  1.0000
  C  Sn16      1.0  0.62303  0.27513  0.12809  1.0000
  C   C87       1.0  0.60967  0.29391  0.21663  1.0000
  C   C88       1.0  0.64026  0.30483  0.32845  1.0000
  H   H47       1.0  0.70810  0.30548  0.43872  1.0000
  O  Te15      1.0  0.68206  0.24852  0.06543  1.0000
  O  Te16      1.0  0.59207  0.26441  0.01686  1.0000
  H   H48       1.0  0.62966  0.31935  0.39648  1.0000
  Mg  Mg8       1.0  0.72224  0.22828  0.92759  1.0000
  C   C89       1.0  0.42042  0.05881  0.36338  1.0000
  C   C90       1.0  0.39638  0.07793  0.25484  1.0000
  C  Sn17      1.0  0.40453  0.07573  0.13325  1.0000
  C  Sn18      1.0  0.43736  0.05396  0.12040  1.0000
  C   C91       1.0  0.46121  0.03492  0.22956  1.0000
  C   C92       1.0  0.45280  0.03732  0.35077  1.0000
  H   H49       1.0  0.41391  0.06065  0.45716  1.0000
  O  Te17      1.0  0.38021  0.09503  0.02582  1.0000
  O  Te18      1.0  0.44616  0.05127  0.00001  1.0000
  H   H50       1.0  0.47140  0.02250  0.43478  1.0000
  Mg  Mg9       1.0  0.49908  0.07137  0.88229  1.0000
  C   C93       1.0  0.56961  0.05700  0.41585  1.0000
  C   C94       1.0  0.54348  0.04218  0.30516  1.0000
  C  Sn19      1.0  0.55165  0.04715  0.18360  1.0000
  C  Sn20      1.0  0.58666  0.06732  0.17298  1.0000
  C   C95       1.0  0.61264  0.08201  0.28433  1.0000
  C   C96       1.0  0.60416  0.07689  0.40547  1.0000
  H   H51       1.0  0.56308  0.05302  0.50961  1.0000
  O  Te19      1.0  0.52521  0.03218  0.07399  1.0000
  O  Te20      1.0  0.59556  0.07269  0.05270  1.0000
  H   H52       1.0  0.62442  0.08834  0.49118  1.0000
  Mg  Mg10      1.0  0.64510  0.03563  0.93151  1.0000
  C   C97       1.0  0.95915  0.58033  0.19964  1.0000
  C   C98       1.0  0.96332  0.54708  0.23773  1.0000
  C  Sn21      1.0  0.92923  0.53069  0.27005  1.0000
  C  Sn22      1.0  0.89028  0.54798  0.26400  1.0000
  C   C99       1.0  0.88642  0.58123  0.22570  1.0000
  C   C100      1.0  0.92073  0.59739  0.19361  1.0000
  H   H53       1.0  0.98569  0.59284  0.17474  1.0000
  O  Te21      1.0  0.93395  0.49747  0.30794  1.0000
  O  Te22      1.0  0.85570  0.53220  0.29574  1.0000
  H   H54       1.0  0.91748  0.62313  0.16404  1.0000
  Mg  Mg11      1.0  0.87770  0.48674  0.34180  1.0000
  C   C101      1.0  0.08256  0.55738  0.13649  1.0000
  C   C102      1.0  0.10507  0.57654  0.23925  1.0000
  C  Sn23      1.0  0.09596  0.57410  0.36015  1.0000
  C  Sn24      1.0  0.06372  0.55205  0.37822  1.0000
  C   C103      1.0  0.04140  0.53297  0.27483  1.0000
  C   C104      1.0  0.05076  0.53561  0.15424  1.0000
  H   H55       1.0  0.08982  0.55940  0.04321  1.0000
  O  Te23      1.0  0.11874  0.59344  0.46177  1.0000
  O  Te24      1.0  0.05398  0.54912  0.49805  1.0000
  H   H56       1.0  0.03335  0.52075  0.07472  1.0000
  Mg  Mg12      1.0  0.09383  0.58069  0.60688  1.0000
  C   C105      1.0  0.54679  0.92373  0.35551  1.0000
  C   C106      1.0  0.54253  0.95609  0.30522  1.0000
  C  Sn25      1.0  0.57287  0.96909  0.24548  1.0000
  C  Sn26      1.0  0.60807  0.94926  0.23602  1.0000
  C   C107      1.0  0.61201  0.91692  0.28655  1.0000
  C   C108      1.0  0.58149  0.90416  0.34617  1.0000
  H   H57       1.0  0.52316  0.91386  0.40158  1.0000
  O  Te25      1.0  0.56646  0.00147  0.19581  1.0000
  O  Te26      1.0  0.63884  0.96163  0.17676  1.0000
  H   H58       1.0  0.58477  0.87910  0.38502  1.0000
  Mg  Mg13      1.0  0.61675  0.00721  0.12384  1.0000
  C   C109      1.0  0.41179  0.96811  0.27007  1.0000
  C   C110      1.0  0.45139  0.96523  0.24052  1.0000
  C  Sn27      1.0  0.46018  0.93780  0.17815  1.0000
  C  Sn28      1.0  0.42867  0.91282  0.14482  1.0000
  C   C111      1.0  0.38914  0.91593  0.17471  1.0000
  C   C112      1.0  0.38069  0.94349  0.23718  1.0000
  H   H59       1.0  0.40524  0.98944  0.31834  1.0000
  O  Te27      1.0  0.49992  0.93531  0.14938  1.0000
  O  Te28      1.0  0.43660  0.88514  0.08239  1.0000
  H   H60       1.0  0.35001  0.94572  0.25997  1.0000
  Mg  Mg14      1.0  0.49560  0.89292  0.06363  1.0000
  C   C113      1.0  0.11326  0.45892  0.29568  1.0000
  C   C114      1.0  0.11265  0.42485  0.29022  1.0000
  C  Sn29      1.0  0.07329  0.40814  0.26693  1.0000
  C  Sn30      1.0  0.03387  0.42594  0.24877  1.0000
  C   C115      1.0  0.03482  0.46003  0.25432  1.0000
  C   C116      1.0  0.07438  0.47650  0.27773  1.0000
  H   H61       1.0  0.14386  0.47167  0.31371  1.0000
  O  Te29      1.0  0.07327  0.37408  0.26183  1.0000
  O  Te30      1.0  0.99407  0.40985  0.22530  1.0000
  H   H62       1.0  0.07484  0.50289  0.28187  1.0000
  Mg  Mg15      1.0  0.01084  0.36322  0.22721  1.0000
  C   C117      1.0  0.94367  0.44532  0.36307  1.0000
  C   C118      1.0  0.96038  0.45890  0.26490  1.0000
  C  Sn31      1.0  0.93897  0.45441  0.13277  1.0000
  C  Sn32      1.0  0.90010  0.43598  0.09859  1.0000
  C   C119      1.0  0.88363  0.42252  0.19753  1.0000
  C   C120      1.0  0.90533  0.42716  0.32944  1.0000
  H   H63       1.0  0.96045  0.44892  0.46513  1.0000
  O  Te31      1.0  0.95612  0.46813  0.03594  1.0000
  O  Te32      1.0  0.97282  0.41982  0.96730  1.0000
  H   H64       1.0  0.89237  0.41666  0.40542  1.0000
  Mg  Mg16      1.0  0.00904  0.44340  0.87081  1.0000
  C   C121      1.0  0.28622  0.15203  0.26750  1.0000
  C   C122      1.0  0.31205  0.15228  0.18150  1.0000
  C  Sn33      1.0  0.31567  0.18083  0.10849  1.0000
  C  Sn34      1.0  0.29298  0.20963  0.12206  1.0000
  C   C123      1.0  0.26725  0.20913  0.20843  1.0000
  C   C124      1.0  0.26384  0.18042  0.28098  1.0000
  H   H65       1.0  0.28360  0.12983  0.32369  1.0000
  O  Te33      1.0  0.34160  0.18066  0.02298  1.0000
  O  Te34      1.0  0.29604  0.23850  0.05032  1.0000
  H   H66       1.0  0.24386  0.18024  0.34762  1.0000
  Mg  Mg17      1.0  0.43022  0.21473  0.94645  1.0000
  C   C125      1.0  0.68667  0.19477  0.41186  1.0000
  C   C126      1.0  0.67781  0.16420  0.35703  1.0000
  C  Sn35      1.0  0.70000  0.15360  0.27041  1.0000
  C  Sn36      1.0  0.73164  0.17405  0.23829  1.0000
  C   C127      1.0  0.74029  0.20458  0.29374  1.0000
  C   C128      1.0  0.71788  0.21494  0.38027  1.0000
  H   H67       1.0  0.66935  0.20279  0.47886  1.0000
  O  Te35      1.0  0.69074  0.12299  0.21648  1.0000
  O  Te36      1.0  0.75431  0.16406  0.15204  1.0000
  H   H68       1.0  0.72477  0.23861  0.42277  1.0000
  Mg  Mg18      1.0  0.73020  0.12025  0.10385  1.0000
  C   C129      1.0  0.79713  0.70745  0.10917  1.0000
  C   C130      1.0  0.76925  0.70700  0.18909  1.0000
  C  Sn37      1.0  0.76747  0.67936  0.26927  1.0000
  C  Sn38      1.0  0.79416  0.65170  0.26926  1.0000
  C   C131      1.0  0.82196  0.65240  0.18902  1.0000
  C   C132      1.0  0.82347  0.68018  0.10914  1.0000
  H   H69       1.0  0.79832  0.72895  0.04742  1.0000
  O  Te37      1.0  0.73942  0.67931  0.34848  1.0000
  O  Te38      1.0  0.79304  0.62375  0.34848  1.0000
  H   H70       1.0  0.84509  0.68053  0.04733  1.0000
  Mg  Mg19      1.0  0.74950  0.63548  0.43930  1.0000
  C   C133      1.0  0.19944  0.70443  0.38520  1.0000
  C   C134      1.0  0.23194  0.70423  0.32118  1.0000
  C  Sn39      1.0  0.23818  0.67678  0.25466  1.0000
  C  Sn40      1.0  0.21133  0.64907  0.25234  1.0000
  C   C135      1.0  0.17889  0.64952  0.31661  1.0000
  C   C136      1.0  0.17293  0.67711  0.38291  1.0000
  H   H71       1.0  0.19481  0.72579  0.43644  1.0000
  O  Te39      1.0  0.27081  0.67699  0.19126  1.0000
  O  Te40      1.0  0.21686  0.62132  0.18656  1.0000
  H   H72       1.0  0.14775  0.67727  0.43240  1.0000
  Mg  Mg20      1.0  0.26572  0.63335  0.11486  1.0000
  C   C137      1.0  0.72250  0.83108  0.22144  1.0000
  C   C138      1.0  0.73335  0.80047  0.28628  1.0000
  C  Sn41      1.0  0.71492  0.79029  0.38549  1.0000
  C  Sn42      1.0  0.68508  0.81120  0.42018  1.0000
  C   C139      1.0  0.67440  0.84177  0.35466  1.0000
  C   C140      1.0  0.69305  0.85171  0.25557  1.0000
  H   H73       1.0  0.73690  0.83876  0.14472  1.0000
  O  Te41      1.0  0.72614  0.75964  0.44931  1.0000
  O  Te42      1.0  0.66616  0.80164  0.51894  1.0000
  H   H74       1.0  0.68462  0.87541  0.20532  1.0000
  Mg  Mg21      1.0  0.69174  0.75758  0.57737  1.0000
  C   C141      1.0  0.28882  0.84423  0.25253  1.0000
  C   C142      1.0  0.31762  0.84492  0.17549  1.0000
  C  Sn43      1.0  0.32134  0.81800  0.10280  1.0000
  C  Sn44      1.0  0.29570  0.78991  0.10749  1.0000
  C   C143      1.0  0.26696  0.78947  0.18479  1.0000
  C   C144      1.0  0.26351  0.81653  0.25717  1.0000
  H   H75       1.0  0.28613  0.86517  0.30849  1.0000
  O  Te43      1.0  0.35029  0.81909  0.02638  1.0000
  O  Te44      1.0  0.29876  0.76267  0.03577  1.0000
  H   H76       1.0  0.24119  0.81600  0.31674  1.0000
  Mg  Mg22      1.0  0.43766  0.76458  0.94616  1.0000
  C   C145      1.0  0.22283  0.33033  0.21356  1.0000
  C   C146      1.0  0.23354  0.29991  0.28012  1.0000
  C  Sn45      1.0  0.21414  0.28987  0.37730  1.0000
  C  Sn46      1.0  0.18345  0.31073  0.40816  1.0000
  C   C147      1.0  0.17293  0.34111  0.34093  1.0000
  C   C148      1.0  0.19255  0.35092  0.24390  1.0000
  H   H77       1.0  0.23798  0.33791  0.13843  1.0000
  O  Te45      1.0  0.22523  0.25940  0.44288  1.0000
  O  Te46      1.0  0.16357  0.30131  0.50481  1.0000
  H   H78       1.0  0.18422  0.37446  0.19232  1.0000
  Mg  Mg23      1.0  0.18936  0.25748  0.56690  1.0000
  C   C149      1.0  0.77139  0.33339  0.25080  1.0000
  C   C150      1.0  0.76467  0.30276  0.19561  1.0000
  C  Sn47      1.0  0.78883  0.29304  0.11286  1.0000
  C  Sn48      1.0  0.82028  0.31443  0.08506  1.0000
  C   C151      1.0  0.82678  0.34502  0.14083  1.0000
  C   C152      1.0  0.80242  0.35450  0.22347  1.0000
  H   H79       1.0  0.75256  0.34073  0.31480  1.0000
  O  Te47      1.0  0.78169  0.26235  0.05850  1.0000
  O  Te48      1.0  0.84488  0.30533  0.00272  1.0000
  H   H80       1.0  0.80765  0.37822  0.26626  1.0000
  Mg  Mg24      1.0  0.91808  0.24972  0.95220  1.0000
  C   C153      1.0  0.18175  0.20568  0.88275  1.0000
  C   C154      1.0  0.19568  0.21999  0.78021  1.0000
  C  Sn49      1.0  0.16527  0.23154  0.66455  1.0000
  C  Sn50      1.0  0.12010  0.22868  0.65161  1.0000
  C   C155      1.0  0.10650  0.21435  0.75480  1.0000
  C   C156      1.0  0.13721  0.20286  0.87009  1.0000
  H   H81       1.0  0.20551  0.19681  0.97199  1.0000
  O  Te49      1.0  0.17975  0.24576  0.56304  1.0000
  O  Te50      1.0  0.08901  0.24003  0.53710  1.0000
  H   H82       1.0  0.12641  0.19180  0.94950  1.0000
  Mg  Mg25      1.0  0.12485  0.25756  0.42619  1.0000
  C   C157      1.0  0.84543  0.19989  0.63452  1.0000
  C   C158      1.0  0.88438  0.20917  0.72353  1.0000
  C  Sn51      1.0  0.88367  0.22655  0.83307  1.0000
  C  Sn52      1.0  0.84317  0.23475  0.85365  1.0000
  C   C159      1.0  0.80438  0.22533  0.76408  1.0000
  C   C160      1.0  0.80547  0.20795  0.65477  1.0000
  H   H83       1.0  0.84627  0.18643  0.54998  1.0000
  O  Te51      1.0  0.92288  0.23564  0.92100  1.0000
  O  Te52      1.0  0.84152  0.25210  0.96234  1.0000
  H   H84       1.0  0.77531  0.20076  0.58592  1.0000
  Mg  Mg26      1.0  0.80896  0.27034  0.05440  1.0000
  C   C161      1.0  0.68137  0.70344  0.88301  1.0000
  C   C162      1.0  0.69500  0.71747  0.77942  1.0000
  C  Sn53      1.0  0.66436  0.72822  0.66288  1.0000
  C  Sn54      1.0  0.61927  0.72484  0.65012  1.0000
  C   C163      1.0  0.60596  0.71079  0.75437  1.0000
  C   C164      1.0  0.63689  0.70011  0.87053  1.0000
  H   H85       1.0  0.70529  0.69520  0.97292  1.0000
  O  Te53      1.0  0.67854  0.74216  0.56033  1.0000
  O  Te54      1.0  0.58796  0.73538  0.53476  1.0000
  H   H86       1.0  0.62633  0.68928  0.95076  1.0000
  Mg  Mg27      1.0  0.62342  0.75281  0.42257  1.0000
  C   C165      1.0  0.34483  0.69716  0.63716  1.0000
  C   C166      1.0  0.38429  0.70588  0.72509  1.0000
  C  Sn55      1.0  0.38457  0.72377  0.83422  1.0000
  C  Sn56      1.0  0.34454  0.73305  0.85548  1.0000
  C   C167      1.0  0.30524  0.72419  0.76699  1.0000
  C   C168      1.0  0.30534  0.70629  0.65808  1.0000
  H   H87       1.0  0.34490  0.68330  0.55293  1.0000
  O  Te55      1.0  0.42428  0.73229  0.92107  1.0000
  O  Te56      1.0  0.34388  0.75093  0.96379  1.0000
  H   H88       1.0  0.27478  0.69953  0.59007  1.0000
  Mg  Mg28      1.0  0.31168  0.76806  0.05431  1.0000
  C   C169      1.0  0.84764  0.76175  0.87980  1.0000
  C   C170      1.0  0.80817  0.77123  0.78904  1.0000
  C  Sn57      1.0  0.80786  0.78966  0.67503  1.0000
  C  Sn58      1.0  0.84787  0.79871  0.65170  1.0000
  C   C171      1.0  0.88719  0.78908  0.74306  1.0000
  C   C172      1.0  0.88712  0.77066  0.85684  1.0000
  H   H89       1.0  0.84759  0.74749  0.96780  1.0000
  O  Te57      1.0  0.76813  0.79893  0.58540  1.0000
  O  Te58      1.0  0.84850  0.81710  0.53854  1.0000
  H   H90       1.0  0.91769  0.76331  0.92705  1.0000
  Mg  Mg29      1.0  0.78590  0.82389  0.44570  1.0000
  C   C173      1.0  0.15477  0.76324  0.62077  1.0000
  C   C174      1.0  0.19407  0.77232  0.70859  1.0000
  C  Sn59      1.0  0.19403  0.78990  0.81823  1.0000
  C  Sn60      1.0  0.15386  0.79851  0.84011  1.0000
  C   C175      1.0  0.11472  0.78929  0.75172  1.0000
  C   C176      1.0  0.11514  0.77170  0.64231  1.0000
  H   H91       1.0  0.15509  0.74962  0.53615  1.0000
  O  Te59      1.0  0.23358  0.79879  0.90497  1.0000
  O  Te60      1.0  0.15288  0.81606  0.94893  1.0000
  H   H92       1.0  0.08471  0.76466  0.57437  1.0000
  Mg  Mg30      1.0  0.12056  0.83391  0.03906  1.0000
  C   C177      1.0  0.34043  0.29843  0.63059  1.0000
  C   C178      1.0  0.37933  0.29246  0.72975  1.0000
  C  Sn61      1.0  0.37906  0.27535  0.84610  1.0000
  C  Sn62      1.0  0.33906  0.26403  0.86320  1.0000
  C   C179      1.0  0.30032  0.27011  0.76336  1.0000
  C   C180      1.0  0.30096  0.28727  0.64735  1.0000
  H   H93       1.0  0.34092  0.31169  0.54079  1.0000
  O  Te61      1.0  0.41822  0.26961  0.94420  1.0000
  O  Te62      1.0  0.33786  0.24686  0.97848  1.0000
  H   H94       1.0  0.27084  0.29187  0.57055  1.0000
  Mg  Mg31      1.0  0.30502  0.25641  0.08371  1.0000
  C   C181      1.0  0.66100  0.29864  0.85243  1.0000
  C   C182      1.0  0.62199  0.29350  0.75542  1.0000
  C  Sn63      1.0  0.62198  0.27626  0.64492  1.0000
  C  Sn64      1.0  0.66182  0.26395  0.63159  1.0000
  C   C183      1.0  0.70067  0.26920  0.72924  1.0000
  C   C184      1.0  0.70031  0.28650  0.83939  1.0000
  H   H95       1.0  0.66072  0.31200  0.93770  1.0000
  O  Te63      1.0  0.58272  0.27135  0.54889  1.0000
  O  Te64      1.0  0.66275  0.24662  0.52217  1.0000
  H   H96       1.0  0.73051  0.29046  0.91453  1.0000
  Mg  Mg32      1.0  0.60076  0.24625  0.41771  1.0000
  C   C185      1.0  0.43467  0.09035  0.65057  1.0000
  C   C186      1.0  0.39753  0.08648  0.69357  1.0000
  C  Sn65      1.0  0.39194  0.05789  0.76350  1.0000
  C  Sn66      1.0  0.42419  0.03276  0.79078  1.0000
  C   C187      1.0  0.46124  0.03688  0.74741  1.0000
  C   C188      1.0  0.46650  0.06558  0.67747  1.0000
  H   H97       1.0  0.43875  0.11256  0.59652  1.0000
  O  Te65      1.0  0.35464  0.05441  0.80569  1.0000
  O  Te66      1.0  0.41944  0.00394  0.86052  1.0000
  H   H98       1.0  0.49527  0.06858  0.64427  1.0000
  Mg  Mg33      1.0  0.36292  0.01066  0.89727  1.0000
  C   C189      1.0  0.54877  0.07680  0.85596  1.0000
  C   C190      1.0  0.54125  0.04704  0.79403  1.0000
  C  Sn67      1.0  0.57171  0.03439  0.73715  1.0000
  C  Sn68      1.0  0.61040  0.05191  0.74256  1.0000
  C   C191      1.0  0.61763  0.08165  0.80483  1.0000
  C   C192      1.0  0.58692  0.09409  0.86139  1.0000
  H   H99       1.0  0.52502  0.08641  0.89979  1.0000
  O  Te67      1.0  0.56368  0.00463  0.67562  1.0000
  O  Te68      1.0  0.64140  0.03982  0.68656  1.0000
  H   H100      1.0  0.59277  0.11712  0.90941  1.0000
  Mg  Mg34      1.0  0.61571  0.99823  0.61366  1.0000
  C   C193      1.0  0.94340  0.55147  0.87702  1.0000
  C   C194      1.0  0.95698  0.53867  0.77532  1.0000
  C  Sn69      1.0  0.93621  0.54836  0.64484  1.0000
  C  Sn70      1.0  0.90121  0.57131  0.61595  1.0000
  C   C195      1.0  0.88789  0.58400  0.71840  1.0000
  C   C196      1.0  0.90890  0.57412  0.84861  1.0000
  H   H101      1.0  0.95967  0.54384  0.97778  1.0000
  O  Te69      1.0  0.95017  0.53532  0.54442  1.0000
  O  Te70      1.0  0.87989  0.58144  0.48641  1.0000
  H   H102      1.0  0.89840  0.58406  0.92734  1.0000
  Mg  Mg35      1.0  0.91080  0.55669  0.38356  1.0000
  C   C197      1.0  0.11353  0.54245  0.81282  1.0000
  C   C198      1.0  0.11215  0.57636  0.78884  1.0000
  C  Sn71      1.0  0.07279  0.59359  0.76395  1.0000
  C  Sn72      1.0  0.03415  0.57650  0.76315  1.0000
  C   C199      1.0  0.03588  0.54258  0.78734  1.0000
  C   C200      1.0  0.07544  0.52558  0.81210  1.0000
  H   H103      1.0  0.14414  0.52929  0.83205  1.0000
  O  Te71      1.0  0.07199  0.62746  0.74014  1.0000
  O  Te72      1.0  0.99437  0.59312  0.73859  1.0000
  H   H104      1.0  0.07650  0.49933  0.83075  1.0000
  Mg  Mg36      1.0  0.00991  0.63924  0.71160  1.0000
  C   C201      1.0  0.59017  0.93190  0.92059  1.0000
  C   C202      1.0  0.60511  0.91857  0.82244  1.0000
  C  Sn73      1.0  0.58828  0.92981  0.69174  1.0000
  C  Sn74      1.0  0.55591  0.95487  0.65901  1.0000
  C   C203      1.0  0.54120  0.96807  0.75794  1.0000
  C   C204      1.0  0.55825  0.95664  0.88840  1.0000
  H   H105      1.0  0.50860  0.93438  0.02155  1.0000
  O  Te73      1.0  0.60356  0.91620  0.59488  1.0000
  O  Te74      1.0  0.53854  0.96657  0.52917  1.0000
  H   H106      1.0  0.54670  0.96698  0.96439  1.0000
  Mg  Mg37      1.0  0.56984  0.94029  0.43203  1.0000
  C   C205      1.0  0.43475  0.94565  0.58619  1.0000
  C   C206      1.0  0.45549  0.96351  0.69518  1.0000
  C  Sn75      1.0  0.44604  0.95765  0.81448  1.0000
  C  Sn76      1.0  0.41526  0.93343  0.82455  1.0000
  C   C207      1.0  0.39471  0.91568  0.71496  1.0000
  C   C208      1.0  0.40440  0.92175  0.59605  1.0000
  H   H107      1.0  0.44226  0.95033  0.49420  1.0000
  O  Te75      1.0  0.46704  0.97573  0.92239  1.0000
  O  Te76      1.0  0.40522  0.92707  0.94261  1.0000
  H   H108      1.0  0.38836  0.90790  0.51170  1.0000
  Mg  Mg38      1.0  0.34762  0.96943  0.06207  1.0000
  C   C209      1.0  0.06304  0.45928  0.62794  1.0000
  C   C210      1.0  0.04227  0.46498  0.72409  1.0000
  C  Sn77      1.0  0.05805  0.45025  0.84983  1.0000
  C  Sn78      1.0  0.09532  0.42945  0.87957  1.0000
  C   C211      1.0  0.11589  0.42392  0.78273  1.0000
  C   C212      1.0  0.09982  0.43878  0.65721  1.0000
  H   H109      1.0  0.05062  0.47079  0.53085  1.0000
  O  Te77      1.0  0.03689  0.45620  0.94471  1.0000
  O  Te78      1.0  0.01701  0.42573  0.00446  1.0000
  H   H110      1.0  0.11592  0.43438  0.58282  1.0000
  Mg  Mg39      1.0  0.97687  0.44140  0.10059  1.0000
  C   C213      1.0  0.89038  0.45939  0.73398  1.0000
  C   C214      1.0  0.88878  0.42656  0.70187  1.0000
  C  Sn79      1.0  0.92574  0.41098  0.68678  1.0000
  C  Sn80      1.0  0.96497  0.42867  0.70426  1.0000
  C   C215      1.0  0.96624  0.46150  0.73646  1.0000
  C   C216      1.0  0.92907  0.47685  0.75129  1.0000
  H   H111      1.0  0.86163  0.47126  0.74552  1.0000
  O  Te79      1.0  0.92357  0.37817  0.65464  1.0000
  O  Te80      1.0  0.00239  0.41370  0.68982  1.0000
  H   H112      1.0  0.93032  0.50226  0.77623  1.0000
  Mg  Mg40      1.0  0.98319  0.36854  0.64548  1.0000
  C   C217      1.0  0.27304  0.16827  0.79016  1.0000
  C   C218      1.0  0.26666  0.20035  0.73698  1.0000
  C  Sn81      1.0  0.28538  0.21059  0.63850  1.0000
  C  Sn82      1.0  0.31093  0.18825  0.59260  1.0000
  C   C219      1.0  0.31710  0.15620  0.64637  1.0000
  C   C220      1.0  0.29823  0.14621  0.74490  1.0000
  H   H113      1.0  0.25842  0.16053  0.86634  1.0000
  O  Te81      1.0  0.27869  0.24273  0.58648  1.0000
  O  Te82      1.0  0.33001  0.19784  0.49424  1.0000
  H   H114      1.0  0.30315  0.12137  0.78599  1.0000
  Mg  Mg41      1.0  0.31146  0.24421  0.45415  1.0000
  C   C221      1.0  0.69325  0.19290  0.91939  1.0000
  C   C222      1.0  0.68312  0.16285  0.86100  1.0000
  C  Sn83      1.0  0.70218  0.15355  0.76495  1.0000
  C  Sn84      1.0  0.73193  0.17478  0.72690  1.0000
  C   C223      1.0  0.74188  0.20478  0.78598  1.0000
  C   C224      1.0  0.72261  0.21385  0.88195  1.0000
  H   H115      1.0  0.67837  0.19991  0.99370  1.0000
  O  Te83      1.0  0.69168  0.12345  0.70758  1.0000
  O  Te84      1.0  0.75146  0.16609  0.63119  1.0000
  H   H116      1.0  0.73048  0.23711  0.92721  1.0000
  Mg  Mg42      1.0  0.72675  0.12253  0.58158  1.0000
  C   C225      1.0  0.81216  0.69413  0.59623  1.0000
  C   C226      1.0  0.82009  0.66273  0.65583  1.0000
  C  Sn85      1.0  0.79748  0.65174  0.74380  1.0000
  C  Sn86      1.0  0.76636  0.67261  0.77242  1.0000
  C   C227      1.0  0.75865  0.70397  0.71221  1.0000
  C   C228      1.0  0.78147  0.71473  0.62436  1.0000
  H   H117      1.0  0.82980  0.70245  0.52820  1.0000
  O  Te85      1.0  0.80581  0.62031  0.80251  1.0000
  O  Te86      1.0  0.74329  0.66224  0.85994  1.0000
  H   H118      1.0  0.77530  0.73903  0.57816  1.0000
  Mg  Mg43      1.0  0.76611  0.61731  0.91510  1.0000
  C   C229      1.0  0.21111  0.65616  0.72860  1.0000
  C   C230      1.0  0.18787  0.65470  0.82165  1.0000
  C  Sn87      1.0  0.18786  0.68122  0.90004  1.0000
  C  Sn88      1.0  0.21158  0.70971  0.88475  1.0000
  C   C231      1.0  0.23470  0.71094  0.79132  1.0000
  C   C232      1.0  0.23450  0.68426  0.71342  1.0000
  H   H119      1.0  0.21094  0.63552  0.66828  1.0000
  O  Te87      1.0  0.16447  0.67934  0.99256  1.0000
  O  Te88      1.0  0.21211  0.73658  0.96177  1.0000
  H   H120      1.0  0.25247  0.68541  0.64133  1.0000
  Mg  Mg44      1.0  0.08042  0.73359  0.07440  1.0000
  C   C233      1.0  0.72574  0.83243  0.73504  1.0000
  C   C234      1.0  0.73338  0.80081  0.79260  1.0000
  C  Sn89      1.0  0.71036  0.78940  0.87887  1.0000
  C  Sn90      1.0  0.67911  0.81008  0.90784  1.0000
  C   C235      1.0  0.67168  0.84166  0.84967  1.0000
  C   C236      1.0  0.69492  0.85283  0.76352  1.0000
  H   H121      1.0  0.74370  0.84107  0.66832  1.0000
  O  Te89      1.0  0.71840  0.75775  0.93555  1.0000
  O  Te90      1.0  0.65563  0.79930  0.99368  1.0000
  H   H122      1.0  0.68897  0.87731  0.71890  1.0000
  Mg  Mg45      1.0  0.58339  0.76550  0.04637  1.0000
  C   C237      1.0  0.32211  0.80551  0.58248  1.0000
  C   C238      1.0  0.32473  0.83796  0.61977  1.0000
  C  Sn91      1.0  0.30112  0.84852  0.70271  1.0000
  C  Sn92      1.0  0.27443  0.82611  0.74906  1.0000
  C   C239      1.0  0.27205  0.79369  0.71126  1.0000
  C   C240      1.0  0.29580  0.78339  0.62818  1.0000
  H   H123      1.0  0.34050  0.79754  0.51826  1.0000
  O  Te91      1.0  0.30411  0.88102  0.73897  1.0000
  O  Te92      1.0  0.25050  0.83600  0.83210  1.0000
  H   H124      1.0  0.29379  0.75826  0.59940  1.0000
  Mg  Mg46      1.0  0.26528  0.88283  0.85391  1.0000
  C   C241      1.0  0.19578  0.29428  0.88957  1.0000
  C   C242      1.0  0.22316  0.29288  0.80848  1.0000
  C  Sn93      1.0  0.22971  0.32078  0.73618  1.0000
  C  Sn94      1.0  0.20843  0.35059  0.74547  1.0000
  C   C243      1.0  0.18113  0.35175  0.82694  1.0000
  C   C244      1.0  0.17479  0.32368  0.89883  1.0000
  H   H125      1.0  0.19089  0.27258  0.94525  1.0000
  O  Te93      1.0  0.25716  0.31895  0.65560  1.0000
  O  Te94      1.0  0.21441  0.37884  0.67432  1.0000
  H   H126      1.0  0.15361  0.32478  0.96167  1.0000
  Mg  Mg47      1.0  0.25495  0.36404  0.57793  1.0000
  C   C245      1.0  0.80052  0.29409  0.58181  1.0000
  C   C246      1.0  0.77680  0.29177  0.67351  1.0000
  C  Sn95      1.0  0.77370  0.31854  0.74765  1.0000
  C  Sn96      1.0  0.79478  0.34816  0.72941  1.0000
  C   C247      1.0  0.81840  0.35025  0.63735  1.0000
  C   C248      1.0  0.82130  0.32330  0.56371  1.0000
  H   H127      1.0  0.80274  0.27325  0.52478  1.0000
  O  Te95      1.0  0.74989  0.31580  0.83889  1.0000
  O  Te96      1.0  0.79220  0.37530  0.80216  1.0000
  H   H128      1.0  0.83964  0.32511  0.49266  1.0000
  Mg  Mg48      1.0  0.75592  0.35954  0.91458  1.0000
