data_image0
_chemical_formula_structural       N8C24O8H16C4N8C24O8H16C4SnCSn2CSnTe4Mg2SnCSn2CSnTe4Mg2SnCSn2CSnTe4Mg2SnCSn2CSnTe4Mg2SnCSn2CSnTe4Mg2SnCSn2CSnTe4Mg2SnCSn2CSnTe4Mg2SnCSn2CSnTe4Mg2SnCSn2CSnTe4Mg2SnCSn2CSnTe4Mg2SnCSn2CSnTe4Mg2SnCSn2CSnTe4Mg2SnCSn2CSnTe4Mg2SnCSn2CSnTe4Mg2SnCSn2CSnTe4Mg2SnCSn2CSnTe4Mg2SnCSn2CSnTe4Mg2SnCSn2CSnTe4Mg2SnCSn2CSnTe4Mg2SnCSn2CSnTe4Mg2SnCSn2CSnTe4Mg2SnCSn2CSnTe4Mg2SnCSn2CSnTe4Mg2SnCSn2CSnTe4Mg2SnCSn2CSnTe4Mg2SnCSn2CSnTe4Mg2SnCSn2CSnTe4Mg2SnCSn2CSnTe4Mg2SnCSn2CSnTe4Mg2SnCSn2CSnTe4Mg2SnCSn2CSnTe4Mg2SnCSn2CSnTe4Mg2SnCSn2CSnTe4Mg2SnCSn2CSnTe4Mg2SnCSn2CSnTe4Mg2SnCSn2CSnTe4Mg2SnCSn2CSnTe4Mg2SnCSn2CSnTe4Mg2SnCSn2CSnTe4Mg2SnCSn2CSnTe4Mg2SnCSn2CSnTe4Mg2SnCSn2CSnTe4Mg2SnCSn2CSnTe4Mg2SnCSn2CSnTe4Mg2SnCSn2CSnTe4Mg2SnCSn2CSnTe4Mg2SnCSn2CSnTe4Mg2SnCSn2CSnTe4Mg2
_chemical_formula_sum              "N16 C152 O16 H32 Sn192 Te192 Mg96"
_cell_length_a       32.0311
_cell_length_b       40.9028
_cell_length_c       10.6384
_cell_angle_alpha    87.487
_cell_angle_beta     106.585
_cell_angle_gamma    90.0753

_symmetry_space_group_name_H-M    'P1'
_space_group_IT_number       1

loop_
  _space_group_symop_operation_xyz
  'x, y, z'

loop_
  _atom_site_type_symbol
  _atom_site_label
  _atom_site_symmetry_multiplicity
  _atom_site_fract_x
  _atom_site_fract_y
  _atom_site_fract_z
  _atom_site_occupancy
  N   N1        1.0  0.35877  0.10391  0.22686  1.0000
  N   N2        1.0  0.63990  0.10664  0.28726  1.0000
  N   N3        1.0  0.85876  0.60437  0.23834  1.0000
  N   N4        1.0  0.14310  0.60190  0.26672  1.0000
  N   N5        1.0  0.64163  0.89438  0.29368  1.0000
  N   N6        1.0  0.35860  0.89463  0.20178  1.0000
  N   N7        1.0  0.14361  0.39530  0.28522  1.0000
  N   N8        1.0  0.85874  0.39614  0.21156  1.0000
  C   C1        1.0  0.35252  0.13073  0.15495  1.0000
  C   C2        1.0  0.64676  0.13210  0.35775  1.0000
  C   C3        1.0  0.84953  0.63016  0.16025  1.0000
  C   C4        1.0  0.14836  0.62750  0.33645  1.0000
  C   C5        1.0  0.65114  0.86871  0.37232  1.0000
  C   C6        1.0  0.35039  0.87016  0.12566  1.0000
  C   C7        1.0  0.14760  0.36754  0.35061  1.0000
  C   C8        1.0  0.85237  0.37224  0.13310  1.0000
  C   C9        1.0  0.25604  0.26401  0.25928  1.0000
  C   C10       1.0  0.74392  0.26612  0.22916  1.0000
  C   C11       1.0  0.75538  0.76458  0.26306  1.0000
  C   C12       1.0  0.24681  0.76310  0.24004  1.0000
  C   C13       1.0  0.73999  0.73334  0.24887  1.0000
  C   C14       1.0  0.26224  0.73147  0.25987  1.0000
  C   C15       1.0  0.24095  0.23265  0.24417  1.0000
  C   C16       1.0  0.75919  0.23445  0.25281  1.0000
  C   C17       1.0  0.07021  0.79571  0.23375  1.0000
  C   C18       1.0  0.92766  0.80177  0.23815  1.0000
  C   C19       1.0  0.56884  0.29831  0.23951  1.0000
  C   C20       1.0  0.43096  0.29687  0.24873  1.0000
  C   C21       1.0  0.93514  0.20160  0.25200  1.0000
  C   C22       1.0  0.06633  0.20570  0.27303  1.0000
  C   C23       1.0  0.43763  0.70214  0.24418  1.0000
  C   C24       1.0  0.56233  0.70849  0.25608  1.0000
  O   O1        1.0  0.56016  0.30786  0.33724  1.0000
  O   O2        1.0  0.43990  0.30683  0.14893  1.0000
  O   O3        1.0  0.06023  0.80357  0.33175  1.0000
  O   O4        1.0  0.93549  0.81269  0.13787  1.0000
  O   O5        1.0  0.44615  0.69351  0.14479  1.0000
  O   O6        1.0  0.55223  0.70122  0.35694  1.0000
  O   O7        1.0  0.94409  0.19183  0.15497  1.0000
  O   O8        1.0  0.05793  0.19647  0.37466  1.0000
  H   H1        1.0  0.37210  0.13724  0.08788  1.0000
  H   H2        1.0  0.62781  0.13757  0.42605  1.0000
  H   H3        1.0  0.86463  0.63472  0.08034  1.0000
  H   H4        1.0  0.12730  0.63290  0.39881  1.0000
  H   H5        1.0  0.63776  0.86440  0.45604  1.0000
  H   H6        1.0  0.36491  0.86737  0.04453  1.0000
  H   H7        1.0  0.12781  0.36159  0.41761  1.0000
  H   H8        1.0  0.87143  0.36905  0.06311  1.0000
  H   H9        1.0  0.04499  0.79277  0.13879  1.0000
  H   H10       1.0  0.95416  0.79748  0.33102  1.0000
  H   H11       1.0  0.54271  0.29377  0.14801  1.0000
  H   H12       1.0  0.45695  0.29186  0.34206  1.0000
  H   H13       1.0  0.96120  0.20603  0.34376  1.0000
  H   H14       1.0  0.03996  0.21131  0.18108  1.0000
  H   H15       1.0  0.46400  0.70660  0.33518  1.0000
  H   H16       1.0  0.53684  0.71301  0.16133  1.0000
  C   C25       1.0  0.00065  0.48322  0.24918  1.0000
  C   C26       1.0  0.50037  0.98338  0.25358  1.0000
  C   C27       1.0  0.00005  0.51691  0.24971  1.0000
  C   C28       1.0  0.50075  0.01674  0.25797  1.0000
  N   N9        1.0  0.35868  0.10636  0.72646  1.0000
  N   N10       1.0  0.64412  0.10598  0.79096  1.0000
  N   N11       1.0  0.85740  0.60395  0.73670  1.0000
  N   N12       1.0  0.14402  0.60596  0.79425  1.0000
  N   N13       1.0  0.64064  0.89519  0.78953  1.0000
  N   N14       1.0  0.36290  0.89494  0.70204  1.0000
  N   N15       1.0  0.14208  0.40001  0.75932  1.0000
  N   N16       1.0  0.85811  0.39622  0.69949  1.0000
  C   C29       1.0  0.34749  0.13160  0.64612  1.0000
  C   C30       1.0  0.65413  0.13028  0.86735  1.0000
  C   C31       1.0  0.85020  0.63003  0.66030  1.0000
  C   C32       1.0  0.14854  0.63289  0.85573  1.0000
  C   C33       1.0  0.64600  0.86826  0.86053  1.0000
  C   C34       1.0  0.35789  0.86964  0.63095  1.0000
  C   C35       1.0  0.14617  0.37276  0.82832  1.0000
  C   C36       1.0  0.85220  0.37104  0.62725  1.0000
  C   C37       1.0  0.25635  0.26669  0.76319  1.0000
  C   C38       1.0  0.74459  0.26571  0.72842  1.0000
  C   C39       1.0  0.75483  0.76476  0.76472  1.0000
  C   C40       1.0  0.24745  0.76593  0.73276  1.0000
  C   C41       1.0  0.73988  0.73336  0.74718  1.0000
  C   C42       1.0  0.26218  0.73418  0.75421  1.0000
  C   C43       1.0  0.24091  0.23538  0.74892  1.0000
  C   C44       1.0  0.76073  0.23438  0.74976  1.0000
  C   C45       1.0  0.07146  0.79543  0.74077  1.0000
  C   C46       1.0  0.93044  0.79577  0.75386  1.0000
  C   C47       1.0  0.56859  0.29538  0.73657  1.0000
  C   C48       1.0  0.43283  0.29340  0.75013  1.0000
  C   C49       1.0  0.93791  0.20475  0.75348  1.0000
  C   C50       1.0  0.06620  0.20638  0.77236  1.0000
  C   C51       1.0  0.43745  0.70010  0.75335  1.0000
  C   C52       1.0  0.56590  0.70181  0.77216  1.0000
  O   O9        1.0  0.55995  0.30505  0.83423  1.0000
  O   O10       1.0  0.44196  0.30206  0.64913  1.0000
  O   O11       1.0  0.06233  0.80516  0.83752  1.0000
  O   O12       1.0  0.93961  0.80660  0.65556  1.0000
  O   O13       1.0  0.44636  0.69017  0.65645  1.0000
  O   O14       1.0  0.55815  0.69321  0.87542  1.0000
  O   O15       1.0  0.94804  0.19661  0.65600  1.0000
  O   O16       1.0  0.05813  0.19801  0.87538  1.0000
  H   H17       1.0  0.36007  0.13595  0.56081  1.0000
  H   H18       1.0  0.64049  0.13369  0.94994  1.0000
  H   H19       1.0  0.86878  0.63559  0.58956  1.0000
  H   H20       1.0  0.12878  0.63855  0.92152  1.0000
  H   H21       1.0  0.62623  0.86202  0.92738  1.0000
  H   H22       1.0  0.37800  0.86487  0.56520  1.0000
  H   H23       1.0  0.12470  0.36655  0.89012  1.0000
  H   H24       1.0  0.87017  0.36734  0.55479  1.0000
  H   H25       1.0  0.04566  0.79009  0.64944  1.0000
  H   H26       1.0  0.95628  0.78988  0.84679  1.0000
  H   H27       1.0  0.54235  0.29047  0.64587  1.0000
  H   H28       1.0  0.45874  0.28867  0.84393  1.0000
  H   H29       1.0  0.96332  0.20870  0.84704  1.0000
  H   H30       1.0  0.03949  0.21095  0.68043  1.0000
  H   H31       1.0  0.46349  0.70454  0.84508  1.0000
  H   H32       1.0  0.53904  0.70576  0.68005  1.0000
  C   C53       1.0  0.99982  0.48543  0.74653  1.0000
  C   C54       1.0  0.50140  0.98582  0.75122  1.0000
  C   C55       1.0  0.00048  0.51899  0.75492  1.0000
  C   C56       1.0  0.50137  0.01918  0.75521  1.0000
  C  Sn1       1.0  0.12594  0.22305  0.12779  1.0000
  C   C57       1.0  0.11313  0.20579  0.22665  1.0000
  C  Sn2       1.0  0.14254  0.20019  0.35095  1.0000
  C  Sn3       1.0  0.18564  0.21210  0.37701  1.0000
  C   C58       1.0  0.19842  0.22935  0.27820  1.0000
  C  Sn4       1.0  0.16904  0.23497  0.15386  1.0000
  O  Te1       1.0  0.09599  0.22837  0.00425  1.0000
  O  Te2       1.0  0.12899  0.18286  0.44819  1.0000
  O  Te3       1.0  0.21558  0.20677  0.50067  1.0000
  O  Te4       1.0  0.18257  0.25229  0.05666  1.0000
  Mg  Mg1       1.0  0.18169  0.18186  0.60093  1.0000
  Mg  Mg2       1.0  0.22468  0.24201  0.90391  1.0000
  C  Sn5       1.0  0.87338  0.22063  0.38375  1.0000
  C   C59       1.0  0.88717  0.20368  0.29125  1.0000
  C  Sn6       1.0  0.85919  0.20011  0.16530  1.0000
  C  Sn7       1.0  0.81654  0.21377  0.13106  1.0000
  C   C60       1.0  0.80277  0.23072  0.22352  1.0000
  C  Sn8       1.0  0.83073  0.23430  0.34951  1.0000
  O  Te5       1.0  0.90191  0.22391  0.50908  1.0000
  O  Te6       1.0  0.87371  0.18305  0.07452  1.0000
  O  Te7       1.0  0.78801  0.21048  0.00562  1.0000
  O  Te8       1.0  0.81624  0.25135  0.44025  1.0000
  Mg  Mg3       1.0  0.91761  0.17382  0.91623  1.0000
  Mg  Mg4       1.0  0.86709  0.24930  0.59853  1.0000
  C  Sn9       1.0  0.65268  0.70961  0.38413  1.0000
  C   C61       1.0  0.61442  0.71836  0.28632  1.0000
  C  Sn10      1.0  0.61596  0.72855  0.16068  1.0000
  C  Sn11      1.0  0.65658  0.73000  0.13217  1.0000
  C   C62       1.0  0.69480  0.72125  0.22994  1.0000
  C  Sn12      1.0  0.69330  0.71106  0.35562  1.0000
  O  Te9       1.0  0.65038  0.69949  0.50905  1.0000
  O  Te10      1.0  0.57728  0.73719  0.06453  1.0000
  O  Te11      1.0  0.65885  0.74013  0.00713  1.0000
  O  Te12      1.0  0.73195  0.70242  0.45173  1.0000
  Mg  Mg5       1.0  0.69202  0.73808  0.90916  1.0000
  Mg  Mg6       1.0  0.71202  0.69020  0.60710  1.0000
  C  Sn13      1.0  0.32181  0.69477  0.16104  1.0000
  C   C63       1.0  0.30873  0.71187  0.25452  1.0000
  C  Sn14      1.0  0.33879  0.73006  0.34581  1.0000
  C  Sn15      1.0  0.38283  0.73121  0.34358  1.0000
  C   C64       1.0  0.39589  0.71412  0.25013  1.0000
  C  Sn16      1.0  0.36586  0.69592  0.15881  1.0000
  O  Te13      1.0  0.29122  0.67674  0.07072  1.0000
  O  Te14      1.0  0.32494  0.74694  0.43835  1.0000
  O  Te15      1.0  0.41343  0.74926  0.43401  1.0000
  O  Te16      1.0  0.37968  0.67905  0.06630  1.0000
  Mg  Mg7       1.0  0.37879  0.76811  0.54090  1.0000
  Mg  Mg8       1.0  0.42064  0.64658  0.96367  1.0000
  C  Sn17      1.0  0.87225  0.76379  0.34803  1.0000
  C   C65       1.0  0.88355  0.78236  0.24947  1.0000
  C  Sn18      1.0  0.85161  0.79960  0.15198  1.0000
  C  Sn19      1.0  0.80747  0.79827  0.15306  1.0000
  C   C66       1.0  0.79619  0.77972  0.25159  1.0000
  C  Sn20      1.0  0.82810  0.76247  0.34911  1.0000
  O  Te17      1.0  0.90471  0.74675  0.44451  1.0000
  O  Te18      1.0  0.86370  0.81798  0.05443  1.0000
  O  Te19      1.0  0.77500  0.81533  0.05646  1.0000
  O  Te20      1.0  0.81604  0.74410  0.44663  1.0000
  Mg  Mg9       1.0  0.90245  0.82565  0.94433  1.0000
  Mg  Mg10      1.0  0.87205  0.72513  0.55681  1.0000
  C  Sn21      1.0  0.16188  0.80537  0.33009  1.0000
  C   C67       1.0  0.12341  0.79831  0.23398  1.0000
  C  Sn22      1.0  0.12325  0.77469  0.14293  1.0000
  C  Sn23      1.0  0.16236  0.75775  0.14808  1.0000
  C   C68       1.0  0.20080  0.76481  0.24416  1.0000
  C  Sn24      1.0  0.20098  0.78844  0.33525  1.0000
  O  Te21      1.0  0.16128  0.82908  0.42012  1.0000
  O  Te22      1.0  0.08439  0.76806  0.04772  1.0000
  O  Te23      1.0  0.16293  0.73403  0.05794  1.0000
  O  Te24      1.0  0.23981  0.79506  0.43042  1.0000
  Mg  Mg11      1.0  0.19653  0.72234  0.94675  1.0000
  Mg  Mg12      1.0  0.22249  0.82946  0.53147  1.0000
  C  Sn25      1.0  0.37251  0.26135  0.35349  1.0000
  C   C69       1.0  0.38562  0.27963  0.25760  1.0000
  C  Sn26      1.0  0.35513  0.29775  0.15908  1.0000
  C  Sn27      1.0  0.31061  0.29762  0.15638  1.0000
  C   C70       1.0  0.29751  0.27935  0.25224  1.0000
  C  Sn28      1.0  0.32798  0.26121  0.35079  1.0000
  O  Te25      1.0  0.40355  0.24341  0.45106  1.0000
  O  Te26      1.0  0.36902  0.31583  0.06426  1.0000
  O  Te27      1.0  0.27956  0.31557  0.05870  1.0000
  O  Te28      1.0  0.31411  0.24315  0.44557  1.0000
  Mg  Mg13      1.0  0.40924  0.32504  0.95130  1.0000
  Mg  Mg14      1.0  0.36865  0.22264  0.55862  1.0000
  C  Sn29      1.0  0.68299  0.28645  0.36465  1.0000
  C   C71       1.0  0.69617  0.27059  0.26843  1.0000
  C  Sn30      1.0  0.66745  0.26768  0.14312  1.0000
  C  Sn31      1.0  0.62466  0.28093  0.11332  1.0000
  C   C72       1.0  0.61149  0.29678  0.20949  1.0000
  C  Sn32      1.0  0.64019  0.29969  0.33485  1.0000
  O  Te29      1.0  0.71225  0.28907  0.48926  1.0000
  O  Te30      1.0  0.68137  0.25171  0.04857  1.0000
  O  Te31      1.0  0.69018  0.26698  0.98858  1.0000
  O  Te32      1.0  0.62629  0.31566  0.42935  1.0000
  Mg  Mg15      1.0  0.72437  0.24306  0.89299  1.0000
  Mg  Mg16      1.0  0.67805  0.31304  0.58493  1.0000
  C  Sn33      1.0  0.40328  0.06331  0.09623  1.0000
  C   C73       1.0  0.38636  0.07331  0.19593  1.0000
  C  Sn34      1.0  0.40985  0.06773  0.32761  1.0000
  C  Sn35      1.0  0.45114  0.05185  0.36033  1.0000
  C   C74       1.0  0.46804  0.04186  0.26066  1.0000
  C  Sn36      1.0  0.44457  0.04743  0.12894  1.0000
  O  Te33      1.0  0.47402  0.05784  0.96526  1.0000
  O  Te34      1.0  0.39226  0.07795  0.42557  1.0000
  O  Te35      1.0  0.47518  0.04602  0.49143  1.0000
  O  Te36      1.0  0.46215  0.03723  0.03103  1.0000
  Mg  Mg17      1.0  0.43744  0.06450  0.58965  1.0000
  Mg  Mg18      1.0  0.51179  0.03937  0.86692  1.0000
  C  Sn37      1.0  0.55918  0.06448  0.39586  1.0000
  C   C75       1.0  0.53649  0.04738  0.28674  1.0000
  C  Sn38      1.0  0.55251  0.04569  0.17803  1.0000
  C  Sn39      1.0  0.59204  0.06140  0.17841  1.0000
  C   C76       1.0  0.61471  0.07848  0.28748  1.0000
  C  Sn40      1.0  0.59871  0.08019  0.39623  1.0000
  O  Te37      1.0  0.54256  0.06585  0.50346  1.0000
  O  Te38      1.0  0.52924  0.02845  0.07007  1.0000
  O  Te39      1.0  0.60865  0.06002  0.07068  1.0000
  O  Te40      1.0  0.62196  0.09740  0.50415  1.0000
  Mg  Mg19      1.0  0.65994  0.02227  0.94692  1.0000
  Mg  Mg20      1.0  0.58609  0.09229  0.62738  1.0000
  C  Sn41      1.0  0.90006  0.54487  0.30603  1.0000
  C   C77       1.0  0.89766  0.57847  0.27438  1.0000
  C  Sn42      1.0  0.92620  0.59285  0.21105  1.0000
  C  Sn43      1.0  0.95779  0.57325  0.17861  1.0000
  C   C78       1.0  0.96017  0.53967  0.21024  1.0000
  C  Sn44      1.0  0.93165  0.52526  0.27359  1.0000
  O  Te41      1.0  0.87120  0.53100  0.36934  1.0000
  O  Te42      1.0  0.92318  0.62650  0.18044  1.0000
  O  Te43      1.0  0.98666  0.58714  0.11526  1.0000
  O  Te44      1.0  0.93466  0.49164  0.30417  1.0000
  Mg  Mg21      1.0  0.96972  0.63403  0.09399  1.0000
  Mg  Mg22      1.0  0.88812  0.48408  0.39056  1.0000
  C  Sn45      1.0  0.09744  0.56051  0.40261  1.0000
  C   C79       1.0  0.11585  0.57006  0.30263  1.0000
  C  Sn46      1.0  0.09351  0.56520  0.17151  1.0000
  C  Sn47      1.0  0.05189  0.55050  0.13965  1.0000
  C   C80       1.0  0.03349  0.54097  0.23959  1.0000
  C  Sn48      1.0  0.05581  0.54581  0.37075  1.0000
  O  Te45      1.0  0.12035  0.56561  0.53301  1.0000
  O  Te46      1.0  0.11259  0.57494  0.07326  1.0000
  O  Te47      1.0  0.02898  0.54541  0.00912  1.0000
  O  Te48      1.0  0.03675  0.53608  0.46896  1.0000
  Mg  Mg23      1.0  0.16335  0.55154  0.91020  1.0000
  Mg  Mg24      1.0  0.08073  0.54818  0.63204  1.0000
  C  Sn49      1.0  0.57775  0.96326  0.19126  1.0000
  C   C81       1.0  0.54176  0.96037  0.24033  1.0000
  C  Sn50      1.0  0.54099  0.93608  0.33611  1.0000
  C  Sn51      1.0  0.57694  0.91424  0.38391  1.0000
  C   C82       1.0  0.61291  0.91714  0.33487  1.0000
  C  Sn52      1.0  0.61371  0.94142  0.23906  1.0000
  O  Te49      1.0  0.57783  0.98772  0.09554  1.0000
  O  Te50      1.0  0.50464  0.93366  0.38364  1.0000
  O  Te51      1.0  0.57684  0.88976  0.47971  1.0000
  O  Te52      1.0  0.65003  0.94384  0.19156  1.0000
  Mg  Mg25      1.0  0.51990  0.89632  0.51379  1.0000
  Mg  Mg26      1.0  0.63482  0.98119  0.06146  1.0000
  C  Sn53      1.0  0.44081  0.91057  0.17879  1.0000
  C   C83       1.0  0.40278  0.91304  0.21741  1.0000
  C  Sn54      1.0  0.38913  0.94327  0.24876  1.0000
  C  Sn55      1.0  0.41400  0.97162  0.24128  1.0000
  C   C84       1.0  0.45201  0.96914  0.20266  1.0000
  C  Sn56      1.0  0.46569  0.93893  0.17131  1.0000
  O  Te53      1.0  0.45384  0.88011  0.14790  1.0000
  O  Te54      1.0  0.35100  0.94512  0.28716  1.0000
  O  Te55      1.0  0.39926  0.00210  0.27222  1.0000
  O  Te56      1.0  0.50379  0.93707  0.13291  1.0000
  Mg  Mg27      1.0  0.34666  0.99213  0.31933  1.0000
  Mg  Mg28      1.0  0.50814  0.89007  0.10066  1.0000
  C  Sn57      1.0  0.03958  0.42005  0.29092  1.0000
  C   C85       1.0  0.04113  0.45410  0.29743  1.0000
  C  Sn58      1.0  0.07786  0.47106  0.28622  1.0000
  C  Sn59      1.0  0.11380  0.45364  0.26803  1.0000
  C   C86       1.0  0.11224  0.41961  0.26150  1.0000
  C  Sn60      1.0  0.07552  0.40262  0.27273  1.0000
  O  Te57      1.0  0.00252  0.40359  0.30237  1.0000
  O  Te58      1.0  0.07866  0.50510  0.29308  1.0000
  O  Te59      1.0  0.15088  0.47013  0.25658  1.0000
  O  Te60      1.0  0.07471  0.36861  0.26585  1.0000
  Mg  Mg29      1.0  0.13646  0.51654  0.27214  1.0000
  Mg  Mg30      1.0  0.01692  0.35715  0.28671  1.0000
  C  Sn61      1.0  0.91660  0.44084  0.34847  1.0000
  C   C87       1.0  0.88697  0.43036  0.23396  1.0000
  C  Sn62      1.0  0.89607  0.43426  0.11338  1.0000
  C  Sn63      1.0  0.93563  0.44892  0.10712  1.0000
  C   C88       1.0  0.96523  0.45938  0.22158  1.0000
  C  Sn64      1.0  0.95616  0.45549  0.34221  1.0000
  O  Te61      1.0  0.90683  0.43669  0.46795  1.0000
  O  Te62      1.0  0.86594  0.42360  0.00022  1.0000
  O  Te63      1.0  0.04016  0.44175  0.98751  1.0000
  O  Te64      1.0  0.98627  0.46613  0.45531  1.0000
  Mg  Mg31      1.0  0.98880  0.42328  0.86061  1.0000
  Mg  Mg32      1.0  0.95824  0.45514  0.59498  1.0000
  C  Sn65      1.0  0.28122  0.17007  0.30121  1.0000
  C   C89       1.0  0.27449  0.20181  0.24454  1.0000
  C  Sn66      1.0  0.28818  0.21022  0.13403  1.0000
  C  Sn67      1.0  0.30901  0.18641  0.07895  1.0000
  C   C90       1.0  0.31571  0.15469  0.13560  1.0000
  C  Sn68      1.0  0.30204  0.14626  0.24614  1.0000
  O  Te65      1.0  0.26726  0.16221  0.41166  1.0000
  O  Te66      1.0  0.28111  0.24211  0.07913  1.0000
  O  Te67      1.0  0.41775  0.18299  0.96842  1.0000
  O  Te68      1.0  0.30909  0.11439  0.30101  1.0000
  Mg  Mg33      1.0  0.40076  0.22966  0.92900  1.0000
  Mg  Mg34      1.0  0.28423  0.11550  0.45110  1.0000
  C  Sn69      1.0  0.71835  0.17295  0.20606  1.0000
  C   C91       1.0  0.72560  0.20382  0.25908  1.0000
  C  Sn70      1.0  0.71222  0.21085  0.36906  1.0000
  C  Sn71      1.0  0.69118  0.18651  0.42731  1.0000
  C   C92       1.0  0.68395  0.15567  0.37431  1.0000
  C  Sn72      1.0  0.69731  0.14861  0.26432  1.0000
  O  Te69      1.0  0.73201  0.16646  0.09608  1.0000
  O  Te70      1.0  0.71982  0.24189  0.42028  1.0000
  O  Te71      1.0  0.67753  0.19303  0.53737  1.0000
  O  Te72      1.0  0.68973  0.11759  0.21312  1.0000
  Mg  Mg35      1.0  0.69521  0.23895  0.57122  1.0000
  Mg  Mg36      1.0  0.71435  0.12050  0.06222  1.0000
  C  Sn73      1.0  0.77799  0.65064  0.24749  1.0000
  C   C93       1.0  0.80496  0.65150  0.16476  1.0000
  C  Sn74      1.0  0.81505  0.68132  0.11191  1.0000
  C  Sn75      1.0  0.79786  0.71091  0.14244  1.0000
  C   C94       1.0  0.77092  0.71004  0.22515  1.0000
  C  Sn76      1.0  0.76080  0.68023  0.27803  1.0000
  O  Te73      1.0  0.76834  0.62055  0.29923  1.0000
  O  Te74      1.0  0.84207  0.68156  0.02940  1.0000
  O  Te75      1.0  0.80754  0.74101  0.09063  1.0000
  O  Te76      1.0  0.73381  0.67998  0.36051  1.0000
  Mg  Mg37      1.0  0.94060  0.71737  0.98317  1.0000
  Mg  Mg38      1.0  0.73005  0.63288  0.40684  1.0000
  C  Sn77      1.0  0.22689  0.64800  0.28045  1.0000
  C   C95       1.0  0.19550  0.64849  0.34852  1.0000
  C  Sn78      1.0  0.18187  0.67812  0.38512  1.0000
  C  Sn79      1.0  0.19998  0.70790  0.35296  1.0000
  C   C96       1.0  0.23135  0.70740  0.28492  1.0000
  C  Sn80      1.0  0.24500  0.67778  0.24829  1.0000
  O  Te77      1.0  0.24003  0.61810  0.24483  1.0000
  O  Te78      1.0  0.15045  0.67799  0.45316  1.0000
  O  Te79      1.0  0.18681  0.73782  0.38865  1.0000
  O  Te80      1.0  0.27640  0.67791  0.18028  1.0000
  Mg  Mg39      1.0  0.14310  0.72497  0.48022  1.0000
  Mg  Mg40      1.0  0.28376  0.63094  0.15311  1.0000
  C  Sn81      1.0  0.69835  0.84075  0.21656  1.0000
  C   C97       1.0  0.67470  0.84055  0.30851  1.0000
  C  Sn82      1.0  0.68249  0.81631  0.40938  1.0000
  C  Sn83      1.0  0.71461  0.79177  0.41862  1.0000
  C   C98       1.0  0.73824  0.79199  0.32673  1.0000
  C  Sn84      1.0  0.73047  0.81621  0.22580  1.0000
  O  Te81      1.0  0.69002  0.86522  0.11654  1.0000
  O  Te82      1.0  0.65842  0.81661  0.50012  1.0000
  O  Te83      1.0  0.72292  0.76729  0.51875  1.0000
  O  Te84      1.0  0.75453  0.81593  0.13512  1.0000
  Mg  Mg41      1.0  0.68167  0.77810  0.61875  1.0000
  Mg  Mg42      1.0  0.73131  0.85442  0.01649  1.0000
  C  Sn85      1.0  0.26660  0.83172  0.23464  1.0000
  C   C99       1.0  0.26146  0.80064  0.18306  1.0000
  C  Sn86      1.0  0.29031  0.78919  0.11781  1.0000
  C  Sn87      1.0  0.32505  0.80921  0.10390  1.0000
  C   C100      1.0  0.33019  0.84026  0.15549  1.0000
  C  Sn88      1.0  0.30134  0.85174  0.22073  1.0000
  O  Te85      1.0  0.23737  0.84267  0.29950  1.0000
  O  Te86      1.0  0.28450  0.75804  0.06703  1.0000
  O  Te87      1.0  0.35429  0.79824  0.03898  1.0000
  O  Te88      1.0  0.30715  0.88286  0.27152  1.0000
  Mg  Mg43      1.0  0.42762  0.74272  0.98680  1.0000
  Mg  Mg44      1.0  0.25885  0.88690  0.35181  1.0000
  C  Sn89      1.0  0.23360  0.33226  0.25043  1.0000
  C   C101      1.0  0.24029  0.30071  0.30897  1.0000
  C  Sn90      1.0  0.21225  0.28810  0.37787  1.0000
  C  Sn91      1.0  0.17677  0.30742  0.38842  1.0000
  C   C102      1.0  0.17009  0.33895  0.32988  1.0000
  C  Sn92      1.0  0.19812  0.35158  0.26097  1.0000
  O  Te89      1.0  0.26204  0.34436  0.18202  1.0000
  O  Te90      1.0  0.21961  0.25650  0.43560  1.0000
  O  Te91      1.0  0.14833  0.29529  0.45690  1.0000
  O  Te92      1.0  0.19077  0.38316  0.20325  1.0000
  Mg  Mg45      1.0  0.17187  0.25086  0.51847  1.0000
  Mg  Mg46      1.0  0.23848  0.38882  0.12030  1.0000
  C  Sn93      1.0  0.76162  0.33510  0.21091  1.0000
  C   C103      1.0  0.75879  0.30342  0.16526  1.0000
  C  Sn94      1.0  0.79089  0.29130  0.11367  1.0000
  C  Sn95      1.0  0.82658  0.31126  0.10765  1.0000
  C   C104      1.0  0.82939  0.34291  0.15331  1.0000
  C  Sn96      1.0  0.79730  0.35505  0.20490  1.0000
  O  Te93      1.0  0.72916  0.34670  0.26210  1.0000
  O  Te94      1.0  0.78735  0.25955  0.06859  1.0000
  O  Te95      1.0  0.85905  0.29962  0.05640  1.0000
  O  Te96      1.0  0.80083  0.38678  0.24998  1.0000
  Mg  Mg47      1.0  0.83979  0.25475  0.00740  1.0000
  Mg  Mg48      1.0  0.74843  0.39160  0.31124  1.0000
  C  Sn97      1.0  0.14885  0.24431  0.65874  1.0000
  C   C105      1.0  0.18814  0.23637  0.75345  1.0000
  C  Sn98      1.0  0.18956  0.21236  0.85216  1.0000
  C  Sn99      1.0  0.15092  0.19594  0.85625  1.0000
  C   C106      1.0  0.11166  0.20388  0.76157  1.0000
  C  Sn100     1.0  0.11020  0.22789  0.66283  1.0000
  O  Te97      1.0  0.14818  0.26839  0.56095  1.0000
  O  Te98      1.0  0.22922  0.20485  0.94580  1.0000
  O  Te99      1.0  0.15161  0.17184  0.95415  1.0000
  O  Te100     1.0  0.07057  0.23539  0.56923  1.0000
  Mg  Mg49      1.0  0.11873  0.18154  0.05960  1.0000
  Mg  Mg50      1.0  0.08625  0.26999  0.45534  1.0000
  C  Sn101     1.0  0.87506  0.22196  0.88358  1.0000
  C   C107      1.0  0.88959  0.20548  0.79135  1.0000
  C  Sn102     1.0  0.86199  0.20173  0.66500  1.0000
  C  Sn103     1.0  0.81898  0.21474  0.63006  1.0000
  C   C108      1.0  0.80447  0.23121  0.72225  1.0000
  C  Sn104     1.0  0.83205  0.23497  0.84864  1.0000
  O  Te101     1.0  0.80843  0.23674  0.00932  1.0000
  O  Te102     1.0  0.87725  0.18515  0.57451  1.0000
  O  Te103     1.0  0.79083  0.21125  0.50420  1.0000
  O  Te104     1.0  0.81682  0.25154  0.93909  1.0000
  Mg  Mg51      1.0  0.82664  0.18673  0.41545  1.0000
  Mg  Mg52      1.0  0.77262  0.26129  0.09814  1.0000
  C  Sn105     1.0  0.65606  0.70801  0.89249  1.0000
  C   C109      1.0  0.61672  0.71444  0.79576  1.0000
  C  Sn106     1.0  0.61646  0.72349  0.66740  1.0000
  C  Sn107     1.0  0.65635  0.72616  0.63499  1.0000
  C   C110      1.0  0.69567  0.71973  0.73167  1.0000
  C  Sn108     1.0  0.69596  0.71068  0.86008  1.0000
  O  Te105     1.0  0.56077  0.71030  0.02017  1.0000
  O  Te106     1.0  0.57671  0.72981  0.57240  1.0000
  O  Te107     1.0  0.65684  0.73518  0.50718  1.0000
  O  Te108     1.0  0.73567  0.70436  0.95504  1.0000
  Mg  Mg53      1.0  0.59431  0.74126  0.41219  1.0000
  Mg  Mg54      1.0  0.62333  0.70419  0.11525  1.0000
  C  Sn109     1.0  0.32143  0.69510  0.66312  1.0000
  C   C111      1.0  0.30804  0.71326  0.75324  1.0000
  C  Sn110     1.0  0.33812  0.73145  0.84446  1.0000
  C  Sn111     1.0  0.38250  0.73151  0.84558  1.0000
  C   C112      1.0  0.39587  0.71337  0.75548  1.0000
  C  Sn112     1.0  0.36582  0.69516  0.66424  1.0000
  O  Te109     1.0  0.29080  0.67709  0.57280  1.0000
  O  Te110     1.0  0.32395  0.74941  0.93362  1.0000
  O  Te111     1.0  0.41313  0.74954  0.93601  1.0000
  O  Te112     1.0  0.37996  0.67722  0.57511  1.0000
  Mg  Mg55      1.0  0.28321  0.78139  0.03759  1.0000
  Mg  Mg56      1.0  0.32595  0.65654  0.47105  1.0000
  C  Sn113     1.0  0.83880  0.80757  0.66271  1.0000
  C   C113      1.0  0.87779  0.79846  0.75662  1.0000
  C  Sn114     1.0  0.87845  0.77351  0.85115  1.0000
  C  Sn115     1.0  0.83933  0.75731  0.85180  1.0000
  C   C114      1.0  0.80037  0.76642  0.75793  1.0000
  C  Sn116     1.0  0.79968  0.79138  0.66336  1.0000
  O  Te113     1.0  0.83890  0.83258  0.56912  1.0000
  O  Te114     1.0  0.91783  0.76484  0.94406  1.0000
  O  Te115     1.0  0.83926  0.73229  0.94550  1.0000
  O  Te116     1.0  0.76033  0.80005  0.57049  1.0000
  Mg  Mg57      1.0  0.80625  0.74056  0.05158  1.0000
  Mg  Mg58      1.0  0.77710  0.83561  0.46288  1.0000
  C  Sn117     1.0  0.18617  0.78635  0.86670  1.0000
  C   C115      1.0  0.20002  0.77040  0.77191  1.0000
  C  Sn118     1.0  0.17140  0.76633  0.64728  1.0000
  C  Sn119     1.0  0.12803  0.77846  0.61672  1.0000
  C   C116      1.0  0.11419  0.79440  0.71146  1.0000
  C  Sn120     1.0  0.14280  0.79848  0.83613  1.0000
  O  Te117     1.0  0.21534  0.79015  0.99065  1.0000
  O  Te118     1.0  0.18599  0.75029  0.55416  1.0000
  O  Te119     1.0  0.09885  0.77464  0.49265  1.0000
  O  Te120     1.0  0.12822  0.81451  0.92921  1.0000
  Mg  Mg59      1.0  0.13406  0.75112  0.39902  1.0000
  Mg  Mg60      1.0  0.08534  0.82501  0.08435  1.0000
  C  Sn121     1.0  0.31834  0.28582  0.62509  1.0000
  C   C117      1.0  0.30432  0.27014  0.72494  1.0000
  C  Sn122     1.0  0.33270  0.26578  0.85148  1.0000
  C  Sn123     1.0  0.37599  0.27735  0.87884  1.0000
  C   C118      1.0  0.38999  0.29302  0.77904  1.0000
  C  Sn124     1.0  0.36163  0.29739  0.65245  1.0000
  O  Te121     1.0  0.28941  0.28992  0.49931  1.0000
  O  Te122     1.0  0.31794  0.25002  0.94967  1.0000
  O  Te123     1.0  0.31014  0.28454  0.00475  1.0000
  O  Te124     1.0  0.37637  0.31314  0.55431  1.0000
  Mg  Mg61      1.0  0.27477  0.26158  0.10554  1.0000
  Mg  Mg62      1.0  0.32478  0.31292  0.39843  1.0000
  C  Sn125     1.0  0.62826  0.26021  0.64262  1.0000
  C   C119      1.0  0.61460  0.27839  0.73218  1.0000
  C  Sn126     1.0  0.64431  0.29720  0.82184  1.0000
  C  Sn127     1.0  0.68859  0.29787  0.82193  1.0000
  C   C120      1.0  0.70223  0.27970  0.73240  1.0000
  C  Sn128     1.0  0.67254  0.26088  0.64271  1.0000
  O  Te125     1.0  0.59800  0.24159  0.55386  1.0000
  O  Te126     1.0  0.62989  0.31516  0.91046  1.0000
  O  Te127     1.0  0.71886  0.31651  0.91079  1.0000
  O  Te128     1.0  0.68694  0.24293  0.55412  1.0000
  Mg  Mg63      1.0  0.58868  0.34811  0.01220  1.0000
  Mg  Mg64      1.0  0.63340  0.22129  0.45229  1.0000
  C  Sn129     1.0  0.42505  0.08491  0.61899  1.0000
  C   C121      1.0  0.39057  0.08177  0.67465  1.0000
  C  Sn130     1.0  0.39178  0.05751  0.77227  1.0000
  C  Sn131     1.0  0.42822  0.03595  0.81521  1.0000
  C   C122      1.0  0.46268  0.03910  0.75958  1.0000
  C  Sn132     1.0  0.46149  0.06335  0.66193  1.0000
  O  Te129     1.0  0.42315  0.10934  0.52154  1.0000
  O  Te130     1.0  0.35692  0.05483  0.82641  1.0000
  O  Te131     1.0  0.43010  0.01150  0.91273  1.0000
  O  Te132     1.0  0.49633  0.06603  0.60782  1.0000
  Mg  Mg65      1.0  0.37464  0.01765  0.95647  1.0000
  Mg  Mg66      1.0  0.47865  0.10322  0.47781  1.0000
  C  Sn133     1.0  0.59257  0.03063  0.76661  1.0000
  C   C123      1.0  0.55480  0.03434  0.80571  1.0000
  C  Sn134     1.0  0.54235  0.06513  0.83527  1.0000
  C  Sn135     1.0  0.56817  0.09279  0.82548  1.0000
  C   C124      1.0  0.60591  0.08908  0.78639  1.0000
  C  Sn136     1.0  0.61839  0.05830  0.75682  1.0000
  O  Te133     1.0  0.60439  0.99963  0.73753  1.0000
  O  Te134     1.0  0.50446  0.06823  0.87419  1.0000
  O  Te135     1.0  0.55631  0.12381  0.85461  1.0000
  O  Te136     1.0  0.65625  0.05519  0.71790  1.0000
  Mg  Mg67      1.0  0.50191  0.11557  0.90330  1.0000
  Mg  Mg68      1.0  0.65882  0.00787  0.68871  1.0000
  C  Sn137     1.0  0.89750  0.56035  0.60482  1.0000
  C   C125      1.0  0.88399  0.57226  0.70820  1.0000
  C  Sn138     1.0  0.91120  0.56933  0.83681  1.0000
  C  Sn139     1.0  0.95279  0.55420  0.86265  1.0000
  C   C126      1.0  0.96629  0.54232  0.75932  1.0000
  C  Sn140     1.0  0.93910  0.54523  0.63066  1.0000
  O  Te137     1.0  0.86977  0.56355  0.47701  1.0000
  O  Te138     1.0  0.89697  0.58140  0.93855  1.0000
  O  Te139     1.0  0.98053  0.55102  0.99060  1.0000
  O  Te140     1.0  0.95331  0.53317  0.52897  1.0000
  Mg  Mg69      1.0  0.85172  0.58261  0.09607  1.0000
  Mg  Mg70      1.0  0.90381  0.54327  0.37141  1.0000
  C  Sn141     1.0  0.03624  0.58089  0.72423  1.0000
  C   C127      1.0  0.03793  0.54673  0.73748  1.0000
  C  Sn142     1.0  0.07760  0.53040  0.79357  1.0000
  C  Sn143     1.0  0.11639  0.54859  0.83741  1.0000
  C   C128      1.0  0.11468  0.58272  0.82418  1.0000
  C  Sn144     1.0  0.07502  0.59907  0.76808  1.0000
  O  Te141     1.0  0.99622  0.59670  0.66787  1.0000
  O  Te142     1.0  0.07847  0.49624  0.80573  1.0000
  O  Te143     1.0  0.15642  0.53274  0.89380  1.0000
  O  Te144     1.0  0.07414  0.63321  0.75593  1.0000
  Mg  Mg71      1.0  0.14088  0.48587  0.88909  1.0000
  Mg  Mg72      1.0  0.01175  0.64361  0.67265  1.0000
  C  Sn145     1.0  0.58078  0.92384  0.90421  1.0000
  C   C129      1.0  0.59821  0.91337  0.80624  1.0000
  C  Sn146     1.0  0.58960  0.93091  0.68577  1.0000
  C  Sn147     1.0  0.56303  0.95951  0.66275  1.0000
  C   C130      1.0  0.54562  0.96996  0.76068  1.0000
  C  Sn148     1.0  0.55421  0.95244  0.88119  1.0000
  O  Te145     1.0  0.49504  0.91723  0.02391  1.0000
  O  Te146     1.0  0.60738  0.91996  0.58931  1.0000
  O  Te147     1.0  0.55400  0.97742  0.54292  1.0000
  O  Te148     1.0  0.53646  0.96338  0.97761  1.0000
  Mg  Mg73      1.0  0.58570  0.95270  0.44231  1.0000
  Mg  Mg74      1.0  0.46335  0.94198  0.12467  1.0000
  C  Sn149     1.0  0.41254  0.94479  0.82705  1.0000
  C   C131      1.0  0.38928  0.92961  0.71339  1.0000
  C  Sn150     1.0  0.40548  0.92921  0.60469  1.0000
  C  Sn151     1.0  0.44580  0.94429  0.60973  1.0000
  C   C132      1.0  0.46903  0.95946  0.72334  1.0000
  C  Sn152     1.0  0.45285  0.95987  0.83208  1.0000
  O  Te149     1.0  0.39571  0.94489  0.93455  1.0000
  O  Te150     1.0  0.38164  0.91390  0.49214  1.0000
  O  Te151     1.0  0.46260  0.94418  0.50210  1.0000
  O  Te152     1.0  0.47667  0.97517  0.94459  1.0000
  Mg  Mg75      1.0  0.41812  0.92020  0.37108  1.0000
  Mg  Mg76      1.0  0.34545  0.98017  0.06572  1.0000
  C  Sn153     1.0  0.05355  0.45099  0.62603  1.0000
  C   C133      1.0  0.03622  0.45885  0.72762  1.0000
  C  Sn154     1.0  0.05925  0.45114  0.85823  1.0000
  C  Sn155     1.0  0.10047  0.43526  0.88793  1.0000
  C   C134      1.0  0.11779  0.42741  0.78639  1.0000
  C  Sn156     1.0  0.09478  0.43511  0.65574  1.0000
  O  Te153     1.0  0.02996  0.45894  0.49617  1.0000
  O  Te154     1.0  0.04124  0.45924  0.95810  1.0000
  O  Te155     1.0  0.02928  0.43863  0.01792  1.0000
  O  Te156     1.0  0.11276  0.42703  0.55590  1.0000
  Mg  Mg77      1.0  0.99109  0.45468  0.11963  1.0000
  Mg  Mg78      1.0  0.06817  0.44290  0.39435  1.0000
  C  Sn157     1.0  0.94557  0.40928  0.73023  1.0000
  C   C135      1.0  0.90292  0.41476  0.73419  1.0000
  C  Sn158     1.0  0.88593  0.44656  0.72158  1.0000
  C  Sn159     1.0  0.91211  0.47345  0.70458  1.0000
  C   C136      1.0  0.95473  0.46796  0.70061  1.0000
  C  Sn160     1.0  0.97175  0.43616  0.71323  1.0000
  O  Te157     1.0  0.96189  0.37728  0.74304  1.0000
  O  Te158     1.0  0.84320  0.45143  0.72588  1.0000
  O  Te159     1.0  0.89576  0.50547  0.69178  1.0000
  O  Te160     1.0  0.01445  0.43129  0.70891  1.0000
  Mg  Mg79      1.0  0.83566  0.49958  0.70390  1.0000
  Mg  Mg80      1.0  0.02201  0.38315  0.73082  1.0000
  C  Sn161     1.0  0.31892  0.19667  0.62042  1.0000
  C   C137      1.0  0.32533  0.16488  0.67666  1.0000
  C  Sn162     1.0  0.29805  0.15240  0.74838  1.0000
  C  Sn163     1.0  0.26364  0.17208  0.76415  1.0000
  C   C138      1.0  0.25724  0.20385  0.70791  1.0000
  C  Sn164     1.0  0.28451  0.21636  0.63618  1.0000
  O  Te161     1.0  0.34658  0.20864  0.54911  1.0000
  O  Te162     1.0  0.30511  0.12055  0.80373  1.0000
  O  Te163     1.0  0.23597  0.16008  0.83552  1.0000
  O  Te164     1.0  0.27746  0.24818  0.58084  1.0000
  Mg  Mg81      1.0  0.25871  0.11521  0.89213  1.0000
  Mg  Mg82      1.0  0.32382  0.25354  0.49236  1.0000
  C  Sn165     1.0  0.71810  0.17371  0.69678  1.0000
  C   C139      1.0  0.72689  0.20394  0.75458  1.0000
  C  Sn166     1.0  0.71709  0.20949  0.87172  1.0000
  C  Sn167     1.0  0.69813  0.18430  0.93240  1.0000
  C   C140      1.0  0.68935  0.15409  0.87462  1.0000
  C  Sn168     1.0  0.69913  0.14852  0.75746  1.0000
  O  Te165     1.0  0.72817  0.16871  0.57966  1.0000
  O  Te166     1.0  0.72617  0.23992  0.92762  1.0000
  O  Te167     1.0  0.59328  0.20064  0.04961  1.0000
  O  Te168     1.0  0.69007  0.11811  0.70158  1.0000
  Mg  Mg83      1.0  0.61178  0.24622  0.08778  1.0000
  Mg  Mg84      1.0  0.70969  0.12309  0.54147  1.0000
  C  Sn169     1.0  0.77519  0.65036  0.73242  1.0000
  C   C141      1.0  0.80427  0.65171  0.65631  1.0000
  C  Sn170     1.0  0.81680  0.68185  0.61270  1.0000
  C  Sn171     1.0  0.79993  0.71126  0.64592  1.0000
  C   C142      1.0  0.77088  0.70990  0.72201  1.0000
  C  Sn172     1.0  0.75832  0.67977  0.76565  1.0000
  O  Te169     1.0  0.76311  0.61995  0.77495  1.0000
  O  Te170     1.0  0.84591  0.68259  0.53668  1.0000
  O  Te171     1.0  0.81203  0.74168  0.60331  1.0000
  O  Te172     1.0  0.72924  0.67903  0.84163  1.0000
  Mg  Mg85      1.0  0.85257  0.72998  0.50215  1.0000
  Mg  Mg86      1.0  0.72257  0.63165  0.87628  1.0000
  C  Sn173     1.0  0.18044  0.69695  0.87979  1.0000
  C   C143      1.0  0.17263  0.66620  0.82596  1.0000
  C  Sn174     1.0  0.20031  0.65346  0.75940  1.0000
  C  Sn175     1.0  0.23656  0.67182  0.74643  1.0000
  C   C144      1.0  0.24436  0.70254  0.80026  1.0000
  C  Sn176     1.0  0.21669  0.71531  0.86682  1.0000
  O  Te173     1.0  0.15234  0.70922  0.94593  1.0000
  O  Te174     1.0  0.19183  0.62266  0.70638  1.0000
  O  Te175     1.0  0.26467  0.65953  0.68022  1.0000
  O  Te176     1.0  0.22516  0.74608  0.91984  1.0000
  Mg  Mg87      1.0  0.23951  0.61643  0.62508  1.0000
  Mg  Mg88      1.0  0.08273  0.76364  0.00121  1.0000
  C  Sn177     1.0  0.68703  0.78813  0.86376  1.0000
  C   C145      1.0  0.71579  0.78963  0.78661  1.0000
  C  Sn178     1.0  0.72922  0.81986  0.74662  1.0000
  C  Sn179     1.0  0.71361  0.84918  0.78459  1.0000
  C   C146      1.0  0.68487  0.84767  0.86170  1.0000
  C  Sn180     1.0  0.67141  0.81745  0.90173  1.0000
  O  Te177     1.0  0.67403  0.75764  0.90262  1.0000
  O  Te178     1.0  0.75798  0.82074  0.66948  1.0000
  O  Te179     1.0  0.72663  0.87968  0.74565  1.0000
  O  Te180     1.0  0.64268  0.81656  0.97884  1.0000
  Mg  Mg89      1.0  0.76624  0.86819  0.64118  1.0000
  Mg  Mg90      1.0  0.53964  0.78043  0.00725  1.0000
  C  Sn181     1.0  0.31542  0.78989  0.63115  1.0000
  C   C147      1.0  0.28654  0.79054  0.70773  1.0000
  C  Sn182     1.0  0.27361  0.82032  0.74520  1.0000
  C  Sn183     1.0  0.28988  0.85006  0.70522  1.0000
  C   C148      1.0  0.31875  0.84939  0.62867  1.0000
  C  Sn184     1.0  0.33169  0.81963  0.59117  1.0000
  O  Te181     1.0  0.32790  0.75984  0.59483  1.0000
  O  Te182     1.0  0.24471  0.82035  0.82182  1.0000
  O  Te183     1.0  0.27738  0.88011  0.74162  1.0000
  O  Te184     1.0  0.36057  0.81958  0.51458  1.0000
  Mg  Mg91      1.0  0.23734  0.86748  0.84636  1.0000
  Mg  Mg92      1.0  0.36795  0.77247  0.48993  1.0000
  C  Sn185     1.0  0.20453  0.34504  0.70696  1.0000
  C   C149      1.0  0.17508  0.34518  0.78182  1.0000
  C  Sn186     1.0  0.17667  0.32043  0.87788  1.0000
  C  Sn187     1.0  0.20836  0.29502  0.89964  1.0000
  C   C150      1.0  0.23778  0.29489  0.82482  1.0000
  C  Sn188     1.0  0.23622  0.31963  0.72872  1.0000
  O  Te185     1.0  0.20235  0.37002  0.61146  1.0000
  O  Te186     1.0  0.14687  0.32109  0.95146  1.0000
  O  Te187     1.0  0.21051  0.27002  0.99523  1.0000
  O  Te188     1.0  0.26599  0.31898  0.65518  1.0000
  Mg  Mg93      1.0  0.06812  0.29292  0.07025  1.0000
  Mg  Mg94      1.0  0.25001  0.35845  0.53642  1.0000
  C  Sn189     1.0  0.80460  0.31286  0.54620  1.0000
  C   C151      1.0  0.81071  0.34363  0.60035  1.0000
  C  Sn190     1.0  0.79843  0.34949  0.71329  1.0000
  C  Sn191     1.0  0.77967  0.32406  0.77342  1.0000
  C   C152      1.0  0.77357  0.29331  0.71929  1.0000
  C  Sn192     1.0  0.78584  0.28743  0.60632  1.0000
  O  Te189     1.0  0.81712  0.30755  0.43324  1.0000
  O  Te190     1.0  0.80484  0.38046  0.76559  1.0000
  O  Te191     1.0  0.76714  0.32940  0.88646  1.0000
  O  Te192     1.0  0.77944  0.25648  0.55404  1.0000
  Mg  Mg95      1.0  0.78251  0.37570  0.92075  1.0000
  Mg  Mg96      1.0  0.80178  0.26121  0.39894  1.0000
