data_image0
_chemical_formula_structural       C64N16C96O16H112C6Sn2C2HTe2HMgC2Sn2C2HTe2HMgC2Sn2C2HTe2HMgC2Sn2C2HTe2HMgC2Sn2C2HTe2HMgC2Sn2C2HTe2HMgC2Sn2C2HTe2HMgC2Sn2C2HTe2HMg
_chemical_formula_sum              "C196 N16 O16 H128 Sn16 Te16 Mg8"
_cell_length_a       29.1144
_cell_length_b       29.0939
_cell_length_c       7.57421
_cell_angle_alpha    89.6819
_cell_angle_beta     90.2708
_cell_angle_gamma    91.5953

_symmetry_space_group_name_H-M    'P1'
_space_group_IT_number       1

loop_
  _space_group_symop_operation_xyz
  'x, y, z'

loop_
  _atom_site_type_symbol
  _atom_site_label
  _atom_site_symmetry_multiplicity
  _atom_site_fract_x
  _atom_site_fract_y
  _atom_site_fract_z
  _atom_site_occupancy
  C   C1        1.0  0.01356  0.96909  0.11853  1.0000
  C   C2        1.0  0.03545  0.02286  0.85730  1.0000
  C   C3        1.0  0.46237  0.00952  0.87574  1.0000
  C   C4        1.0  0.51720  0.46016  0.62880  1.0000
  C   C5        1.0  0.54234  0.51375  0.37459  1.0000
  C   C6        1.0  0.00700  0.54375  0.12411  1.0000
  C   C7        1.0  0.95841  0.50907  0.37431  1.0000
  C   C8        1.0  0.03844  0.49280  0.37579  1.0000
  C   C9        1.0  0.05542  0.97453  0.21173  1.0000
  C   C10       1.0  0.03061  0.06369  0.75827  1.0000
  C   C11       1.0  0.46980  0.04890  0.98158  1.0000
  C   C12       1.0  0.55966  0.46353  0.71920  1.0000
  C   C13       1.0  0.54193  0.55682  0.28895  1.0000
  C   C14       1.0  0.04998  0.55138  0.04277  1.0000
  C   C15       1.0  0.95509  0.55138  0.46244  1.0000
  C   C16       1.0  0.04315  0.44869  0.45044  1.0000
  C   C17       1.0  0.06890  0.94224  0.33693  1.0000
  C   C18       1.0  0.06253  0.07687  0.62972  1.0000
  C   C19       1.0  0.43909  0.05996  0.11409  1.0000
  C   C20       1.0  0.56976  0.43365  0.85669  1.0000
  C   C21       1.0  0.57604  0.56983  0.16913  1.0000
  C   C22       1.0  0.05590  0.58460  0.91205  1.0000
  C   C23       1.0  0.92288  0.55704  0.59369  1.0000
  C   C24       1.0  0.07467  0.44093  0.58422  1.0000
  C   C25       1.0  0.04055  0.90342  0.37597  1.0000
  C   C26       1.0  0.10054  0.04932  0.59439  1.0000
  C   C27       1.0  0.39999  0.03160  0.14786  1.0000
  C   C28       1.0  0.53728  0.39975  0.91121  1.0000
  C   C29       1.0  0.61167  0.53983  0.12894  1.0000
  C   C30       1.0  0.01871  0.61105  0.85548  1.0000
  C   C31       1.0  0.89314  0.52031  0.64389  1.0000
  C   C32       1.0  0.10184  0.47739  0.65365  1.0000
  C   C33       1.0  0.99856  0.89858  0.28465  1.0000
  C   C34       1.0  0.10490  0.00850  0.69240  1.0000
  C   C35       1.0  0.39261  0.99272  0.04098  1.0000
  C   C36       1.0  0.49564  0.39565  0.81749  1.0000
  C   C37       1.0  0.61190  0.49682  0.21391  1.0000
  C   C38       1.0  0.97635  0.60475  0.94152  1.0000
  C   C39       1.0  0.89542  0.47861  0.55226  1.0000
  C   C40       1.0  0.09814  0.52111  0.57551  1.0000
  C   C41       1.0  0.98508  0.93101  0.15996  1.0000
  C   C42       1.0  0.07265  0.99521  0.81931  1.0000
  C   C43       1.0  0.42342  0.98165  0.90882  1.0000
  C   C44       1.0  0.48568  0.42543  0.67920  1.0000
  C   C45       1.0  0.57747  0.48381  0.33267  1.0000
  C   C46       1.0  0.97057  0.57144  0.07270  1.0000
  C   C47       1.0  0.92797  0.47299  0.42058  1.0000
  C   C48       1.0  0.06695  0.52868  0.43906  1.0000
  C   C49       1.0  0.94500  0.14506  0.49761  1.0000
  C   C50       1.0  0.05086  0.86953  0.51318  1.0000
  C   C51       1.0  0.13446  0.05909  0.45644  1.0000
  C   C52       1.0  0.86780  0.96091  0.42993  1.0000
  C   C53       1.0  0.55295  0.13919  0.24155  1.0000
  C   C54       1.0  0.44167  0.85912  0.21566  1.0000
  C   C55       1.0  0.36888  0.03774  0.29572  1.0000
  C   C56       1.0  0.63788  0.94048  0.25914  1.0000
  C   C57       1.0  0.46418  0.62733  0.06031  1.0000
  C   C58       1.0  0.54281  0.37131  0.06752  1.0000
  C   C59       1.0  0.64634  0.55022  0.99474  1.0000
  C   C60       1.0  0.35880  0.44944  0.99096  1.0000
  C   C61       1.0  0.02185  0.64114  0.70151  1.0000
  C   C62       1.0  0.97440  0.36905  0.68456  1.0000
  C   C63       1.0  0.86293  0.52390  0.79476  1.0000
  C   C64       1.0  0.13038  0.47199  0.81013  1.0000
  N   N1        1.0  0.91143  0.14080  0.60857  1.0000
  N   N2        1.0  0.08517  0.87238  0.62214  1.0000
  N   N3        1.0  0.13296  0.09250  0.34323  1.0000
  N   N4        1.0  0.86843  0.92557  0.32661  1.0000
  N   N5        1.0  0.58509  0.13637  0.12550  1.0000
  N   N6        1.0  0.40830  0.86242  0.10305  1.0000
  N   N7        1.0  0.37244  0.07050  0.41083  1.0000
  N   N8        1.0  0.63358  0.90664  0.36954  1.0000
  N   N9        1.0  0.42762  0.62745  0.15715  1.0000
  N   N10       1.0  0.57925  0.37125  0.16650  1.0000
  N   N11       1.0  0.64496  0.58500  0.88805  1.0000
  N   N12       1.0  0.35983  0.41573  0.88075  1.0000
  N   N13       1.0  0.05888  0.64563  0.60828  1.0000
  N   N14       1.0  0.93711  0.36443  0.59188  1.0000
  N   N15       1.0  0.86314  0.56036  0.89215  1.0000
  N   N16       1.0  0.13377  0.43346  0.89538  1.0000
  C   C65       1.0  0.90907  0.17577  0.73600  1.0000
  C   C66       1.0  0.08700  0.83729  0.75152  1.0000
  C   C67       1.0  0.16908  0.09485  0.21972  1.0000
  C   C68       1.0  0.83746  0.92333  0.18422  1.0000
  C   C69       1.0  0.58919  0.17246  0.00175  1.0000
  C   C70       1.0  0.40454  0.82668  0.97838  1.0000
  C   C71       1.0  0.33994  0.07239  0.54729  1.0000
  C   C72       1.0  0.66903  0.90306  0.49552  1.0000
  C   C73       1.0  0.42585  0.65856  0.29769  1.0000
  C   C74       1.0  0.57991  0.34071  0.31053  1.0000
  C   C75       1.0  0.67960  0.58763  0.75876  1.0000
  C   C76       1.0  0.32428  0.41305  0.75369  1.0000
  C   C77       1.0  0.06064  0.67520  0.46200  1.0000
  C   C78       1.0  0.93544  0.33580  0.44397  1.0000
  C   C79       1.0  0.83445  0.56353  0.03889  1.0000
  C   C80       1.0  0.16272  0.43127  0.04344  1.0000
  C   C81       1.0  0.91456  0.22276  0.69475  1.0000
  C   C82       1.0  0.08452  0.79017  0.71242  1.0000
  C   C83       1.0  0.21563  0.09376  0.26824  1.0000
  C   C84       1.0  0.79540  0.94598  0.18031  1.0000
  C   C85       1.0  0.59403  0.21902  0.04717  1.0000
  C   C86       1.0  0.40617  0.77997  0.02567  1.0000
  C   C87       1.0  0.29582  0.05123  0.54190  1.0000
  C   C88       1.0  0.71564  0.90133  0.45133  1.0000
  C   C89       1.0  0.45011  0.70109  0.30265  1.0000
  C   C90       1.0  0.55382  0.29926  0.31716  1.0000
  C   C91       1.0  0.72664  0.58416  0.79694  1.0000
  C   C92       1.0  0.27733  0.41262  0.79491  1.0000
  C   C93       1.0  0.03448  0.71491  0.44245  1.0000
  C   C94       1.0  0.96500  0.29918  0.41392  1.0000
  C   C95       1.0  0.80214  0.52973  0.09592  1.0000
  C   C96       1.0  0.20202  0.45991  0.06813  1.0000
  C   C97       1.0  0.91732  0.25620  0.82596  1.0000
  C   C98       1.0  0.08196  0.75672  0.84527  1.0000
  C   C99       1.0  0.25035  0.09184  0.14254  1.0000
  C   C100      1.0  0.76409  0.94046  0.04307  1.0000
  C   C101      1.0  0.59545  0.25361  0.91861  1.0000
  C   C102      1.0  0.40740  0.74540  0.89925  1.0000
  C   C103      1.0  0.26395  0.05651  0.67553  1.0000
  C   C104      1.0  0.74990  0.90224  0.58068  1.0000
  C   C105      1.0  0.44460  0.73224  0.43875  1.0000
  C   C106      1.0  0.55743  0.26841  0.45628  1.0000
  C   C107      1.0  0.75933  0.58332  0.66238  1.0000
  C   C108      1.0  0.24360  0.41290  0.66296  1.0000
  C   C109      1.0  0.04076  0.74505  0.30076  1.0000
  C   C110      1.0  0.95881  0.26960  0.27170  1.0000
  C   C111      1.0  0.77374  0.53658  0.23963  1.0000
  C   C112      1.0  0.23166  0.45444  0.21043  1.0000
  C   C113      1.0  0.91548  0.24297  0.00464  1.0000
  C   C114      1.0  0.08086  0.76988  0.02366  1.0000
  C   C115      1.0  0.23942  0.09030  0.96152  1.0000
  C   C116      1.0  0.77337  0.91166  0.89979  1.0000
  C   C117      1.0  0.59174  0.24230  0.73870  1.0000
  C   C118      1.0  0.40791  0.75672  0.71840  1.0000
  C   C119      1.0  0.27459  0.08346  0.82473  1.0000
  C   C120      1.0  0.73830  0.90499  0.76023  1.0000
  C   C121      1.0  0.41464  0.72201  0.57962  1.0000
  C   C122      1.0  0.58771  0.27734  0.59804  1.0000
  C   C123      1.0  0.74511  0.58455  0.48498  1.0000
  C   C124      1.0  0.25629  0.41427  0.48401  1.0000
  C   C125      1.0  0.07319  0.73629  0.16880  1.0000
  C   C126      1.0  0.92291  0.27613  0.15004  1.0000
  C   C127      1.0  0.77709  0.57778  0.33612  1.0000
  C   C128      1.0  0.22285  0.42015  0.33843  1.0000
  C   C129      1.0  0.90725  0.19653  0.04694  1.0000
  C   C130      1.0  0.08604  0.81681  0.06394  1.0000
  C   C131      1.0  0.19310  0.09432  0.91185  1.0000
  C   C132      1.0  0.81602  0.89032  0.89730  1.0000
  C   C133      1.0  0.58924  0.19552  0.69243  1.0000
  C   C134      1.0  0.40321  0.80305  0.67024  1.0000
  C   C135      1.0  0.31893  0.10338  0.83597  1.0000
  C   C136      1.0  0.69145  0.90364  0.80558  1.0000
  C   C137      1.0  0.39150  0.67901  0.58051  1.0000
  C   C138      1.0  0.61287  0.31922  0.59692  1.0000
  C   C139      1.0  0.69849  0.59005  0.44591  1.0000
  C   C140      1.0  0.30312  0.41237  0.44198  1.0000
  C   C141      1.0  0.09822  0.69587  0.18243  1.0000
  C   C142      1.0  0.89424  0.31342  0.17353  1.0000
  C   C143      1.0  0.80967  0.61136  0.28458  1.0000
  C   C144      1.0  0.18317  0.39215  0.31904  1.0000
  C   C145      1.0  0.90272  0.16328  0.91536  1.0000
  C   C146      1.0  0.09044  0.85007  0.93114  1.0000
  C   C147      1.0  0.15848  0.09748  0.03752  1.0000
  C   C148      1.0  0.84751  0.89575  0.03620  1.0000
  C   C149      1.0  0.58801  0.16103  0.82053  1.0000
  C   C150      1.0  0.40015  0.83751  0.79675  1.0000
  C   C151      1.0  0.35100  0.09823  0.70104  1.0000
  C   C152      1.0  0.65726  0.90247  0.67631  1.0000
  C   C153      1.0  0.39636  0.64805  0.44168  1.0000
  C   C154      1.0  0.60937  0.35034  0.45635  1.0000
  C   C155      1.0  0.66612  0.59298  0.58023  1.0000
  C   C156      1.0  0.33667  0.41116  0.57356  1.0000
  C   C157      1.0  0.09272  0.66616  0.32692  1.0000
  C   C158      1.0  0.89975  0.34237  0.31915  1.0000
  C   C159      1.0  0.83755  0.60486  0.13707  1.0000
  C   C160      1.0  0.15391  0.39682  0.17329  1.0000
  O   O1        1.0  0.89372  0.11791  0.95521  1.0000
  O   O2        1.0  0.09702  0.89587  0.96809  1.0000
  O   O3        1.0  0.11327  0.10164  0.99138  1.0000
  O   O4        1.0  0.88923  0.87478  0.03379  1.0000
  O   O5        1.0  0.58354  0.11535  0.77911  1.0000
  O   O6        1.0  0.39410  0.88246  0.74995  1.0000
  O   O7        1.0  0.39412  0.11823  0.71371  1.0000
  O   O8        1.0  0.61142  0.90269  0.71611  1.0000
  O   O9        1.0  0.37262  0.60652  0.43825  1.0000
  O   O10       1.0  0.63416  0.39131  0.45498  1.0000
  O   O11       1.0  0.62054  0.59946  0.54471  1.0000
  O   O12       1.0  0.38250  0.40979  0.53521  1.0000
  O   O13       1.0  0.11800  0.62723  0.34509  1.0000
  O   O14       1.0  0.87046  0.37773  0.34801  1.0000
  O   O15       1.0  0.86814  0.63855  0.08035  1.0000
  O   O16       1.0  0.11585  0.36834  0.15067  1.0000
  H   H1        1.0  0.07762  0.00449  0.18561  1.0000
  H   H2        1.0  0.00136  0.08528  0.78179  1.0000
  H   H3        1.0  0.50057  0.07041  0.96210  1.0000
  H   H4        1.0  0.58440  0.49074  0.68435  1.0000
  H   H5        1.0  0.51468  0.58042  0.31785  1.0000
  H   H6        1.0  0.07861  0.53016  0.08063  1.0000
  H   H7        1.0  0.97857  0.57972  0.42858  1.0000
  H   H8        1.0  0.02120  0.42041  0.40406  1.0000
  H   H9        1.0  0.10114  0.94689  0.40851  1.0000
  H   H10       1.0  0.05822  0.10821  0.55328  1.0000
  H   H11       1.0  0.44580  0.08956  0.19826  1.0000
  H   H12       1.0  0.60193  0.43723  0.92926  1.0000
  H   H13       1.0  0.57545  0.60296  0.10209  1.0000
  H   H14       1.0  0.08871  0.58973  0.84596  1.0000
  H   H15       1.0  0.92053  0.58935  0.66355  1.0000
  H   H16       1.0  0.07793  0.40690  0.64167  1.0000
  H   H17       1.0  0.97547  0.86940  0.31329  1.0000
  H   H18       1.0  0.13348  0.98611  0.66665  1.0000
  H   H19       1.0  0.36300  0.96981  0.06441  1.0000
  H   H20       1.0  0.46999  0.36961  0.85621  1.0000
  H   H21       1.0  0.63870  0.47261  0.18485  1.0000
  H   H22       1.0  0.94685  0.62477  0.90287  1.0000
  H   H23       1.0  0.87270  0.44959  0.58645  1.0000
  H   H24       1.0  0.11907  0.55006  0.62339  1.0000
  H   H25       1.0  0.95180  0.92608  0.09623  1.0000
  H   H26       1.0  0.07672  0.96245  0.88594  1.0000
  H   H27       1.0  0.41711  0.95011  0.83576  1.0000
  H   H28       1.0  0.45220  0.42227  0.61630  1.0000
  H   H29       1.0  0.57869  0.44991  0.39289  1.0000
  H   H30       1.0  0.93691  0.56661  0.13240  1.0000
  H   H31       1.0  0.92966  0.43992  0.35580  1.0000
  H   H32       1.0  0.06457  0.56319  0.38506  1.0000
  H   H33       1.0  0.96982  0.17420  0.50749  1.0000
  H   H34       1.0  0.02510  0.84121  0.52503  1.0000
  H   H35       1.0  0.16192  0.03380  0.44943  1.0000
  H   H36       1.0  0.84551  0.99013  0.40285  1.0000
  H   H37       1.0  0.52972  0.16845  0.24054  1.0000
  H   H38       1.0  0.46564  0.83055  0.20705  1.0000
  H   H39       1.0  0.34213  0.01036  0.30662  1.0000
  H   H40       1.0  0.66744  0.96486  0.26843  1.0000
  H   H41       1.0  0.49448  0.64932  0.09204  1.0000
  H   H42       1.0  0.51207  0.35015  0.10094  1.0000
  H   H43       1.0  0.67332  0.52467  0.98177  1.0000
  H   H44       1.0  0.33145  0.47482  0.98321  1.0000
  H   H45       1.0  0.98985  0.65823  0.66475  1.0000
  H   H46       1.0  0.00656  0.35250  0.64799  1.0000
  H   H47       1.0  0.84093  0.49329  0.82146  1.0000
  H   H48       1.0  0.14784  0.50379  0.85636  1.0000
  H   H49       1.0  0.91678  0.23287  0.55634  1.0000
  H   H50       1.0  0.08456  0.77987  0.57457  1.0000
  H   H51       1.0  0.22438  0.09468  0.40801  1.0000
  H   H52       1.0  0.78642  0.96719  0.29175  1.0000
  H   H53       1.0  0.59661  0.22802  0.18623  1.0000
  H   H54       1.0  0.40648  0.77101  0.16541  1.0000
  H   H55       1.0  0.28581  0.03095  0.42729  1.0000
  H   H56       1.0  0.72485  0.89962  0.31253  1.0000
  H   H57       1.0  0.47250  0.71052  0.19312  1.0000
  H   H58       1.0  0.53134  0.29036  0.20686  1.0000
  H   H59       1.0  0.73741  0.58209  0.93465  1.0000
  H   H60       1.0  0.26735  0.41232  0.93328  1.0000
  H   H61       1.0  0.01022  0.72310  0.54559  1.0000
  H   H62       1.0  0.99231  0.29298  0.50871  1.0000
  H   H63       1.0  0.79885  0.49763  0.02363  1.0000
  H   H64       1.0  0.21040  0.48566  0.96803  1.0000
  H   H65       1.0  0.92226  0.29224  0.79058  1.0000
  H   H66       1.0  0.07903  0.72054  0.81027  1.0000
  H   H67       1.0  0.28598  0.09029  0.18533  1.0000
  H   H68       1.0  0.73189  0.95855  0.04597  1.0000
  H   H69       1.0  0.59793  0.28947  0.95835  1.0000
  H   H70       1.0  0.40951  0.70970  0.94079  1.0000
  H   H71       1.0  0.23028  0.03947  0.66564  1.0000
  H   H72       1.0  0.78581  0.90255  0.54173  1.0000
  H   H73       1.0  0.46369  0.76494  0.43731  1.0000
  H   H74       1.0  0.53667  0.23674  0.45639  1.0000
  H   H75       1.0  0.79554  0.58065  0.69464  1.0000
  H   H76       1.0  0.20752  0.41349  0.69901  1.0000
  H   H77       1.0  0.02082  0.77608  0.29158  1.0000
  H   H78       1.0  0.98175  0.24117  0.25252  1.0000
  H   H79       1.0  0.74883  0.51008  0.28009  1.0000
  H   H80       1.0  0.26219  0.47662  0.22362  1.0000
  H   H81       1.0  0.90368  0.18624  0.18496  1.0000
  H   H82       1.0  0.08727  0.82752  0.20169  1.0000
  H   H83       1.0  0.18378  0.09532  0.77232  1.0000
  H   H84       1.0  0.82444  0.86794  0.78795  1.0000
  H   H85       1.0  0.58842  0.18572  0.55369  1.0000
  H   H86       1.0  0.40114  0.81270  0.53119  1.0000
  H   H87       1.0  0.32838  0.12460  0.94924  1.0000
  H   H88       1.0  0.68127  0.90340  0.94399  1.0000
  H   H89       1.0  0.36803  0.67022  0.68786  1.0000
  H   H90       1.0  0.63663  0.32739  0.70454  1.0000
  H   H91       1.0  0.68733  0.59261  0.30868  1.0000
  H   H92       1.0  0.31362  0.41147  0.30402  1.0000
  H   H93       1.0  0.12364  0.68836  0.08230  1.0000
  H   H94       1.0  0.86625  0.31884  0.08040  1.0000
  H   H95       1.0  0.81235  0.64360  0.35690  1.0000
  H   H96       1.0  0.17593  0.36506  0.41567  1.0000
  H   H97       1.0  0.89830  0.11300  0.08195  1.0000
  H   H98       1.0  0.09176  0.90079  0.09409  1.0000
  H   H99       1.0  0.10948  0.09617  0.86463  1.0000
  H   H100      1.0  0.89326  0.86226  0.91606  1.0000
  H   H101      1.0  0.58013  0.11210  0.65121  1.0000
  H   H102      1.0  0.40023  0.88647  0.62370  1.0000
  H   H103      1.0  0.39779  0.13044  0.83245  1.0000
  H   H104      1.0  0.60768  0.90669  0.84343  1.0000
  H   H105      1.0  0.35616  0.60303  0.54917  1.0000
  H   H106      1.0  0.64980  0.39458  0.56816  1.0000
  H   H107      1.0  0.61494  0.59539  0.41808  1.0000
  H   H108      1.0  0.38695  0.41343  0.40776  1.0000
  H   H109      1.0  0.13513  0.62302  0.23670  1.0000
  H   H110      1.0  0.84957  0.37913  0.24781  1.0000
  H   H111      1.0  0.86694  0.66402  0.16255  1.0000
  H   H112      1.0  0.11340  0.34825  0.25335  1.0000
  C   C161      1.0  0.99770  0.00663  0.98865  1.0000
  C   C162      1.0  0.49970  0.99480  0.74399  1.0000
  C   C163      1.0  0.50311  0.49860  0.49978  1.0000
  C   C164      1.0  0.99859  0.50199  0.24701  1.0000
  C   C165      1.0  0.91476  0.02354  0.78292  1.0000
  C   C166      1.0  0.97715  0.99734  0.85837  1.0000
  C  Sn1       1.0  0.98697  0.95431  0.78924  1.0000
  C  Sn2       1.0  0.96166  0.93729  0.64180  1.0000
  C   C167      1.0  0.92717  0.96378  0.56720  1.0000
  C   C168      1.0  0.88980  0.00679  0.63746  1.0000
  H   H113      1.0  0.90739  0.05683  0.83721  1.0000
  O  Te1       1.0  0.02161  0.92857  0.86626  1.0000
  O  Te2       1.0  0.97078  0.89440  0.57004  1.0000
  H   H114      1.0  0.86305  0.02708  0.57895  1.0000
  Mg  Mg1       1.0  0.02127  0.87213  0.72118  1.0000
  C   C169      1.0  0.49326  0.10225  0.50401  1.0000
  C   C170      1.0  0.53335  0.10669  0.40392  1.0000
  C  Sn3       1.0  0.56515  0.07160  0.40431  1.0000
  C  Sn4       1.0  0.55654  0.03135  0.50689  1.0000
  C   C171      1.0  0.51631  0.02722  0.60647  1.0000
  C   C172      1.0  0.48474  0.06256  0.60517  1.0000
  H   H115      1.0  0.46881  0.12958  0.50294  1.0000
  O  Te3       1.0  0.60504  0.07660  0.30360  1.0000
  O  Te4       1.0  0.61555  0.99574  0.50963  1.0000
  H   H116      1.0  0.45368  0.05910  0.68259  1.0000
  Mg  Mg2       1.0  0.63715  0.01862  0.35048  1.0000
  C   C173      1.0  0.58813  0.00903  0.92953  1.0000
  C   C174      1.0  0.57628  0.98559  0.87057  1.0000
  C  Sn5       1.0  0.56287  0.94352  0.94682  1.0000
  C  Sn6       1.0  0.58855  0.92606  0.08467  1.0000
  C   C175      1.0  0.62816  0.94979  0.14280  1.0000
  C   C176      1.0  0.64127  0.99186  0.06553  1.0000
  H   H117      1.0  0.59826  0.04159  0.86982  1.0000
  O  Te5       1.0  0.52315  0.92055  0.88628  1.0000
  O  Te6       1.0  0.57593  0.88408  0.16326  1.0000
  H   H118      1.0  0.64415  0.01002  0.11129  1.0000
  Mg  Mg3       1.0  0.51894  0.86577  0.03509  1.0000
  C   C177      1.0  0.93215  0.04346  0.23935  1.0000
  C   C178      1.0  0.97032  0.04383  0.12809  1.0000
  C  Sn7       1.0  0.00381  0.07902  0.14016  1.0000
  C  Sn8       1.0  0.99891  0.11445  0.26612  1.0000
  C   C179      1.0  0.96062  0.11375  0.37690  1.0000
  C   C180      1.0  0.92730  0.07838  0.36366  1.0000
  H   H119      1.0  0.90639  0.01608  0.22919  1.0000
  O  Te7       1.0  0.04171  0.07888  0.02794  1.0000
  O  Te8       1.0  0.03187  0.15003  0.28103  1.0000
  H   H120      1.0  0.89778  0.07809  0.44990  1.0000
  Mg  Mg4       1.0  0.07743  0.13478  0.09867  1.0000
  C   C181      1.0  0.93579  0.43330  0.92646  1.0000
  C   C182      1.0  0.96808  0.40547  0.84716  1.0000
  C  Sn9       1.0  0.01309  0.40478  0.91172  1.0000
  C  Sn10      1.0  0.02471  0.43389  0.05844  1.0000
  C   C183      1.0  0.99215  0.46159  0.13693  1.0000
  C   C184      1.0  0.94721  0.46203  0.07122  1.0000
  H   H121      1.0  0.90101  0.43362  0.87570  1.0000
  O  Te9       1.0  0.04492  0.37679  0.83088  1.0000
  O  Te10      1.0  0.06946  0.43384  0.12568  1.0000
  H   H122      1.0  0.92221  0.48355  0.13272  1.0000
  Mg  Mg5       1.0  0.10170  0.38855  0.97046  1.0000
  C   C185      1.0  0.50343  0.89117  0.47946  1.0000
  C   C186      1.0  0.46228  0.88871  0.38385  1.0000
  C  Sn11      1.0  0.43063  0.92374  0.39706  1.0000
  C  Sn12      1.0  0.44047  0.96190  0.50813  1.0000
  C   C187      1.0  0.48175  0.96406  0.60314  1.0000
  C   C188      1.0  0.51317  0.92881  0.58898  1.0000
  H   H123      1.0  0.52776  0.86391  0.46844  1.0000
  O  Te11      1.0  0.38967  0.92072  0.30067  1.0000
  O  Te12      1.0  0.40945  0.99740  0.52374  1.0000
  H   H124      1.0  0.54505  0.93074  0.66294  1.0000
  Mg  Mg6       1.0  0.35828  0.97769  0.36592  1.0000
  C   C189      1.0  0.43314  0.55464  0.82461  1.0000
  C   C190      1.0  0.46155  0.58835  0.90277  1.0000
  C  Sn13      1.0  0.50558  0.59762  0.83671  1.0000
  C  Sn14      1.0  0.52137  0.57264  0.68961  1.0000
  C   C191      1.0  0.49267  0.53901  0.61227  1.0000
  C   C192      1.0  0.44867  0.53000  0.67948  1.0000
  H   H125      1.0  0.39909  0.54769  0.87653  1.0000
  O  Te13      1.0  0.53353  0.63140  0.91642  1.0000
  O  Te14      1.0  0.56522  0.58122  0.62088  1.0000
  H   H126      1.0  0.42668  0.50392  0.61886  1.0000
  Mg  Mg7       1.0  0.59054  0.63059  0.77497  1.0000
  C   C193      1.0  0.39774  0.50934  0.24933  1.0000
  C   C194      1.0  0.39405  0.47084  0.14014  1.0000
  C  Sn15      1.0  0.42621  0.43619  0.15266  1.0000
  C  Sn16      1.0  0.46269  0.44026  0.27695  1.0000
  C   C195      1.0  0.46606  0.47890  0.38567  1.0000
  C   C196      1.0  0.43370  0.51337  0.37201  1.0000
  H   H127      1.0  0.37270  0.53600  0.23884  1.0000
  O  Te15      1.0  0.42202  0.39797  0.04251  1.0000
  O  Te16      1.0  0.49529  0.40613  0.29227  1.0000
  H   H128      1.0  0.43655  0.54316  0.45665  1.0000
  Mg  Mg8       1.0  0.47496  0.36057  0.11299  1.0000
