data_image0
_chemical_formula_structural       C16N16C96O16H80C4SnCSn2CSnTe4Mg2SnCSn2CSnTe4Mg2SnCSn2CSnTe4Mg2SnCSn2CSnTe4Mg2SnCSn2CSnTe4Mg2SnCSn2CSnTe4Mg2SnCSn2CSnTe4Mg2SnCSn2CSnTe4Mg2SnCSn2CSnTe4Mg2SnCSn2CSnTe4Mg2SnCSn2CSnTe4Mg2SnCSn2CSnTe4Mg2SnCSn2CSnTe4Mg2SnCSn2CSnTe4Mg2SnCSn2CSnTe4Mg2SnCSn2CSnTe4Mg2
_chemical_formula_sum              "C148 N16 O16 H80 Sn64 Te64 Mg32"
_cell_length_a       29.1144
_cell_length_b       29.0939
_cell_length_c       7.57421
_cell_angle_alpha    89.6819
_cell_angle_beta     90.2708
_cell_angle_gamma    91.5953

_symmetry_space_group_name_H-M    'P1'
_space_group_IT_number       1

loop_
  _space_group_symop_operation_xyz
  'x, y, z'

loop_
  _atom_site_type_symbol
  _atom_site_label
  _atom_site_symmetry_multiplicity
  _atom_site_fract_x
  _atom_site_fract_y
  _atom_site_fract_z
  _atom_site_occupancy
  C   C1        1.0  0.94500  0.14506  0.49761  1.0000
  C   C2        1.0  0.05086  0.86953  0.51318  1.0000
  C   C3        1.0  0.13446  0.05909  0.45644  1.0000
  C   C4        1.0  0.86780  0.96091  0.42993  1.0000
  C   C5        1.0  0.55295  0.13919  0.24155  1.0000
  C   C6        1.0  0.44167  0.85912  0.21566  1.0000
  C   C7        1.0  0.36888  0.03774  0.29572  1.0000
  C   C8        1.0  0.63788  0.94048  0.25914  1.0000
  C   C9        1.0  0.46418  0.62733  0.06031  1.0000
  C   C10       1.0  0.54281  0.37131  0.06752  1.0000
  C   C11       1.0  0.64634  0.55022  0.99474  1.0000
  C   C12       1.0  0.35880  0.44944  0.99096  1.0000
  C   C13       1.0  0.02185  0.64114  0.70151  1.0000
  C   C14       1.0  0.97440  0.36905  0.68456  1.0000
  C   C15       1.0  0.86293  0.52390  0.79476  1.0000
  C   C16       1.0  0.13038  0.47199  0.81013  1.0000
  N   N1        1.0  0.91143  0.14080  0.60857  1.0000
  N   N2        1.0  0.08517  0.87238  0.62214  1.0000
  N   N3        1.0  0.13296  0.09250  0.34323  1.0000
  N   N4        1.0  0.86843  0.92557  0.32661  1.0000
  N   N5        1.0  0.58509  0.13637  0.12550  1.0000
  N   N6        1.0  0.40830  0.86242  0.10305  1.0000
  N   N7        1.0  0.37244  0.07050  0.41083  1.0000
  N   N8        1.0  0.63358  0.90664  0.36954  1.0000
  N   N9        1.0  0.42762  0.62745  0.15715  1.0000
  N   N10       1.0  0.57925  0.37125  0.16650  1.0000
  N   N11       1.0  0.64496  0.58500  0.88805  1.0000
  N   N12       1.0  0.35983  0.41573  0.88075  1.0000
  N   N13       1.0  0.05888  0.64563  0.60828  1.0000
  N   N14       1.0  0.93711  0.36443  0.59188  1.0000
  N   N15       1.0  0.86314  0.56036  0.89215  1.0000
  N   N16       1.0  0.13377  0.43346  0.89538  1.0000
  C   C17       1.0  0.90907  0.17577  0.73600  1.0000
  C   C18       1.0  0.08700  0.83729  0.75152  1.0000
  C   C19       1.0  0.16908  0.09485  0.21972  1.0000
  C   C20       1.0  0.83746  0.92333  0.18422  1.0000
  C   C21       1.0  0.58919  0.17246  0.00175  1.0000
  C   C22       1.0  0.40454  0.82668  0.97838  1.0000
  C   C23       1.0  0.33994  0.07239  0.54729  1.0000
  C   C24       1.0  0.66903  0.90306  0.49552  1.0000
  C   C25       1.0  0.42585  0.65856  0.29769  1.0000
  C   C26       1.0  0.57991  0.34071  0.31053  1.0000
  C   C27       1.0  0.67960  0.58763  0.75876  1.0000
  C   C28       1.0  0.32428  0.41305  0.75369  1.0000
  C   C29       1.0  0.06064  0.67520  0.46200  1.0000
  C   C30       1.0  0.93544  0.33580  0.44397  1.0000
  C   C31       1.0  0.83445  0.56353  0.03889  1.0000
  C   C32       1.0  0.16272  0.43127  0.04344  1.0000
  C   C33       1.0  0.91456  0.22276  0.69475  1.0000
  C   C34       1.0  0.08452  0.79017  0.71242  1.0000
  C   C35       1.0  0.21563  0.09376  0.26824  1.0000
  C   C36       1.0  0.79540  0.94598  0.18031  1.0000
  C   C37       1.0  0.59403  0.21902  0.04717  1.0000
  C   C38       1.0  0.40617  0.77997  0.02567  1.0000
  C   C39       1.0  0.29582  0.05123  0.54190  1.0000
  C   C40       1.0  0.71564  0.90133  0.45133  1.0000
  C   C41       1.0  0.45011  0.70109  0.30265  1.0000
  C   C42       1.0  0.55382  0.29926  0.31716  1.0000
  C   C43       1.0  0.72664  0.58416  0.79694  1.0000
  C   C44       1.0  0.27733  0.41262  0.79491  1.0000
  C   C45       1.0  0.03448  0.71491  0.44245  1.0000
  C   C46       1.0  0.96500  0.29918  0.41392  1.0000
  C   C47       1.0  0.80214  0.52973  0.09592  1.0000
  C   C48       1.0  0.20202  0.45991  0.06813  1.0000
  C   C49       1.0  0.91732  0.25620  0.82596  1.0000
  C   C50       1.0  0.08196  0.75672  0.84527  1.0000
  C   C51       1.0  0.25035  0.09184  0.14254  1.0000
  C   C52       1.0  0.76409  0.94046  0.04307  1.0000
  C   C53       1.0  0.59545  0.25361  0.91861  1.0000
  C   C54       1.0  0.40740  0.74540  0.89925  1.0000
  C   C55       1.0  0.26395  0.05651  0.67553  1.0000
  C   C56       1.0  0.74990  0.90224  0.58068  1.0000
  C   C57       1.0  0.44460  0.73224  0.43875  1.0000
  C   C58       1.0  0.55743  0.26841  0.45628  1.0000
  C   C59       1.0  0.75933  0.58332  0.66238  1.0000
  C   C60       1.0  0.24360  0.41290  0.66296  1.0000
  C   C61       1.0  0.04076  0.74505  0.30076  1.0000
  C   C62       1.0  0.95881  0.26960  0.27170  1.0000
  C   C63       1.0  0.77374  0.53658  0.23963  1.0000
  C   C64       1.0  0.23166  0.45444  0.21043  1.0000
  C   C65       1.0  0.91548  0.24297  0.00464  1.0000
  C   C66       1.0  0.08086  0.76988  0.02366  1.0000
  C   C67       1.0  0.23942  0.09030  0.96152  1.0000
  C   C68       1.0  0.77337  0.91166  0.89979  1.0000
  C   C69       1.0  0.59174  0.24230  0.73870  1.0000
  C   C70       1.0  0.40791  0.75672  0.71840  1.0000
  C   C71       1.0  0.27459  0.08346  0.82473  1.0000
  C   C72       1.0  0.73830  0.90499  0.76023  1.0000
  C   C73       1.0  0.41464  0.72201  0.57962  1.0000
  C   C74       1.0  0.58771  0.27734  0.59804  1.0000
  C   C75       1.0  0.74511  0.58455  0.48498  1.0000
  C   C76       1.0  0.25629  0.41427  0.48401  1.0000
  C   C77       1.0  0.07319  0.73629  0.16880  1.0000
  C   C78       1.0  0.92291  0.27613  0.15004  1.0000
  C   C79       1.0  0.77709  0.57778  0.33612  1.0000
  C   C80       1.0  0.22285  0.42015  0.33843  1.0000
  C   C81       1.0  0.90725  0.19653  0.04694  1.0000
  C   C82       1.0  0.08604  0.81681  0.06394  1.0000
  C   C83       1.0  0.19310  0.09432  0.91185  1.0000
  C   C84       1.0  0.81602  0.89032  0.89730  1.0000
  C   C85       1.0  0.58924  0.19552  0.69243  1.0000
  C   C86       1.0  0.40321  0.80305  0.67024  1.0000
  C   C87       1.0  0.31893  0.10338  0.83597  1.0000
  C   C88       1.0  0.69145  0.90364  0.80558  1.0000
  C   C89       1.0  0.39150  0.67901  0.58051  1.0000
  C   C90       1.0  0.61287  0.31922  0.59692  1.0000
  C   C91       1.0  0.69849  0.59005  0.44591  1.0000
  C   C92       1.0  0.30312  0.41237  0.44198  1.0000
  C   C93       1.0  0.09822  0.69587  0.18243  1.0000
  C   C94       1.0  0.89424  0.31342  0.17353  1.0000
  C   C95       1.0  0.80967  0.61136  0.28458  1.0000
  C   C96       1.0  0.18317  0.39215  0.31904  1.0000
  C   C97       1.0  0.90272  0.16328  0.91536  1.0000
  C   C98       1.0  0.09044  0.85007  0.93114  1.0000
  C   C99       1.0  0.15848  0.09748  0.03752  1.0000
  C   C100      1.0  0.84751  0.89575  0.03620  1.0000
  C   C101      1.0  0.58801  0.16103  0.82053  1.0000
  C   C102      1.0  0.40015  0.83751  0.79675  1.0000
  C   C103      1.0  0.35100  0.09823  0.70104  1.0000
  C   C104      1.0  0.65726  0.90247  0.67631  1.0000
  C   C105      1.0  0.39636  0.64805  0.44168  1.0000
  C   C106      1.0  0.60937  0.35034  0.45635  1.0000
  C   C107      1.0  0.66612  0.59298  0.58023  1.0000
  C   C108      1.0  0.33667  0.41116  0.57356  1.0000
  C   C109      1.0  0.09272  0.66616  0.32692  1.0000
  C   C110      1.0  0.89975  0.34237  0.31915  1.0000
  C   C111      1.0  0.83755  0.60486  0.13707  1.0000
  C   C112      1.0  0.15391  0.39682  0.17329  1.0000
  O   O1        1.0  0.89372  0.11791  0.95521  1.0000
  O   O2        1.0  0.09702  0.89587  0.96809  1.0000
  O   O3        1.0  0.11327  0.10164  0.99138  1.0000
  O   O4        1.0  0.88923  0.87478  0.03379  1.0000
  O   O5        1.0  0.58354  0.11535  0.77911  1.0000
  O   O6        1.0  0.39410  0.88246  0.74995  1.0000
  O   O7        1.0  0.39412  0.11823  0.71371  1.0000
  O   O8        1.0  0.61142  0.90269  0.71611  1.0000
  O   O9        1.0  0.37262  0.60652  0.43825  1.0000
  O   O10       1.0  0.63416  0.39131  0.45498  1.0000
  O   O11       1.0  0.62054  0.59946  0.54471  1.0000
  O   O12       1.0  0.38250  0.40979  0.53521  1.0000
  O   O13       1.0  0.11800  0.62723  0.34509  1.0000
  O   O14       1.0  0.87046  0.37773  0.34801  1.0000
  O   O15       1.0  0.86814  0.63855  0.08035  1.0000
  O   O16       1.0  0.11585  0.36834  0.15067  1.0000
  H   H1        1.0  0.96982  0.17420  0.50749  1.0000
  H   H2        1.0  0.02510  0.84121  0.52503  1.0000
  H   H3        1.0  0.16192  0.03380  0.44943  1.0000
  H   H4        1.0  0.84551  0.99013  0.40285  1.0000
  H   H5        1.0  0.52972  0.16845  0.24054  1.0000
  H   H6        1.0  0.46564  0.83055  0.20705  1.0000
  H   H7        1.0  0.34213  0.01036  0.30662  1.0000
  H   H8        1.0  0.66744  0.96486  0.26843  1.0000
  H   H9        1.0  0.49448  0.64932  0.09204  1.0000
  H   H10       1.0  0.51207  0.35015  0.10094  1.0000
  H   H11       1.0  0.67332  0.52467  0.98177  1.0000
  H   H12       1.0  0.33145  0.47482  0.98321  1.0000
  H   H13       1.0  0.98985  0.65823  0.66475  1.0000
  H   H14       1.0  0.00656  0.35250  0.64799  1.0000
  H   H15       1.0  0.84093  0.49329  0.82146  1.0000
  H   H16       1.0  0.14784  0.50379  0.85636  1.0000
  H   H17       1.0  0.91678  0.23287  0.55634  1.0000
  H   H18       1.0  0.08456  0.77987  0.57457  1.0000
  H   H19       1.0  0.22438  0.09468  0.40801  1.0000
  H   H20       1.0  0.78642  0.96719  0.29175  1.0000
  H   H21       1.0  0.59661  0.22802  0.18623  1.0000
  H   H22       1.0  0.40648  0.77101  0.16541  1.0000
  H   H23       1.0  0.28581  0.03095  0.42729  1.0000
  H   H24       1.0  0.72485  0.89962  0.31253  1.0000
  H   H25       1.0  0.47250  0.71052  0.19312  1.0000
  H   H26       1.0  0.53134  0.29036  0.20686  1.0000
  H   H27       1.0  0.73741  0.58209  0.93465  1.0000
  H   H28       1.0  0.26735  0.41232  0.93328  1.0000
  H   H29       1.0  0.01022  0.72310  0.54559  1.0000
  H   H30       1.0  0.99231  0.29298  0.50871  1.0000
  H   H31       1.0  0.79885  0.49763  0.02363  1.0000
  H   H32       1.0  0.21040  0.48566  0.96803  1.0000
  H   H33       1.0  0.92226  0.29224  0.79058  1.0000
  H   H34       1.0  0.07903  0.72054  0.81027  1.0000
  H   H35       1.0  0.28598  0.09029  0.18533  1.0000
  H   H36       1.0  0.73189  0.95855  0.04597  1.0000
  H   H37       1.0  0.59793  0.28947  0.95835  1.0000
  H   H38       1.0  0.40951  0.70970  0.94079  1.0000
  H   H39       1.0  0.23028  0.03947  0.66564  1.0000
  H   H40       1.0  0.78581  0.90255  0.54173  1.0000
  H   H41       1.0  0.46369  0.76494  0.43731  1.0000
  H   H42       1.0  0.53667  0.23674  0.45639  1.0000
  H   H43       1.0  0.79554  0.58065  0.69464  1.0000
  H   H44       1.0  0.20752  0.41349  0.69901  1.0000
  H   H45       1.0  0.02082  0.77608  0.29158  1.0000
  H   H46       1.0  0.98175  0.24117  0.25252  1.0000
  H   H47       1.0  0.74883  0.51008  0.28009  1.0000
  H   H48       1.0  0.26219  0.47662  0.22362  1.0000
  H   H49       1.0  0.90368  0.18624  0.18496  1.0000
  H   H50       1.0  0.08727  0.82752  0.20169  1.0000
  H   H51       1.0  0.18378  0.09532  0.77232  1.0000
  H   H52       1.0  0.82444  0.86794  0.78795  1.0000
  H   H53       1.0  0.58842  0.18572  0.55369  1.0000
  H   H54       1.0  0.40114  0.81270  0.53119  1.0000
  H   H55       1.0  0.32838  0.12460  0.94924  1.0000
  H   H56       1.0  0.68127  0.90340  0.94399  1.0000
  H   H57       1.0  0.36803  0.67022  0.68786  1.0000
  H   H58       1.0  0.63663  0.32739  0.70454  1.0000
  H   H59       1.0  0.68733  0.59261  0.30868  1.0000
  H   H60       1.0  0.31362  0.41147  0.30402  1.0000
  H   H61       1.0  0.12364  0.68836  0.08230  1.0000
  H   H62       1.0  0.86625  0.31884  0.08040  1.0000
  H   H63       1.0  0.81235  0.64360  0.35690  1.0000
  H   H64       1.0  0.17593  0.36506  0.41567  1.0000
  H   H65       1.0  0.89830  0.11300  0.08195  1.0000
  H   H66       1.0  0.09176  0.90079  0.09409  1.0000
  H   H67       1.0  0.10948  0.09617  0.86463  1.0000
  H   H68       1.0  0.89326  0.86226  0.91606  1.0000
  H   H69       1.0  0.58013  0.11210  0.65121  1.0000
  H   H70       1.0  0.40023  0.88647  0.62370  1.0000
  H   H71       1.0  0.39779  0.13044  0.83245  1.0000
  H   H72       1.0  0.60768  0.90669  0.84343  1.0000
  H   H73       1.0  0.35616  0.60303  0.54917  1.0000
  H   H74       1.0  0.64980  0.39458  0.56816  1.0000
  H   H75       1.0  0.61494  0.59539  0.41808  1.0000
  H   H76       1.0  0.38695  0.41343  0.40776  1.0000
  H   H77       1.0  0.13513  0.62302  0.23670  1.0000
  H   H78       1.0  0.84957  0.37913  0.24781  1.0000
  H   H79       1.0  0.86694  0.66402  0.16255  1.0000
  H   H80       1.0  0.11340  0.34825  0.25335  1.0000
  C   C113      1.0  0.99770  0.00663  0.98865  1.0000
  C   C114      1.0  0.49970  0.99480  0.74399  1.0000
  C   C115      1.0  0.50311  0.49860  0.49978  1.0000
  C   C116      1.0  0.99859  0.50199  0.24701  1.0000
  C  Sn1       1.0  0.01689  0.08514  0.21389  1.0000
  C   C117      1.0  0.99282  0.04535  0.16033  1.0000
  C  Sn2       1.0  0.94589  0.03983  0.19484  1.0000
  C  Sn3       1.0  0.92253  0.07481  0.28466  1.0000
  C   C118      1.0  0.94661  0.11457  0.33814  1.0000
  C  Sn4       1.0  0.99354  0.12012  0.30370  1.0000
  O  Te1       1.0  0.06379  0.08993  0.17798  1.0000
  O  Te2       1.0  0.95038  0.99975  0.14006  1.0000
  O  Te3       1.0  0.87560  0.06998  0.32055  1.0000
  O  Te4       1.0  0.01686  0.16018  0.35840  1.0000
  Mg  Mg1       1.0  0.85883  0.00918  0.21946  1.0000
  Mg  Mg2       1.0  0.08058  0.15079  0.27900  1.0000
  C  Sn5       1.0  0.06264  0.95804  0.35063  1.0000
  C   C119      1.0  0.03948  0.91747  0.40214  1.0000
  C  Sn6       1.0  0.00337  0.89935  0.29972  1.0000
  C  Sn7       1.0  0.99014  0.92223  0.14245  1.0000
  C   C120      1.0  0.01330  0.96277  0.09098  1.0000
  C  Sn8       1.0  0.04941  0.98092  0.19336  1.0000
  O  Te5       1.0  0.09864  0.97553  0.45505  1.0000
  O  Te6       1.0  0.98072  0.85875  0.35396  1.0000
  O  Te7       1.0  0.95410  0.90470  0.03802  1.0000
  O  Te8       1.0  0.04424  0.02149  0.13917  1.0000
  Mg  Mg3       1.0  0.93382  0.84844  0.16715  1.0000
  Mg  Mg4       1.0  0.09115  0.03181  0.32582  1.0000
  C  Sn9       1.0  0.02820  0.06216  0.69173  1.0000
  C   C121      1.0  0.02819  0.02376  0.80342  1.0000
  C  Sn10      1.0  0.09566  0.99830  0.82431  1.0000
  C  Sn11      1.0  0.10837  0.01151  0.73171  1.0000
  C   C122      1.0  0.10838  0.04989  0.62013  1.0000
  C  Sn12      1.0  0.06873  0.07537  0.59914  1.0000
  O  Te9       1.0  0.98817  0.08710  0.67286  1.0000
  O  Te10      1.0  0.09481  0.96004  0.93666  1.0000
  O  Te11      1.0  0.17625  0.98653  0.75068  1.0000
  O  Te12      1.0  0.06958  0.11361  0.48690  1.0000
  Mg  Mg5       1.0  0.15799  0.93709  0.91887  1.0000
  Mg  Mg6       1.0  0.00643  0.13660  0.50465  1.0000
  C  Sn13      1.0  0.96566  0.94920  0.70440  1.0000
  C   C123      1.0  0.96678  0.98810  0.81189  1.0000
  C  Sn14      1.0  0.90111  0.01648  0.81940  1.0000
  C  Sn15      1.0  0.86129  0.00574  0.71743  1.0000
  C   C124      1.0  0.88801  0.96686  0.61004  1.0000
  C  Sn16      1.0  0.92585  0.93846  0.60243  1.0000
  O  Te13      1.0  0.00390  0.92131  0.69895  1.0000
  O  Te14      1.0  0.90304  0.05520  0.92779  1.0000
  O  Te15      1.0  0.82305  0.03367  0.72296  1.0000
  O  Te16      1.0  0.92393  0.89976  0.49415  1.0000
  Mg  Mg7       1.0  0.84222  0.08258  0.89061  1.0000
  Mg  Mg8       1.0  0.98471  0.87235  0.53129  1.0000
  C  Sn17      1.0  0.56132  0.04843  0.37941  1.0000
  C   C125      1.0  0.53987  0.08981  0.34272  1.0000
  C  Sn18      1.0  0.50680  0.10639  0.45731  1.0000
  C  Sn19      1.0  0.49493  0.08109  0.61187  1.0000
  C   C126      1.0  0.51638  0.03974  0.64851  1.0000
  C  Sn20      1.0  0.54945  0.02313  0.53397  1.0000
  O  Te17      1.0  0.59428  0.03251  0.26300  1.0000
  O  Te18      1.0  0.48583  0.14784  0.41779  1.0000
  O  Te19      1.0  0.46194  0.09705  0.72829  1.0000
  O  Te20      1.0  0.59824  0.98171  0.57343  1.0000
  Mg  Mg9       1.0  0.44299  0.15531  0.61719  1.0000
  Mg  Mg10      1.0  0.64110  0.97423  0.37419  1.0000
  C  Sn21      1.0  0.49293  0.88465  0.51638  1.0000
  C   C127      1.0  0.45380  0.88545  0.40896  1.0000
  C  Sn22      1.0  0.42950  0.92588  0.38859  1.0000
  C  Sn23      1.0  0.44464  0.96637  0.47736  1.0000
  C   C128      1.0  0.48375  0.96557  0.58469  1.0000
  C  Sn24      1.0  0.50807  0.92515  0.60515  1.0000
  O  Te21      1.0  0.51670  0.84385  0.53482  1.0000
  O  Te22      1.0  0.39047  0.92582  0.28054  1.0000
  O  Te23      1.0  0.39302  0.00719  0.45885  1.0000
  O  Te24      1.0  0.54708  0.92520  0.71311  1.0000
  Mg  Mg11      1.0  0.36970  0.98986  0.29720  1.0000
  Mg  Mg12      1.0  0.56789  0.86118  0.69647  1.0000
  C  Sn25      1.0  0.40454  0.98024  0.04590  1.0000
  C   C129      1.0  0.37770  0.01843  0.15710  1.0000
  C  Sn26      1.0  0.40642  0.05646  0.11965  1.0000
  C  Sn27      1.0  0.43594  0.05492  0.96784  1.0000
  C   C130      1.0  0.43495  0.01675  0.85673  1.0000
  C  Sn28      1.0  0.43406  0.97870  0.89409  1.0000
  O  Te25      1.0  0.37556  0.94260  0.08589  1.0000
  O  Te26      1.0  0.40681  0.09423  0.23282  1.0000
  O  Te27      1.0  0.46494  0.09260  0.92792  1.0000
  O  Te28      1.0  0.43366  0.94095  0.78101  1.0000
  Mg  Mg13      1.0  0.45211  0.13733  0.12219  1.0000
  Mg  Mg14      1.0  0.38836  0.89784  0.89145  1.0000
  C  Sn29      1.0  0.52894  0.94043  0.03439  1.0000
  C   C131      1.0  0.53136  0.97780  0.92462  1.0000
  C  Sn30      1.0  0.54453  0.00309  0.90035  1.0000
  C  Sn31      1.0  0.61298  0.98932  0.98752  1.0000
  C   C132      1.0  0.61055  0.95197  0.09718  1.0000
  C  Sn32      1.0  0.56957  0.92666  0.12156  1.0000
  O  Te29      1.0  0.48758  0.91566  0.05672  1.0000
  O  Te30      1.0  0.54490  0.04175  0.79002  1.0000
  O  Te31      1.0  0.62653  0.01413  0.96510  1.0000
  O  Te32      1.0  0.56919  0.88803  0.23179  1.0000
  Mg  Mg15      1.0  0.60964  0.06426  0.80152  1.0000
  Mg  Mg16      1.0  0.50448  0.86548  0.22030  1.0000
  C  Sn33      1.0  0.51162  0.60440  0.75168  1.0000
  C   C133      1.0  0.47223  0.60605  0.85594  1.0000
  C  Sn34      1.0  0.44103  0.56872  0.86142  1.0000
  C  Sn35      1.0  0.44939  0.52889  0.76068  1.0000
  C   C134      1.0  0.48876  0.52725  0.65652  1.0000
  C  Sn36      1.0  0.51997  0.56457  0.65094  1.0000
  O  Te33      1.0  0.54234  0.64212  0.74821  1.0000
  O  Te34      1.0  0.40189  0.57119  0.96659  1.0000
  O  Te35      1.0  0.41862  0.49116  0.76423  1.0000
  O  Te36      1.0  0.55910  0.56211  0.54587  1.0000
  Mg  Mg17      1.0  0.37025  0.51096  0.92767  1.0000
  Mg  Mg18      1.0  0.59078  0.62231  0.58476  1.0000
  C  Sn37      1.0  0.56500  0.45029  0.86381  1.0000
  C   C135      1.0  0.53812  0.41349  0.92894  1.0000
  C  Sn38      1.0  0.50072  0.39616  0.83149  1.0000
  C  Sn39      1.0  0.48996  0.41600  0.66542  1.0000
  C   C136      1.0  0.51684  0.45276  0.60036  1.0000
  C  Sn40      1.0  0.55425  0.47013  0.69774  1.0000
  O  Te37      1.0  0.60224  0.46707  0.96347  1.0000
  O  Te38      1.0  0.47434  0.35936  0.89938  1.0000
  O  Te39      1.0  0.45269  0.39919  0.56577  1.0000
  O  Te40      1.0  0.58062  0.50690  0.62992  1.0000
  Mg  Mg19      1.0  0.42708  0.34858  0.71427  1.0000
  Mg  Mg20      1.0  0.62790  0.51770  0.81486  1.0000
  C  Sn41      1.0  0.59377  0.48913  0.34929  1.0000
  C   C137      1.0  0.55542  0.51370  0.39939  1.0000
  C  Sn42      1.0  0.54177  0.55166  0.30051  1.0000
  C  Sn43      1.0  0.56695  0.56534  0.14831  1.0000
  C   C138      1.0  0.60527  0.54078  0.09826  1.0000
  C  Sn44      1.0  0.61895  0.50281  0.19709  1.0000
  O  Te41      1.0  0.60680  0.45129  0.45011  1.0000
  O  Te42      1.0  0.50332  0.57569  0.35325  1.0000
  O  Te43      1.0  0.55389  0.60322  0.04750  1.0000
  O  Te44      1.0  0.65737  0.47878  0.14441  1.0000
  Mg  Mg21      1.0  0.49911  0.62489  0.17273  1.0000
  Mg  Mg22      1.0  0.66159  0.42957  0.32476  1.0000
  C  Sn45      1.0  0.40673  0.51262  0.20213  1.0000
  C   C139      1.0  0.40126  0.47168  0.10775  1.0000
  C  Sn46      1.0  0.42592  0.43303  0.15601  1.0000
  C  Sn47      1.0  0.45667  0.43534  0.30170  1.0000
  C   C140      1.0  0.46212  0.47626  0.39600  1.0000
  C  Sn48      1.0  0.43748  0.51493  0.34782  1.0000
  O  Te45      1.0  0.38173  0.55084  0.15155  1.0000
  O  Te46      1.0  0.41989  0.39249  0.05961  1.0000
  O  Te47      1.0  0.48168  0.39708  0.35222  1.0000
  O  Te48      1.0  0.44349  0.55545  0.44415  1.0000
  Mg  Mg23      1.0  0.46165  0.34966  0.17976  1.0000
  Mg  Mg24      1.0  0.40174  0.59829  0.32417  1.0000
  C  Sn49      1.0  0.97445  0.60932  0.00767  1.0000
  C   C141      1.0  0.01490  0.61873  0.90866  1.0000
  C  Sn50      1.0  0.05150  0.58871  0.90541  1.0000
  C  Sn51      1.0  0.04762  0.54841  0.00306  1.0000
  C   C142      1.0  0.00838  0.53760  0.10197  1.0000
  C  Sn52      1.0  0.97176  0.56760  0.10532  1.0000
  O  Te49      1.0  0.93827  0.63984  0.00900  1.0000
  O  Te50      1.0  0.09039  0.60029  0.80549  1.0000
  O  Te51      1.0  0.08384  0.51789  0.00166  1.0000
  O  Te52      1.0  0.93288  0.55604  0.20513  1.0000
  Mg  Mg25      1.0  0.13071  0.54751  0.84555  1.0000
  Mg  Mg26      1.0  0.89253  0.60878  0.16510  1.0000
  C  Sn53      1.0  0.02037  0.39903  0.99488  1.0000
  C   C143      1.0  0.98128  0.38997  0.89165  1.0000
  C  Sn54      1.0  0.94538  0.42084  0.88796  1.0000
  C  Sn55      1.0  0.94863  0.46163  0.98949  1.0000
  C   C144      1.0  0.98651  0.47208  0.09262  1.0000
  C  Sn56      1.0  0.02242  0.44123  0.09641  1.0000
  O  Te53      1.0  0.05584  0.36769  0.99656  1.0000
  O  Te54      1.0  0.90664  0.41103  0.78379  1.0000
  O  Te55      1.0  0.91311  0.49297  0.98774  1.0000
  O  Te56      1.0  0.06115  0.45102  0.20048  1.0000
  Mg  Mg27      1.0  0.86738  0.46436  0.82510  1.0000
  Mg  Mg28      1.0  0.10044  0.39773  0.15920  1.0000
  C  Sn57      1.0  0.91086  0.47537  0.41021  1.0000
  C   C145      1.0  0.94426  0.50711  0.35047  1.0000
  C  Sn58      1.0  0.95528  0.54635  0.44911  1.0000
  C  Sn59      1.0  0.93247  0.55401  0.61091  1.0000
  C   C146      1.0  0.89910  0.52227  0.67059  1.0000
  C  Sn60      1.0  0.88804  0.48302  0.57201  1.0000
  O  Te57      1.0  0.90039  0.43638  0.30945  1.0000
  O  Te58      1.0  0.98879  0.57760  0.38665  1.0000
  O  Te59      1.0  0.94297  0.59304  0.71167  1.0000
  O  Te60      1.0  0.85457  0.45178  0.63442  1.0000
  Mg  Mg29      1.0  0.99107  0.62555  0.57119  1.0000
  Mg  Mg30      1.0  0.85227  0.40381  0.45004  1.0000
  C  Sn61      1.0  0.08429  0.52743  0.43178  1.0000
  C   C147      1.0  0.05336  0.49593  0.35399  1.0000
  C  Sn62      1.0  0.04324  0.45377  0.43607  1.0000
  C  Sn63      1.0  0.06447  0.44287  0.59937  1.0000
  C   C148      1.0  0.09537  0.47435  0.67709  1.0000
  C  Sn64      1.0  0.10552  0.51653  0.59508  1.0000
  O  Te61      1.0  0.09389  0.56938  0.34738  1.0000
  O  Te62      1.0  0.01222  0.42283  0.35572  1.0000
  O  Te63      1.0  0.05484  0.40088  0.68374  1.0000
  O  Te64      1.0  0.13651  0.54746  0.67536  1.0000
  Mg  Mg31      1.0  0.01025  0.37010  0.52214  1.0000
  Mg  Mg32      1.0  0.13849  0.60020  0.50911  1.0000
