data_image0
_chemical_formula_structural       C64N16C96O16H112C4SnCSn2CSnTe4Mg2SnCSn2CSnTe4Mg2SnCSn2CSnTe4Mg2SnCSn2CSnTe4Mg2SnCSn2CSnTe4Mg2SnCSn2CSnTe4Mg2SnCSn2CSnTe4Mg2SnCSn2CSnTe4Mg2
_chemical_formula_sum              "C180 N16 O16 H112 Sn32 Te32 Mg16"
_cell_length_a       29.1144
_cell_length_b       29.0939
_cell_length_c       7.57421
_cell_angle_alpha    89.6819
_cell_angle_beta     90.2708
_cell_angle_gamma    91.5953

_symmetry_space_group_name_H-M    'P1'
_space_group_IT_number       1

loop_
  _space_group_symop_operation_xyz
  'x, y, z'

loop_
  _atom_site_type_symbol
  _atom_site_label
  _atom_site_symmetry_multiplicity
  _atom_site_fract_x
  _atom_site_fract_y
  _atom_site_fract_z
  _atom_site_occupancy
  C   C1        1.0  0.98229  0.04502  0.11319  1.0000
  C   C2        1.0  0.03545  0.02286  0.85730  1.0000
  C   C3        1.0  0.51553  0.03409  0.61865  1.0000
  C   C4        1.0  0.53817  0.97873  0.86927  1.0000
  C   C5        1.0  0.48950  0.53640  0.63073  1.0000
  C   C6        1.0  0.54234  0.51375  0.37459  1.0000
  C   C7        1.0  0.46377  0.48414  0.37304  1.0000
  C   C8        1.0  0.99004  0.46252  0.11546  1.0000
  C   C9        1.0  0.94027  0.04010  0.20378  1.0000
  C   C10       1.0  0.03061  0.06369  0.75827  1.0000
  C   C11       1.0  0.55544  0.02988  0.51555  1.0000
  C   C12       1.0  0.53176  0.93771  0.96754  1.0000
  C   C13       1.0  0.44713  0.53350  0.72048  1.0000
  C   C14       1.0  0.54193  0.55682  0.28895  1.0000
  C   C15       1.0  0.46479  0.44203  0.28239  1.0000
  C   C16       1.0  0.94723  0.45686  0.02956  1.0000
  C   C17       1.0  0.92675  0.07279  0.32496  1.0000
  C   C18       1.0  0.06253  0.07687  0.62972  1.0000
  C   C19       1.0  0.56881  0.06395  0.39520  1.0000
  C   C20       1.0  0.56408  0.92403  0.09166  1.0000
  C   C21       1.0  0.43738  0.56383  0.85555  1.0000
  C   C22       1.0  0.57604  0.56983  0.16913  1.0000
  C   C23       1.0  0.43066  0.42956  0.16099  1.0000
  C   C24       1.0  0.94109  0.42504  0.89532  1.0000
  C   C25       1.0  0.95530  0.11147  0.36203  1.0000
  C   C26       1.0  0.10054  0.04932  0.59439  1.0000
  C   C27       1.0  0.54236  0.10351  0.37289  1.0000
  C   C28       1.0  0.60399  0.95138  0.12361  1.0000
  C   C29       1.0  0.47010  0.59768  0.90862  1.0000
  C   C30       1.0  0.61167  0.53983  0.12894  1.0000
  C   C31       1.0  0.39417  0.45910  0.12466  1.0000
  C   C32       1.0  0.97777  0.39818  0.83956  1.0000
  C   C33       1.0  0.99720  0.11621  0.27161  1.0000
  C   C34       1.0  0.10490  0.00850  0.69240  1.0000
  C   C35       1.0  0.50232  0.10725  0.47407  1.0000
  C   C36       1.0  0.61005  0.99245  0.02724  1.0000
  C   C37       1.0  0.51201  0.60074  0.81766  1.0000
  C   C38       1.0  0.61190  0.49682  0.21391  1.0000
  C   C39       1.0  0.39346  0.50123  0.21434  1.0000
  C   C40       1.0  0.01997  0.40279  0.92899  1.0000
  C   C41       1.0  0.01076  0.08328  0.15100  1.0000
  C   C42       1.0  0.07265  0.99521  0.81931  1.0000
  C   C43       1.0  0.48890  0.07283  0.59317  1.0000
  C   C44       1.0  0.57752  0.00608  0.90335  1.0000
  C   C45       1.0  0.52162  0.57044  0.68223  1.0000
  C   C46       1.0  0.57747  0.48381  0.33267  1.0000
  C   C47       1.0  0.42799  0.51377  0.33408  1.0000
  C   C48       1.0  0.02603  0.43474  0.06349  1.0000
  C   C49       1.0  0.94500  0.14506  0.49761  1.0000
  C   C50       1.0  0.05086  0.86953  0.51318  1.0000
  C   C51       1.0  0.13446  0.05909  0.45644  1.0000
  C   C52       1.0  0.86780  0.96091  0.42993  1.0000
  C   C53       1.0  0.55295  0.13919  0.24155  1.0000
  C   C54       1.0  0.44167  0.85912  0.21566  1.0000
  C   C55       1.0  0.36888  0.03774  0.29572  1.0000
  C   C56       1.0  0.63788  0.94048  0.25914  1.0000
  C   C57       1.0  0.46418  0.62733  0.06031  1.0000
  C   C58       1.0  0.54281  0.37131  0.06752  1.0000
  C   C59       1.0  0.64634  0.55022  0.99474  1.0000
  C   C60       1.0  0.35880  0.44944  0.99096  1.0000
  C   C61       1.0  0.02185  0.64114  0.70151  1.0000
  C   C62       1.0  0.97440  0.36905  0.68456  1.0000
  C   C63       1.0  0.86293  0.52390  0.79476  1.0000
  C   C64       1.0  0.13038  0.47199  0.81013  1.0000
  N   N1        1.0  0.91143  0.14080  0.60857  1.0000
  N   N2        1.0  0.08517  0.87238  0.62214  1.0000
  N   N3        1.0  0.13296  0.09250  0.34323  1.0000
  N   N4        1.0  0.86843  0.92557  0.32661  1.0000
  N   N5        1.0  0.58509  0.13637  0.12550  1.0000
  N   N6        1.0  0.40830  0.86242  0.10305  1.0000
  N   N7        1.0  0.37244  0.07050  0.41083  1.0000
  N   N8        1.0  0.63358  0.90664  0.36954  1.0000
  N   N9        1.0  0.42762  0.62745  0.15715  1.0000
  N   N10       1.0  0.57925  0.37125  0.16650  1.0000
  N   N11       1.0  0.64496  0.58500  0.88805  1.0000
  N   N12       1.0  0.35983  0.41573  0.88075  1.0000
  N   N13       1.0  0.05888  0.64563  0.60828  1.0000
  N   N14       1.0  0.93711  0.36443  0.59188  1.0000
  N   N15       1.0  0.86314  0.56036  0.89215  1.0000
  N   N16       1.0  0.13377  0.43346  0.89538  1.0000
  C   C65       1.0  0.90907  0.17577  0.73600  1.0000
  C   C66       1.0  0.08700  0.83729  0.75152  1.0000
  C   C67       1.0  0.16908  0.09485  0.21972  1.0000
  C   C68       1.0  0.83746  0.92333  0.18422  1.0000
  C   C69       1.0  0.58919  0.17246  0.00175  1.0000
  C   C70       1.0  0.40454  0.82668  0.97838  1.0000
  C   C71       1.0  0.33994  0.07239  0.54729  1.0000
  C   C72       1.0  0.66903  0.90306  0.49552  1.0000
  C   C73       1.0  0.42585  0.65856  0.29769  1.0000
  C   C74       1.0  0.57991  0.34071  0.31053  1.0000
  C   C75       1.0  0.67960  0.58763  0.75876  1.0000
  C   C76       1.0  0.32428  0.41305  0.75369  1.0000
  C   C77       1.0  0.06064  0.67520  0.46200  1.0000
  C   C78       1.0  0.93544  0.33580  0.44397  1.0000
  C   C79       1.0  0.83445  0.56353  0.03889  1.0000
  C   C80       1.0  0.16272  0.43127  0.04344  1.0000
  C   C81       1.0  0.91456  0.22276  0.69475  1.0000
  C   C82       1.0  0.08452  0.79017  0.71242  1.0000
  C   C83       1.0  0.21563  0.09376  0.26824  1.0000
  C   C84       1.0  0.79540  0.94598  0.18031  1.0000
  C   C85       1.0  0.59403  0.21902  0.04717  1.0000
  C   C86       1.0  0.40617  0.77997  0.02567  1.0000
  C   C87       1.0  0.29582  0.05123  0.54190  1.0000
  C   C88       1.0  0.71564  0.90133  0.45133  1.0000
  C   C89       1.0  0.45011  0.70109  0.30265  1.0000
  C   C90       1.0  0.55382  0.29926  0.31716  1.0000
  C   C91       1.0  0.72664  0.58416  0.79694  1.0000
  C   C92       1.0  0.27733  0.41262  0.79491  1.0000
  C   C93       1.0  0.03448  0.71491  0.44245  1.0000
  C   C94       1.0  0.96500  0.29918  0.41392  1.0000
  C   C95       1.0  0.80214  0.52973  0.09592  1.0000
  C   C96       1.0  0.20202  0.45991  0.06813  1.0000
  C   C97       1.0  0.91732  0.25620  0.82596  1.0000
  C   C98       1.0  0.08196  0.75672  0.84527  1.0000
  C   C99       1.0  0.25035  0.09184  0.14254  1.0000
  C   C100      1.0  0.76409  0.94046  0.04307  1.0000
  C   C101      1.0  0.59545  0.25361  0.91861  1.0000
  C   C102      1.0  0.40740  0.74540  0.89925  1.0000
  C   C103      1.0  0.26395  0.05651  0.67553  1.0000
  C   C104      1.0  0.74990  0.90224  0.58068  1.0000
  C   C105      1.0  0.44460  0.73224  0.43875  1.0000
  C   C106      1.0  0.55743  0.26841  0.45628  1.0000
  C   C107      1.0  0.75933  0.58332  0.66238  1.0000
  C   C108      1.0  0.24360  0.41290  0.66296  1.0000
  C   C109      1.0  0.04076  0.74505  0.30076  1.0000
  C   C110      1.0  0.95881  0.26960  0.27170  1.0000
  C   C111      1.0  0.77374  0.53658  0.23963  1.0000
  C   C112      1.0  0.23166  0.45444  0.21043  1.0000
  C   C113      1.0  0.91548  0.24297  0.00464  1.0000
  C   C114      1.0  0.08086  0.76988  0.02366  1.0000
  C   C115      1.0  0.23942  0.09030  0.96152  1.0000
  C   C116      1.0  0.77337  0.91166  0.89979  1.0000
  C   C117      1.0  0.59174  0.24230  0.73870  1.0000
  C   C118      1.0  0.40791  0.75672  0.71840  1.0000
  C   C119      1.0  0.27459  0.08346  0.82473  1.0000
  C   C120      1.0  0.73830  0.90499  0.76023  1.0000
  C   C121      1.0  0.41464  0.72201  0.57962  1.0000
  C   C122      1.0  0.58771  0.27734  0.59804  1.0000
  C   C123      1.0  0.74511  0.58455  0.48498  1.0000
  C   C124      1.0  0.25629  0.41427  0.48401  1.0000
  C   C125      1.0  0.07319  0.73629  0.16880  1.0000
  C   C126      1.0  0.92291  0.27613  0.15004  1.0000
  C   C127      1.0  0.77709  0.57778  0.33612  1.0000
  C   C128      1.0  0.22285  0.42015  0.33843  1.0000
  C   C129      1.0  0.90725  0.19653  0.04694  1.0000
  C   C130      1.0  0.08604  0.81681  0.06394  1.0000
  C   C131      1.0  0.19310  0.09432  0.91185  1.0000
  C   C132      1.0  0.81602  0.89032  0.89730  1.0000
  C   C133      1.0  0.58924  0.19552  0.69243  1.0000
  C   C134      1.0  0.40321  0.80305  0.67024  1.0000
  C   C135      1.0  0.31893  0.10338  0.83597  1.0000
  C   C136      1.0  0.69145  0.90364  0.80558  1.0000
  C   C137      1.0  0.39150  0.67901  0.58051  1.0000
  C   C138      1.0  0.61287  0.31922  0.59692  1.0000
  C   C139      1.0  0.69849  0.59005  0.44591  1.0000
  C   C140      1.0  0.30312  0.41237  0.44198  1.0000
  C   C141      1.0  0.09822  0.69587  0.18243  1.0000
  C   C142      1.0  0.89424  0.31342  0.17353  1.0000
  C   C143      1.0  0.80967  0.61136  0.28458  1.0000
  C   C144      1.0  0.18317  0.39215  0.31904  1.0000
  C   C145      1.0  0.90272  0.16328  0.91536  1.0000
  C   C146      1.0  0.09044  0.85007  0.93114  1.0000
  C   C147      1.0  0.15848  0.09748  0.03752  1.0000
  C   C148      1.0  0.84751  0.89575  0.03620  1.0000
  C   C149      1.0  0.58801  0.16103  0.82053  1.0000
  C   C150      1.0  0.40015  0.83751  0.79675  1.0000
  C   C151      1.0  0.35100  0.09823  0.70104  1.0000
  C   C152      1.0  0.65726  0.90247  0.67631  1.0000
  C   C153      1.0  0.39636  0.64805  0.44168  1.0000
  C   C154      1.0  0.60937  0.35034  0.45635  1.0000
  C   C155      1.0  0.66612  0.59298  0.58023  1.0000
  C   C156      1.0  0.33667  0.41116  0.57356  1.0000
  C   C157      1.0  0.09272  0.66616  0.32692  1.0000
  C   C158      1.0  0.89975  0.34237  0.31915  1.0000
  C   C159      1.0  0.83755  0.60486  0.13707  1.0000
  C   C160      1.0  0.15391  0.39682  0.17329  1.0000
  O   O1        1.0  0.89372  0.11791  0.95521  1.0000
  O   O2        1.0  0.09702  0.89587  0.96809  1.0000
  O   O3        1.0  0.11327  0.10164  0.99138  1.0000
  O   O4        1.0  0.88923  0.87478  0.03379  1.0000
  O   O5        1.0  0.58354  0.11535  0.77911  1.0000
  O   O6        1.0  0.39410  0.88246  0.74995  1.0000
  O   O7        1.0  0.39412  0.11823  0.71371  1.0000
  O   O8        1.0  0.61142  0.90269  0.71611  1.0000
  O   O9        1.0  0.37262  0.60652  0.43825  1.0000
  O   O10       1.0  0.63416  0.39131  0.45498  1.0000
  O   O11       1.0  0.62054  0.59946  0.54471  1.0000
  O   O12       1.0  0.38250  0.40979  0.53521  1.0000
  O   O13       1.0  0.11800  0.62723  0.34509  1.0000
  O   O14       1.0  0.87046  0.37773  0.34801  1.0000
  O   O15       1.0  0.86814  0.63855  0.08035  1.0000
  O   O16       1.0  0.11585  0.36834  0.15067  1.0000
  H   H1        1.0  0.91798  0.01024  0.17866  1.0000
  H   H2        1.0  0.00136  0.08528  0.78179  1.0000
  H   H3        1.0  0.57615  0.99951  0.53016  1.0000
  H   H4        1.0  0.50081  0.91654  0.94721  1.0000
  H   H5        1.0  0.42211  0.50646  0.68673  1.0000
  H   H6        1.0  0.51468  0.58042  0.31785  1.0000
  H   H7        1.0  0.49262  0.41874  0.30842  1.0000
  H   H8        1.0  0.91893  0.47835  0.06668  1.0000
  H   H9        1.0  0.89451  0.06862  0.39589  1.0000
  H   H10       1.0  0.05822  0.10821  0.55328  1.0000
  H   H11       1.0  0.59946  0.06049  0.31530  1.0000
  H   H12       1.0  0.55879  0.89260  0.16815  1.0000
  H   H13       1.0  0.40506  0.56094  0.92653  1.0000
  H   H14       1.0  0.57545  0.60296  0.10209  1.0000
  H   H15       1.0  0.43181  0.39710  0.09091  1.0000
  H   H16       1.0  0.90843  0.42118  0.82663  1.0000
  H   H17       1.0  0.02016  0.14557  0.29861  1.0000
  H   H18       1.0  0.13348  0.98611  0.66665  1.0000
  H   H19       1.0  0.48086  0.13710  0.45792  1.0000
  H   H20       1.0  0.64023  0.01454  0.05169  1.0000
  H   H21       1.0  0.53814  0.62640  0.85535  1.0000
  H   H22       1.0  0.63870  0.47261  0.18485  1.0000
  H   H23       1.0  0.36611  0.52519  0.18817  1.0000
  H   H24       1.0  0.04910  0.38238  0.89181  1.0000
  H   H25       1.0  0.04419  0.08755  0.08903  1.0000
  H   H26       1.0  0.07672  0.96245  0.88594  1.0000
  H   H27       1.0  0.45726  0.07681  0.66603  1.0000
  H   H28       1.0  0.58285  0.03889  0.83669  1.0000
  H   H29       1.0  0.55523  0.57302  0.62135  1.0000
  H   H30       1.0  0.57869  0.44991  0.39289  1.0000
  H   H31       1.0  0.42628  0.54705  0.39751  1.0000
  H   H32       1.0  0.05948  0.43809  0.12653  1.0000
  H   H33       1.0  0.96982  0.17420  0.50749  1.0000
  H   H34       1.0  0.02510  0.84121  0.52503  1.0000
  H   H35       1.0  0.16192  0.03380  0.44943  1.0000
  H   H36       1.0  0.84551  0.99013  0.40285  1.0000
  H   H37       1.0  0.52972  0.16845  0.24054  1.0000
  H   H38       1.0  0.46564  0.83055  0.20705  1.0000
  H   H39       1.0  0.34213  0.01036  0.30662  1.0000
  H   H40       1.0  0.66744  0.96486  0.26843  1.0000
  H   H41       1.0  0.49448  0.64932  0.09204  1.0000
  H   H42       1.0  0.51207  0.35015  0.10094  1.0000
  H   H43       1.0  0.67332  0.52467  0.98177  1.0000
  H   H44       1.0  0.33145  0.47482  0.98321  1.0000
  H   H45       1.0  0.98985  0.65823  0.66475  1.0000
  H   H46       1.0  0.00656  0.35250  0.64799  1.0000
  H   H47       1.0  0.84093  0.49329  0.82146  1.0000
  H   H48       1.0  0.14784  0.50379  0.85636  1.0000
  H   H49       1.0  0.91678  0.23287  0.55634  1.0000
  H   H50       1.0  0.08456  0.77987  0.57457  1.0000
  H   H51       1.0  0.22438  0.09468  0.40801  1.0000
  H   H52       1.0  0.78642  0.96719  0.29175  1.0000
  H   H53       1.0  0.59661  0.22802  0.18623  1.0000
  H   H54       1.0  0.40648  0.77101  0.16541  1.0000
  H   H55       1.0  0.28581  0.03095  0.42729  1.0000
  H   H56       1.0  0.72485  0.89962  0.31253  1.0000
  H   H57       1.0  0.47250  0.71052  0.19312  1.0000
  H   H58       1.0  0.53134  0.29036  0.20686  1.0000
  H   H59       1.0  0.73741  0.58209  0.93465  1.0000
  H   H60       1.0  0.26735  0.41232  0.93328  1.0000
  H   H61       1.0  0.01022  0.72310  0.54559  1.0000
  H   H62       1.0  0.99231  0.29298  0.50871  1.0000
  H   H63       1.0  0.79885  0.49763  0.02363  1.0000
  H   H64       1.0  0.21040  0.48566  0.96803  1.0000
  H   H65       1.0  0.92226  0.29224  0.79058  1.0000
  H   H66       1.0  0.07903  0.72054  0.81027  1.0000
  H   H67       1.0  0.28598  0.09029  0.18533  1.0000
  H   H68       1.0  0.73189  0.95855  0.04597  1.0000
  H   H69       1.0  0.59793  0.28947  0.95835  1.0000
  H   H70       1.0  0.40951  0.70970  0.94079  1.0000
  H   H71       1.0  0.23028  0.03947  0.66564  1.0000
  H   H72       1.0  0.78581  0.90255  0.54173  1.0000
  H   H73       1.0  0.46369  0.76494  0.43731  1.0000
  H   H74       1.0  0.53667  0.23674  0.45639  1.0000
  H   H75       1.0  0.79554  0.58065  0.69464  1.0000
  H   H76       1.0  0.20752  0.41349  0.69901  1.0000
  H   H77       1.0  0.02082  0.77608  0.29158  1.0000
  H   H78       1.0  0.98175  0.24117  0.25252  1.0000
  H   H79       1.0  0.74883  0.51008  0.28009  1.0000
  H   H80       1.0  0.26219  0.47662  0.22362  1.0000
  H   H81       1.0  0.90368  0.18624  0.18496  1.0000
  H   H82       1.0  0.08727  0.82752  0.20169  1.0000
  H   H83       1.0  0.18378  0.09532  0.77232  1.0000
  H   H84       1.0  0.82444  0.86794  0.78795  1.0000
  H   H85       1.0  0.58842  0.18572  0.55369  1.0000
  H   H86       1.0  0.40114  0.81270  0.53119  1.0000
  H   H87       1.0  0.32838  0.12460  0.94924  1.0000
  H   H88       1.0  0.68127  0.90340  0.94399  1.0000
  H   H89       1.0  0.36803  0.67022  0.68786  1.0000
  H   H90       1.0  0.63663  0.32739  0.70454  1.0000
  H   H91       1.0  0.68733  0.59261  0.30868  1.0000
  H   H92       1.0  0.31362  0.41147  0.30402  1.0000
  H   H93       1.0  0.12364  0.68836  0.08230  1.0000
  H   H94       1.0  0.86625  0.31884  0.08040  1.0000
  H   H95       1.0  0.81235  0.64360  0.35690  1.0000
  H   H96       1.0  0.17593  0.36506  0.41567  1.0000
  H   H97       1.0  0.89830  0.11300  0.08195  1.0000
  H   H98       1.0  0.09176  0.90079  0.09409  1.0000
  H   H99       1.0  0.10948  0.09617  0.86463  1.0000
  H   H100      1.0  0.89326  0.86226  0.91606  1.0000
  H   H101      1.0  0.58013  0.11210  0.65121  1.0000
  H   H102      1.0  0.40023  0.88647  0.62370  1.0000
  H   H103      1.0  0.39779  0.13044  0.83245  1.0000
  H   H104      1.0  0.60768  0.90669  0.84343  1.0000
  H   H105      1.0  0.35616  0.60303  0.54917  1.0000
  H   H106      1.0  0.64980  0.39458  0.56816  1.0000
  H   H107      1.0  0.61494  0.59539  0.41808  1.0000
  H   H108      1.0  0.38695  0.41343  0.40776  1.0000
  H   H109      1.0  0.13513  0.62302  0.23670  1.0000
  H   H110      1.0  0.84957  0.37913  0.24781  1.0000
  H   H111      1.0  0.86694  0.66402  0.16255  1.0000
  H   H112      1.0  0.11340  0.34825  0.25335  1.0000
  C   C161      1.0  0.99770  0.00663  0.98865  1.0000
  C   C162      1.0  0.49970  0.99480  0.74399  1.0000
  C   C163      1.0  0.50311  0.49860  0.49978  1.0000
  C   C164      1.0  0.99859  0.50199  0.24701  1.0000
  C  Sn1       1.0  0.47929  0.42621  0.74174  1.0000
  C   C165      1.0  0.50706  0.46162  0.67104  1.0000
  C  Sn2       1.0  0.55411  0.46389  0.70826  1.0000
  C  Sn3       1.0  0.57382  0.43005  0.81835  1.0000
  C   C166      1.0  0.54606  0.39467  0.88895  1.0000
  C  Sn4       1.0  0.49900  0.39237  0.85183  1.0000
  O  Te1       1.0  0.43235  0.42461  0.70276  1.0000
  O  Te2       1.0  0.58117  0.49962  0.63610  1.0000
  O  Te3       1.0  0.62080  0.43167  0.85730  1.0000
  O  Te4       1.0  0.47195  0.35666  0.92389  1.0000
  Mg  Mg1       1.0  0.64339  0.48701  0.72767  1.0000
  Mg  Mg2       1.0  0.40973  0.36923  0.83235  1.0000
  C  Sn5       1.0  0.97445  0.60932  0.00767  1.0000
  C   C167      1.0  0.01490  0.61873  0.90866  1.0000
  C  Sn6       1.0  0.05150  0.58871  0.90541  1.0000
  C  Sn7       1.0  0.04762  0.54841  0.00306  1.0000
  C   C168      1.0  0.00838  0.53760  0.10197  1.0000
  C  Sn8       1.0  0.97176  0.56760  0.10532  1.0000
  O  Te5       1.0  0.93827  0.63984  0.00900  1.0000
  O  Te6       1.0  0.09039  0.60029  0.80549  1.0000
  O  Te7       1.0  0.08384  0.51789  0.00166  1.0000
  O  Te8       1.0  0.93288  0.55604  0.20513  1.0000
  Mg  Mg3       1.0  0.13071  0.54751  0.84555  1.0000
  Mg  Mg4       1.0  0.89253  0.60878  0.16510  1.0000
  C  Sn9       1.0  0.90762  0.01405  0.82223  1.0000
  C   C169      1.0  0.97281  0.98925  0.88324  1.0000
  C  Sn10      1.0  0.98965  0.95317  0.78374  1.0000
  C  Sn11      1.0  0.96873  0.94165  0.61978  1.0000
  C   C170      1.0  0.93140  0.96645  0.55883  1.0000
  C  Sn12      1.0  0.88670  0.00254  0.65826  1.0000
  O  Te9       1.0  0.89135  0.04999  0.92388  1.0000
  O  Te10      1.0  0.02704  0.92886  0.84751  1.0000
  O  Te11      1.0  0.98504  0.90568  0.51813  1.0000
  O  Te12      1.0  0.84934  0.02684  0.59455  1.0000
  Mg  Mg5       1.0  0.03678  0.88277  0.66103  1.0000
  Mg  Mg6       1.0  0.83959  0.07295  0.78088  1.0000
  C  Sn13      1.0  0.42902  0.95087  0.52554  1.0000
  C   C171      1.0  0.46915  0.95111  0.62754  1.0000
  C  Sn14      1.0  0.50544  0.92306  0.58277  1.0000
  C  Sn15      1.0  0.50155  0.89419  0.43286  1.0000
  C   C172      1.0  0.46144  0.89397  0.33094  1.0000
  C  Sn16      1.0  0.42513  0.92200  0.37562  1.0000
  O  Te13      1.0  0.39318  0.97919  0.57274  1.0000
  O  Te14      1.0  0.54521  0.92389  0.68680  1.0000
  O  Te15      1.0  0.53744  0.86586  0.38572  1.0000
  O  Te16      1.0  0.38538  0.92119  0.27167  1.0000
  Mg  Mg7       1.0  0.58464  0.87913  0.56872  1.0000
  Mg  Mg8       1.0  0.34594  0.96595  0.38957  1.0000
  C  Sn17      1.0  0.95840  0.55132  0.52869  1.0000
  C   C173      1.0  0.96556  0.51276  0.42420  1.0000
  C  Sn18      1.0  0.93234  0.47725  0.41542  1.0000
  C  Sn19      1.0  0.89110  0.48037  0.51301  1.0000
  C   C174      1.0  0.88396  0.51891  0.61739  1.0000
  C  Sn20      1.0  0.91716  0.55444  0.62628  1.0000
  O  Te17      1.0  0.99207  0.58641  0.53549  1.0000
  O  Te18      1.0  0.94028  0.43903  0.31009  1.0000
  O  Te19      1.0  0.85742  0.44523  0.50613  1.0000
  O  Te20      1.0  0.90924  0.59264  0.73150  1.0000
  Mg  Mg9       1.0  0.88408  0.40015  0.34385  1.0000
  Mg  Mg10      1.0  0.96539  0.63156  0.69777  1.0000
  C  Sn21      1.0  0.47115  0.04766  0.04754  1.0000
  C   C175      1.0  0.46970  0.00979  0.92820  1.0000
  C  Sn22      1.0  0.45630  0.98483  0.90444  1.0000
  C  Sn23      1.0  0.41569  0.99798  0.00192  1.0000
  C   C176      1.0  0.39051  0.03441  0.12116  1.0000
  C  Sn24      1.0  0.43173  0.05939  0.14503  1.0000
  O  Te21      1.0  0.51272  0.07214  0.06917  1.0000
  O  Te22      1.0  0.45451  0.94853  0.78441  1.0000
  O  Te23      1.0  0.37529  0.97204  0.98020  1.0000
  O  Te24      1.0  0.43353  0.09568  0.26495  1.0000
  Mg  Mg11      1.0  0.39004  0.92548  0.80114  1.0000
  Mg  Mg12      1.0  0.49797  0.11876  0.24826  1.0000
  C  Sn25      1.0  0.99914  0.89662  0.21777  1.0000
  C   C177      1.0  0.03892  0.89673  0.32177  1.0000
  C  Sn26      1.0  0.06600  0.93684  0.33967  1.0000
  C  Sn27      1.0  0.05304  0.97770  0.25189  1.0000
  C   C178      1.0  0.01328  0.97758  0.14799  1.0000
  C  Sn28      1.0  0.98618  0.93748  0.12998  1.0000
  O  Te25      1.0  0.97258  0.85613  0.20175  1.0000
  O  Te26      1.0  0.10563  0.93610  0.44432  1.0000
  O  Te27      1.0  0.05182  0.01821  0.26798  1.0000
  O  Te28      1.0  0.94657  0.93821  0.02544  1.0000
  Mg  Mg13      1.0  0.10271  0.99995  0.42531  1.0000
  Mg  Mg14      1.0  0.92163  0.87439  0.04443  1.0000
  C  Sn29      1.0  0.07650  0.43643  0.51964  1.0000
  C   C179      1.0  0.10647  0.46822  0.60104  1.0000
  C  Sn30      1.0  0.09998  0.51536  0.58118  1.0000
  C  Sn31      1.0  0.06275  0.53106  0.47788  1.0000
  C   C180      1.0  0.03280  0.49929  0.39657  1.0000
  C  Sn32      1.0  0.03927  0.45213  0.41634  1.0000
  O  Te29      1.0  0.08364  0.38946  0.54131  1.0000
  O  Te30      1.0  0.13041  0.54648  0.66379  1.0000
  O  Te31      1.0  0.05563  0.57807  0.45626  1.0000
  O  Te32      1.0  0.00887  0.42102  0.33382  1.0000
  Mg  Mg15      1.0  0.10633  0.60701  0.59497  1.0000
  Mg  Mg16      1.0  0.03289  0.36048  0.40263  1.0000
