data_image0
_chemical_formula_structural       CNC6OH4C2OH2CHCHO2HCNC6OH4C2OH2CHCHO2HCNC6OH4C2OH2CHCHO2HCNC6OH4C2OH2CHCHO2HCNC6OH4C2OH2CHCHO2HCNC6OH4C2OH2CHCHO2HCNC6OH4C2OH2CHCHO2HCNC6OH4C2OH2CHCHO2HCNC6OH4C2OH2CHCHO2HCNC6OH4C2OH2CHCHO2HCNC6OH4C2OH2CHCHO2HCNC6OH4C2OH2CHCHO2HCNC6OH4C2OH2CHCHO2HCNC6OH4C2OH2CHCHO2HCNC6OH4C2OH2CHCHO2HCNC6OH4C2OH2CHCHO2HC4SnCSn2CSnTe4Mg2SnCSn2CSnTe4Mg2SnCSn2CSnTe4Mg2SnCSn2CSnTe4Mg2SnCSn2CSnTe4Mg2SnCSn2CSnTe4Mg2SnCSn2CSnTe4Mg2SnCSn2CSnTe4Mg2SnCSn2CSnTe4Mg2SnCSn2CSnTe4Mg2SnCSn2CSnTe4Mg2SnCSn2CSnTe4Mg2SnCSn2CSnTe4Mg2SnCSn2CSnTe4Mg2SnCSn2CSnTe4Mg2SnCSn2CSnTe4Mg2
_chemical_formula_sum              "C212 N16 O64 H144 Sn64 Te64 Mg32"
_cell_length_a       30.9265
_cell_length_b       31.1697
_cell_length_c       7.1942
_cell_angle_alpha    89.7004
_cell_angle_beta     90.0735
_cell_angle_gamma    91.4895

_symmetry_space_group_name_H-M    'P1'
_space_group_IT_number       1

loop_
  _space_group_symop_operation_xyz
  'x, y, z'

loop_
  _atom_site_type_symbol
  _atom_site_label
  _atom_site_symmetry_multiplicity
  _atom_site_fract_x
  _atom_site_fract_y
  _atom_site_fract_z
  _atom_site_occupancy
  C   C1        1.0  0.96314  0.12991  0.57406  1.0000
  N   N1        1.0  0.92516  0.13897  0.63594  1.0000
  C   C2        1.0  0.92361  0.17115  0.77141  1.0000
  C   C3        1.0  0.95076  0.20814  0.76260  1.0000
  C   C4        1.0  0.94969  0.24012  0.89639  1.0000
  C   C5        1.0  0.92054  0.23656  0.04459  1.0000
  C   C6        1.0  0.89307  0.20022  0.05534  1.0000
  C   C7        1.0  0.89429  0.16832  0.92074  1.0000
  O   O1        1.0  0.86794  0.13170  0.95211  1.0000
  H   H1        1.0  0.99265  0.14392  0.63754  1.0000
  H   H2        1.0  0.97276  0.21157  0.64535  1.0000
  H   H3        1.0  0.97194  0.26775  0.88995  1.0000
  H   H4        1.0  0.87045  0.19641  0.17034  1.0000
  C   C8        1.0  0.37168  0.32659  0.59913  1.0000
  C   C9        1.0  0.40084  0.29816  0.48906  1.0000
  O   O2        1.0  0.34822  0.31555  0.72567  1.0000
  H   H5        1.0  0.38240  0.28923  0.36314  1.0000
  H   H6        1.0  0.40556  0.26857  0.56792  1.0000
  C   C10       1.0  0.44432  0.31807  0.43117  1.0000
  H   H7        1.0  0.46129  0.29569  0.34050  1.0000
  C   C11       1.0  0.47465  0.32637  0.59181  1.0000
  H   H8        1.0  0.44060  0.34779  0.35131  1.0000
  O   O3        1.0  0.47226  0.30939  0.74511  1.0000
  O   O4        1.0  0.50618  0.35522  0.54189  1.0000
  H   H9        1.0  0.52547  0.36007  0.64861  1.0000
  C   C12       1.0  0.46086  0.62628  0.07438  1.0000
  N   N2        1.0  0.42300  0.63562  0.13670  1.0000
  C   C13       1.0  0.42183  0.66758  0.27348  1.0000
  C   C14       1.0  0.44845  0.70490  0.26282  1.0000
  C   C15       1.0  0.44758  0.73675  0.39728  1.0000
  C   C16       1.0  0.41923  0.73278  0.54826  1.0000
  C   C17       1.0  0.39225  0.69607  0.56088  1.0000
  C   C18       1.0  0.39332  0.66431  0.42546  1.0000
  O   O5        1.0  0.36776  0.62720  0.45766  1.0000
  H   H10       1.0  0.49048  0.63974  0.13924  1.0000
  H   H11       1.0  0.46971  0.70872  0.14328  1.0000
  H   H12       1.0  0.46947  0.76462  0.38860  1.0000
  H   H13       1.0  0.37023  0.69176  0.67776  1.0000
  C   C19       1.0  0.86776  0.82434  0.08832  1.0000
  C   C20       1.0  0.89689  0.79905  0.96382  1.0000
  O   O6        1.0  0.84201  0.80965  0.19947  1.0000
  H   H14       1.0  0.87862  0.79495  0.83300  1.0000
  H   H15       1.0  0.90002  0.76689  0.02304  1.0000
  C   C21       1.0  0.94101  0.81947  0.91941  1.0000
  H   H16       1.0  0.95855  0.79839  0.82468  1.0000
  C   C22       1.0  0.96973  0.82584  0.08729  1.0000
  H   H17       1.0  0.93810  0.85036  0.84755  1.0000
  O   O7        1.0  0.96566  0.80766  0.23762  1.0000
  O   O8        1.0  0.00199  0.85489  0.04775  1.0000
  H   H18       1.0  0.02030  0.85851  0.15840  1.0000
  C   C23       1.0  0.03777  0.87443  0.57620  1.0000
  N   N3        1.0  0.07588  0.86579  0.63862  1.0000
  C   C24       1.0  0.07747  0.83323  0.77423  1.0000
  C   C25       1.0  0.05059  0.79611  0.76186  1.0000
  C   C26       1.0  0.05056  0.76403  0.89675  1.0000
  C   C27       1.0  0.07843  0.76735  0.04971  1.0000
  C   C28       1.0  0.10594  0.80361  0.06304  1.0000
  C   C29       1.0  0.10576  0.83577  0.92744  1.0000
  O   O9        1.0  0.13200  0.87234  0.96208  1.0000
  H   H19       1.0  0.00848  0.86010  0.64032  1.0000
  H   H20       1.0  0.02954  0.79293  0.64122  1.0000
  H   H21       1.0  0.02829  0.73650  0.88753  1.0000
  H   H22       1.0  0.12770  0.80734  0.18108  1.0000
  C   C30       1.0  0.63689  0.67622  0.54847  1.0000
  C   C31       1.0  0.60488  0.69892  0.42653  1.0000
  O   O10       1.0  0.66687  0.69292  0.63064  1.0000
  H   H23       1.0  0.61799  0.69685  0.28423  1.0000
  H   H24       1.0  0.60624  0.73303  0.46243  1.0000
  C   C32       1.0  0.55883  0.68036  0.42497  1.0000
  H   H25       1.0  0.53883  0.69839  0.32659  1.0000
  C   C33       1.0  0.53554  0.68091  0.60903  1.0000
  H   H26       1.0  0.55799  0.64708  0.37612  1.0000
  O   O11       1.0  0.54737  0.69903  0.75133  1.0000
  O   O12       1.0  0.49784  0.65787  0.59454  1.0000
  H   H27       1.0  0.48347  0.65740  0.71581  1.0000
  C   C34       1.0  0.53789  0.37310  0.07465  1.0000
  N   N4        1.0  0.57624  0.36572  0.13771  1.0000
  C   C35       1.0  0.57879  0.33312  0.27261  1.0000
  C   C36       1.0  0.55379  0.29484  0.25657  1.0000
  C   C37       1.0  0.55478  0.26261  0.39053  1.0000
  C   C38       1.0  0.58169  0.26702  0.54611  1.0000
  C   C39       1.0  0.60724  0.30455  0.56342  1.0000
  C   C40       1.0  0.60610  0.33679  0.42861  1.0000
  O   O13       1.0  0.63009  0.37468  0.46664  1.0000
  H   H28       1.0  0.50900  0.35779  0.13786  1.0000
  H   H29       1.0  0.53342  0.29095  0.13421  1.0000
  H   H30       1.0  0.53396  0.23407  0.37807  1.0000
  H   H31       1.0  0.62823  0.30911  0.68357  1.0000
  C   C41       1.0  0.13537  0.17456  0.07191  1.0000
  C   C42       1.0  0.10604  0.20091  0.95148  1.0000
  O   O14       1.0  0.16215  0.18817  0.18039  1.0000
  H   H32       1.0  0.12151  0.20214  0.81344  1.0000
  H   H33       1.0  0.10693  0.23378  0.00378  1.0000
  C   C43       1.0  0.05984  0.18356  0.92868  1.0000
  H   H34       1.0  0.04234  0.20375  0.82930  1.0000
  C   C44       1.0  0.03322  0.18322  0.10417  1.0000
  H   H35       1.0  0.05894  0.15116  0.87002  1.0000
  O   O15       1.0  0.04098  0.20339  0.24637  1.0000
  O   O16       1.0  0.99781  0.15721  0.08144  1.0000
  H   H36       1.0  0.98060  0.15768  0.19551  1.0000
  C   C45       1.0  0.12926  0.04268  0.44476  1.0000
  N   N5        1.0  0.13777  0.07995  0.37067  1.0000
  C   C46       1.0  0.16927  0.08037  0.22902  1.0000
  C   C47       1.0  0.20636  0.05530  0.24432  1.0000
  C   C48       1.0  0.23710  0.05346  0.10424  1.0000
  C   C49       1.0  0.23230  0.07747  0.94085  1.0000
  C   C50       1.0  0.19618  0.10343  0.92411  1.0000
  C   C51       1.0  0.16558  0.10529  0.06623  1.0000
  O   O17       1.0  0.12968  0.13077  0.03011  1.0000
  H   H37       1.0  0.14314  0.01354  0.38650  1.0000
  H   H38       1.0  0.21077  0.03730  0.37222  1.0000
  H   H39       1.0  0.26487  0.03298  0.11868  1.0000
  H   H40       1.0  0.19155  0.12278  0.79962  1.0000
  C   C52       1.0  0.32353  0.63027  0.41823  1.0000
  C   C53       1.0  0.29713  0.60076  0.54426  1.0000
  O   O18       1.0  0.30945  0.65550  0.30665  1.0000
  H   H41       1.0  0.29131  0.61985  0.67026  1.0000
  H   H42       1.0  0.26544  0.59459  0.48048  1.0000
  C   C54       1.0  0.31777  0.55872  0.60065  1.0000
  H   H43       1.0  0.29642  0.54111  0.69877  1.0000
  C   C55       1.0  0.32471  0.52908  0.43904  1.0000
  H   H44       1.0  0.34855  0.56414  0.67349  1.0000
  O   O19       1.0  0.30779  0.53205  0.28599  1.0000
  O   O20       1.0  0.35261  0.49788  0.48634  1.0000
  H   H45       1.0  0.35570  0.47876  0.37946  1.0000
  C   C56       1.0  0.62852  0.54239  0.94898  1.0000
  N   N6        1.0  0.63704  0.58008  0.87933  1.0000
  C   C57       1.0  0.66950  0.58166  0.74217  1.0000
  C   C58       1.0  0.70688  0.55704  0.76030  1.0000
  C   C59       1.0  0.73857  0.55640  0.62389  1.0000
  C   C60       1.0  0.73447  0.58131  0.46269  1.0000
  C   C61       1.0  0.69814  0.60681  0.44365  1.0000
  C   C62       1.0  0.66642  0.60732  0.58134  1.0000
  O   O21       1.0  0.62972  0.63156  0.54343  1.0000
  H   H46       1.0  0.64302  0.51359  0.89030  1.0000
  H   H47       1.0  0.71073  0.53851  0.88722  1.0000
  H   H48       1.0  0.76661  0.53630  0.63949  1.0000
  H   H49       1.0  0.69426  0.62661  0.31996  1.0000
  C   C63       1.0  0.82354  0.13663  0.92030  1.0000
  C   C64       1.0  0.79717  0.10868  0.05229  1.0000
  O   O22       1.0  0.80957  0.16217  0.80990  1.0000
  H   H50       1.0  0.79396  0.12832  0.17849  1.0000
  H   H51       1.0  0.76449  0.10446  0.99594  1.0000
  C   C65       1.0  0.81638  0.06585  0.10664  1.0000
  H   H52       1.0  0.79547  0.04954  0.21055  1.0000
  C   C66       1.0  0.82047  0.03519  0.94664  1.0000
  H   H53       1.0  0.84821  0.07006  0.17180  1.0000
  O   O23       1.0  0.80088  0.03667  0.79931  1.0000
  O   O24       1.0  0.84895  0.00420  0.99005  1.0000
  H   H54       1.0  0.85029  0.98416  0.88561  1.0000
  C   C67       1.0  0.87041  0.95982  0.44625  1.0000
  N   N7        1.0  0.86269  0.92195  0.37830  1.0000
  C   C68       1.0  0.83134  0.91968  0.23618  1.0000
  C   C69       1.0  0.79374  0.94416  0.24611  1.0000
  C   C70       1.0  0.76261  0.94376  0.10691  1.0000
  C   C71       1.0  0.76766  0.91819  0.94950  1.0000
  C   C72       1.0  0.80447  0.89302  0.93767  1.0000
  C   C73       1.0  0.83539  0.89310  0.07957  1.0000
  O   O25       1.0  0.87211  0.86840  0.04823  1.0000
  H   H55       1.0  0.85634  0.98843  0.38227  1.0000
  H   H56       1.0  0.78925  0.96356  0.36914  1.0000
  H   H57       1.0  0.73446  0.96387  0.11673  1.0000
  H   H58       1.0  0.80940  0.87284  0.81688  1.0000
  C   C74       1.0  0.67473  0.37256  0.43669  1.0000
  C   C75       1.0  0.69943  0.40347  0.56129  1.0000
  O   O26       1.0  0.69047  0.34686  0.33283  1.0000
  H   H59       1.0  0.70496  0.38542  0.69128  1.0000
  H   H60       1.0  0.73142  0.41025  0.50098  1.0000
  C   C76       1.0  0.67738  0.44521  0.60747  1.0000
  H   H61       1.0  0.69692  0.46351  0.70942  1.0000
  C   C77       1.0  0.67160  0.47415  0.44115  1.0000
  H   H62       1.0  0.64563  0.43961  0.67207  1.0000
  O   O27       1.0  0.68812  0.46999  0.28809  1.0000
  O   O28       1.0  0.64475  0.50632  0.48491  1.0000
  H   H63       1.0  0.64109  0.52448  0.37435  1.0000
  C   C78       1.0  0.36944  0.45563  0.94058  1.0000
  N   N8        1.0  0.36305  0.41802  0.86790  1.0000
  C   C79       1.0  0.33116  0.41602  0.72791  1.0000
  C   C80       1.0  0.29230  0.43810  0.74812  1.0000
  C   C81       1.0  0.26123  0.43918  0.60885  1.0000
  C   C82       1.0  0.26772  0.41769  0.44120  1.0000
  C   C83       1.0  0.30540  0.39419  0.42061  1.0000
  C   C84       1.0  0.33603  0.39257  0.56283  1.0000
  O   O29       1.0  0.37258  0.36825  0.52453  1.0000
  H   H64       1.0  0.35368  0.48391  0.88197  1.0000
  H   H65       1.0  0.28661  0.45396  0.87951  1.0000
  H   H66       1.0  0.23172  0.45686  0.62815  1.0000
  H   H67       1.0  0.31110  0.37628  0.29395  1.0000
  C   C85       1.0  0.17642  0.86768  0.93096  1.0000
  C   C86       1.0  0.20263  0.89562  0.06275  1.0000
  O   O30       1.0  0.19047  0.84244  0.82055  1.0000
  H   H68       1.0  0.20691  0.87583  0.18888  1.0000
  H   H69       1.0  0.23500  0.90116  0.00468  1.0000
  C   C87       1.0  0.18256  0.93797  0.11637  1.0000
  H   H70       1.0  0.20488  0.95606  0.20825  1.0000
  C   C88       1.0  0.17444  0.96669  0.95181  1.0000
  H   H71       1.0  0.15229  0.93324  0.19363  1.0000
  O   O31       1.0  0.19053  0.96338  0.79777  1.0000
  O   O32       1.0  0.14679  0.99805  0.99832  1.0000
  H   H72       1.0  0.14347  0.01690  0.88972  1.0000
  C   C89       1.0  0.54207  0.12676  0.17703  1.0000
  N   N9        1.0  0.57999  0.13531  0.10725  1.0000
  C   C90       1.0  0.58174  0.16750  0.96906  1.0000
  C   C91       1.0  0.55667  0.20446  0.98511  1.0000
  C   C92       1.0  0.55659  0.23646  0.85014  1.0000
  C   C93       1.0  0.58229  0.23297  0.69133  1.0000
  C   C94       1.0  0.60816  0.19699  0.67364  1.0000
  C   C95       1.0  0.60845  0.16514  0.81079  1.0000
  O   O33       1.0  0.63385  0.12947  0.77285  1.0000
  H   H73       1.0  0.51292  0.14078  0.11619  1.0000
  H   H74       1.0  0.53719  0.20774  0.10953  1.0000
  H   H75       1.0  0.53601  0.26406  0.86401  1.0000
  H   H76       1.0  0.62858  0.19343  0.55192  1.0000
  C   C96       1.0  0.13271  0.32221  0.15510  1.0000
  C   C97       1.0  0.10221  0.29644  0.27863  1.0000
  O   O34       1.0  0.15841  0.30761  0.04753  1.0000
  H   H77       1.0  0.12159  0.28887  0.40296  1.0000
  H   H78       1.0  0.09465  0.26568  0.21214  1.0000
  C   C98       1.0  0.06087  0.31789  0.33902  1.0000
  H   H79       1.0  0.04315  0.29659  0.43707  1.0000
  C   C99       1.0  0.02997  0.32636  0.18180  1.0000
  H   H80       1.0  0.06761  0.34800  0.41274  1.0000
  O   O35       1.0  0.03035  0.30984  0.02815  1.0000
  O   O36       1.0  0.99994  0.35484  0.23609  1.0000
  H   H81       1.0  0.97975  0.35866  0.13223  1.0000
  C   C100      1.0  0.03783  0.62839  0.68477  1.0000
  N   N10       1.0  0.07586  0.63716  0.61709  1.0000
  C   C101      1.0  0.07758  0.66901  0.47766  1.0000
  C   C102      1.0  0.05257  0.70601  0.49173  1.0000
  C   C103      1.0  0.05252  0.73752  0.35463  1.0000
  C   C104      1.0  0.07826  0.73349  0.19614  1.0000
  C   C105      1.0  0.10395  0.69736  0.18055  1.0000
  C   C106      1.0  0.10417  0.66604  0.31982  1.0000
  O   O37       1.0  0.12999  0.63035  0.28699  1.0000
  H   H82       1.0  0.00876  0.64215  0.62254  1.0000
  H   H83       1.0  0.03318  0.70968  0.61613  1.0000
  H   H84       1.0  0.03202  0.76522  0.36687  1.0000
  H   H85       1.0  0.12438  0.69335  0.05916  1.0000
  C   C107      1.0  0.63292  0.82112  0.64532  1.0000
  C   C108      1.0  0.60371  0.79246  0.76238  1.0000
  O   O38       1.0  0.65768  0.80967  0.52665  1.0000
  H   H86       1.0  0.62338  0.78364  0.88403  1.0000
  H   H87       1.0  0.59703  0.76263  0.68748  1.0000
  C   C109      1.0  0.56157  0.81166  0.82823  1.0000
  H   H88       1.0  0.54403  0.78796  0.91629  1.0000
  C   C110      1.0  0.53153  0.82234  0.67006  1.0000
  H   H89       1.0  0.56699  0.84031  0.91360  1.0000
  O   O39       1.0  0.53235  0.80715  0.51387  1.0000
  O   O40       1.0  0.50182  0.85112  0.72400  1.0000
  H   H90       1.0  0.48238  0.85620  0.61840  1.0000
  C   C111      1.0  0.45758  0.87076  0.18188  1.0000
  N   N11       1.0  0.41941  0.86182  0.11566  1.0000
  C   C112      1.0  0.41784  0.83024  0.97625  1.0000
  C   C113      1.0  0.44393  0.79392  0.98956  1.0000
  C   C114      1.0  0.44471  0.76284  0.85227  1.0000
  C   C115      1.0  0.41845  0.76626  0.69464  1.0000
  C   C116      1.0  0.39152  0.80159  0.68032  1.0000
  C   C117      1.0  0.39071  0.83270  0.81915  1.0000
  O   O41       1.0  0.36429  0.86785  0.78298  1.0000
  H   H91       1.0  0.48659  0.85763  0.11731  1.0000
  H   H92       1.0  0.46377  0.79054  0.11320  1.0000
  H   H93       1.0  0.46623  0.73591  0.86530  1.0000
  H   H94       1.0  0.37070  0.80532  0.55961  1.0000
  C   C118      1.0  0.86678  0.67812  0.17898  1.0000
  C   C119      1.0  0.89673  0.70404  0.30333  1.0000
  O   O42       1.0  0.83976  0.69245  0.07608  1.0000
  H   H95       1.0  0.87857  0.70791  0.43396  1.0000
  H   H96       1.0  0.90083  0.73634  0.24453  1.0000
  C   C120      1.0  0.94016  0.68436  0.34822  1.0000
  H   H97       1.0  0.95892  0.70628  0.43916  1.0000
  C   C121      1.0  0.96800  0.67685  0.17990  1.0000
  H   H98       1.0  0.93610  0.65401  0.42469  1.0000
  O   O43       1.0  0.96533  0.69480  0.02894  1.0000
  O   O44       1.0  0.99791  0.64699  0.21936  1.0000
  H   H99       1.0  0.01597  0.64331  0.10876  1.0000
  C   C122      1.0  0.95471  0.37226  0.68749  1.0000
  N   N12       1.0  0.91674  0.36376  0.61815  1.0000
  C   C123      1.0  0.91599  0.33263  0.47655  1.0000
  C   C124      1.0  0.94162  0.29605  0.49226  1.0000
  C   C125      1.0  0.94353  0.26540  0.35362  1.0000
  C   C126      1.0  0.91913  0.26986  0.19115  1.0000
  C   C127      1.0  0.89253  0.30533  0.17422  1.0000
  C   C128      1.0  0.89033  0.33576  0.31535  1.0000
  O   O45       1.0  0.86298  0.37028  0.28043  1.0000
  H   H100      1.0  0.98381  0.35897  0.62442  1.0000
  H   H101      1.0  0.95990  0.29193  0.61972  1.0000
  H   H102      1.0  0.96443  0.23805  0.36893  1.0000
  H   H103      1.0  0.87268  0.30938  0.05064  1.0000
  C   C129      1.0  0.36249  0.17442  0.68378  1.0000
  C   C130      1.0  0.39270  0.19834  0.81419  1.0000
  O   O46       1.0  0.33330  0.19024  0.59777  1.0000
  H   H104      1.0  0.37541  0.19835  0.94847  1.0000
  H   H105      1.0  0.39463  0.23196  0.76923  1.0000
  C   C131      1.0  0.43721  0.17975  0.84496  1.0000
  H   H106      1.0  0.45556  0.19965  0.94541  1.0000
  C   C132      1.0  0.46470  0.17764  0.67237  1.0000
  H   H107      1.0  0.43488  0.14746  0.90593  1.0000
  O   O47       1.0  0.45905  0.19669  0.52567  1.0000
  O   O48       1.0  0.49814  0.15110  0.70393  1.0000
  H   H108      1.0  0.51591  0.15007  0.59140  1.0000
  C   C133      1.0  0.37157  0.03495  0.30978  1.0000
  N   N13       1.0  0.36242  0.07249  0.37270  1.0000
  C   C134      1.0  0.33064  0.07374  0.51238  1.0000
  C   C135      1.0  0.29404  0.04578  0.51038  1.0000
  C   C136      1.0  0.26235  0.04638  0.64716  1.0000
  C   C137      1.0  0.26563  0.07607  0.79222  1.0000
  C   C138      1.0  0.30161  0.10421  0.79683  1.0000
  C   C139      1.0  0.33341  0.10333  0.65956  1.0000
  O   O49       1.0  0.37010  0.13009  0.68550  1.0000
  H   H109      1.0  0.35811  0.00553  0.37508  1.0000
  H   H110      1.0  0.29079  0.02331  0.39585  1.0000
  H   H111      1.0  0.23514  0.02345  0.64512  1.0000
  H   H112      1.0  0.30521  0.12712  0.90974  1.0000
  C   C140      1.0  0.17437  0.63803  0.31903  1.0000
  C   C141      1.0  0.20134  0.60913  0.20081  1.0000
  O   O50       1.0  0.18816  0.66634  0.41877  1.0000
  H   H113      1.0  0.20656  0.62716  0.06994  1.0000
  H   H114      1.0  0.23327  0.60714  0.26536  1.0000
  C   C142      1.0  0.18196  0.56500  0.15442  1.0000
  H   H115      1.0  0.20462  0.54769  0.06566  1.0000
  C   C143      1.0  0.17316  0.53668  0.32166  1.0000
  H   H116      1.0  0.15196  0.56744  0.07426  1.0000
  O   O51       1.0  0.18865  0.54112  0.47675  1.0000
  O   O52       1.0  0.14498  0.50417  0.27613  1.0000
  H   H117      1.0  0.13980  0.48646  0.38767  1.0000
  C   C144      1.0  0.87032  0.53895  0.82117  1.0000
  N   N14       1.0  0.86279  0.57664  0.88712  1.0000
  C   C145      1.0  0.83194  0.57812  0.03088  1.0000
  C   C146      1.0  0.79500  0.55059  0.02977  1.0000
  C   C147      1.0  0.76376  0.55107  0.16817  1.0000
  C   C148      1.0  0.76787  0.58029  0.31461  1.0000
  C   C149      1.0  0.80412  0.60810  0.31876  1.0000
  C   C150      1.0  0.83551  0.60729  0.17968  1.0000
  O   O53       1.0  0.87230  0.63391  0.20743  1.0000
  H   H118      1.0  0.85671  0.50975  0.88785  1.0000
  H   H119      1.0  0.79104  0.52854  0.91419  1.0000
  H   H120      1.0  0.73617  0.52859  0.16592  1.0000
  H   H121      1.0  0.80838  0.63079  0.43219  1.0000
  C   C151      1.0  0.67804  0.13386  0.81577  1.0000
  C   C152      1.0  0.70425  0.10419  0.69756  1.0000
  O   O54       1.0  0.69248  0.16008  0.92404  1.0000
  H   H122      1.0  0.71042  0.12215  0.56717  1.0000
  H   H123      1.0  0.73579  0.10034  0.76383  1.0000
  C   C153      1.0  0.68342  0.06076  0.65065  1.0000
  H   H124      1.0  0.70498  0.04312  0.55811  1.0000
  C   C154      1.0  0.67490  0.03233  0.81768  1.0000
  H   H125      1.0  0.65300  0.06418  0.57434  1.0000
  O   O55       1.0  0.69043  0.03674  0.97269  1.0000
  O   O56       1.0  0.64695  0.99976  0.77124  1.0000
  H   H126      1.0  0.64221  0.98157  0.88158  1.0000
  C   C155      1.0  0.62882  0.95860  0.31413  1.0000
  N   N15       1.0  0.63751  0.92092  0.37891  1.0000
  C   C156      1.0  0.66926  0.91960  0.51921  1.0000
  C   C157      1.0  0.70615  0.94713  0.51342  1.0000
  C   C158      1.0  0.73773  0.94706  0.65101  1.0000
  C   C159      1.0  0.73428  0.91822  0.80036  1.0000
  C   C160      1.0  0.69808  0.89030  0.80844  1.0000
  C   C161      1.0  0.66631  0.89078  0.67065  1.0000
  O   O57       1.0  0.62987  0.86388  0.70249  1.0000
  H   H127      1.0  0.64235  0.98782  0.37954  1.0000
  H   H128      1.0  0.70967  0.96887  0.39542  1.0000
  H   H129      1.0  0.76496  0.96991  0.64618  1.0000
  H   H130      1.0  0.69400  0.86792  0.92403  1.0000
  C   C162      1.0  0.81916  0.36143  0.32180  1.0000
  C   C163      1.0  0.78966  0.38856  0.20553  1.0000
  O   O58       1.0  0.80747  0.33340  0.42849  1.0000
  H   H131      1.0  0.78419  0.37026  0.07636  1.0000
  H   H132      1.0  0.75828  0.38858  0.27550  1.0000
  C   C164      1.0  0.80612  0.43372  0.15451  1.0000
  H   H133      1.0  0.78015  0.45071  0.08202  1.0000
  C   C165      1.0  0.81866  0.46046  0.32104  1.0000
  H   H134      1.0  0.83362  0.43315  0.05890  1.0000
  O   O59       1.0  0.80300  0.45722  0.47651  1.0000
  O   O60       1.0  0.85059  0.48957  0.27674  1.0000
  H   H135      1.0  0.85728  0.50637  0.38891  1.0000
  C   C166      1.0  0.12696  0.46278  0.81705  1.0000
  N   N16       1.0  0.13648  0.42500  0.87800  1.0000
  C   C167      1.0  0.16853  0.42319  0.01648  1.0000
  C   C168      1.0  0.20484  0.45153  0.01561  1.0000
  C   C169      1.0  0.23685  0.45014  0.15122  1.0000
  C   C170      1.0  0.23431  0.41921  0.29289  1.0000
  C   C171      1.0  0.19858  0.39070  0.29651  1.0000
  C   C172      1.0  0.16635  0.39252  0.16115  1.0000
  O   O61       1.0  0.12944  0.36619  0.18976  1.0000
  H   H136      1.0  0.14019  0.49200  0.88355  1.0000
  H   H137      1.0  0.20751  0.47505  0.90359  1.0000
  H   H138      1.0  0.26372  0.47346  0.15054  1.0000
  H   H139      1.0  0.19522  0.36704  0.40760  1.0000
  C   C173      1.0  0.32053  0.86266  0.83275  1.0000
  C   C174      1.0  0.29301  0.88999  0.70840  1.0000
  O   O62       1.0  0.30769  0.83775  0.95094  1.0000
  H   H140      1.0  0.28836  0.87123  0.57998  1.0000
  H   H141      1.0  0.26102  0.89220  0.77141  1.0000
  C   C175      1.0  0.31216  0.93408  0.65713  1.0000
  H   H142      1.0  0.28961  0.95070  0.56423  1.0000
  C   C176      1.0  0.31979  0.96318  0.82177  1.0000
  H   H143      1.0  0.34256  0.93164  0.58037  1.0000
  O   O63       1.0  0.30101  0.96112  0.97118  1.0000
  O   O64       1.0  0.35073  0.99354  0.78089  1.0000
  H   H144      1.0  0.35458  0.01221  0.88949  1.0000
  C   C177      1.0  0.99938  0.00241  0.01076  1.0000
  C   C178      1.0  0.49774  0.49981  0.50697  1.0000
  C   C179      1.0  0.50083  0.99825  0.74658  1.0000
  C   C180      1.0  0.99741  0.49969  0.25309  1.0000
  C  Sn1       1.0  0.93427  0.06660  0.31776  1.0000
  C   C181      1.0  0.96364  0.08860  0.43292  1.0000
  C  Sn2       1.0  0.00783  0.08915  0.39287  1.0000
  C  Sn3       1.0  0.02300  0.06728  0.23435  1.0000
  C   C182      1.0  0.99364  0.04530  0.11928  1.0000
  C  Sn4       1.0  0.94944  0.04472  0.15924  1.0000
  O  Te1       1.0  0.89023  0.06648  0.36046  1.0000
  O  Te2       1.0  0.03657  0.11136  0.51009  1.0000
  O  Te3       1.0  0.06708  0.06741  0.19172  1.0000
  O  Te4       1.0  0.92071  0.02254  0.04211  1.0000
  Mg  Mg1       1.0  0.09352  0.10218  0.39349  1.0000
  Mg  Mg2       1.0  0.86375  0.03171  0.15851  1.0000
  C  Sn5       1.0  0.51897  0.55165  0.82071  1.0000
  C   C183      1.0  0.49002  0.53140  0.69806  1.0000
  C  Sn6       1.0  0.44886  0.54769  0.66962  1.0000
  C  Sn7       1.0  0.43639  0.58501  0.76568  1.0000
  C   C184      1.0  0.46534  0.60523  0.88821  1.0000
  C  Sn8       1.0  0.50650  0.58897  0.91677  1.0000
  O  Te5       1.0  0.55995  0.53481  0.84700  1.0000
  O  Te6       1.0  0.42047  0.52688  0.54635  1.0000
  O  Te7       1.0  0.39537  0.60184  0.73929  1.0000
  O  Te8       1.0  0.53462  0.61095  0.03992  1.0000
  Mg  Mg3       1.0  0.36819  0.56211  0.55712  1.0000
  Mg  Mg4       1.0  0.58691  0.57577  0.02919  1.0000
  C  Sn9       1.0  0.05670  0.93640  0.16159  1.0000
  C   C185      1.0  0.01681  0.95379  0.11636  1.0000
  C  Sn10      1.0  0.98164  0.94867  0.23678  1.0000
  C  Sn11      1.0  0.98643  0.92572  0.40600  1.0000
  C   C186      1.0  0.02630  0.90836  0.45116  1.0000
  C  Sn12      1.0  0.06149  0.91345  0.33080  1.0000
  O  Te9       1.0  0.09142  0.94191  0.03912  1.0000
  O  Te10      1.0  0.94208  0.96633  0.18853  1.0000
  O  Te11      1.0  0.95166  0.92022  0.52848  1.0000
  O  Te12      1.0  0.10103  0.89581  0.37900  1.0000
  Mg  Mg5       1.0  0.90432  0.95025  0.40111  1.0000
  Mg  Mg6       1.0  0.13881  0.91189  0.16658  1.0000
  C  Sn13      1.0  0.55614  0.43512  0.66048  1.0000
  C   C187      1.0  0.51589  0.45138  0.61290  1.0000
  C  Sn14      1.0  0.48054  0.44552  0.73182  1.0000
  C  Sn15      1.0  0.48551  0.42296  0.90190  1.0000
  C   C188      1.0  0.52574  0.40672  0.94942  1.0000
  C  Sn16      1.0  0.56111  0.41256  0.83057  1.0000
  O  Te13      1.0  0.59104  0.44136  0.53949  1.0000
  O  Te14      1.0  0.44062  0.46206  0.68121  1.0000
  O  Te15      1.0  0.45030  0.41793  0.02290  1.0000
  O  Te16      1.0  0.60101  0.39604  0.88111  1.0000
  Mg  Mg7       1.0  0.40274  0.44530  0.89248  1.0000
  Mg  Mg8       1.0  0.63892  0.41280  0.67001  1.0000
  C  Sn17      1.0  0.04865  0.06356  0.78278  1.0000
  C   C189      1.0  0.03187  0.02328  0.83583  1.0000
  C  Sn18      1.0  0.07883  0.98598  0.78329  1.0000
  C  Sn19      1.0  0.11718  0.98900  0.67556  1.0000
  C   C190      1.0  0.10774  0.02926  0.62259  1.0000
  C  Sn20      1.0  0.08699  0.06658  0.67505  1.0000
  O  Te17      1.0  0.02735  0.10043  0.83688  1.0000
  O  Te18      1.0  0.06144  0.94606  0.83794  1.0000
  O  Te19      1.0  0.13847  0.95208  0.62147  1.0000
  O  Te20      1.0  0.10437  0.10648  0.62048  1.0000
  Mg  Mg9       1.0  0.10221  0.90509  0.73005  1.0000
  Mg  Mg10      1.0  0.06364  0.14747  0.72836  1.0000
  C  Sn21      1.0  0.56941  0.48730  0.11991  1.0000
  C   C191      1.0  0.58833  0.52745  0.07919  1.0000
  C  Sn22      1.0  0.58332  0.56184  0.20038  1.0000
  C  Sn23      1.0  0.55892  0.55595  0.36579  1.0000
  C   C192      1.0  0.54004  0.51582  0.40645  1.0000
  C  Sn24      1.0  0.54502  0.48142  0.28531  1.0000
  O  Te21      1.0  0.57511  0.45218  0.99676  1.0000
  O  Te22      1.0  0.60252  0.60168  0.15666  1.0000
  O  Te23      1.0  0.55351  0.58992  0.48895  1.0000
  O  Te24      1.0  0.52584  0.44159  0.32898  1.0000
  Mg  Mg11      1.0  0.58591  0.63805  0.36841  1.0000
  Mg  Mg12      1.0  0.54245  0.40519  0.11739  1.0000
  C  Sn25      1.0  0.92785  0.01537  0.62290  1.0000
  C   C193      1.0  0.93554  0.97518  0.58108  1.0000
  C  Sn26      1.0  0.94023  0.94062  0.70318  1.0000
  C  Sn27      1.0  0.96389  0.94634  0.87063  1.0000
  C   C194      1.0  0.98237  0.98650  0.91240  1.0000
  C  Sn28      1.0  0.95151  0.02109  0.79035  1.0000
  O  Te25      1.0  0.92275  0.04947  0.49881  1.0000
  O  Te26      1.0  0.92145  0.90075  0.65833  1.0000
  O  Te27      1.0  0.96898  0.91219  0.99474  1.0000
  O  Te28      1.0  0.97027  0.06094  0.83515  1.0000
  Mg  Mg13      1.0  0.93737  0.86410  0.87202  1.0000
  Mg  Mg14      1.0  0.95435  0.09761  0.62161  1.0000
  C  Sn29      1.0  0.41343  0.43364  0.27994  1.0000
  C   C195      1.0  0.39292  0.46091  0.15487  1.0000
  C  Sn30      1.0  0.40908  0.50262  0.12463  1.0000
  C  Sn31      1.0  0.44654  0.51738  0.22132  1.0000
  C   C196      1.0  0.46704  0.49012  0.34628  1.0000
  C  Sn32      1.0  0.45089  0.44840  0.37664  1.0000
  O  Te29      1.0  0.39671  0.39206  0.30800  1.0000
  O  Te30      1.0  0.38828  0.52809  0.99895  1.0000
  O  Te31      1.0  0.46326  0.55900  0.19316  1.0000
  O  Te32      1.0  0.47195  0.42173  0.50220  1.0000
  Mg  Mg15      1.0  0.42316  0.58324  0.00796  1.0000
  Mg  Mg16      1.0  0.43684  0.36777  0.49323  1.0000
  C  Sn33      1.0  0.48393  0.08744  0.43324  1.0000
  C   C197      1.0  0.52449  0.10436  0.38196  1.0000
  C  Sn34      1.0  0.56214  0.08376  0.43539  1.0000
  C  Sn35      1.0  0.55919  0.04542  0.54221  1.0000
  C   C198      1.0  0.51865  0.02852  0.59340  1.0000
  C  Sn36      1.0  0.48097  0.04910  0.54006  1.0000
  O  Te33      1.0  0.44671  0.10857  0.37828  1.0000
  O  Te34      1.0  0.60233  0.10130  0.38251  1.0000
  O  Te35      1.0  0.59645  0.02430  0.59715  1.0000
  O  Te36      1.0  0.44081  0.03158  0.59286  1.0000
  Mg  Mg17      1.0  0.64373  0.06072  0.49099  1.0000
  Mg  Mg18      1.0  0.39939  0.07212  0.48438  1.0000
  C  Sn37      1.0  0.05587  0.56776  0.10226  1.0000
  C   C199      1.0  0.01572  0.54892  0.14727  1.0000
  C  Sn38      1.0  0.98061  0.55266  0.02644  1.0000
  C  Sn39      1.0  0.98601  0.57449  0.85702  1.0000
  C   C200      1.0  0.02614  0.59331  0.81207  1.0000
  C  Sn40      1.0  0.06127  0.58960  0.93284  1.0000
  O  Te37      1.0  0.09052  0.56361  0.22514  1.0000
  O  Te38      1.0  0.94078  0.53356  0.07450  1.0000
  O  Te39      1.0  0.95131  0.57863  0.73414  1.0000
  O  Te40      1.0  0.10108  0.60868  0.88485  1.0000
  Mg  Mg19      1.0  0.90352  0.54692  0.86136  1.0000
  Mg  Mg20      1.0  0.13837  0.59532  0.09782  1.0000
  C  Sn41      1.0  0.51918  0.94618  0.43232  1.0000
  C   C201      1.0  0.49148  0.96613  0.55639  1.0000
  C  Sn42      1.0  0.44990  0.94915  0.58847  1.0000
  C  Sn43      1.0  0.43571  0.91142  0.49466  1.0000
  C   C202      1.0  0.46341  0.89148  0.37070  1.0000
  C  Sn44      1.0  0.50500  0.90845  0.33851  1.0000
  O  Te41      1.0  0.56061  0.96372  0.40239  1.0000
  O  Te42      1.0  0.42278  0.96967  0.71310  1.0000
  O  Te43      1.0  0.39424  0.89389  0.52469  1.0000
  O  Te44      1.0  0.53211  0.88795  0.21400  1.0000
  Mg  Mg21      1.0  0.36924  0.93346  0.70746  1.0000
  Mg  Mg22      1.0  0.58566  0.92411  0.21960  1.0000
  C  Sn45      1.0  0.01365  0.41131  0.93871  1.0000
  C   C203      1.0  0.97302  0.39385  0.89203  1.0000
  C  Sn46      1.0  0.93540  0.41365  0.95014  1.0000
  C  Sn47      1.0  0.93817  0.45292  0.05705  1.0000
  C   C204      1.0  0.97878  0.47036  0.10364  1.0000
  C  Sn48      1.0  0.01643  0.45057  0.04561  1.0000
  O  Te45      1.0  0.05084  0.39097  0.87911  1.0000
  O  Te46      1.0  0.89514  0.39559  0.90181  1.0000
  O  Te47      1.0  0.90094  0.47325  0.11664  1.0000
  O  Te48      1.0  0.05666  0.46862  0.09386  1.0000
  Mg  Mg23      1.0  0.85355  0.43635  0.01565  1.0000
  Mg  Mg24      1.0  0.09828  0.42790  0.98002  1.0000
  C  Sn49      1.0  0.45296  0.05824  0.97212  1.0000
  C   C205      1.0  0.46908  0.01852  0.92103  1.0000
  C  Sn50      1.0  0.47382  0.98049  0.97496  1.0000
  C  Sn51      1.0  0.43518  0.98337  0.08209  1.0000
  C   C206      1.0  0.39288  0.02307  0.13309  1.0000
  C  Sn52      1.0  0.41432  0.06112  0.07925  1.0000
  O  Te49      1.0  0.47494  0.09585  0.91666  1.0000
  O  Te50      1.0  0.49056  0.94117  0.92226  1.0000
  O  Te51      1.0  0.41320  0.94571  0.13753  1.0000
  O  Te52      1.0  0.39759  0.10042  0.13186  1.0000
  Mg  Mg25      1.0  0.44873  0.89997  0.03144  1.0000
  Mg  Mg26      1.0  0.43912  0.14284  0.02268  1.0000
  C  Sn53      1.0  0.92730  0.48571  0.64692  1.0000
  C   C207      1.0  0.90885  0.52513  0.68554  1.0000
  C  Sn54      1.0  0.91315  0.55928  0.55987  1.0000
  C  Sn55      1.0  0.93636  0.55392  0.39203  1.0000
  C   C208      1.0  0.95479  0.51452  0.35347  1.0000
  C  Sn56      1.0  0.95051  0.48034  0.47908  1.0000
  O  Te53      1.0  0.92259  0.45200  0.77456  1.0000
  O  Te54      1.0  0.89443  0.59839  0.60157  1.0000
  O  Te55      1.0  0.94106  0.58767  0.26438  1.0000
  O  Te56      1.0  0.96921  0.44125  0.43744  1.0000
  Mg  Mg27      1.0  0.90971  0.63473  0.38365  1.0000
  Mg  Mg28      1.0  0.95393  0.40488  0.65521  1.0000
  C  Sn57      1.0  0.57166  0.01222  0.13801  1.0000
  C   C209      1.0  0.61562  0.97257  0.18041  1.0000
  C  Sn58      1.0  0.61054  0.93812  0.05821  1.0000
  C  Sn59      1.0  0.58751  0.94222  0.89005  1.0000
  C   C210      1.0  0.56977  0.98185  0.84771  1.0000
  C  Sn60      1.0  0.54863  0.01631  0.96985  1.0000
  O  Te57      1.0  0.57714  0.04622  0.26221  1.0000
  O  Te58      1.0  0.62858  0.89879  0.10365  1.0000
  O  Te59      1.0  0.58205  0.90818  0.76583  1.0000
  O  Te60      1.0  0.53061  0.05563  0.92446  1.0000
  Mg  Mg29      1.0  0.61265  0.86088  0.88953  1.0000
  Mg  Mg30      1.0  0.54654  0.09357  0.13843  1.0000
  C  Sn61      1.0  0.08266  0.43841  0.48018  1.0000
  C   C211      1.0  0.10294  0.46690  0.60398  1.0000
  C  Sn62      1.0  0.08631  0.50756  0.63303  1.0000
  C  Sn63      1.0  0.04861  0.52000  0.53641  1.0000
  C   C212      1.0  0.02835  0.49152  0.41272  1.0000
  C  Sn64      1.0  0.04496  0.45085  0.38356  1.0000
  O  Te61      1.0  0.09985  0.39793  0.45331  1.0000
  O  Te62      1.0  0.10716  0.53550  0.75745  1.0000
  O  Te63      1.0  0.03143  0.56053  0.56339  1.0000
  O  Te64      1.0  0.02413  0.42293  0.25926  1.0000
  Mg  Mg31      1.0  0.07136  0.58720  0.74711  1.0000
  Mg  Mg32      1.0  0.05988  0.37121  0.26956  1.0000
