data_image0
_chemical_formula_structural       C2NC4OCOC6NC4H13C10N5C20O5C5O5C30N5C20H65C2NC4OCOC6NC4H13C10N5C20O5C5O5C30N5C20H65SnCSn2CSnTe4Mg2SnCSn2CSnTe4Mg2SnCSn2CSnTe4Mg2SnCSn2CSnTe4Mg2SnCSn2CSnTe4Mg2SnCSn2CSnTe4Mg2SnCSn2CSnTe4Mg2SnCSn2CSnTe4Mg2SnCSn2CSnTe4Mg2SnCSn2CSnTe4Mg2SnCSn2CSnTe4Mg2SnCSn2CSnTe4Mg2
_chemical_formula_sum              "C228 N24 O24 H156 Sn48 Te48 Mg24"
_cell_length_a       37.1927
_cell_length_b       37.2172
_cell_length_c       8.13656
_cell_angle_alpha    89.9557
_cell_angle_beta     88.848
_cell_angle_gamma    120.462

_symmetry_space_group_name_H-M    'P1'
_space_group_IT_number       1

loop_
  _space_group_symop_operation_xyz
  'x, y, z'

loop_
  _atom_site_type_symbol
  _atom_site_label
  _atom_site_symmetry_multiplicity
  _atom_site_fract_x
  _atom_site_fract_y
  _atom_site_fract_z
  _atom_site_occupancy
  C   C1        1.0  0.29137  0.64033  0.37148  1.0000
  C   C2        1.0  0.31757  0.62343  0.37197  1.0000
  N   N1        1.0  0.46625  0.57850  0.41168  1.0000
  C   C3        1.0  0.45096  0.53850  0.41518  1.0000
  C   C4        1.0  0.47736  0.52023  0.42207  1.0000
  C   C5        1.0  0.45884  0.47615  0.41998  1.0000
  C   C6        1.0  0.48383  0.45833  0.42204  1.0000
  O   O1        1.0  0.41598  0.45294  0.41725  1.0000
  C   C7        1.0  0.37398  0.37721  0.42675  1.0000
  O   O2        1.0  0.34628  0.34214  0.32527  1.0000
  C   C8        1.0  0.34826  0.30658  0.34957  1.0000
  C   C9        1.0  0.31299  0.27080  0.40662  1.0000
  C   C10       1.0  0.31346  0.23342  0.43009  1.0000
  C   C11       1.0  0.34927  0.23195  0.39833  1.0000
  C   C12       1.0  0.38591  0.26803  0.33904  1.0000
  C   C13       1.0  0.38565  0.30600  0.31121  1.0000
  N   N2        1.0  0.41973  0.34160  0.25205  1.0000
  C   C14       1.0  0.45461  0.34087  0.22367  1.0000
  C   C15       1.0  0.45836  0.30534  0.25048  1.0000
  C   C16       1.0  0.42397  0.26898  0.30662  1.0000
  C   C17       1.0  0.60928  0.58822  0.33085  1.0000
  H   H1        1.0  0.30377  0.58975  0.37113  1.0000
  H   H2        1.0  0.41731  0.51630  0.41308  1.0000
  H   H3        1.0  0.47043  0.42468  0.41895  1.0000
  H   H4        1.0  0.39517  0.37027  0.49289  1.0000
  H   H5        1.0  0.35492  0.37987  0.02135  1.0000
  H   H6        1.0  0.28519  0.27235  0.43645  1.0000
  H   H7        1.0  0.28548  0.20592  0.47757  1.0000
  H   H8        1.0  0.34995  0.20339  0.41835  1.0000
  H   H9        1.0  0.48136  0.36997  0.17850  1.0000
  H   H10       1.0  0.48826  0.30732  0.22820  1.0000
  H   H11       1.0  0.42553  0.24090  0.32817  1.0000
  H   H12       1.0  0.63289  0.58601  0.25555  1.0000
  H   H13       1.0  0.58686  0.58946  0.24934  1.0000
  C   C18       1.0  0.36113  0.64891  0.37616  1.0000
  C   C19       1.0  0.35306  0.71024  0.37763  1.0000
  C   C20       1.0  0.71123  0.36064  0.38105  1.0000
  C   C21       1.0  0.64203  0.35330  0.37480  1.0000
  C   C22       1.0  0.64872  0.29123  0.38677  1.0000
  C   C23       1.0  0.37834  0.69229  0.37827  1.0000
  C   C24       1.0  0.30965  0.68383  0.37379  1.0000
  C   C25       1.0  0.68566  0.37826  0.37491  1.0000
  C   C26       1.0  0.62412  0.30984  0.37941  1.0000
  C   C27       1.0  0.69226  0.31708  0.38696  1.0000
  N   N3        1.0  0.42333  0.88655  0.41766  1.0000
  N   N4        1.0  0.11410  0.53543  0.40601  1.0000
  N   N5        1.0  0.53789  0.42481  0.40846  1.0000
  N   N6        1.0  0.57624  0.11459  0.43327  1.0000
  N   N7        1.0  0.88808  0.46498  0.41653  1.0000
  C   C28       1.0  0.46336  0.91176  0.42084  1.0000
  C   C29       1.0  0.09015  0.55136  0.41321  1.0000
  C   C30       1.0  0.55370  0.46479  0.41805  1.0000
  C   C31       1.0  0.53630  0.08913  0.42948  1.0000
  C   C32       1.0  0.91216  0.44931  0.42585  1.0000
  C   C33       1.0  0.48166  0.95670  0.42558  1.0000
  C   C34       1.0  0.04501  0.52541  0.42184  1.0000
  C   C35       1.0  0.52752  0.48341  0.42455  1.0000
  C   C36       1.0  0.51816  0.04416  0.43083  1.0000
  C   C37       1.0  0.95727  0.47542  0.42882  1.0000
  C   C38       1.0  0.52576  0.98301  0.42348  1.0000
  C   C39       1.0  0.01980  0.54404  0.41789  1.0000
  C   C40       1.0  0.54604  0.52745  0.42808  1.0000
  C   C41       1.0  0.47409  0.01783  0.42803  1.0000
  C   C42       1.0  0.98247  0.45677  0.43173  1.0000
  C   C43       1.0  0.54344  0.02604  0.42855  1.0000
  C   C44       1.0  0.97661  0.51915  0.42346  1.0000
  C   C45       1.0  0.52104  0.54531  0.42757  1.0000
  C   C46       1.0  0.45640  0.97479  0.42803  1.0000
  C   C47       1.0  0.02566  0.48171  0.42996  1.0000
  O   O3        1.0  0.54901  0.96370  0.41718  1.0000
  O   O4        1.0  0.04022  0.58692  0.40871  1.0000
  O   O5        1.0  0.58892  0.55068  0.43280  1.0000
  O   O6        1.0  0.45082  0.03710  0.42621  1.0000
  O   O7        1.0  0.96207  0.41388  0.43778  1.0000
  C   C48       1.0  0.62452  0.99742  0.42387  1.0000
  C   C49       1.0  0.00598  0.62805  0.40910  1.0000
  C   C50       1.0  0.62974  0.62623  0.44019  1.0000
  C   C51       1.0  0.37487  0.00060  0.44678  1.0000
  C   C52       1.0  0.99686  0.37315  0.45515  1.0000
  O   O8        1.0  0.66039  0.00695  0.31788  1.0000
  O   O9        1.0  0.99976  0.65555  0.30088  1.0000
  O   O10       1.0  0.65817  0.66248  0.34038  1.0000
  O   O11       1.0  0.33926  0.99271  0.34960  1.0000
  O   O12       1.0  0.00303  0.34361  0.35897  1.0000
  C   C53       1.0  0.69556  0.04485  0.34550  1.0000
  C   C54       1.0  0.96292  0.65527  0.32621  1.0000
  C   C55       1.0  0.65401  0.69692  0.36055  1.0000
  C   C56       1.0  0.30388  0.95439  0.37354  1.0000
  C   C57       1.0  0.04125  0.34660  0.37297  1.0000
  C   C58       1.0  0.73149  0.04577  0.39313  1.0000
  C   C59       1.0  0.96452  0.69197  0.36960  1.0000
  C   C60       1.0  0.68720  0.73293  0.42159  1.0000
  C   C61       1.0  0.26785  0.95283  0.43106  1.0000
  C   C62       1.0  0.04268  0.31260  0.43329  1.0000
  C   C63       1.0  0.76843  0.08404  0.42119  1.0000
  C   C64       1.0  0.92751  0.69335  0.39389  1.0000
  C   C65       1.0  0.68489  0.76943  0.44145  1.0000
  C   C66       1.0  0.23037  0.91430  0.45325  1.0000
  C   C67       1.0  0.08104  0.31360  0.44439  1.0000
  C   C68       1.0  0.76923  0.12132  0.40337  1.0000
  C   C69       1.0  0.88892  0.65802  0.37613  1.0000
  C   C70       1.0  0.64933  0.76991  0.40045  1.0000
  C   C71       1.0  0.22889  0.87734  0.41752  1.0000
  C   C72       1.0  0.11795  0.34864  0.39601  1.0000
  C   C73       1.0  0.73310  0.12148  0.35184  1.0000
  C   C74       1.0  0.88620  0.62004  0.32884  1.0000
  C   C75       1.0  0.61498  0.73374  0.33550  1.0000
  C   C76       1.0  0.26504  0.87790  0.35529  1.0000
  C   C77       1.0  0.11753  0.38391  0.33268  1.0000
  C   C78       1.0  0.69569  0.08290  0.31894  1.0000
  C   C79       1.0  0.92355  0.61836  0.30016  1.0000
  C   C80       1.0  0.61691  0.69645  0.31333  1.0000
  C   C81       1.0  0.30336  0.91682  0.33131  1.0000
  C   C82       1.0  0.07874  0.38320  0.31865  1.0000
  N   N8        1.0  0.66036  0.08097  0.26341  1.0000
  N   N9        1.0  0.92305  0.58321  0.24831  1.0000
  N   N10       1.0  0.58495  0.66093  0.24891  1.0000
  N   N11       1.0  0.33895  0.91937  0.26852  1.0000
  N   N12       1.0  0.07619  0.41574  0.25451  1.0000
  C   C83       1.0  0.66090  0.11657  0.24142  1.0000
  C   C84       1.0  0.88623  0.54918  0.22681  1.0000
  C   C85       1.0  0.55071  0.66125  0.20812  1.0000
  C   C86       1.0  0.33761  0.88408  0.22970  1.0000
  C   C87       1.0  0.11140  0.44953  0.20600  1.0000
  C   C88       1.0  0.69582  0.15620  0.27379  1.0000
  C   C89       1.0  0.84764  0.54730  0.25564  1.0000
  C   C90       1.0  0.54556  0.69620  0.22732  1.0000
  C   C91       1.0  0.30150  0.84417  0.25001  1.0000
  C   C92       1.0  0.15124  0.45361  0.21738  1.0000
  C   C93       1.0  0.73176  0.15853  0.32848  1.0000
  C   C94       1.0  0.84770  0.58264  0.30620  1.0000
  C   C95       1.0  0.57777  0.73236  0.28965  1.0000
  C   C96       1.0  0.26537  0.84119  0.31222  1.0000
  C   C97       1.0  0.15416  0.42081  0.27971  1.0000
  C   C98       1.0  0.41294  0.01751  0.33229  1.0000
  C   C99       1.0  0.98014  0.39366  0.34248  1.0000
  C   C100      1.0  0.39756  0.41578  0.31745  1.0000
  C   C101      1.0  0.58690  0.98335  0.31618  1.0000
  C   C102      1.0  0.02255  0.60549  0.30477  1.0000
  H   H14       1.0  0.41200  0.71255  0.38268  1.0000
  H   H15       1.0  0.28972  0.69739  0.37450  1.0000
  H   H16       1.0  0.69988  0.41199  0.37220  1.0000
  H   H17       1.0  0.59036  0.29005  0.37937  1.0000
  H   H18       1.0  0.71178  0.30314  0.39342  1.0000
  H   H19       1.0  0.48539  0.90041  0.42114  1.0000
  H   H20       1.0  0.10273  0.58513  0.41371  1.0000
  H   H21       1.0  0.58744  0.48644  0.42283  1.0000
  H   H22       1.0  0.51409  0.10025  0.42521  1.0000
  H   H23       1.0  0.89973  0.41558  0.43194  1.0000
  H   H24       1.0  0.57714  0.04678  0.42723  1.0000
  H   H25       1.0  0.95666  0.53271  0.42206  1.0000
  H   H26       1.0  0.53458  0.57902  0.42805  1.0000
  H   H27       1.0  0.42273  0.95402  0.42662  1.0000
  H   H28       1.0  0.04561  0.46817  0.43291  1.0000
  H   H29       1.0  0.63083  0.02454  0.49765  1.0000
  H   H30       1.0  0.97694  0.60629  0.47525  1.0000
  H   H31       1.0  0.60664  0.63144  0.50483  1.0000
  H   H32       1.0  0.36874  0.97223  0.51248  1.0000
  H   H33       1.0  0.02594  0.39599  0.51293  1.0000
  H   H34       1.0  0.61785  0.96910  0.99806  1.0000
  H   H35       1.0  0.02917  0.64769  0.99886  1.0000
  H   H36       1.0  0.64973  0.62503  0.01931  1.0000
  H   H37       1.0  0.37251  0.01990  0.04187  1.0000
  H   H38       1.0  0.97894  0.35517  0.05622  1.0000
  H   H39       1.0  0.73031  0.01626  0.41158  1.0000
  H   H40       1.0  0.99494  0.71955  0.38703  1.0000
  H   H41       1.0  0.71485  0.73225  0.45733  1.0000
  H   H42       1.0  0.26931  0.98198  0.46111  1.0000
  H   H43       1.0  0.01358  0.28535  0.47392  1.0000
  H   H44       1.0  0.79615  0.08385  0.46001  1.0000
  H   H45       1.0  0.92970  0.72255  0.42947  1.0000
  H   H46       1.0  0.71118  0.79699  0.49268  1.0000
  H   H47       1.0  0.20271  0.91399  0.50122  1.0000
  H   H48       1.0  0.08126  0.28659  0.49418  1.0000
  H   H49       1.0  0.79732  0.15086  0.42756  1.0000
  H   H50       1.0  0.86037  0.65886  0.39710  1.0000
  H   H51       1.0  0.64703  0.79768  0.41757  1.0000
  H   H52       1.0  0.20018  0.84756  0.43515  1.0000
  H   H53       1.0  0.14765  0.34976  0.40543  1.0000
  H   H54       1.0  0.63217  0.11396  0.19711  1.0000
  H   H55       1.0  0.88707  0.52170  0.18592  1.0000
  H   H56       1.0  0.52559  0.63241  0.15782  1.0000
  H   H57       1.0  0.36654  0.88721  0.17964  1.0000
  H   H58       1.0  0.10823  0.47494  0.15540  1.0000
  H   H59       1.0  0.69374  0.18407  0.25606  1.0000
  H   H60       1.0  0.81864  0.51805  0.23845  1.0000
  H   H61       1.0  0.51647  0.69422  0.19356  1.0000
  H   H62       1.0  0.30257  0.81642  0.21677  1.0000
  H   H63       1.0  0.17897  0.48238  0.17750  1.0000
  H   H64       1.0  0.75934  0.18840  0.35459  1.0000
  H   H65       1.0  0.81860  0.58233  0.32983  1.0000
  H   H66       1.0  0.57523  0.76005  0.30564  1.0000
  H   H67       1.0  0.23688  0.81107  0.32876  1.0000
  H   H68       1.0  0.18426  0.42279  0.29006  1.0000
  H   H69       1.0  0.41469  0.04211  0.25231  1.0000
  H   H70       1.0  0.95460  0.36977  0.27042  1.0000
  H   H71       1.0  0.37603  0.41868  0.23592  1.0000
  H   H72       1.0  0.58435  0.95954  0.23015  1.0000
  H   H73       1.0  0.04824  0.62783  0.22407  1.0000
  H   H74       1.0  0.41164  0.99283  0.25497  1.0000
  H   H75       1.0  0.00466  0.41590  0.25798  1.0000
  H   H76       1.0  0.42147  0.41419  0.24224  1.0000
  H   H77       1.0  0.58956  0.00969  0.24571  1.0000
  H   H78       1.0  0.99801  0.58184  0.22871  1.0000
  C   C103      1.0  0.28966  0.63981  0.86769  1.0000
  C   C104      1.0  0.31572  0.62275  0.86857  1.0000
  N   N13       1.0  0.46411  0.57784  0.91997  1.0000
  C   C105      1.0  0.44899  0.53789  0.91705  1.0000
  C   C106      1.0  0.47543  0.51963  0.92328  1.0000
  C   C107      1.0  0.45711  0.47560  0.91697  1.0000
  C   C108      1.0  0.48213  0.45781  0.91782  1.0000
  O   O13       1.0  0.41434  0.45271  0.91017  1.0000
  C   C109      1.0  0.37430  0.37639  0.92649  1.0000
  O   O14       1.0  0.34636  0.34137  0.82512  1.0000
  C   C110      1.0  0.34848  0.30581  0.84544  1.0000
  C   C111      1.0  0.31309  0.26961  0.89878  1.0000
  C   C112      1.0  0.31348  0.23204  0.91679  1.0000
  C   C113      1.0  0.34937  0.23078  0.88381  1.0000
  C   C114      1.0  0.38619  0.26734  0.82880  1.0000
  C   C115      1.0  0.38597  0.30549  0.80571  1.0000
  N   N14       1.0  0.41996  0.34138  0.74795  1.0000
  C   C116      1.0  0.45482  0.34082  0.71685  1.0000
  C   C117      1.0  0.45867  0.30523  0.74035  1.0000
  C   C118      1.0  0.42433  0.26858  0.79445  1.0000
  C   C119      1.0  0.60707  0.58744  0.82774  1.0000
  H   H79       1.0  0.30184  0.58904  0.87006  1.0000
  H   H80       1.0  0.41542  0.51578  0.90950  1.0000
  H   H81       1.0  0.46882  0.42421  0.91174  1.0000
  H   H82       1.0  0.39633  0.36983  0.98802  1.0000
  H   H83       1.0  0.35428  0.38131  0.51798  1.0000
  H   H84       1.0  0.28522  0.27098  0.92897  1.0000
  H   H85       1.0  0.28524  0.20414  0.96005  1.0000
  H   H86       1.0  0.34985  0.20198  0.89930  1.0000
  H   H87       1.0  0.48147  0.37006  0.67195  1.0000
  H   H88       1.0  0.48855  0.30729  0.71666  1.0000
  H   H89       1.0  0.42606  0.24049  0.81272  1.0000
  H   H90       1.0  0.62963  0.58416  0.74966  1.0000
  H   H91       1.0  0.58408  0.58863  0.74928  1.0000
  C   C120      1.0  0.35928  0.64823  0.87110  1.0000
  C   C121      1.0  0.35136  0.70958  0.87363  1.0000
  C   C122      1.0  0.70925  0.35997  0.88331  1.0000
  C   C123      1.0  0.63991  0.35225  0.87755  1.0000
  C   C124      1.0  0.64700  0.29029  0.88656  1.0000
  C   C125      1.0  0.37665  0.69165  0.87262  1.0000
  C   C126      1.0  0.30792  0.68329  0.86964  1.0000
  C   C127      1.0  0.68356  0.37745  0.87816  1.0000
  C   C128      1.0  0.62221  0.30878  0.88101  1.0000
  C   C129      1.0  0.69053  0.31642  0.88714  1.0000
  N   N15       1.0  0.42063  0.88524  0.93503  1.0000
  N   N16       1.0  0.11254  0.53438  0.91366  1.0000
  N   N17       1.0  0.53635  0.42452  0.90698  1.0000
  N   N18       1.0  0.57391  0.11329  0.93508  1.0000
  N   N19       1.0  0.88586  0.46339  0.93642  1.0000
  C   C130      1.0  0.46063  0.91078  0.92921  1.0000
  C   C131      1.0  0.08825  0.54991  0.91254  1.0000
  C   C132      1.0  0.55213  0.46451  0.91550  1.0000
  C   C133      1.0  0.53382  0.08827  0.93654  1.0000
  C   C134      1.0  0.90989  0.44764  0.94366  1.0000
  C   C135      1.0  0.47880  0.95574  0.93508  1.0000
  C   C136      1.0  0.04305  0.52375  0.92399  1.0000
  C   C137      1.0  0.52584  0.48301  0.92248  1.0000
  C   C138      1.0  0.51523  0.04321  0.93893  1.0000
  C   C139      1.0  0.95516  0.47367  0.94250  1.0000
  C   C140      1.0  0.52290  0.98208  0.93110  1.0000
  C   C141      1.0  0.01778  0.54228  0.92145  1.0000
  C   C142      1.0  0.54415  0.52698  0.92869  1.0000
  C   C143      1.0  0.47111  0.01689  0.93958  1.0000
  C   C144      1.0  0.98045  0.45509  0.94380  1.0000
  C   C145      1.0  0.54048  0.02509  0.93538  1.0000
  C   C146      1.0  0.97456  0.51740  0.93153  1.0000
  C   C147      1.0  0.51905  0.54472  0.93005  1.0000
  C   C148      1.0  0.45350  0.97382  0.93955  1.0000
  C   C149      1.0  0.02365  0.48011  0.93467  1.0000
  O   O15       1.0  0.54647  0.96305  0.92578  1.0000
  O   O16       1.0  0.03829  0.58508  0.90917  1.0000
  O   O17       1.0  0.58707  0.55063  0.93357  1.0000
  O   O18       1.0  0.44761  0.03602  0.94176  1.0000
  O   O19       1.0  0.96053  0.41216  0.95572  1.0000
  C   C150      1.0  0.62188  0.99484  0.91876  1.0000
  C   C151      1.0  0.00474  0.62687  0.91504  1.0000
  C   C152      1.0  0.62895  0.62680  0.92977  1.0000
  C   C153      1.0  0.37111  0.99808  0.94810  1.0000
  C   C154      1.0  0.99871  0.37406  0.95194  1.0000
  O   O20       1.0  0.65738  0.00558  0.80890  1.0000
  O   O21       1.0  0.99640  0.65308  0.80834  1.0000
  O   O22       1.0  0.65485  0.66157  0.81811  1.0000
  O   O23       1.0  0.33634  0.98912  0.84276  1.0000
  O   O24       1.0  0.00541  0.34683  0.84308  1.0000
  C   C155      1.0  0.69215  0.04362  0.84040  1.0000
  C   C156      1.0  0.95834  0.65014  0.83529  1.0000
  C   C157      1.0  0.65158  0.69642  0.84227  1.0000
  C   C158      1.0  0.30140  0.95037  0.86710  1.0000
  C   C159      1.0  0.04338  0.34911  0.85518  1.0000
  C   C160      1.0  0.72790  0.04507  0.89386  1.0000
  C   C161      1.0  0.95738  0.68519  0.88496  1.0000
  C   C162      1.0  0.68572  0.73256  0.89716  1.0000
  C   C163      1.0  0.26452  0.94750  0.92132  1.0000
  C   C164      1.0  0.04398  0.31366  0.90162  1.0000
  C   C165      1.0  0.76400  0.08366  0.92704  1.0000
  C   C166      1.0  0.91903  0.68378  0.91179  1.0000
  C   C167      1.0  0.68363  0.76906  0.92165  1.0000
  C   C168      1.0  0.22774  0.90827  0.94272  1.0000
  C   C169      1.0  0.08199  0.31384  0.91050  1.0000
  C   C170      1.0  0.76417  0.12060  0.90809  1.0000
  C   C171      1.0  0.88170  0.64727  0.88997  1.0000
  C   C172      1.0  0.64743  0.76937  0.89111  1.0000
  C   C173      1.0  0.22796  0.87195  0.91160  1.0000
  C   C174      1.0  0.11947  0.34961  0.87407  1.0000
  C   C175      1.0  0.72817  0.12017  0.85087  1.0000
  C   C176      1.0  0.88160  0.61088  0.83782  1.0000
  C   C177      1.0  0.61209  0.73301  0.83233  1.0000
  C   C178      1.0  0.26509  0.87383  0.85385  1.0000
  C   C179      1.0  0.11993  0.38635  0.82371  1.0000
  C   C180      1.0  0.69159  0.08128  0.81335  1.0000
  C   C181      1.0  0.92031  0.61201  0.80690  1.0000
  C   C182      1.0  0.61383  0.69580  0.80548  1.0000
  C   C183      1.0  0.30255  0.91344  0.82887  1.0000
  C   C184      1.0  0.08148  0.38644  0.81134  1.0000
  N   N20       1.0  0.65626  0.07866  0.75395  1.0000
  N   N21       1.0  0.92223  0.57830  0.75223  1.0000
  N   N22       1.0  0.58108  0.66002  0.74645  1.0000
  N   N23       1.0  0.33881  0.91718  0.76769  1.0000
  N   N24       1.0  0.07989  0.42050  0.75892  1.0000
  C   C185      1.0  0.65609  0.11391  0.73244  1.0000
  C   C186      1.0  0.88653  0.54292  0.73151  1.0000
  C   C187      1.0  0.54614  0.65999  0.71599  1.0000
  C   C188      1.0  0.33895  0.88239  0.73329  1.0000
  C   C189      1.0  0.11575  0.45497  0.72208  1.0000
  C   C190      1.0  0.69021  0.15378  0.76853  1.0000
  C   C191      1.0  0.84678  0.53824  0.76317  1.0000
  C   C192      1.0  0.54095  0.69473  0.74155  1.0000
  C   C193      1.0  0.30394  0.84184  0.75711  1.0000
  C   C194      1.0  0.15533  0.45846  0.73443  1.0000
  C   C195      1.0  0.72610  0.15681  0.82727  1.0000
  C   C196      1.0  0.84444  0.57225  0.81465  1.0000
  C   C197      1.0  0.57397  0.73115  0.79846  1.0000
  C   C198      1.0  0.26710  0.83771  0.81660  1.0000
  C   C199      1.0  0.15727  0.42407  0.78364  1.0000
  C   C200      1.0  0.41074  0.01765  0.84128  1.0000
  C   C201      1.0  0.97711  0.39188  0.85168  1.0000
  C   C202      1.0  0.39603  0.41485  0.81539  1.0000
  C   C203      1.0  0.58321  0.98154  0.81767  1.0000
  C   C204      1.0  0.01964  0.60321  0.80847  1.0000
  H   H92       1.0  0.41035  0.71188  0.87672  1.0000
  H   H93       1.0  0.28800  0.69687  0.87140  1.0000
  H   H94       1.0  0.69776  0.41120  0.87653  1.0000
  H   H95       1.0  0.58845  0.28896  0.88147  1.0000
  H   H96       1.0  0.71037  0.30284  0.89303  1.0000
  H   H97       1.0  0.48284  0.89971  0.91974  1.0000
  H   H98       1.0  0.10064  0.58361  0.90484  1.0000
  H   H99       1.0  0.58587  0.48624  0.91883  1.0000
  H   H100      1.0  0.51194  0.09982  0.93654  1.0000
  H   H101      1.0  0.89732  0.41388  0.95068  1.0000
  H   H102      1.0  0.57416  0.04593  0.93282  1.0000
  H   H103      1.0  0.95462  0.53097  0.92850  1.0000
  H   H104      1.0  0.53259  0.57840  0.93215  1.0000
  H   H105      1.0  0.41982  0.95297  0.93917  1.0000
  H   H106      1.0  0.04356  0.46652  0.93302  1.0000
  H   H107      1.0  0.62838  0.02132  0.99714  1.0000
  H   H108      1.0  0.97689  0.60596  0.98945  1.0000
  H   H109      1.0  0.60654  0.63251  0.99743  1.0000
  H   H110      1.0  0.36584  0.96971  0.01130  1.0000
  H   H111      1.0  0.02843  0.39839  0.00016  1.0000
  H   H112      1.0  0.61975  0.97238  0.50885  1.0000
  H   H113      1.0  0.02900  0.64776  0.49967  1.0000
  H   H114      1.0  0.64862  0.62245  0.53279  1.0000
  H   H115      1.0  0.37888  0.02396  0.53799  1.0000
  H   H116      1.0  0.97380  0.35513  0.55260  1.0000
  H   H117      1.0  0.72735  0.01586  0.91271  1.0000
  H   H118      1.0  0.98684  0.71359  0.90629  1.0000
  H   H119      1.0  0.71396  0.73199  0.92382  1.0000
  H   H120      1.0  0.26449  0.97608  0.94894  1.0000
  H   H121      1.0  0.01439  0.28584  0.93304  1.0000
  H   H122      1.0  0.79155  0.08390  0.97106  1.0000
  H   H123      1.0  0.91921  0.71165  0.95329  1.0000
  H   H124      1.0  0.71069  0.79678  0.96799  1.0000
  H   H125      1.0  0.19924  0.90698  0.98584  1.0000
  H   H126      1.0  0.08145  0.28556  0.94884  1.0000
  H   H127      1.0  0.79174  0.15027  0.93599  1.0000
  H   H128      1.0  0.85208  0.64585  0.91283  1.0000
  H   H129      1.0  0.64546  0.79721  0.91204  1.0000
  H   H130      1.0  0.19991  0.84164  0.92977  1.0000
  H   H131      1.0  0.14889  0.35011  0.88266  1.0000
  H   H132      1.0  0.62749  0.11079  0.68442  1.0000
  H   H133      1.0  0.88910  0.51654  0.68847  1.0000
  H   H134      1.0  0.52058  0.63101  0.66885  1.0000
  H   H135      1.0  0.36831  0.88642  0.68435  1.0000
  H   H136      1.0  0.11352  0.48167  0.68128  1.0000
  H   H137      1.0  0.68757  0.18133  0.75153  1.0000
  H   H138      1.0  0.81886  0.50795  0.74797  1.0000
  H   H139      1.0  0.51102  0.69208  0.71785  1.0000
  H   H140      1.0  0.30653  0.81465  0.72906  1.0000
  H   H141      1.0  0.18349  0.48808  0.70619  1.0000
  H   H142      1.0  0.75301  0.18689  0.85667  1.0000
  H   H143      1.0  0.81447  0.57001  0.83948  1.0000
  H   H144      1.0  0.57128  0.75861  0.81910  1.0000
  H   H145      1.0  0.23926  0.80718  0.83563  1.0000
  H   H146      1.0  0.18710  0.42535  0.79272  1.0000
  H   H147      1.0  0.41297  0.04348  0.76791  1.0000
  H   H148      1.0  0.95020  0.36649  0.79014  1.0000
  H   H149      1.0  0.37306  0.41638  0.73791  1.0000
  H   H150      1.0  0.57874  0.95730  0.73015  1.0000
  H   H151      1.0  0.04442  0.62471  0.72270  1.0000
  H   H152      1.0  0.41097  0.99465  0.75798  1.0000
  H   H153      1.0  0.99857  0.41376  0.75777  1.0000
  H   H154      1.0  0.41971  0.41401  0.73601  1.0000
  H   H155      1.0  0.58589  0.00817  0.74938  1.0000
  H   H156      1.0  0.99392  0.57919  0.73799  1.0000
  C  Sn1       1.0  0.44355  0.63383  0.50837  1.0000
  C   C205      1.0  0.43678  0.59687  0.43658  1.0000
  C  Sn2       1.0  0.40597  0.57700  0.31961  1.0000
  C  Sn3       1.0  0.38143  0.59447  0.27335  1.0000
  C   C206      1.0  0.38822  0.63141  0.34509  1.0000
  C  Sn4       1.0  0.41902  0.65129  0.46210  1.0000
  O  Te1       1.0  0.47453  0.65315  0.62503  1.0000
  O  Te2       1.0  0.39976  0.54007  0.24960  1.0000
  O  Te3       1.0  0.35044  0.57511  0.15658  1.0000
  O  Te4       1.0  0.42523  0.68821  0.53207  1.0000
  Mg  Mg1       1.0  0.35381  0.52538  0.09608  1.0000
  Mg  Mg2       1.0  0.47119  0.70294  0.68553  1.0000
  C  Sn5       1.0  0.42277  0.79260  0.35041  1.0000
  C   C207      1.0  0.38368  0.76162  0.41055  1.0000
  C  Sn6       1.0  0.35347  0.77157  0.45756  1.0000
  C  Sn7       1.0  0.36249  0.81335  0.44410  1.0000
  C   C208      1.0  0.40155  0.84430  0.38397  1.0000
  C  Sn8       1.0  0.43179  0.83438  0.33695  1.0000
  O  Te5       1.0  0.45250  0.78195  0.30412  1.0000
  O  Te6       1.0  0.31462  0.74006  0.51738  1.0000
  O  Te7       1.0  0.33271  0.82398  0.49046  1.0000
  O  Te8       1.0  0.47061  0.86586  0.27714  1.0000
  Mg  Mg3       1.0  0.28438  0.77009  0.56463  1.0000
  Mg  Mg4       1.0  0.50087  0.83587  0.22978  1.0000
  C  Sn9       1.0  0.19154  0.55619  0.49873  1.0000
  C   C209      1.0  0.16211  0.56387  0.42792  1.0000
  C  Sn10      1.0  0.17457  0.59592  0.31175  1.0000
  C  Sn11      1.0  0.21733  0.62080  0.26529  1.0000
  C   C210      1.0  0.24672  0.61313  0.33605  1.0000
  C  Sn12      1.0  0.23430  0.58108  0.45227  1.0000
  O  Te9       1.0  0.17838  0.52399  0.61462  1.0000
  O  Te10      1.0  0.14458  0.60300  0.24270  1.0000
  O  Te11      1.0  0.23047  0.65303  0.14930  1.0000
  O  Te12      1.0  0.26426  0.57399  0.52128  1.0000
  Mg  Mg5       1.0  0.17790  0.65052  0.08999  1.0000
  Mg  Mg6       1.0  0.23098  0.52647  0.67392  1.0000
  C  Sn13      1.0  0.56337  0.34712  0.42390  1.0000
  C   C211      1.0  0.60320  0.36356  0.35239  1.0000
  C  Sn14      1.0  0.62621  0.40552  0.30481  1.0000
  C  Sn15      1.0  0.60906  0.43160  0.32932  1.0000
  C   C212      1.0  0.56926  0.41516  0.40081  1.0000
  C  Sn16      1.0  0.54623  0.37321  0.44840  1.0000
  O  Te13      1.0  0.54093  0.30509  0.47052  1.0000
  O  Te14      1.0  0.66596  0.42124  0.23352  1.0000
  O  Te15      1.0  0.63154  0.47366  0.28262  1.0000
  O  Te16      1.0  0.50651  0.35749  0.51968  1.0000
  Mg  Mg7       1.0  0.68437  0.48055  0.19059  1.0000
  Mg  Mg8       1.0  0.48807  0.29819  0.56273  1.0000
  C  Sn17      1.0  0.62957  0.19289  0.53803  1.0000
  C   C213      1.0  0.59383  0.16260  0.46030  1.0000
  C  Sn18      1.0  0.57639  0.17384  0.33409  1.0000
  C  Sn19      1.0  0.59508  0.21623  0.28445  1.0000
  C   C214      1.0  0.63080  0.24649  0.36213  1.0000
  C  Sn20      1.0  0.64825  0.23528  0.48838  1.0000
  O  Te17      1.0  0.64646  0.18094  0.66391  1.0000
  O  Te18      1.0  0.54065  0.14300  0.25826  1.0000
  O  Te19      1.0  0.57815  0.22816  0.15846  1.0000
  O  Te20      1.0  0.68398  0.26609  0.56417  1.0000
  Mg  Mg9       1.0  0.52926  0.17477  0.09274  1.0000
  Mg  Mg10      1.0  0.69541  0.23435  0.72963  1.0000
  C  Sn21      1.0  0.79278  0.37220  0.35328  1.0000
  C   C215      1.0  0.76245  0.38089  0.41187  1.0000
  C  Sn22      1.0  0.77349  0.42143  0.45577  1.0000
  C  Sn23      1.0  0.81571  0.45397  0.44071  1.0000
  C   C216      1.0  0.84601  0.44527  0.38213  1.0000
  C  Sn24      1.0  0.83501  0.40474  0.33822  1.0000
  O  Te21      1.0  0.78105  0.33144  0.31010  1.0000
  O  Te22      1.0  0.74261  0.42935  0.51410  1.0000
  O  Te23      1.0  0.82743  0.49475  0.48395  1.0000
  O  Te24      1.0  0.86585  0.39681  0.27990  1.0000
  Mg  Mg11      1.0  0.77407  0.48995  0.55709  1.0000
  Mg  Mg12      1.0  0.83443  0.33623  0.23679  1.0000
  C  Sn25      1.0  0.44428  0.63386  0.02245  1.0000
  C   C217      1.0  0.43343  0.59518  0.94345  1.0000
  C  Sn26      1.0  0.40585  0.57781  0.81401  1.0000
  C  Sn27      1.0  0.38262  0.59628  0.76237  1.0000
  C   C218      1.0  0.38746  0.63172  0.84133  1.0000
  C  Sn28      1.0  0.41502  0.64911  0.97081  1.0000
  O  Te25      1.0  0.47203  0.65070  0.15157  1.0000
  O  Te26      1.0  0.40155  0.54234  0.73696  1.0000
  O  Te27      1.0  0.35486  0.57941  0.63315  1.0000
  O  Te28      1.0  0.42537  0.68778  0.04782  1.0000
  Mg  Mg13      1.0  0.35985  0.53093  0.56689  1.0000
  Mg  Mg14      1.0  0.46707  0.69924  0.21784  1.0000
  C  Sn29      1.0  0.37404  0.80854  0.03737  1.0000
  C   C219      1.0  0.40362  0.83696  0.95685  1.0000
  C  Sn30      1.0  0.42155  0.82777  0.82295  1.0000
  C  Sn31      1.0  0.40350  0.78609  0.76832  1.0000
  C   C220      1.0  0.36791  0.75448  0.84880  1.0000
  C  Sn32      1.0  0.34995  0.76363  0.98274  1.0000
  O  Te29      1.0  0.35663  0.81843  0.17096  1.0000
  O  Te30      1.0  0.45716  0.85993  0.74445  1.0000
  O  Te31      1.0  0.42094  0.77622  0.63462  1.0000
  O  Te32      1.0  0.32039  0.73472  0.06119  1.0000
  Mg  Mg15      1.0  0.46941  0.83082  0.56797  1.0000
  Mg  Mg16      1.0  0.30811  0.76381  0.23762  1.0000
  C  Sn33      1.0  0.18383  0.59812  0.74720  1.0000
  C   C221      1.0  0.16004  0.56195  0.84196  1.0000
  C  Sn34      1.0  0.17812  0.55212  0.97018  1.0000
  C  Sn35      1.0  0.22689  0.58224  0.00447  1.0000
  C   C222      1.0  0.24462  0.61516  0.90975  1.0000
  C  Sn36      1.0  0.22657  0.62502  0.78149  1.0000
  O  Te33      1.0  0.16511  0.60734  0.61963  1.0000
  O  Te34      1.0  0.15974  0.51900  0.06318  1.0000
  O  Te35      1.0  0.24560  0.57299  0.13215  1.0000
  O  Te36      1.0  0.25095  0.66134  0.68854  1.0000
  Mg  Mg17      1.0  0.19942  0.51991  0.22408  1.0000
  Mg  Mg18      1.0  0.21130  0.66047  0.52767  1.0000
  C  Sn37      1.0  0.60299  0.42032  0.75653  1.0000
  C   C223      1.0  0.56487  0.40612  0.84013  1.0000
  C  Sn38      1.0  0.55135  0.37488  0.96058  1.0000
  C  Sn39      1.0  0.57647  0.35747  0.99835  1.0000
  C   C224      1.0  0.61456  0.37166  0.91480  1.0000
  C  Sn40      1.0  0.62811  0.40291  0.79430  1.0000
  O  Te37      1.0  0.61589  0.45158  0.63658  1.0000
  O  Te38      1.0  0.51916  0.36441  0.04247  1.0000
  O  Te39      1.0  0.56957  0.32940  0.11841  1.0000
  O  Te40      1.0  0.66632  0.41660  0.71247  1.0000
  Mg  Mg19      1.0  0.51509  0.32116  0.19613  1.0000
  Mg  Mg20      1.0  0.67042  0.45986  0.55886  1.0000
  C  Sn41      1.0  0.63443  0.19524  0.03654  1.0000
  C   C225      1.0  0.59220  0.16159  0.96174  1.0000
  C  Sn42      1.0  0.57444  0.17252  0.83577  1.0000
  C  Sn43      1.0  0.59325  0.21473  0.78339  1.0000
  C   C226      1.0  0.62942  0.24512  0.85816  1.0000
  C  Sn44      1.0  0.64720  0.23423  0.98417  1.0000
  O  Te41      1.0  0.65165  0.18362  0.16224  1.0000
  O  Te42      1.0  0.53824  0.14155  0.76288  1.0000
  O  Te43      1.0  0.57599  0.22634  0.65759  1.0000
  O  Te44      1.0  0.68942  0.26839  0.05702  1.0000
  Mg  Mg21      1.0  0.52653  0.17288  0.59641  1.0000
  Mg  Mg22      1.0  0.70116  0.23710  0.22343  1.0000
  C  Sn45      1.0  0.81236  0.44172  0.03879  1.0000
  C   C227      1.0  0.83721  0.43345  0.96018  1.0000
  C  Sn46      1.0  0.82721  0.40593  0.82940  1.0000
  C  Sn47      1.0  0.78547  0.38298  0.77600  1.0000
  C   C228      1.0  0.75461  0.38802  0.85457  1.0000
  C  Sn48      1.0  0.76458  0.41554  0.98539  1.0000
  O  Te45      1.0  0.82307  0.46941  0.16927  1.0000
  O  Te46      1.0  0.85863  0.40141  0.75277  1.0000
  O  Te47      1.0  0.77479  0.35527  0.64541  1.0000
  O  Te48      1.0  0.73923  0.42329  0.06198  1.0000
  Mg  Mg23      1.0  0.82856  0.35990  0.58038  1.0000
  Mg  Mg24      1.0  0.76927  0.46481  0.23431  1.0000
