data_image0
_chemical_formula_structural       H2C3BC12BH6C6HO2HC6HO2HCH2C3BC12BH6C6HO2HC6HO2HCH2C3BC12BH6C6HO2HC6HO2HCH2C3BC12BH6C6HO2HC6HO2HCH2C3BC12BH6C6HO2HC6HO2HCH2C3BC12BH6C6HO2HC6HO2HC3Sn2C2HTe2HMgC2Sn2C2HTe2HMgC2Sn2C2HTe2HMgC2Sn2C2HTe2HMgC2Sn2C2HTe2HMgC2Sn2C2HTe2HMgC2Sn2C2HTe2HMgC2Sn2C2HTe2HMgC2Sn2C2HTe2HMgC2Sn2C2HTe2HMgC2Sn2C2HTe2HMgC2Sn2C2HTe2HMg
_chemical_formula_sum              "H96 C216 B12 O24 Sn24 Te24 Mg12"
_cell_length_a       43.8279
_cell_length_b       43.7926
_cell_length_c       8.09115
_cell_angle_alpha    90.4918
_cell_angle_beta     89.9829
_cell_angle_gamma    120.181

_symmetry_space_group_name_H-M    'P1'
_space_group_IT_number       1

loop_
  _space_group_symop_operation_xyz
  'x, y, z'

loop_
  _atom_site_type_symbol
  _atom_site_label
  _atom_site_symmetry_multiplicity
  _atom_site_fract_x
  _atom_site_fract_y
  _atom_site_fract_z
  _atom_site_occupancy
  H   H1        1.0  0.52005  0.48933  0.05223  1.0000
  H   H2        1.0  0.48769  0.51855  0.45203  1.0000
  C   C1        1.0  0.49163  0.47428  0.03285  1.0000
  C   C2        1.0  0.47254  0.49023  0.47242  1.0000
  C   C3        1.0  0.43596  0.47219  0.43960  1.0000
  B   B1        1.0  0.37995  0.56493  0.28805  1.0000
  C   C4        1.0  0.35198  0.40723  0.34903  1.0000
  C   C5        1.0  0.31521  0.34365  0.40356  1.0000
  C   C6        1.0  0.34631  0.34421  0.99746  1.0000
  C   C7        1.0  0.37804  0.37689  0.00090  1.0000
  C   C8        1.0  0.38036  0.40828  0.43074  1.0000
  C   C9        1.0  0.40998  0.38213  0.07086  1.0000
  C   C10       1.0  0.40931  0.35384  0.15043  1.0000
  C   C11       1.0  0.37744  0.32082  0.15252  1.0000
  C   C12       1.0  0.34674  0.31563  0.07697  1.0000
  C   C13       1.0  0.41736  0.43551  0.46659  1.0000
  C   C14       1.0  0.43680  0.41932  0.03966  1.0000
  C   C15       1.0  0.47347  0.43780  0.06660  1.0000
  B   B2        1.0  0.56509  0.38008  0.21114  1.0000
  H   H3        1.0  0.35391  0.43066  0.29398  1.0000
  H   H4        1.0  0.29800  0.37417  0.26865  1.0000
  H   H5        1.0  0.29003  0.31922  0.39096  1.0000
  H   H6        1.0  0.43260  0.35641  0.21107  1.0000
  H   H7        1.0  0.37733  0.29899  0.21610  1.0000
  H   H8        1.0  0.32293  0.28978  0.07922  1.0000
  C   C16       1.0  0.32572  0.63016  0.24879  1.0000
  C   C17       1.0  0.36166  0.65815  0.24972  1.0000
  C   C18       1.0  0.26155  0.61066  0.23336  1.0000
  C   C19       1.0  0.23550  0.61914  0.25051  1.0000
  C   C20       1.0  0.24335  0.65385  0.28178  1.0000
  C   C21       1.0  0.27753  0.68158  0.28281  1.0000
  H   H9        1.0  0.25448  0.58335  0.21336  1.0000
  O   O1        1.0  0.19923  0.59685  0.25017  1.0000
  O   O2        1.0  0.21222  0.65415  0.30849  1.0000
  H   H10       1.0  0.28285  0.70828  0.30511  1.0000
  C   C22       1.0  0.65846  0.36183  0.24516  1.0000
  C   C23       1.0  0.63046  0.32605  0.26067  1.0000
  C   C24       1.0  0.72302  0.40531  0.22313  1.0000
  C   C25       1.0  0.75702  0.41160  0.22134  1.0000
  C   C26       1.0  0.76466  0.38441  0.24162  1.0000
  C   C27       1.0  0.73838  0.34970  0.25156  1.0000
  H   H11       1.0  0.71824  0.42719  0.21058  1.0000
  O   O3        1.0  0.78820  0.44332  0.20013  1.0000
  O   O4        1.0  0.80093  0.39851  0.24090  1.0000
  H   H12       1.0  0.74505  0.32911  0.26518  1.0000
  C   C28       1.0  0.31975  0.37465  0.33569  1.0000
  H   H13       1.0  0.51181  0.03200  0.03241  1.0000
  H   H14       1.0  0.48248  0.96970  0.42603  1.0000
  C   C29       1.0  0.52651  0.01838  0.01221  1.0000
  C   C30       1.0  0.51072  0.98332  0.45037  1.0000
  C   C31       1.0  0.52918  0.96515  0.41990  1.0000
  B   B3        1.0  0.43556  0.81500  0.27896  1.0000
  C   C32       1.0  0.59505  0.94661  0.34849  1.0000
  C   C33       1.0  0.65750  0.97289  0.42911  1.0000
  C   C34       1.0  0.65369  0.99867  0.99763  1.0000
  C   C35       1.0  0.62207  0.99962  0.99041  1.0000
  C   C36       1.0  0.59319  0.97393  0.42696  1.0000
  C   C37       1.0  0.61762  0.02695  0.06037  1.0000
  C   C38       1.0  0.64574  0.05349  0.14862  1.0000
  C   C39       1.0  0.67760  0.05264  0.16207  1.0000
  C   C40       1.0  0.68196  0.02637  0.08836  1.0000
  C   C41       1.0  0.56568  0.98359  0.45313  1.0000
  C   C42       1.0  0.58101  0.01786  0.02202  1.0000
  C   C43       1.0  0.56286  0.03629  0.05104  1.0000
  B   B4        1.0  0.61856  0.18521  0.21621  1.0000
  H   H15       1.0  0.57244  0.92531  0.28476  1.0000
  H   H16       1.0  0.62854  0.92514  0.28770  1.0000
  H   H17       1.0  0.68172  0.97171  0.42994  1.0000
  H   H18       1.0  0.64391  0.07475  0.20915  1.0000
  H   H19       1.0  0.69910  0.07324  0.23465  1.0000
  H   H20       1.0  0.70684  0.02672  0.10104  1.0000
  C   C44       1.0  0.36983  0.69480  0.25682  1.0000
  C   C45       1.0  0.34192  0.70271  0.25358  1.0000
  C   C46       1.0  0.38924  0.65007  0.24602  1.0000
  C   C47       1.0  0.38038  0.61526  0.25352  1.0000
  C   C48       1.0  0.34527  0.58805  0.26798  1.0000
  C   C49       1.0  0.31777  0.59457  0.26132  1.0000
  H   H21       1.0  0.41679  0.67047  0.23938  1.0000
  O   O5        1.0  0.40246  0.60118  0.25928  1.0000
  O   O6        1.0  0.34438  0.55625  0.29122  1.0000
  H   H22       1.0  0.29084  0.57289  0.27133  1.0000
  C   C50       1.0  0.63848  0.29747  0.26567  1.0000
  C   C51       1.0  0.67402  0.30529  0.24400  1.0000
  C   C52       1.0  0.59483  0.31824  0.25826  1.0000
  C   C53       1.0  0.58833  0.34566  0.24159  1.0000
  C   C54       1.0  0.61581  0.38077  0.23375  1.0000
  C   C55       1.0  0.65055  0.38944  0.23435  1.0000
  H   H23       1.0  0.57292  0.29133  0.26336  1.0000
  O   O7        1.0  0.55625  0.34458  0.22560  1.0000
  O   O8        1.0  0.60186  0.40281  0.21759  1.0000
  H   H24       1.0  0.67106  0.41690  0.22406  1.0000
  C   C56       1.0  0.62747  0.94663  0.35059  1.0000
  H   H25       1.0  0.96820  0.48076  0.04254  1.0000
  H   H26       1.0  0.02993  0.50977  0.45309  1.0000
  C   C57       1.0  0.98201  0.50915  0.02374  1.0000
  C   C58       1.0  0.01679  0.52501  0.47147  1.0000
  C   C59       1.0  0.03555  0.56145  0.43617  1.0000
  B   B5        1.0  0.18524  0.61865  0.29076  1.0000
  C   C60       1.0  0.05560  0.64566  0.34950  1.0000
  C   C61       1.0  0.03025  0.68327  0.41498  1.0000
  C   C62       1.0  0.00162  0.65609  0.00150  1.0000
  C   C63       1.0  0.00107  0.62366  0.99949  1.0000
  C   C64       1.0  0.02810  0.61741  0.43052  1.0000
  C   C65       1.0  0.97352  0.59191  0.06676  1.0000
  C   C66       1.0  0.94639  0.59344  0.14784  1.0000
  C   C67       1.0  0.94683  0.62604  0.15611  1.0000
  C   C68       1.0  0.97327  0.65660  0.08431  1.0000
  C   C69       1.0  0.01773  0.58027  0.46336  1.0000
  C   C70       1.0  0.98286  0.56439  0.03303  1.0000
  C   C71       1.0  0.96417  0.52770  0.05962  1.0000
  B   B6        1.0  0.81502  0.43470  0.20969  1.0000
  H   H27       1.0  0.07677  0.64346  0.29148  1.0000
  H   H28       1.0  0.07733  0.69984  0.27443  1.0000
  H   H29       1.0  0.03159  0.70870  0.40692  1.0000
  H   H30       1.0  0.92497  0.57036  0.20624  1.0000
  H   H31       1.0  0.92566  0.62690  0.22234  1.0000
  H   H32       1.0  0.97253  0.68103  0.09237  1.0000
  C   C72       1.0  0.30526  0.67410  0.25907  1.0000
  C   C73       1.0  0.29726  0.63828  0.24501  1.0000
  C   C74       1.0  0.35000  0.73840  0.24606  1.0000
  C   C75       1.0  0.38483  0.76456  0.25384  1.0000
  C   C76       1.0  0.41196  0.75680  0.27292  1.0000
  C   C77       1.0  0.40538  0.72266  0.27186  1.0000
  H   H33       1.0  0.32953  0.74528  0.23358  1.0000
  O   O9        1.0  0.39917  0.80088  0.25156  1.0000
  O   O10       1.0  0.44394  0.78801  0.29077  1.0000
  H   H34       1.0  0.42704  0.71758  0.28549  1.0000
  C   C78       1.0  0.70278  0.34189  0.24489  1.0000
  C   C79       1.0  0.69506  0.36989  0.23877  1.0000
  C   C80       1.0  0.68124  0.27747  0.21727  1.0000
  C   C81       1.0  0.65363  0.24332  0.22352  1.0000
  C   C82       1.0  0.61939  0.23557  0.26312  1.0000
  C   C83       1.0  0.61107  0.26177  0.28226  1.0000
  H   H35       1.0  0.70753  0.28268  0.18699  1.0000
  O   O11       1.0  0.65367  0.21221  0.19201  1.0000
  O   O12       1.0  0.59722  0.19920  0.26553  1.0000
  H   H36       1.0  0.58402  0.25483  0.30664  1.0000
  C   C84       1.0  0.05601  0.67823  0.34154  1.0000
  H   H37       1.0  0.51807  0.48804  0.54792  1.0000
  H   H38       1.0  0.48936  0.51959  0.95500  1.0000
  C   C85       1.0  0.48961  0.47305  0.53048  1.0000
  C   C86       1.0  0.47434  0.49122  0.97418  1.0000
  C   C87       1.0  0.43777  0.47300  0.93907  1.0000
  B   B7        1.0  0.38257  0.56688  0.79439  1.0000
  C   C88       1.0  0.35365  0.40662  0.84967  1.0000
  C   C89       1.0  0.31749  0.34330  0.91261  1.0000
  C   C90       1.0  0.34364  0.34374  0.48842  1.0000
  C   C91       1.0  0.37564  0.37619  0.49546  1.0000
  C   C92       1.0  0.38225  0.40860  0.93326  1.0000
  C   C93       1.0  0.40724  0.38091  0.56786  1.0000
  C   C94       1.0  0.40558  0.35227  0.64863  1.0000
  C   C95       1.0  0.37339  0.31947  0.64758  1.0000
  C   C96       1.0  0.34329  0.31472  0.56759  1.0000
  C   C97       1.0  0.41923  0.43631  0.96693  1.0000
  C   C98       1.0  0.43460  0.41813  0.53912  1.0000
  C   C99       1.0  0.47138  0.43664  0.56672  1.0000
  B   B8        1.0  0.56449  0.38129  0.73236  1.0000
  H   H39       1.0  0.35516  0.42952  0.79056  1.0000
  H   H40       1.0  0.29979  0.37244  0.77027  1.0000
  H   H41       1.0  0.29237  0.31870  0.90396  1.0000
  H   H42       1.0  0.42825  0.35432  0.71341  1.0000
  H   H43       1.0  0.37255  0.29744  0.71272  1.0000
  H   H44       1.0  0.31934  0.28895  0.56662  1.0000
  C   C100      1.0  0.32646  0.63032  0.75107  1.0000
  C   C101      1.0  0.36217  0.65887  0.75326  1.0000
  C   C102      1.0  0.26192  0.60954  0.72940  1.0000
  C   C103      1.0  0.23527  0.61711  0.75022  1.0000
  C   C104      1.0  0.24244  0.65105  0.79504  1.0000
  C   C105      1.0  0.27630  0.67913  0.80482  1.0000
  H   H45       1.0  0.25565  0.58276  0.70071  1.0000
  O   O13       1.0  0.19897  0.59457  0.74266  1.0000
  O   O14       1.0  0.21104  0.65046  0.82450  1.0000
  H   H46       1.0  0.28086  0.70515  0.83783  1.0000
  C   C106      1.0  0.65739  0.36220  0.76102  1.0000
  C   C107      1.0  0.62923  0.32631  0.77018  1.0000
  C   C108      1.0  0.72196  0.40546  0.72748  1.0000
  C   C109      1.0  0.75578  0.41144  0.71349  1.0000
  C   C110      1.0  0.76316  0.38391  0.72403  1.0000
  C   C111      1.0  0.73675  0.34930  0.73606  1.0000
  H   H47       1.0  0.71741  0.42760  0.72381  1.0000
  O   O15       1.0  0.78708  0.44314  0.69215  1.0000
  O   O16       1.0  0.79933  0.39764  0.71666  1.0000
  H   H48       1.0  0.74325  0.32850  0.74318  1.0000
  C   C112      1.0  0.32164  0.37371  0.83971  1.0000
  H   H49       1.0  0.51217  0.03083  0.52895  1.0000
  H   H50       1.0  0.48087  0.97128  0.92710  1.0000
  C   C113      1.0  0.52732  0.01757  0.51215  1.0000
  C   C114      1.0  0.50919  0.98433  0.94835  1.0000
  C   C115      1.0  0.52700  0.96575  0.91178  1.0000
  B   B9        1.0  0.43209  0.81569  0.77556  1.0000
  C   C116      1.0  0.59192  0.94610  0.83001  1.0000
  C   C117      1.0  0.65381  0.97006  0.91421  1.0000
  C   C118      1.0  0.65674  0.00165  0.50754  1.0000
  C   C119      1.0  0.62454  0.00142  0.50024  1.0000
  C   C120      1.0  0.59056  0.97321  0.91370  1.0000
  C   C121      1.0  0.61931  0.02856  0.56597  1.0000
  C   C122      1.0  0.64723  0.05622  0.65014  1.0000
  C   C123      1.0  0.67982  0.05678  0.66236  1.0000
  C   C124      1.0  0.68493  0.03065  0.59244  1.0000
  C   C125      1.0  0.56361  0.98351  0.94335  1.0000
  C   C126      1.0  0.58240  0.01830  0.52776  1.0000
  C   C127      1.0  0.56357  0.03616  0.55293  1.0000
  B   B10       1.0  0.61661  0.18502  0.71339  1.0000
  H   H51       1.0  0.56926  0.92570  0.76296  1.0000
  H   H52       1.0  0.62437  0.92382  0.76327  1.0000
  H   H53       1.0  0.67754  0.96800  0.91502  1.0000
  H   H54       1.0  0.64464  0.07731  0.70759  1.0000
  H   H55       1.0  0.70133  0.07848  0.73009  1.0000
  H   H56       1.0  0.71038  0.03215  0.60344  1.0000
  C   C128      1.0  0.36943  0.69528  0.75792  1.0000
  C   C129      1.0  0.34085  0.70207  0.77079  1.0000
  C   C130      1.0  0.39031  0.65158  0.75602  1.0000
  C   C131      1.0  0.38216  0.61694  0.76293  1.0000
  C   C132      1.0  0.34720  0.58915  0.77057  1.0000
  C   C133      1.0  0.31924  0.59496  0.76261  1.0000
  H   H57       1.0  0.41772  0.67251  0.75711  1.0000
  O   O17       1.0  0.40474  0.60347  0.77429  1.0000
  O   O18       1.0  0.34684  0.55757  0.79153  1.0000
  H   H58       1.0  0.29247  0.57295  0.77221  1.0000
  C   C134      1.0  0.63702  0.29754  0.76899  1.0000
  C   C135      1.0  0.67238  0.30527  0.74119  1.0000
  C   C136      1.0  0.59363  0.31868  0.76707  1.0000
  C   C137      1.0  0.58733  0.34637  0.75933  1.0000
  C   C138      1.0  0.61490  0.38151  0.76219  1.0000
  C   C139      1.0  0.64964  0.39002  0.76330  1.0000
  H   H59       1.0  0.57169  0.29172  0.76368  1.0000
  O   O19       1.0  0.55544  0.34562  0.74130  1.0000
  O   O20       1.0  0.60114  0.40382  0.75036  1.0000
  H   H60       1.0  0.67027  0.41755  0.76155  1.0000
  C   C140      1.0  0.62375  0.94505  0.83100  1.0000
  H   H61       1.0  0.96879  0.47991  0.55009  1.0000
  H   H62       1.0  0.02915  0.51051  0.94398  1.0000
  C   C141      1.0  0.98243  0.50826  0.52995  1.0000
  C   C142      1.0  0.01627  0.52590  0.96474  1.0000
  C   C143      1.0  0.03524  0.56245  0.93178  1.0000
  B   B11       1.0  0.18440  0.61539  0.79282  1.0000
  C   C144      1.0  0.05560  0.64709  0.85078  1.0000
  C   C145      1.0  0.03048  0.68472  0.92071  1.0000
  C   C146      1.0  0.00168  0.65495  0.49878  1.0000
  C   C147      1.0  0.00120  0.62256  0.49903  1.0000
  C   C148      1.0  0.02803  0.61865  0.93048  1.0000
  C   C149      1.0  0.97383  0.59101  0.56875  1.0000
  C   C150      1.0  0.94711  0.59285  0.65199  1.0000
  C   C151      1.0  0.94755  0.62547  0.65843  1.0000
  C   C152      1.0  0.97358  0.65571  0.58261  1.0000
  C   C153      1.0  0.01757  0.58139  0.96055  1.0000
  C   C154      1.0  0.98309  0.56340  0.53638  1.0000
  C   C155      1.0  0.96435  0.52672  0.56374  1.0000
  B   B12       1.0  0.81375  0.43418  0.69452  1.0000
  H   H63       1.0  0.07664  0.64492  0.79106  1.0000
  H   H64       1.0  0.07779  0.70167  0.78137  1.0000
  H   H65       1.0  0.03221  0.71037  0.91632  1.0000
  H   H66       1.0  0.92604  0.57001  0.71340  1.0000
  H   H67       1.0  0.92668  0.62656  0.72622  1.0000
  H   H68       1.0  0.97277  0.68012  0.58870  1.0000
  C   C156      1.0  0.30455  0.67279  0.77497  1.0000
  C   C157      1.0  0.29735  0.63749  0.74901  1.0000
  C   C158      1.0  0.34766  0.73737  0.77439  1.0000
  C   C159      1.0  0.38211  0.76433  0.77037  1.0000
  C   C160      1.0  0.41020  0.75774  0.76396  1.0000
  C   C161      1.0  0.40471  0.72400  0.75501  1.0000
  H   H69       1.0  0.32649  0.74337  0.77806  1.0000
  O   O21       1.0  0.39521  0.80047  0.77425  1.0000
  O   O22       1.0  0.44184  0.78962  0.76702  1.0000
  H   H70       1.0  0.42712  0.71994  0.74686  1.0000
  C   C162      1.0  0.70126  0.34182  0.74048  1.0000
  C   C163      1.0  0.69386  0.37008  0.74483  1.0000
  C   C164      1.0  0.67922  0.27736  0.70891  1.0000
  C   C165      1.0  0.65161  0.24323  0.71691  1.0000
  C   C166      1.0  0.61767  0.23552  0.76254  1.0000
  C   C167      1.0  0.60965  0.26183  0.78710  1.0000
  H   H71       1.0  0.70526  0.28242  0.67448  1.0000
  O   O23       1.0  0.65149  0.21209  0.68366  1.0000
  O   O24       1.0  0.59557  0.19911  0.76629  1.0000
  H   H72       1.0  0.58286  0.25504  0.81727  1.0000
  C   C168      1.0  0.05625  0.67982  0.84629  1.0000
  C   C169      1.0  0.38056  0.48950  0.46206  1.0000
  C   C170      1.0  0.41122  0.49066  0.40496  1.0000
  C  Sn1       1.0  0.43446  0.51798  0.30217  1.0000
  C  Sn2       1.0  0.42680  0.54461  0.25593  1.0000
  C   C171      1.0  0.39607  0.54322  0.31381  1.0000
  C   C172      1.0  0.37299  0.51575  0.41657  1.0000
  H   H73       1.0  0.36272  0.46826  0.54164  1.0000
  O  Te1       1.0  0.46497  0.51874  0.24619  1.0000
  O  Te2       1.0  0.44957  0.57222  0.15339  1.0000
  H   H74       1.0  0.34927  0.51488  0.46084  1.0000
  Mg  Mg1       1.0  0.48782  0.56174  0.10884  1.0000
  C   C173      1.0  0.50062  0.37345  0.06439  1.0000
  C   C174      1.0  0.53157  0.38799  0.15882  1.0000
  C  Sn3       1.0  0.54367  0.42022  0.24145  1.0000
  C  Sn4       1.0  0.52435  0.43816  0.22913  1.0000
  C   C175      1.0  0.49341  0.42338  0.13444  1.0000
  C   C176      1.0  0.48155  0.39112  0.05222  1.0000
  H   H75       1.0  0.49144  0.34848  0.00084  1.0000
  O  Te3       1.0  0.57464  0.43439  0.33522  1.0000
  O  Te4       1.0  0.53584  0.47040  0.31049  1.0000
  H   H76       1.0  0.45857  0.38194  0.97921  1.0000
  Mg  Mg2       1.0  0.57959  0.47901  0.42324  1.0000
  C   C177      1.0  0.50042  0.87317  0.42338  1.0000
  C   C178      1.0  0.46927  0.85669  0.33021  1.0000
  C  Sn5       1.0  0.45788  0.87691  0.24604  1.0000
  C  Sn6       1.0  0.47811  0.91432  0.25551  1.0000
  C   C179      1.0  0.50924  0.93055  0.34894  1.0000
  C   C180      1.0  0.52039  0.91007  0.43273  1.0000
  H   H77       1.0  0.50905  0.85732  0.48813  1.0000
  O  Te5       1.0  0.42670  0.86002  0.15358  1.0000
  O  Te6       1.0  0.46735  0.93517  0.17256  1.0000
  H   H78       1.0  0.54451  0.92283  0.50476  1.0000
  Mg  Mg3       1.0  0.42296  0.89986  0.06251  1.0000
  C   C181      1.0  0.62670  0.12832  0.06953  1.0000
  C   C182      1.0  0.61072  0.14403  0.15809  1.0000
  C  Sn7       1.0  0.57775  0.12314  0.23095  1.0000
  C  Sn8       1.0  0.56053  0.08583  0.21468  1.0000
  C   C183      1.0  0.57674  0.07036  0.12592  1.0000
  C   C184      1.0  0.60973  0.09152  0.05347  1.0000
  H   H79       1.0  0.65223  0.14468  0.01354  1.0000
  O  Te7       1.0  0.56216  0.13928  0.31896  1.0000
  O  Te8       1.0  0.52757  0.06432  0.28630  1.0000
  H   H80       1.0  0.62309  0.08143  0.98499  1.0000
  Mg  Mg4       1.0  0.51703  0.09872  0.39413  1.0000
  C   C185      1.0  0.11061  0.56457  0.24909  1.0000
  C   C186      1.0  0.13977  0.59667  0.29837  1.0000
  C  Sn9       1.0  0.13538  0.61972  0.40288  1.0000
  C  Sn10      1.0  0.10112  0.61040  0.45891  1.0000
  C   C187      1.0  0.07211  0.57821  0.40900  1.0000
  C   C188      1.0  0.07681  0.55535  0.30435  1.0000
  H   H81       1.0  0.11423  0.54687  0.16820  1.0000
  O  Te9       1.0  0.16481  0.65169  0.45087  1.0000
  O  Te10      1.0  0.09599  0.63294  0.56348  1.0000
  H   H82       1.0  0.05422  0.53049  0.26630  1.0000
  Mg  Mg5       1.0  0.14432  0.67358  0.59463  1.0000
  C   C189      1.0  0.90900  0.46918  0.23509  1.0000
  C   C190      1.0  0.92476  0.49873  0.13303  1.0000
  C  Sn11      1.0  0.90415  0.51042  0.05449  1.0000
  C  Sn12      1.0  0.86709  0.49213  0.07886  1.0000
  C   C191      1.0  0.85158  0.46261  0.18129  1.0000
  C   C192      1.0  0.87245  0.45114  0.25923  1.0000
  H   H83       1.0  0.92514  0.46031  0.29547  1.0000
  O  Te11      1.0  0.92131  0.54207  0.95289  1.0000
  O  Te12      1.0  0.84587  0.50325  0.00192  1.0000
  H   H84       1.0  0.86024  0.42827  0.33833  1.0000
  Mg  Mg6       1.0  0.88119  0.54702  0.87499  1.0000
  C   C193      1.0  0.43622  0.54596  0.75900  1.0000
  C   C194      1.0  0.40407  0.54307  0.80342  1.0000
  C  Sn13      1.0  0.38012  0.51499  0.90075  1.0000
  C  Sn14      1.0  0.38861  0.48938  0.95445  1.0000
  C   C195      1.0  0.42086  0.49252  0.90944  1.0000
  C   C196      1.0  0.44462  0.52071  0.81196  1.0000
  H   H85       1.0  0.45462  0.56778  0.68365  1.0000
  O  Te13      1.0  0.34810  0.51249  0.94397  1.0000
  O  Te14      1.0  0.36418  0.45897  0.05189  1.0000
  H   H86       1.0  0.46953  0.52295  0.77767  1.0000
  Mg  Mg7       1.0  0.32384  0.46701  0.07854  1.0000
  C   C197      1.0  0.54453  0.43588  0.75174  1.0000
  C   C198      1.0  0.54106  0.40309  0.71373  1.0000
  C  Sn15      1.0  0.51277  0.37854  0.61694  1.0000
  C  Sn16      1.0  0.48755  0.38706  0.55723  1.0000
  C   C199      1.0  0.49127  0.41995  0.59584  1.0000
  C   C200      1.0  0.51967  0.44431  0.69284  1.0000
  H   H87       1.0  0.56651  0.45474  0.82671  1.0000
  O  Te15      1.0  0.50969  0.34589  0.58018  1.0000
  O  Te16      1.0  0.45903  0.36302  0.46019  1.0000
  H   H88       1.0  0.52237  0.46971  0.72216  1.0000
  Mg  Mg8       1.0  0.46623  0.32194  0.44350  1.0000
  C   C201      1.0  0.51003  0.89313  0.92516  1.0000
  C   C202      1.0  0.50814  0.92246  0.87285  1.0000
  C  Sn17      1.0  0.47942  0.91792  0.77854  1.0000
  C  Sn18      1.0  0.45212  0.88333  0.73606  1.0000
  C   C203      1.0  0.45425  0.85415  0.78910  1.0000
  C   C204      1.0  0.48311  0.85900  0.88337  1.0000
  H   H89       1.0  0.53234  0.89687  0.99818  1.0000
  O  Te17      1.0  0.47796  0.94752  0.72724  1.0000
  O  Te18      1.0  0.42312  0.87803  0.64199  1.0000
  H   H90       1.0  0.48455  0.83628  0.92395  1.0000
  Mg  Mg9       1.0  0.43307  0.92671  0.60121  1.0000
  C   C205      1.0  0.56385  0.10940  0.74692  1.0000
  C   C206      1.0  0.59561  0.13938  0.70387  1.0000
  C  Sn19      1.0  0.61962  0.13629  0.60153  1.0000
  C  Sn20      1.0  0.61161  0.10252  0.54133  1.0000
  C   C207      1.0  0.57975  0.07269  0.58502  1.0000
  C   C208      1.0  0.55592  0.07608  0.68754  1.0000
  H   H91       1.0  0.54540  0.11202  0.82617  1.0000
  O  Te19      1.0  0.65124  0.16652  0.55978  1.0000
  O  Te20      1.0  0.63512  0.09868  0.43880  1.0000
  H   H92       1.0  0.53132  0.05286  0.72077  1.0000
  Mg  Mg10      1.0  0.67480  0.14773  0.41659  1.0000
  C   C209      1.0  0.12780  0.62424  0.93195  1.0000
  C   C210      1.0  0.14315  0.60791  0.84342  1.0000
  C  Sn21      1.0  0.12193  0.57537  0.76483  1.0000
  C  Sn22      1.0  0.08466  0.55895  0.77525  1.0000
  C   C211      1.0  0.06955  0.57552  0.86402  1.0000
  C   C212      1.0  0.09103  0.60808  0.94224  1.0000
  H   H93       1.0  0.14442  0.64944  0.99239  1.0000
  O  Te21      1.0  0.13771  0.55941  0.67694  1.0000
  O  Te22      1.0  0.06282  0.52644  0.69783  1.0000
  H   H94       1.0  0.07814  0.61864  0.01068  1.0000
  Mg  Mg11      1.0  0.09679  0.51512  0.59263  1.0000
  C   C213      1.0  0.87270  0.49981  0.56248  1.0000
  C   C214      1.0  0.85574  0.46797  0.64824  1.0000
  C  Sn23      1.0  0.87546  0.45516  0.72612  1.0000
  C  Sn24      1.0  0.91285  0.47467  0.71780  1.0000
  C   C215      1.0  0.92957  0.50651  0.63180  1.0000
  C   C216      1.0  0.90958  0.51907  0.55427  1.0000
  H   H95       1.0  0.85724  0.50954  0.50257  1.0000
  O  Te23      1.0  0.85809  0.42329  0.81123  1.0000
  O  Te24      1.0  0.93320  0.46249  0.79457  1.0000
  H   H96       1.0  0.92272  0.54374  0.48797  1.0000
  Mg  Mg12      1.0  0.89735  0.41763  0.89568  1.0000
