data_image0
_chemical_formula_structural       C48O6N6H24C48O6N6H24SnCSn2CSnTe4Mg2SnCSn2CSnTe4Mg2SnCSn2CSnTe4Mg2SnCSn2CSnTe4Mg2SnCSn2CSnTe4Mg2SnCSn2CSnTe4Mg2
_chemical_formula_sum              "C108 O12 N12 H48 Sn24 Te24 Mg12"
_cell_length_a       38.843
_cell_length_b       38.9337
_cell_length_c       8.02806
_cell_angle_alpha    67.2459
_cell_angle_beta     122.014
_cell_angle_gamma    120.337

_symmetry_space_group_name_H-M    'P1'
_space_group_IT_number       1

loop_
  _space_group_symop_operation_xyz
  'x, y, z'

loop_
  _atom_site_type_symbol
  _atom_site_label
  _atom_site_symmetry_multiplicity
  _atom_site_fract_x
  _atom_site_fract_y
  _atom_site_fract_z
  _atom_site_occupancy
  C   C1        1.0  0.30531  0.68255  0.99792  1.0000
  C   C2        1.0  0.31392  0.62327  0.98202  1.0000
  C   C3        1.0  0.37662  0.69224  0.01169  1.0000
  C   C4        1.0  0.69267  0.31656  0.01863  1.0000
  C   C5        1.0  0.68273  0.37518  0.03139  1.0000
  C   C6        1.0  0.62118  0.30526  0.00881  1.0000
  C   C7        1.0  0.34904  0.70840  0.00318  1.0000
  C   C8        1.0  0.28900  0.63989  0.99278  1.0000
  C   C9        1.0  0.35745  0.65013  0.98906  1.0000
  C   C10       1.0  0.64882  0.29025  0.01052  1.0000
  C   C11       1.0  0.70822  0.35915  0.02125  1.0000
  C   C12       1.0  0.63909  0.34782  0.02276  1.0000
  C   C13       1.0  0.36412  0.74914  0.00582  1.0000
  C   C14       1.0  0.24908  0.61276  0.00221  1.0000
  C   C15       1.0  0.38337  0.63603  0.98418  1.0000
  C   C16       1.0  0.63497  0.24997  0.00588  1.0000
  C   C17       1.0  0.74825  0.38620  0.01137  1.0000
  C   C18       1.0  0.61229  0.36093  0.02659  1.0000
  C   C19       1.0  0.57878  0.18117  0.99956  1.0000
  C   C20       1.0  0.39304  0.57960  0.97357  1.0000
  C   C21       1.0  0.18234  0.59982  0.02091  1.0000
  C   C22       1.0  0.53617  0.15759  0.99132  1.0000
  C   C23       1.0  0.37622  0.53723  0.99949  1.0000
  C   C24       1.0  0.16062  0.61831  0.03166  1.0000
  C   C25       1.0  0.51805  0.11623  0.99512  1.0000
  C   C26       1.0  0.39926  0.51757  0.01266  1.0000
  C   C27       1.0  0.11871  0.59653  0.02522  1.0000
  C   C28       1.0  0.54183  0.09695  0.00520  1.0000
  C   C29       1.0  0.43983  0.53986  0.99710  1.0000
  C   C30       1.0  0.09690  0.55527  0.00679  1.0000
  C   C31       1.0  0.53943  0.42216  0.46319  1.0000
  C   C32       1.0  0.86871  0.46054  0.39460  1.0000
  C   C33       1.0  0.46428  0.58969  0.46073  1.0000
  C   C34       1.0  0.56212  0.40252  0.47303  1.0000
  C   C35       1.0  0.82790  0.43756  0.39994  1.0000
  C   C36       1.0  0.44073  0.60851  0.45038  1.0000
  C   C37       1.0  0.52759  0.47191  0.01083  1.0000
  C   C38       1.0  0.52360  0.05528  0.00431  1.0000
  C   C39       1.0  0.93856  0.46983  0.97245  1.0000
  C   C40       1.0  0.46339  0.52062  0.00701  1.0000
  C   C41       1.0  0.47517  0.94271  0.99849  1.0000
  C   C42       1.0  0.05398  0.53306  0.99551  1.0000
  C   C43       1.0  0.50697  0.48762  0.01088  1.0000
  C   C44       1.0  0.50808  0.01892  0.00190  1.0000
  C   C45       1.0  0.97559  0.49072  0.97708  1.0000
  C   C46       1.0  0.48433  0.50485  0.00971  1.0000
  C   C47       1.0  0.49096  0.97916  0.99953  1.0000
  C   C48       1.0  0.01639  0.51310  0.98466  1.0000
  O   O1        1.0  0.28235  0.69654  0.00095  1.0000
  O   O2        1.0  0.29798  0.58621  0.96890  1.0000
  O   O3        1.0  0.41623  0.71427  0.03571  1.0000
  O   O4        1.0  0.71614  0.30257  0.01978  1.0000
  O   O5        1.0  0.69800  0.41206  0.04561  1.0000
  O   O6        1.0  0.58266  0.28194  0.99684  1.0000
  N   N1        1.0  0.40510  0.77478  0.02718  1.0000
  N   N2        1.0  0.22335  0.62407  0.01580  1.0000
  N   N3        1.0  0.36940  0.59758  0.97047  1.0000
  N   N4        1.0  0.59537  0.22251  0.99772  1.0000
  N   N5        1.0  0.77502  0.37396  0.01233  1.0000
  N   N6        1.0  0.62511  0.39854  0.04832  1.0000
  H   H1        1.0  0.34206  0.76047  0.99299  1.0000
  H   H2        1.0  0.23901  0.58109  0.00097  1.0000
  H   H3        1.0  0.41608  0.65706  0.99360  1.0000
  H   H4        1.0  0.65766  0.24078  0.00953  1.0000
  H   H5        1.0  0.75836  0.41829  0.00432  1.0000
  H   H6        1.0  0.57964  0.33907  0.01495  1.0000
  H   H7        1.0  0.42375  0.75962  0.05071  1.0000
  H   H8        1.0  0.23729  0.65533  0.01583  1.0000
  H   H9        1.0  0.33782  0.58068  0.96807  1.0000
  H   H10       1.0  0.57700  0.23584  0.99199  1.0000
  H   H11       1.0  0.76181  0.34228  0.02401  1.0000
  H   H12       1.0  0.65735  0.41612  0.06327  1.0000
  H   H13       1.0  0.51765  0.17219  0.98402  1.0000
  H   H14       1.0  0.34533  0.51991  0.01441  1.0000
  H   H15       1.0  0.17728  0.65013  0.04474  1.0000
  H   H16       1.0  0.48544  0.09822  0.99252  1.0000
  H   H17       1.0  0.38649  0.48480  0.03590  1.0000
  H   H18       1.0  0.10239  0.61101  0.03556  1.0000
  H   H19       1.0  0.50366  0.40992  0.39392  1.0000
  H   H20       1.0  0.87619  0.49157  0.31795  1.0000
  H   H21       1.0  0.49490  0.60777  0.44316  1.0000
  H   H22       1.0  0.54392  0.37521  0.40782  1.0000
  H   H23       1.0  0.80287  0.45015  0.32496  1.0000
  H   H24       1.0  0.45308  0.64131  0.42458  1.0000
  C   C49       1.0  0.30801  0.68248  0.49957  1.0000
  C   C50       1.0  0.31893  0.62476  0.48341  1.0000
  C   C51       1.0  0.37915  0.69527  0.50040  1.0000
  C   C52       1.0  0.69547  0.31667  0.52153  1.0000
  C   C53       1.0  0.68678  0.37630  0.53187  1.0000
  C   C54       1.0  0.62431  0.30706  0.50953  1.0000
  C   C55       1.0  0.35101  0.70966  0.49858  1.0000
  C   C56       1.0  0.29295  0.64009  0.49450  1.0000
  C   C57       1.0  0.36189  0.65289  0.48639  1.0000
  C   C58       1.0  0.65135  0.29101  0.51281  1.0000
  C   C59       1.0  0.71142  0.35953  0.52014  1.0000
  C   C60       1.0  0.64325  0.34958  0.52592  1.0000
  C   C61       1.0  0.36437  0.75022  0.49825  1.0000
  C   C62       1.0  0.25294  0.61231  0.50122  1.0000
  C   C63       1.0  0.38855  0.64008  0.47967  1.0000
  C   C64       1.0  0.63615  0.25040  0.50842  1.0000
  C   C65       1.0  0.75146  0.38603  0.50961  1.0000
  C   C66       1.0  0.61794  0.36360  0.53596  1.0000
  C   C67       1.0  0.60834  0.41917  0.55586  1.0000
  C   C68       1.0  0.81830  0.39747  0.49839  1.0000
  C   C69       1.0  0.40084  0.58511  0.47026  1.0000
  C   C70       1.0  0.63132  0.45572  0.62914  1.0000
  C   C71       1.0  0.84987  0.38055  0.58594  1.0000
  C   C72       1.0  0.38502  0.54275  0.49738  1.0000
  C   C73       1.0  0.60857  0.47527  0.61972  1.0000
  C   C74       1.0  0.89060  0.40335  0.58047  1.0000
  C   C75       1.0  0.40867  0.52401  0.50856  1.0000
  C   C76       1.0  0.56206  0.45896  0.53651  1.0000
  C   C77       1.0  0.90102  0.44404  0.48559  1.0000
  C   C78       1.0  0.44903  0.54710  0.49096  1.0000
  C   C79       1.0  0.58470  0.12091  0.01404  1.0000
  C   C80       1.0  0.45606  0.58253  0.96653  1.0000
  C   C81       1.0  0.11942  0.53669  0.00113  1.0000
  C   C82       1.0  0.60298  0.16219  0.01233  1.0000
  C   C83       1.0  0.43312  0.60208  0.95510  1.0000
  C   C84       1.0  0.16145  0.55846  0.00872  1.0000
  C   C85       1.0  0.53885  0.47855  0.52751  1.0000
  C   C86       1.0  0.51521  0.05701  0.48881  1.0000
  C   C87       1.0  0.94277  0.46753  0.48329  1.0000
  C   C88       1.0  0.47337  0.52859  0.50148  1.0000
  C   C89       1.0  0.46348  0.94478  0.46879  1.0000
  C   C90       1.0  0.05773  0.52921  0.49940  1.0000
  C   C91       1.0  0.51825  0.49519  0.51995  1.0000
  C   C92       1.0  0.49767  0.02086  0.48053  1.0000
  C   C93       1.0  0.97969  0.48777  0.48664  1.0000
  C   C94       1.0  0.49509  0.51292  0.51084  1.0000
  C   C95       1.0  0.47937  0.98102  0.47342  1.0000
  C   C96       1.0  0.02041  0.50966  0.49209  1.0000
  O   O7        1.0  0.28483  0.69563  0.50635  1.0000
  O   O8        1.0  0.30441  0.58769  0.47494  1.0000
  O   O9        1.0  0.41767  0.71885  0.51282  1.0000
  O   O10       1.0  0.71875  0.30189  0.52705  1.0000
  O   O11       1.0  0.70316  0.41336  0.54693  1.0000
  O   O12       1.0  0.58553  0.28472  0.49661  1.0000
  N   N7        1.0  0.40416  0.77776  0.51031  1.0000
  N   N8        1.0  0.22661  0.62268  0.51535  1.0000
  N   N9        1.0  0.37611  0.60191  0.46696  1.0000
  N   N10       1.0  0.59620  0.22406  0.50050  1.0000
  N   N11       1.0  0.77806  0.37333  0.51237  1.0000
  N   N12       1.0  0.63237  0.40136  0.56047  1.0000
  H   H25       1.0  0.34171  0.75995  0.49126  1.0000
  H   H26       1.0  0.24300  0.58108  0.49455  1.0000
  H   H27       1.0  0.42065  0.66211  0.48550  1.0000
  H   H28       1.0  0.65786  0.23998  0.51224  1.0000
  H   H29       1.0  0.76173  0.41817  0.50096  1.0000
  H   H30       1.0  0.58532  0.34244  0.52692  1.0000
  H   H31       1.0  0.42367  0.76438  0.52705  1.0000
  H   H32       1.0  0.24048  0.65368  0.52020  1.0000
  H   H33       1.0  0.34494  0.58397  0.46734  1.0000
  H   H34       1.0  0.57886  0.23875  0.49365  1.0000
  H   H35       1.0  0.76497  0.34164  0.52710  1.0000
  H   H36       1.0  0.66454  0.41807  0.57274  1.0000
  H   H37       1.0  0.66710  0.46815  0.69607  1.0000
  H   H38       1.0  0.84236  0.34964  0.66335  1.0000
  H   H39       1.0  0.35444  0.52487  0.51559  1.0000
  H   H40       1.0  0.62625  0.50321  0.67923  1.0000
  H   H41       1.0  0.91524  0.39044  0.65112  1.0000
  H   H42       1.0  0.39649  0.49130  0.53292  1.0000
  H   H43       1.0  0.60331  0.10644  0.02122  1.0000
  H   H44       1.0  0.48674  0.59993  0.94893  1.0000
  H   H45       1.0  0.10285  0.50498  0.98656  1.0000
  H   H46       1.0  0.63604  0.17967  0.01994  1.0000
  H   H47       1.0  0.44608  0.63490  0.92842  1.0000
  H   H48       1.0  0.17733  0.54352  0.99864  1.0000
  C  Sn1       1.0  0.60568  0.47496  0.05782  1.0000
  C   C97       1.0  0.65300  0.42905  0.98280  1.0000
  C  Sn2       1.0  0.62571  0.38935  0.94884  1.0000
  C  Sn3       1.0  0.64436  0.36203  0.99085  1.0000
  C   C98       1.0  0.59702  0.40795  0.06586  1.0000
  C  Sn4       1.0  0.62433  0.44764  0.09984  1.0000
  O  Te1       1.0  0.63233  0.51478  0.09064  1.0000
  O  Te2       1.0  0.58025  0.37709  0.87370  1.0000
  O  Te3       1.0  0.61767  0.32218  0.95796  1.0000
  O  Te4       1.0  0.66977  0.45990  0.17496  1.0000
  Mg  Mg1       1.0  0.55766  0.31979  0.85408  1.0000
  Mg  Mg2       1.0  0.69239  0.51719  0.19473  1.0000
  C  Sn5       1.0  0.39463  0.86922  0.40377  1.0000
  C   C99       1.0  0.43740  0.89621  0.49747  1.0000
  C  Sn6       1.0  0.47316  0.88530  0.58000  1.0000
  C  Sn7       1.0  0.46603  0.84662  0.56855  1.0000
  C   C100      1.0  0.42328  0.81966  0.47486  1.0000
  C  Sn8       1.0  0.38750  0.83054  0.39231  1.0000
  O  Te5       1.0  0.35937  0.88076  0.32228  1.0000
  O  Te6       1.0  0.51562  0.91279  0.67299  1.0000
  O  Te7       1.0  0.50134  0.83509  0.65014  1.0000
  O  Te8       1.0  0.34506  0.80308  0.29935  1.0000
  Mg  Mg3       1.0  0.55300  0.88307  0.76143  1.0000
  Mg  Mg4       1.0  0.30766  0.83277  0.21077  1.0000
  C  Sn9       1.0  0.13775  0.53358  0.56162  1.0000
  C   C101      1.0  0.11048  0.54661  0.56409  1.0000
  C  Sn10      1.0  0.11958  0.58774  0.52798  1.0000
  C  Sn11      1.0  0.15670  0.61645  0.48846  1.0000
  C   C102      1.0  0.18394  0.60342  0.48597  1.0000
  C  Sn12      1.0  0.17487  0.56229  0.52210  1.0000
  O  Te9       1.0  0.12802  0.49231  0.59811  1.0000
  O  Te10      1.0  0.09184  0.60004  0.53130  1.0000
  O  Te11      1.0  0.16641  0.65775  0.45196  1.0000
  O  Te12      1.0  0.20258  0.54999  0.51876  1.0000
  Mg  Mg5       1.0  0.11881  0.65959  0.47253  1.0000
  Mg  Mg6       1.0  0.17563  0.49045  0.57741  1.0000
  C  Sn13      1.0  0.51123  0.13058  0.43023  1.0000
  C   C103      1.0  0.52794  0.10503  0.44018  1.0000
  C  Sn14      1.0  0.57296  0.11773  0.50039  1.0000
  C  Sn15      1.0  0.60189  0.15677  0.55187  1.0000
  C   C104      1.0  0.58517  0.18229  0.54194  1.0000
  C  Sn16      1.0  0.54015  0.16962  0.48170  1.0000
  O  Te13      1.0  0.46611  0.11726  0.36964  1.0000
  O  Te14      1.0  0.58890  0.09166  0.50911  1.0000
  O  Te15      1.0  0.64704  0.17008  0.61248  1.0000
  O  Te16      1.0  0.52422  0.19567  0.47301  1.0000
  Mg  Mg7       1.0  0.65295  0.12357  0.60060  1.0000
  Mg  Mg8       1.0  0.46017  0.16378  0.38164  1.0000
  C  Sn17      1.0  0.47111  0.84392  0.17636  1.0000
  C   C105      1.0  0.42782  0.81920  0.07162  1.0000
  C  Sn18      1.0  0.49131  0.80312  0.90920  1.0000
  C  Sn19      1.0  0.50549  0.84557  0.85014  1.0000
  C   C106      1.0  0.54876  0.87027  0.95482  1.0000
  C  Sn20      1.0  0.48529  0.88638  0.11729  1.0000
  O  Te17      1.0  0.49993  0.82641  0.33826  1.0000
  O  Te18      1.0  0.44819  0.77778  0.80686  1.0000
  O  Te19      1.0  0.47662  0.86307  0.68809  1.0000
  O  Te20      1.0  0.52839  0.91169  0.21958  1.0000
  Mg  Mg9       1.0  0.42121  0.81596  0.59602  1.0000
  Mg  Mg10      1.0  0.55541  0.87354  0.43036  1.0000
  C  Sn21      1.0  0.85932  0.46268  0.92921  1.0000
  C   C107      1.0  0.80167  0.48436  0.00492  1.0000
  C  Sn22      1.0  0.79569  0.44368  0.06343  1.0000
  C  Sn23      1.0  0.75361  0.41363  0.04579  1.0000
  C   C108      1.0  0.81129  0.39195  0.97008  1.0000
  C  Sn24      1.0  0.81724  0.43263  0.91156  1.0000
  O  Te21      1.0  0.86606  0.50352  0.87162  1.0000
  O  Te22      1.0  0.83142  0.43316  0.13875  1.0000
  O  Te23      1.0  0.74690  0.37276  0.10346  1.0000
  O  Te24      1.0  0.78154  0.44315  0.83625  1.0000
  Mg  Mg11      1.0  0.80575  0.37352  0.19716  1.0000
  Mg  Mg12      1.0  0.80717  0.50277  0.77771  1.0000
