data_image0
_chemical_formula_structural       C46O6N6H24C50O6N6H24C2Sn2C2HTe2HMgC2Sn2C2HTe2HMgC2Sn2C2HTe2HMgC2Sn2C2HTe2HMgC2Sn2C2HTe2HMgC2Sn2C2HTe2HMg
_chemical_formula_sum              "C120 O12 N12 H60 Sn12 Te12 Mg6"
_cell_length_a       38.843
_cell_length_b       38.9337
_cell_length_c       8.02806
_cell_angle_alpha    67.2459
_cell_angle_beta     122.014
_cell_angle_gamma    120.337

_symmetry_space_group_name_H-M    'P1'
_space_group_IT_number       1

loop_
  _space_group_symop_operation_xyz
  'x, y, z'

loop_
  _atom_site_type_symbol
  _atom_site_label
  _atom_site_symmetry_multiplicity
  _atom_site_fract_x
  _atom_site_fract_y
  _atom_site_fract_z
  _atom_site_occupancy
  C   C1        1.0  0.30531  0.68255  0.99792  1.0000
  C   C2        1.0  0.31392  0.62327  0.98202  1.0000
  C   C3        1.0  0.37662  0.69224  0.01169  1.0000
  C   C4        1.0  0.69267  0.31656  0.01863  1.0000
  C   C5        1.0  0.68273  0.37518  0.03139  1.0000
  C   C6        1.0  0.62118  0.30526  0.00881  1.0000
  C   C7        1.0  0.34904  0.70840  0.00318  1.0000
  C   C8        1.0  0.28900  0.63989  0.99278  1.0000
  C   C9        1.0  0.35745  0.65013  0.98906  1.0000
  C   C10       1.0  0.64882  0.29025  0.01052  1.0000
  C   C11       1.0  0.70822  0.35915  0.02125  1.0000
  C   C12       1.0  0.63909  0.34782  0.02276  1.0000
  C   C13       1.0  0.36412  0.74914  0.00582  1.0000
  C   C14       1.0  0.24908  0.61276  0.00221  1.0000
  C   C15       1.0  0.38337  0.63603  0.98418  1.0000
  C   C16       1.0  0.63497  0.24997  0.00588  1.0000
  C   C17       1.0  0.74825  0.38620  0.01137  1.0000
  C   C18       1.0  0.61229  0.36093  0.02659  1.0000
  C   C19       1.0  0.57878  0.18117  0.99956  1.0000
  C   C20       1.0  0.81487  0.39835  0.99473  1.0000
  C   C21       1.0  0.53617  0.15759  0.99132  1.0000
  C   C22       1.0  0.84673  0.38186  0.08003  1.0000
  C   C23       1.0  0.51805  0.11623  0.99512  1.0000
  C   C24       1.0  0.88719  0.40513  0.07205  1.0000
  C   C25       1.0  0.54183  0.09695  0.00520  1.0000
  C   C26       1.0  0.89689  0.44569  0.97510  1.0000
  C   C27       1.0  0.57916  0.12074  0.50566  1.0000
  C   C28       1.0  0.86871  0.46054  0.39460  1.0000
  C   C29       1.0  0.46428  0.58969  0.46073  1.0000
  C   C30       1.0  0.12352  0.53407  0.50113  1.0000
  C   C31       1.0  0.59964  0.16194  0.50806  1.0000
  C   C32       1.0  0.82790  0.43756  0.39994  1.0000
  C   C33       1.0  0.44073  0.60851  0.45038  1.0000
  C   C34       1.0  0.16548  0.55649  0.50794  1.0000
  C   C35       1.0  0.52759  0.47191  0.01083  1.0000
  C   C36       1.0  0.52360  0.05528  0.00431  1.0000
  C   C37       1.0  0.93856  0.46983  0.97245  1.0000
  C   C38       1.0  0.46339  0.52062  0.00701  1.0000
  C   C39       1.0  0.47517  0.94271  0.99849  1.0000
  C   C40       1.0  0.05398  0.53306  0.99551  1.0000
  C   C41       1.0  0.50697  0.48762  0.01088  1.0000
  C   C42       1.0  0.50808  0.01892  0.00190  1.0000
  C   C43       1.0  0.97559  0.49072  0.97708  1.0000
  C   C44       1.0  0.48433  0.50485  0.00971  1.0000
  C   C45       1.0  0.49096  0.97916  0.99953  1.0000
  C   C46       1.0  0.01639  0.51310  0.98466  1.0000
  O   O1        1.0  0.28235  0.69654  0.00095  1.0000
  O   O2        1.0  0.29798  0.58621  0.96890  1.0000
  O   O3        1.0  0.41623  0.71427  0.03571  1.0000
  O   O4        1.0  0.71614  0.30257  0.01978  1.0000
  O   O5        1.0  0.69800  0.41206  0.04561  1.0000
  O   O6        1.0  0.58266  0.28194  0.99684  1.0000
  N   N1        1.0  0.40510  0.77478  0.02718  1.0000
  N   N2        1.0  0.22335  0.62407  0.01580  1.0000
  N   N3        1.0  0.36940  0.59758  0.97047  1.0000
  N   N4        1.0  0.59537  0.22251  0.99772  1.0000
  N   N5        1.0  0.77502  0.37396  0.01233  1.0000
  N   N6        1.0  0.62511  0.39854  0.04832  1.0000
  H   H1        1.0  0.34206  0.76047  0.99299  1.0000
  H   H2        1.0  0.23901  0.58109  0.00097  1.0000
  H   H3        1.0  0.41608  0.65706  0.99360  1.0000
  H   H4        1.0  0.65766  0.24078  0.00953  1.0000
  H   H5        1.0  0.75836  0.41829  0.00432  1.0000
  H   H6        1.0  0.57964  0.33907  0.01495  1.0000
  H   H7        1.0  0.42375  0.75962  0.05071  1.0000
  H   H8        1.0  0.23729  0.65533  0.01583  1.0000
  H   H9        1.0  0.33782  0.58068  0.96807  1.0000
  H   H10       1.0  0.57700  0.23584  0.99199  1.0000
  H   H11       1.0  0.76181  0.34228  0.02401  1.0000
  H   H12       1.0  0.65735  0.41612  0.06327  1.0000
  H   H13       1.0  0.51765  0.17219  0.98402  1.0000
  H   H14       1.0  0.83986  0.35104  0.15826  1.0000
  H   H15       1.0  0.48544  0.09822  0.99252  1.0000
  H   H16       1.0  0.91225  0.39272  0.14238  1.0000
  H   H17       1.0  0.59602  0.10488  0.50973  1.0000
  H   H18       1.0  0.87619  0.49157  0.31795  1.0000
  H   H19       1.0  0.49490  0.60777  0.44316  1.0000
  H   H20       1.0  0.10762  0.50229  0.48780  1.0000
  H   H21       1.0  0.63268  0.17795  0.51521  1.0000
  H   H22       1.0  0.80287  0.45015  0.32496  1.0000
  H   H23       1.0  0.45308  0.64131  0.42458  1.0000
  H   H24       1.0  0.18195  0.54192  0.49918  1.0000
  C   C47       1.0  0.30801  0.68248  0.49957  1.0000
  C   C48       1.0  0.31893  0.62476  0.48341  1.0000
  C   C49       1.0  0.37915  0.69527  0.50040  1.0000
  C   C50       1.0  0.69547  0.31667  0.52153  1.0000
  C   C51       1.0  0.68678  0.37630  0.53187  1.0000
  C   C52       1.0  0.62431  0.30706  0.50953  1.0000
  C   C53       1.0  0.35101  0.70966  0.49858  1.0000
  C   C54       1.0  0.29295  0.64009  0.49450  1.0000
  C   C55       1.0  0.36189  0.65289  0.48639  1.0000
  C   C56       1.0  0.65135  0.29101  0.51281  1.0000
  C   C57       1.0  0.71142  0.35953  0.52014  1.0000
  C   C58       1.0  0.64325  0.34958  0.52592  1.0000
  C   C59       1.0  0.36437  0.75022  0.49825  1.0000
  C   C60       1.0  0.25294  0.61231  0.50122  1.0000
  C   C61       1.0  0.38855  0.64008  0.47967  1.0000
  C   C62       1.0  0.63615  0.25040  0.50842  1.0000
  C   C63       1.0  0.75146  0.38603  0.50961  1.0000
  C   C64       1.0  0.61794  0.36360  0.53596  1.0000
  C   C65       1.0  0.57765  0.18265  0.49973  1.0000
  C   C66       1.0  0.81830  0.39747  0.49839  1.0000
  C   C67       1.0  0.40084  0.58511  0.47026  1.0000
  C   C68       1.0  0.18564  0.59783  0.51976  1.0000
  C   C69       1.0  0.53502  0.16091  0.49252  1.0000
  C   C70       1.0  0.84987  0.38055  0.58594  1.0000
  C   C71       1.0  0.38502  0.54275  0.49738  1.0000
  C   C72       1.0  0.16347  0.61563  0.53177  1.0000
  C   C73       1.0  0.51453  0.11970  0.49051  1.0000
  C   C74       1.0  0.89060  0.40335  0.58047  1.0000
  C   C75       1.0  0.40867  0.52401  0.50856  1.0000
  C   C76       1.0  0.12175  0.59321  0.52673  1.0000
  C   C77       1.0  0.53611  0.09870  0.49595  1.0000
  C   C78       1.0  0.90102  0.44404  0.48559  1.0000
  C   C79       1.0  0.44903  0.54710  0.49096  1.0000
  C   C80       1.0  0.10046  0.55197  0.50786  1.0000
  C   C81       1.0  0.58470  0.12091  0.01404  1.0000
  C   C82       1.0  0.86399  0.46152  0.88356  1.0000
  C   C83       1.0  0.60298  0.16219  0.01233  1.0000
  C   C84       1.0  0.82363  0.43831  0.89356  1.0000
  C   C85       1.0  0.53885  0.47855  0.52751  1.0000
  C   C86       1.0  0.51521  0.05701  0.48881  1.0000
  C   C87       1.0  0.94277  0.46753  0.48329  1.0000
  C   C88       1.0  0.47337  0.52859  0.50148  1.0000
  C   C89       1.0  0.46348  0.94478  0.46879  1.0000
  C   C90       1.0  0.05773  0.52921  0.49940  1.0000
  C   C91       1.0  0.51825  0.49519  0.51995  1.0000
  C   C92       1.0  0.49767  0.02086  0.48053  1.0000
  C   C93       1.0  0.97969  0.48777  0.48664  1.0000
  C   C94       1.0  0.49509  0.51292  0.51084  1.0000
  C   C95       1.0  0.47937  0.98102  0.47342  1.0000
  C   C96       1.0  0.02041  0.50966  0.49209  1.0000
  O   O7        1.0  0.28483  0.69563  0.50635  1.0000
  O   O8        1.0  0.30441  0.58769  0.47494  1.0000
  O   O9        1.0  0.41767  0.71885  0.51282  1.0000
  O   O10       1.0  0.71875  0.30189  0.52705  1.0000
  O   O11       1.0  0.70316  0.41336  0.54693  1.0000
  O   O12       1.0  0.58553  0.28472  0.49661  1.0000
  N   N7        1.0  0.40416  0.77776  0.51031  1.0000
  N   N8        1.0  0.22661  0.62268  0.51535  1.0000
  N   N9        1.0  0.37611  0.60191  0.46696  1.0000
  N   N10       1.0  0.59620  0.22406  0.50050  1.0000
  N   N11       1.0  0.77806  0.37333  0.51237  1.0000
  N   N12       1.0  0.63237  0.40136  0.56047  1.0000
  H   H25       1.0  0.34171  0.75995  0.49126  1.0000
  H   H26       1.0  0.24300  0.58108  0.49455  1.0000
  H   H27       1.0  0.42065  0.66211  0.48550  1.0000
  H   H28       1.0  0.65786  0.23998  0.51224  1.0000
  H   H29       1.0  0.76173  0.41817  0.50096  1.0000
  H   H30       1.0  0.58532  0.34244  0.52692  1.0000
  H   H31       1.0  0.42367  0.76438  0.52705  1.0000
  H   H32       1.0  0.24048  0.65368  0.52020  1.0000
  H   H33       1.0  0.34494  0.58397  0.46734  1.0000
  H   H34       1.0  0.57886  0.23875  0.49365  1.0000
  H   H35       1.0  0.76497  0.34164  0.52710  1.0000
  H   H36       1.0  0.66454  0.41807  0.57274  1.0000
  H   H37       1.0  0.51842  0.17679  0.49069  1.0000
  H   H38       1.0  0.84236  0.34964  0.66335  1.0000
  H   H39       1.0  0.35444  0.52487  0.51559  1.0000
  H   H40       1.0  0.17961  0.64731  0.54578  1.0000
  H   H41       1.0  0.48165  0.10309  0.48596  1.0000
  H   H42       1.0  0.91524  0.39044  0.65112  1.0000
  H   H43       1.0  0.39649  0.49130  0.53292  1.0000
  H   H44       1.0  0.10504  0.60697  0.53885  1.0000
  H   H45       1.0  0.60331  0.10644  0.02122  1.0000
  H   H46       1.0  0.87063  0.49223  0.80291  1.0000
  H   H47       1.0  0.63604  0.17967  0.01994  1.0000
  H   H48       1.0  0.79831  0.45057  0.82003  1.0000
  C   C97       1.0  0.39276  0.84820  0.87915  1.0000
  C   C98       1.0  0.41439  0.82157  0.97335  1.0000
  C  Sn1       1.0  0.36663  0.86806  0.09455  1.0000
  C  Sn2       1.0  0.39045  0.90904  0.12171  1.0000
  C   C99       1.0  0.36849  0.93544  0.02692  1.0000
  C   C100      1.0  0.41622  0.88862  0.90592  1.0000
  H   H49       1.0  0.35781  0.83747  0.78561  1.0000
  O  Te1       1.0  0.38774  0.84106  0.18750  1.0000
  O  Te2       1.0  0.43556  0.92338  0.24209  1.0000
  H   H50       1.0  0.39947  0.90924  0.83310  1.0000
  Mg  Mg1       1.0  0.44963  0.87496  0.33709  1.0000
  C   C101      1.0  0.55139  0.40218  0.46300  1.0000
  C   C102      1.0  0.59652  0.41481  0.52591  1.0000
  C  Sn3       1.0  0.62591  0.45017  0.60835  1.0000
  C  Sn4       1.0  0.60971  0.47323  0.62804  1.0000
  C   C103      1.0  0.56450  0.46032  0.56478  1.0000
  C   C104      1.0  0.53538  0.42490  0.48244  1.0000
  H   H51       1.0  0.52886  0.37477  0.39939  1.0000
  O  Te3       1.0  0.67090  0.46236  0.67037  1.0000
  O  Te4       1.0  0.63835  0.50867  0.70998  1.0000
  H   H52       1.0  0.50044  0.41512  0.43386  1.0000
  Mg  Mg2       1.0  0.69684  0.51284  0.77268  1.0000
  C   C105      1.0  0.52980  0.40864  0.93041  1.0000
  C   C106      1.0  0.45233  0.47554  0.00928  1.0000
  C  Sn5       1.0  0.49747  0.49746  0.10179  1.0000
  C  Sn6       1.0  0.52765  0.48508  0.11531  1.0000
  C   C107      1.0  0.51189  0.45109  0.03582  1.0000
  C   C108      1.0  0.55955  0.39642  0.94361  1.0000
  H   H53       1.0  0.49480  0.39184  0.85897  1.0000
  O  Te5       1.0  0.51231  0.53130  0.17986  1.0000
  O  Te6       1.0  0.57293  0.50645  0.20693  1.0000
  H   H54       1.0  0.54762  0.37015  0.88245  1.0000
  Mg  Mg3       1.0  0.57710  0.55052  0.29074  1.0000
  C   C109      1.0  0.15057  0.61835  0.02742  1.0000
  C   C110      1.0  0.17858  0.60496  0.03371  1.0000
  C  Sn7       1.0  0.16413  0.56489  0.01876  1.0000
  C  Sn8       1.0  0.21369  0.50486  0.99706  1.0000
  C   C111      1.0  0.18591  0.51856  0.99078  1.0000
  C   C112      1.0  0.10782  0.59166  0.00594  1.0000
  H   H55       1.0  0.16201  0.64943  0.03903  1.0000
  O  Te7       1.0  0.19255  0.55201  0.02540  1.0000
  O  Te8       1.0  0.19839  0.46465  0.98171  1.0000
  H   H56       1.0  0.08612  0.60202  0.00092  1.0000
  Mg  Mg4       1.0  0.24945  0.46142  0.99861  1.0000
  C   C113      1.0  0.38589  0.84812  0.35818  1.0000
  C   C114      1.0  0.41015  0.82370  0.45470  1.0000
  C  Sn9       1.0  0.45522  0.83962  0.57407  1.0000
  C  Sn10      1.0  0.47630  0.88076  0.59701  1.0000
  C   C115      1.0  0.45174  0.90493  0.49994  1.0000
  C   C116      1.0  0.40666  0.88869  0.38079  1.0000
  H   H57       1.0  0.35101  0.83555  0.26608  1.0000
  O  Te9       1.0  0.47896  0.81480  0.66937  1.0000
  O  Te10      1.0  0.52131  0.89744  0.71550  1.0000
  H   H58       1.0  0.38788  0.90760  0.30619  1.0000
  Mg  Mg5       1.0  0.53956  0.85147  0.81499  1.0000
  C   C117      1.0  0.39002  0.51683  0.01905  1.0000
  C   C118      1.0  0.52104  0.50026  0.98997  1.0000
  C  Sn11      1.0  0.54336  0.54204  0.95791  1.0000
  C  Sn12      1.0  0.52712  0.56783  0.95503  1.0000
  C   C119      1.0  0.48896  0.55115  0.98442  1.0000
  C   C120      1.0  0.37399  0.54224  0.01632  1.0000
  H   H59       1.0  0.37295  0.48445  0.04384  1.0000
  O  Te11      1.0  0.58141  0.55789  0.92905  1.0000
  O  Te12      1.0  0.54879  0.60969  0.92337  1.0000
  H   H60       1.0  0.34448  0.52958  0.03895  1.0000
  Mg  Mg6       1.0  0.59933  0.61689  0.89145  1.0000
