data_image0
_chemical_formula_structural       C24O6N6H12C24O6N6H12SnCSn2CSnTe4Mg2SnCSn2CSnTe4Mg2SnCSn2CSnTe4Mg2SnCSn2CSnTe4Mg2SnCSn2CSnTe4Mg2SnCSn2CSnTe4Mg2SnCSn2CSnTe4Mg2SnCSn2CSnTe4Mg2SnCSn2CSnTe4Mg2SnCSn2CSnTe4Mg2SnCSn2CSnTe4Mg2SnCSn2CSnTe4Mg2
_chemical_formula_sum              "C72 O12 N12 H24 Sn48 Te48 Mg24"
_cell_length_a       34.1572
_cell_length_b       34.5127
_cell_length_c       7.96891
_cell_angle_alpha    106.554
_cell_angle_beta     104.581
_cell_angle_gamma    119.756

_symmetry_space_group_name_H-M    'P1'
_space_group_IT_number       1

loop_
  _space_group_symop_operation_xyz
  'x, y, z'

loop_
  _atom_site_type_symbol
  _atom_site_label
  _atom_site_symmetry_multiplicity
  _atom_site_fract_x
  _atom_site_fract_y
  _atom_site_fract_z
  _atom_site_occupancy
  C   C1        1.0  0.30331  0.68479  0.99613  1.0000
  C   C2        1.0  0.31663  0.61752  0.97385  1.0000
  C   C3        1.0  0.38340  0.69922  0.98706  1.0000
  C   C4        1.0  0.69719  0.31281  0.99525  1.0000
  C   C5        1.0  0.68817  0.38296  0.02174  1.0000
  C   C6        1.0  0.61800  0.30143  0.99857  1.0000
  C   C7        1.0  0.35041  0.71441  0.98471  1.0000
  C   C8        1.0  0.28665  0.63603  0.98659  1.0000
  C   C9        1.0  0.36568  0.65051  0.98205  1.0000
  C   C10       1.0  0.64982  0.28486  0.00556  1.0000
  C   C11       1.0  0.71669  0.36266  0.01200  1.0000
  C   C12       1.0  0.63813  0.35082  0.00695  1.0000
  C   C13       1.0  0.36326  0.75868  0.97612  1.0000
  C   C14       1.0  0.24190  0.60539  0.99368  1.0000
  C   C15       1.0  0.39789  0.63685  0.98887  1.0000
  C   C16       1.0  0.63513  0.24050  0.01595  1.0000
  C   C17       1.0  0.76212  0.39189  0.00737  1.0000
  C   C18       1.0  0.60695  0.36571  0.99521  1.0000
  C   C19       1.0  0.52207  0.50009  0.01438  1.0000
  C   C20       1.0  0.50660  0.02058  0.99644  1.0000
  C   C21       1.0  0.97777  0.48162  0.97486  1.0000
  C   C22       1.0  0.50168  0.52094  0.02510  1.0000
  C   C23       1.0  0.48839  0.97910  0.98896  1.0000
  C   C24       1.0  0.01982  0.50684  0.98543  1.0000
  O   O1        1.0  0.27761  0.70118  0.01319  1.0000
  O   O2        1.0  0.30073  0.57421  0.96098  1.0000
  O   O3        1.0  0.42631  0.72757  0.99348  1.0000
  O   O4        1.0  0.72052  0.29381  0.97104  1.0000
  O   O5        1.0  0.70588  0.42661  0.03487  1.0000
  O   O6        1.0  0.57419  0.27407  0.98675  1.0000
  N   N1        1.0  0.40560  0.78897  0.96589  1.0000
  N   N2        1.0  0.21181  0.61865  0.01124  1.0000
  N   N3        1.0  0.38492  0.59256  0.98121  1.0000
  N   N4        1.0  0.59051  0.20982  0.01086  1.0000
  N   N5        1.0  0.78878  0.37514  0.97528  1.0000
  N   N6        1.0  0.62179  0.41028  0.00102  1.0000
  H   H1        1.0  0.33734  0.76837  0.97501  1.0000
  H   H2        1.0  0.23161  0.56936  0.98548  1.0000
  H   H3        1.0  0.43480  0.66314  0.99947  1.0000
  H   H4        1.0  0.66077  0.23032  0.02732  1.0000
  H   H5        1.0  0.77542  0.42940  0.02532  1.0000
  H   H6        1.0  0.56917  0.33984  0.97911  1.0000
  H   H7        1.0  0.42694  0.77514  0.96975  1.0000
  H   H8        1.0  0.22636  0.65397  0.01620  1.0000
  H   H9        1.0  0.34766  0.57064  0.96436  1.0000
  H   H10       1.0  0.56876  0.22308  0.99270  1.0000
  H   H11       1.0  0.77075  0.33805  0.95497  1.0000
  H   H12       1.0  0.65912  0.43076  0.01652  1.0000
  C   C25       1.0  0.30233  0.68615  0.49173  1.0000
  C   C26       1.0  0.31106  0.61573  0.46460  1.0000
  C   C27       1.0  0.38061  0.69621  0.47872  1.0000
  C   C28       1.0  0.69536  0.31352  0.49772  1.0000
  C   C29       1.0  0.68313  0.38150  0.51723  1.0000
  C   C30       1.0  0.61450  0.29924  0.49668  1.0000
  C   C31       1.0  0.35011  0.71416  0.48232  1.0000
  C   C32       1.0  0.28345  0.63689  0.48156  1.0000
  C   C33       1.0  0.36083  0.64754  0.47628  1.0000
  C   C34       1.0  0.64743  0.28396  0.50346  1.0000
  C   C35       1.0  0.71281  0.36244  0.50796  1.0000
  C   C36       1.0  0.63350  0.34858  0.50531  1.0000
  C   C37       1.0  0.36594  0.75952  0.47960  1.0000
  C   C38       1.0  0.23860  0.60813  0.49124  1.0000
  C   C39       1.0  0.39157  0.63215  0.48475  1.0000
  C   C40       1.0  0.63386  0.23976  0.51359  1.0000
  C   C41       1.0  0.75798  0.39253  0.50283  1.0000
  C   C42       1.0  0.60168  0.36267  0.49646  1.0000
  C   C43       1.0  0.50644  0.48762  0.48688  1.0000
  C   C44       1.0  0.51246  0.02195  0.51479  1.0000
  C   C45       1.0  0.97679  0.49403  0.48906  1.0000
  C   C46       1.0  0.48388  0.50619  0.48942  1.0000
  C   C47       1.0  0.49379  0.97968  0.50167  1.0000
  C   C48       1.0  0.01830  0.51842  0.49255  1.0000
  O   O7        1.0  0.27788  0.70414  0.50669  1.0000
  O   O8        1.0  0.29231  0.57122  0.44389  1.0000
  O   O9        1.0  0.42288  0.72173  0.47671  1.0000
  O   O10       1.0  0.72075  0.29661  0.48234  1.0000
  O   O11       1.0  0.69981  0.42489  0.52947  1.0000
  O   O12       1.0  0.57092  0.27102  0.48540  1.0000
  N   N7        1.0  0.40779  0.78765  0.46300  1.0000
  N   N8        1.0  0.21007  0.62347  0.50959  1.0000
  N   N9        1.0  0.37600  0.58700  0.47304  1.0000
  N   N10       1.0  0.58929  0.20770  0.50613  1.0000
  N   N11       1.0  0.78758  0.37870  0.48328  1.0000
  N   N12       1.0  0.61556  0.40742  0.50619  1.0000
  H   H13       1.0  0.34273  0.77215  0.48967  1.0000
  H   H14       1.0  0.22684  0.57181  0.48407  1.0000
  H   H15       1.0  0.42925  0.65761  0.49945  1.0000
  H   H16       1.0  0.66063  0.23102  0.52767  1.0000
  H   H17       1.0  0.76896  0.42859  0.50954  1.0000
  H   H18       1.0  0.56399  0.33600  0.47905  1.0000
  H   H19       1.0  0.42685  0.77149  0.45683  1.0000
  H   H20       1.0  0.22575  0.65860  0.51164  1.0000
  H   H21       1.0  0.33804  0.56587  0.45014  1.0000
  H   H22       1.0  0.56669  0.21996  0.48705  1.0000
  H   H23       1.0  0.77207  0.34258  0.47047  1.0000
  H   H24       1.0  0.65263  0.42868  0.52056  1.0000
  C  Sn1       1.0  0.52325  0.39289  0.42662  1.0000
  C   C49       1.0  0.57165  0.41417  0.43901  1.0000
  C  Sn2       1.0  0.60452  0.46578  0.49337  1.0000
  C  Sn3       1.0  0.58870  0.49678  0.53636  1.0000
  C   C50       1.0  0.54034  0.47550  0.52399  1.0000
  C  Sn4       1.0  0.50744  0.42388  0.46961  1.0000
  O  Te1       1.0  0.49103  0.34120  0.37200  1.0000
  O  Te2       1.0  0.65271  0.48620  0.50467  1.0000
  O  Te3       1.0  0.62097  0.54850  0.59100  1.0000
  O  Te4       1.0  0.45927  0.40347  0.45833  1.0000
  Mg  Mg1       1.0  0.68291  0.55867  0.58571  1.0000
  Mg  Mg2       1.0  0.42905  0.33102  0.37741  1.0000
  C  Sn5       1.0  0.49952  0.08334  0.38709  1.0000
  C   C51       1.0  0.52651  0.06727  0.46437  1.0000
  C  Sn6       1.0  0.57918  0.10235  0.59180  1.0000
  C  Sn7       1.0  0.60542  0.15458  0.64317  1.0000
  C   C52       1.0  0.57843  0.17063  0.56595  1.0000
  C  Sn8       1.0  0.52576  0.13557  0.43847  1.0000
  O  Te5       1.0  0.44687  0.04761  0.25998  1.0000
  O  Te6       1.0  0.60535  0.08537  0.66713  1.0000
  O  Te7       1.0  0.65811  0.19031  0.77040  1.0000
  O  Te8       1.0  0.49959  0.15252  0.36319  1.0000
  Mg  Mg3       1.0  0.67688  0.14861  0.83482  1.0000
  Mg  Mg4       1.0  0.42806  0.08933  0.19557  1.0000
  C  Sn9       1.0  0.88227  0.40092  0.34503  1.0000
  C   C53       1.0  0.91658  0.45387  0.42530  1.0000
  C  Sn10      1.0  0.91226  0.48625  0.55756  1.0000
  C  Sn11      1.0  0.87286  0.46526  0.61081  1.0000
  C   C54       1.0  0.83858  0.41234  0.53059  1.0000
  C  Sn12      1.0  0.84286  0.37993  0.39828  1.0000
  O  Te9       1.0  0.88730  0.36928  0.21309  1.0000
  O  Te10      1.0  0.94701  0.53906  0.63582  1.0000
  O  Te11      1.0  0.86785  0.49695  0.74286  1.0000
  O  Te12      1.0  0.80815  0.32715  0.32008  1.0000
  Mg  Mg5       1.0  0.92445  0.56638  0.80983  1.0000
  Mg  Mg6       1.0  0.83069  0.29980  0.14613  1.0000
  C  Sn13      1.0  0.38123  0.50921  0.45794  1.0000
  C   C55       1.0  0.40119  0.56039  0.52528  1.0000
  C  Sn14      1.0  0.45107  0.59661  0.56547  1.0000
  C  Sn15      1.0  0.48164  0.58135  0.53766  1.0000
  C   C56       1.0  0.46167  0.53020  0.47033  1.0000
  C  Sn16      1.0  0.41179  0.49395  0.43013  1.0000
  O  Te13      1.0  0.33126  0.47365  0.41868  1.0000
  O  Te14      1.0  0.47020  0.64755  0.63272  1.0000
  O  Te15      1.0  0.53164  0.61696  0.57699  1.0000
  O  Te16      1.0  0.39266  0.44303  0.36289  1.0000
  Mg  Mg7       1.0  0.54050  0.68180  0.66578  1.0000
  Mg  Mg8       1.0  0.32236  0.40875  0.32969  1.0000
  C  Sn17      1.0  0.39728  0.86129  0.43259  1.0000
  C   C57       1.0  0.41462  0.83198  0.40780  1.0000
  C  Sn18      1.0  0.46463  0.85408  0.43828  1.0000
  C  Sn19      1.0  0.49802  0.90658  0.49484  1.0000
  C   C58       1.0  0.48069  0.93586  0.51963  1.0000
  C  Sn20      1.0  0.43067  0.91380  0.48915  1.0000
  O  Te17      1.0  0.34713  0.83841  0.40134  1.0000
  O  Te18      1.0  0.48109  0.82399  0.41252  1.0000
  O  Te19      1.0  0.54821  0.92945  0.52607  1.0000
  O  Te20      1.0  0.41421  0.94385  0.51490  1.0000
  Mg  Mg9       1.0  0.55282  0.87262  0.47255  1.0000
  Mg  Mg10      1.0  0.34250  0.89527  0.45502  1.0000
  C  Sn21      1.0  0.13189  0.62179  0.55054  1.0000
  C   C59       1.0  0.16442  0.60817  0.56696  1.0000
  C  Sn22      1.0  0.14623  0.55896  0.53327  1.0000
  C  Sn23      1.0  0.09444  0.52259  0.48197  1.0000
  C   C60       1.0  0.06193  0.53622  0.46554  1.0000
  C  Sn24      1.0  0.08009  0.58542  0.49924  1.0000
  O  Te21      1.0  0.15089  0.67120  0.58487  1.0000
  O  Te22      1.0  0.17948  0.54625  0.55064  1.0000
  O  Te23      1.0  0.07545  0.47315  0.44765  1.0000
  O  Te24      1.0  0.04687  0.59814  0.48186  1.0000
  Mg  Mg11      1.0  0.13560  0.47409  0.48932  1.0000
  Mg  Mg12      1.0  0.09069  0.67028  0.54304  1.0000
  C  Sn25      1.0  0.53134  0.39979  0.92789  1.0000
  C   C61       1.0  0.57897  0.41888  0.93491  1.0000
  C  Sn26      1.0  0.61378  0.47045  0.99256  1.0000
  C  Sn27      1.0  0.47904  0.37808  0.04440  1.0000
  C   C62       1.0  0.43144  0.35899  0.03739  1.0000
  C  Sn28      1.0  0.51829  0.43299  0.97972  1.0000
  O  Te25      1.0  0.49713  0.34810  0.86983  1.0000
  O  Te26      1.0  0.66116  0.48865  0.99838  1.0000
  O  Te27      1.0  0.51329  0.42981  0.10248  1.0000
  O  Te28      1.0  0.47095  0.41479  0.97393  1.0000
  Mg  Mg13      1.0  0.57312  0.43649  0.08712  1.0000
  Mg  Mg14      1.0  0.43727  0.34139  0.88531  1.0000
  C  Sn29      1.0  0.99878  0.08474  0.87247  1.0000
  C   C63       1.0  0.02394  0.06672  0.94594  1.0000
  C  Sn30      1.0  0.95461  0.97490  0.07842  1.0000
  C  Sn31      1.0  0.48093  0.02776  0.13884  1.0000
  C   C64       1.0  0.45577  0.04575  0.06542  1.0000
  C  Sn32      1.0  0.52510  0.13760  0.93289  1.0000
  O  Te29      1.0  0.94640  0.05032  0.74017  1.0000
  O  Te30      1.0  0.97893  0.95598  0.14980  1.0000
  O  Te31      1.0  0.53335  0.06218  0.27124  1.0000
  O  Te32      1.0  0.50078  0.15650  0.86156  1.0000
  Mg  Mg15      1.0  0.05082  0.01798  0.32729  1.0000
  Mg  Mg16      1.0  0.42889  0.09454  0.68415  1.0000
  C  Sn33      1.0  0.86884  0.46194  0.00139  1.0000
  C   C65       1.0  0.95597  0.53532  0.93571  1.0000
  C  Sn34      1.0  0.97074  0.50396  0.89729  1.0000
  C  Sn35      1.0  0.02114  0.52521  0.92521  1.0000
  C   C66       1.0  0.05568  0.57737  0.99088  1.0000
  C  Sn36      1.0  0.91923  0.48319  0.02931  1.0000
  O  Te33      1.0  0.85324  0.49258  0.03889  1.0000
  O  Te34      1.0  0.93550  0.45189  0.83168  1.0000
  O  Te35      1.0  0.03672  0.49452  0.88764  1.0000
  O  Te36      1.0  0.95445  0.53523  0.09492  1.0000
  Mg  Mg17      1.0  0.97488  0.42584  0.80068  1.0000
  Mg  Mg18      1.0  0.91512  0.56132  0.12605  1.0000
  C  Sn37      1.0  0.47621  0.60852  0.03591  1.0000
  C   C67       1.0  0.54521  0.70607  0.96836  1.0000
  C  Sn38      1.0  0.51643  0.65655  0.94149  1.0000
  C  Sn39      1.0  0.54083  0.63457  0.98314  1.0000
  C   C68       1.0  0.47180  0.53702  0.05068  1.0000
  C  Sn40      1.0  0.50062  0.58655  0.07755  1.0000
  O  Te37      1.0  0.50424  0.65797  0.06171  1.0000
  O  Te38      1.0  0.46379  0.62928  0.87375  1.0000
  O  Te39      1.0  0.51276  0.58509  0.95728  1.0000
  O  Te40      1.0  0.55323  0.61381  0.14529  1.0000
  Mg  Mg19      1.0  0.44207  0.56324  0.86202  1.0000
  Mg  Mg20      1.0  0.57498  0.67986  0.15716  1.0000
  C  Sn41      1.0  0.36237  0.75090  0.00255  1.0000
  C   C69       1.0  0.31808  0.72108  0.01558  1.0000
  C  Sn42      1.0  0.40445  0.85671  0.99203  1.0000
  C  Sn43      1.0  0.41356  0.89742  0.95456  1.0000
  C   C70       1.0  0.45782  0.92721  0.94152  1.0000
  C  Sn44      1.0  0.49318  0.91718  0.96508  1.0000
  O  Te41      1.0  0.39716  0.74015  0.02657  1.0000
  O  Te42      1.0  0.23876  0.70081  0.00576  1.0000
  O  Te43      1.0  0.37872  0.90816  0.93054  1.0000
  O  Te44      1.0  0.53714  0.94748  0.95134  1.0000
  Mg  Mg21      1.0  0.32445  0.85605  0.96215  1.0000
  Mg  Mg22      1.0  0.57316  0.91783  0.99481  1.0000
  C  Sn45      1.0  0.09174  0.58143  0.92951  1.0000
  C   C71       1.0  0.06720  0.53681  0.94374  1.0000
  C  Sn46      1.0  0.97282  0.39476  0.01372  1.0000
  C  Sn47      1.0  0.02579  0.42350  0.07079  1.0000
  C   C72       1.0  0.05031  0.46809  0.05657  1.0000
  C  Sn48      1.0  0.14471  0.61016  0.98657  1.0000
  O  Te45      1.0  0.06366  0.59718  0.85915  1.0000
  O  Te46      1.0  0.94745  0.35002  0.02657  1.0000
  O  Te47      1.0  0.05386  0.40770  0.14118  1.0000
  O  Te48      1.0  0.17005  0.65487  0.97375  1.0000
  Mg  Mg23      1.0  0.00222  0.34423  0.13164  1.0000
  Mg  Mg24      1.0  0.11532  0.66072  0.86880  1.0000
