data_image0
_chemical_formula_structural       C30O6N6H12C30O6N6H12SnCSn2CSnTe4Mg2SnCSn2CSnTe4Mg2SnCSn2CSnTe4Mg2SnCSn2CSnTe4Mg2SnCSn2CSnTe4Mg2SnCSn2CSnTe4Mg2SnCSn2CSnTe4Mg2SnCSn2CSnTe4Mg2SnCSn2CSnTe4Mg2SnCSn2CSnTe4Mg2SnCSn2CSnTe4Mg2SnCSn2CSnTe4Mg2
_chemical_formula_sum              "C84 O12 N12 H24 Sn48 Te48 Mg24"
_cell_length_a       38.843
_cell_length_b       38.9337
_cell_length_c       8.02806
_cell_angle_alpha    67.2459
_cell_angle_beta     122.014
_cell_angle_gamma    120.337

_symmetry_space_group_name_H-M    'P1'
_space_group_IT_number       1

loop_
  _space_group_symop_operation_xyz
  'x, y, z'

loop_
  _atom_site_type_symbol
  _atom_site_label
  _atom_site_symmetry_multiplicity
  _atom_site_fract_x
  _atom_site_fract_y
  _atom_site_fract_z
  _atom_site_occupancy
  C   C1        1.0  0.30531  0.68255  0.99792  1.0000
  C   C2        1.0  0.31392  0.62327  0.98202  1.0000
  C   C3        1.0  0.37662  0.69224  0.01169  1.0000
  C   C4        1.0  0.69267  0.31656  0.01863  1.0000
  C   C5        1.0  0.68273  0.37518  0.03139  1.0000
  C   C6        1.0  0.62118  0.30526  0.00881  1.0000
  C   C7        1.0  0.34904  0.70840  0.00318  1.0000
  C   C8        1.0  0.28900  0.63989  0.99278  1.0000
  C   C9        1.0  0.35745  0.65013  0.98906  1.0000
  C   C10       1.0  0.64882  0.29025  0.01052  1.0000
  C   C11       1.0  0.70822  0.35915  0.02125  1.0000
  C   C12       1.0  0.63909  0.34782  0.02276  1.0000
  C   C13       1.0  0.36412  0.74914  0.00582  1.0000
  C   C14       1.0  0.24908  0.61276  0.00221  1.0000
  C   C15       1.0  0.38337  0.63603  0.98418  1.0000
  C   C16       1.0  0.63497  0.24997  0.00588  1.0000
  C   C17       1.0  0.74825  0.38620  0.01137  1.0000
  C   C18       1.0  0.61229  0.36093  0.02659  1.0000
  C   C19       1.0  0.52759  0.47191  0.01083  1.0000
  C   C20       1.0  0.52360  0.05528  0.00431  1.0000
  C   C21       1.0  0.93856  0.46983  0.97245  1.0000
  C   C22       1.0  0.46339  0.52062  0.00701  1.0000
  C   C23       1.0  0.47517  0.94271  0.99849  1.0000
  C   C24       1.0  0.05398  0.53306  0.99551  1.0000
  C   C25       1.0  0.50697  0.48762  0.01088  1.0000
  C   C26       1.0  0.50808  0.01892  0.00190  1.0000
  C   C27       1.0  0.97559  0.49072  0.97708  1.0000
  C   C28       1.0  0.48433  0.50485  0.00971  1.0000
  C   C29       1.0  0.49096  0.97916  0.99953  1.0000
  C   C30       1.0  0.01639  0.51310  0.98466  1.0000
  O   O1        1.0  0.28235  0.69654  0.00095  1.0000
  O   O2        1.0  0.29798  0.58621  0.96890  1.0000
  O   O3        1.0  0.41623  0.71427  0.03571  1.0000
  O   O4        1.0  0.71614  0.30257  0.01978  1.0000
  O   O5        1.0  0.69800  0.41206  0.04561  1.0000
  O   O6        1.0  0.58266  0.28194  0.99684  1.0000
  N   N1        1.0  0.40510  0.77478  0.02718  1.0000
  N   N2        1.0  0.22335  0.62407  0.01580  1.0000
  N   N3        1.0  0.36940  0.59758  0.97047  1.0000
  N   N4        1.0  0.59537  0.22251  0.99772  1.0000
  N   N5        1.0  0.77502  0.37396  0.01233  1.0000
  N   N6        1.0  0.62511  0.39854  0.04832  1.0000
  H   H1        1.0  0.34206  0.76047  0.99299  1.0000
  H   H2        1.0  0.23901  0.58109  0.00097  1.0000
  H   H3        1.0  0.41608  0.65706  0.99360  1.0000
  H   H4        1.0  0.65766  0.24078  0.00953  1.0000
  H   H5        1.0  0.75836  0.41829  0.00432  1.0000
  H   H6        1.0  0.57964  0.33907  0.01495  1.0000
  H   H7        1.0  0.42375  0.75962  0.05071  1.0000
  H   H8        1.0  0.23729  0.65533  0.01583  1.0000
  H   H9        1.0  0.33782  0.58068  0.96807  1.0000
  H   H10       1.0  0.57700  0.23584  0.99199  1.0000
  H   H11       1.0  0.76181  0.34228  0.02401  1.0000
  H   H12       1.0  0.65735  0.41612  0.06327  1.0000
  C   C31       1.0  0.30801  0.68248  0.49957  1.0000
  C   C32       1.0  0.31893  0.62476  0.48341  1.0000
  C   C33       1.0  0.37915  0.69527  0.50040  1.0000
  C   C34       1.0  0.69547  0.31667  0.52153  1.0000
  C   C35       1.0  0.68678  0.37630  0.53187  1.0000
  C   C36       1.0  0.62431  0.30706  0.50953  1.0000
  C   C37       1.0  0.35101  0.70966  0.49858  1.0000
  C   C38       1.0  0.29295  0.64009  0.49450  1.0000
  C   C39       1.0  0.36189  0.65289  0.48639  1.0000
  C   C40       1.0  0.65135  0.29101  0.51281  1.0000
  C   C41       1.0  0.71142  0.35953  0.52014  1.0000
  C   C42       1.0  0.64325  0.34958  0.52592  1.0000
  C   C43       1.0  0.36437  0.75022  0.49825  1.0000
  C   C44       1.0  0.25294  0.61231  0.50122  1.0000
  C   C45       1.0  0.38855  0.64008  0.47967  1.0000
  C   C46       1.0  0.63615  0.25040  0.50842  1.0000
  C   C47       1.0  0.75146  0.38603  0.50961  1.0000
  C   C48       1.0  0.61794  0.36360  0.53596  1.0000
  C   C49       1.0  0.53885  0.47855  0.52751  1.0000
  C   C50       1.0  0.51521  0.05701  0.48881  1.0000
  C   C51       1.0  0.94277  0.46753  0.48329  1.0000
  C   C52       1.0  0.47337  0.52859  0.50148  1.0000
  C   C53       1.0  0.46348  0.94478  0.46879  1.0000
  C   C54       1.0  0.05773  0.52921  0.49940  1.0000
  C   C55       1.0  0.51825  0.49519  0.51995  1.0000
  C   C56       1.0  0.49767  0.02086  0.48053  1.0000
  C   C57       1.0  0.97969  0.48777  0.48664  1.0000
  C   C58       1.0  0.49509  0.51292  0.51084  1.0000
  C   C59       1.0  0.47937  0.98102  0.47342  1.0000
  C   C60       1.0  0.02041  0.50966  0.49209  1.0000
  O   O7        1.0  0.28483  0.69563  0.50635  1.0000
  O   O8        1.0  0.30441  0.58769  0.47494  1.0000
  O   O9        1.0  0.41767  0.71885  0.51282  1.0000
  O   O10       1.0  0.71875  0.30189  0.52705  1.0000
  O   O11       1.0  0.70316  0.41336  0.54693  1.0000
  O   O12       1.0  0.58553  0.28472  0.49661  1.0000
  N   N7        1.0  0.40416  0.77776  0.51031  1.0000
  N   N8        1.0  0.22661  0.62268  0.51535  1.0000
  N   N9        1.0  0.37611  0.60191  0.46696  1.0000
  N   N10       1.0  0.59620  0.22406  0.50050  1.0000
  N   N11       1.0  0.77806  0.37333  0.51237  1.0000
  N   N12       1.0  0.63237  0.40136  0.56047  1.0000
  H   H13       1.0  0.34171  0.75995  0.49126  1.0000
  H   H14       1.0  0.24300  0.58108  0.49455  1.0000
  H   H15       1.0  0.42065  0.66211  0.48550  1.0000
  H   H16       1.0  0.65786  0.23998  0.51224  1.0000
  H   H17       1.0  0.76173  0.41817  0.50096  1.0000
  H   H18       1.0  0.58532  0.34244  0.52692  1.0000
  H   H19       1.0  0.42367  0.76438  0.52705  1.0000
  H   H20       1.0  0.24048  0.65368  0.52020  1.0000
  H   H21       1.0  0.34494  0.58397  0.46734  1.0000
  H   H22       1.0  0.57886  0.23875  0.49365  1.0000
  H   H23       1.0  0.76497  0.34164  0.52710  1.0000
  H   H24       1.0  0.66454  0.41807  0.57274  1.0000
  C  Sn1       1.0  0.53237  0.40418  0.99540  1.0000
  C   C61       1.0  0.45571  0.47344  0.05722  1.0000
  C  Sn2       1.0  0.49930  0.50016  0.09852  1.0000
  C  Sn3       1.0  0.52725  0.49041  0.07747  1.0000
  C   C62       1.0  0.51101  0.45412  0.01566  1.0000
  C  Sn4       1.0  0.56032  0.39442  0.97436  1.0000
  O  Te1       1.0  0.48868  0.37791  0.95492  1.0000
  O  Te2       1.0  0.51478  0.53628  0.16017  1.0000
  O  Te3       1.0  0.57096  0.51671  0.11803  1.0000
  O  Te4       1.0  0.54483  0.35833  0.91271  1.0000
  Mg  Mg1       1.0  0.57677  0.56223  0.19752  1.0000
  Mg  Mg2       1.0  0.48284  0.33236  0.87523  1.0000
  C  Sn5       1.0  0.44207  0.17982  0.05196  1.0000
  C   C63       1.0  0.48278  0.20777  0.05095  1.0000
  C  Sn6       1.0  0.50664  0.19739  0.00893  1.0000
  C  Sn7       1.0  0.58233  0.12531  0.96692  1.0000
  C   C64       1.0  0.54164  0.09739  0.96791  1.0000
  C  Sn8       1.0  0.42487  0.14069  0.00995  1.0000
  O  Te5       1.0  0.41879  0.19085  0.09435  1.0000
  O  Te6       1.0  0.54726  0.22585  0.00886  1.0000
  O  Te7       1.0  0.60565  0.11430  0.92451  1.0000
  O  Te8       1.0  0.38427  0.11226  0.01000  1.0000
  Mg  Mg3       1.0  0.65950  0.16357  0.94226  1.0000
  Mg  Mg4       1.0  0.36488  0.14156  0.07647  1.0000
  C  Sn9       1.0  0.85932  0.46268  0.92921  1.0000
  C   C65       1.0  0.80167  0.48436  0.00492  1.0000
  C  Sn10      1.0  0.79569  0.44368  0.06343  1.0000
  C  Sn11      1.0  0.75361  0.41363  0.04579  1.0000
  C   C66       1.0  0.81129  0.39195  0.97008  1.0000
  C  Sn12      1.0  0.81724  0.43263  0.91156  1.0000
  O  Te9       1.0  0.86606  0.50352  0.87162  1.0000
  O  Te10      1.0  0.83142  0.43316  0.13875  1.0000
  O  Te11      1.0  0.74690  0.37276  0.10346  1.0000
  O  Te12      1.0  0.78154  0.44315  0.83625  1.0000
  Mg  Mg5       1.0  0.80575  0.37352  0.19716  1.0000
  Mg  Mg6       1.0  0.80717  0.50277  0.77771  1.0000
  C  Sn13      1.0  0.43366  0.60071  0.89589  1.0000
  C   C67       1.0  0.39436  0.58358  0.91620  1.0000
  C  Sn14      1.0  0.37848  0.54293  0.99723  1.0000
  C  Sn15      1.0  0.30949  0.55185  0.05938  1.0000
  C   C68       1.0  0.34877  0.56898  0.03910  1.0000
  C  Sn16      1.0  0.45757  0.57668  0.95805  1.0000
  O  Te13      1.0  0.44893  0.64141  0.81450  1.0000
  O  Te14      1.0  0.24621  0.55943  0.01597  1.0000
  O  Te15      1.0  0.29419  0.51112  0.14082  1.0000
  O  Te16      1.0  0.49692  0.59313  0.93933  1.0000
  Mg  Mg7       1.0  0.23892  0.50253  0.13587  1.0000
  Mg  Mg8       1.0  0.50426  0.65002  0.81956  1.0000
  C  Sn17      1.0  0.47111  0.84392  0.17636  1.0000
  C   C69       1.0  0.42782  0.81920  0.07162  1.0000
  C  Sn18      1.0  0.49131  0.80312  0.90920  1.0000
  C  Sn19      1.0  0.50549  0.84557  0.85014  1.0000
  C   C70       1.0  0.54876  0.87027  0.95482  1.0000
  C  Sn20      1.0  0.48529  0.88638  0.11729  1.0000
  O  Te17      1.0  0.49993  0.82641  0.33826  1.0000
  O  Te18      1.0  0.44819  0.77778  0.80686  1.0000
  O  Te19      1.0  0.47662  0.86307  0.68809  1.0000
  O  Te20      1.0  0.52839  0.91169  0.21958  1.0000
  Mg  Mg9       1.0  0.42121  0.81596  0.59602  1.0000
  Mg  Mg10      1.0  0.55541  0.87354  0.43036  1.0000
  C  Sn21      1.0  0.21517  0.57349  0.96717  1.0000
  C   C71       1.0  0.18964  0.53248  0.95759  1.0000
  C  Sn22      1.0  0.20873  0.50626  0.99783  1.0000
  C  Sn23      1.0  0.16139  0.55428  0.04885  1.0000
  C   C72       1.0  0.18689  0.59526  0.05845  1.0000
  C  Sn24      1.0  0.16784  0.62151  0.01819  1.0000
  O  Te21      1.0  0.19540  0.59915  0.92636  1.0000
  O  Te22      1.0  0.18253  0.46539  0.98723  1.0000
  O  Te23      1.0  0.18115  0.52858  0.08967  1.0000
  O  Te24      1.0  0.19400  0.66236  0.02881  1.0000
  Mg  Mg11      1.0  0.13174  0.47534  0.05586  1.0000
  Mg  Mg12      1.0  0.24484  0.65243  0.96031  1.0000
  C  Sn25      1.0  0.55432  0.41090  0.41095  1.0000
  C   C73       1.0  0.59978  0.42204  0.49356  1.0000
  C  Sn26      1.0  0.62821  0.45064  0.62131  1.0000
  C  Sn27      1.0  0.61084  0.46845  0.66756  1.0000
  C   C74       1.0  0.56541  0.45731  0.58500  1.0000
  C  Sn28      1.0  0.53695  0.42872  0.45720  1.0000
  O  Te25      1.0  0.52652  0.38225  0.28361  1.0000
  O  Te26      1.0  0.67354  0.46130  0.70203  1.0000
  O  Te27      1.0  0.63869  0.49713  0.79501  1.0000
  O  Te28      1.0  0.49165  0.41805  0.37653  1.0000
  Mg  Mg13      1.0  0.69800  0.50173  0.86779  1.0000
  Mg  Mg14      1.0  0.46716  0.37761  0.21084  1.0000
  C  Sn29      1.0  0.59269  0.15538  0.44764  1.0000
  C   C75       1.0  0.57692  0.18053  0.44887  1.0000
  C  Sn30      1.0  0.54077  0.16410  0.49297  1.0000
  C  Sn31      1.0  0.51994  0.12164  0.53687  1.0000
  C   C76       1.0  0.53571  0.09652  0.53565  1.0000
  C  Sn32      1.0  0.57186  0.11293  0.49154  1.0000
  O  Te29      1.0  0.62888  0.17247  0.40316  1.0000
  O  Te30      1.0  0.52559  0.18985  0.49322  1.0000
  O  Te31      1.0  0.48372  0.10457  0.58136  1.0000
  O  Te32      1.0  0.58704  0.08720  0.49131  1.0000
  Mg  Mg15      1.0  0.47524  0.15216  0.56301  1.0000
  Mg  Mg16      1.0  0.63741  0.12486  0.42164  1.0000
  C  Sn33      1.0  0.83113  0.44114  0.34006  1.0000
  C   C77       1.0  0.81604  0.40126  0.43214  1.0000
  C  Sn34      1.0  0.84564  0.38270  0.57312  1.0000
  C  Sn35      1.0  0.89126  0.40446  0.62322  1.0000
  C   C78       1.0  0.90633  0.44432  0.53119  1.0000
  C  Sn36      1.0  0.87675  0.46290  0.39016  1.0000
  O  Te33      1.0  0.80095  0.45909  0.19955  1.0000
  O  Te34      1.0  0.82977  0.34279  0.66312  1.0000
  O  Te35      1.0  0.92144  0.38648  0.76385  1.0000
  O  Te36      1.0  0.89260  0.50279  0.30021  1.0000
  Mg  Mg17      1.0  0.88382  0.33151  0.84562  1.0000
  Mg  Mg18      1.0  0.83858  0.51411  0.11778  1.0000
  C  Sn37      1.0  0.46810  0.59609  0.51617  1.0000
  C   C79       1.0  0.45718  0.55486  0.54043  1.0000
  C  Sn38      1.0  0.41439  0.52729  0.51200  1.0000
  C  Sn39      1.0  0.38184  0.54122  0.45807  1.0000
  C   C80       1.0  0.39277  0.58243  0.43380  1.0000
  C  Sn40      1.0  0.43555  0.61003  0.46224  1.0000
  O  Te37      1.0  0.51108  0.62311  0.54534  1.0000
  O  Te38      1.0  0.40426  0.48621  0.53718  1.0000
  O  Te39      1.0  0.33884  0.51416  0.42891  1.0000
  O  Te40      1.0  0.44568  0.65108  0.43705  1.0000
  Mg  Mg19      1.0  0.34111  0.46118  0.48065  1.0000
  Mg  Mg20      1.0  0.50881  0.67614  0.49344  1.0000
  C  Sn41      1.0  0.47989  0.87659  0.55615  1.0000
  C   C81       1.0  0.45524  0.90076  0.45100  1.0000
  C  Sn42      1.0  0.40940  0.88321  0.37484  1.0000
  C  Sn43      1.0  0.38773  0.84062  0.40448  1.0000
  C   C82       1.0  0.41238  0.81649  0.50960  1.0000
  C  Sn44      1.0  0.45823  0.83401  0.58580  1.0000
  O  Te41      1.0  0.52569  0.89479  0.63098  1.0000
  O  Te42      1.0  0.38546  0.90799  0.27015  1.0000
  O  Te43      1.0  0.34190  0.82244  0.32953  1.0000
  O  Te44      1.0  0.48216  0.80925  0.69045  1.0000
  Mg  Mg21      1.0  0.32373  0.86898  0.19709  1.0000
  Mg  Mg22      1.0  0.54389  0.84823  0.76366  1.0000
  C  Sn45      1.0  0.12515  0.60319  0.46842  1.0000
  C   C83       1.0  0.10029  0.56209  0.45950  1.0000
  C  Sn46      1.0  0.12005  0.53650  0.49917  1.0000
  C  Sn47      1.0  0.16562  0.55232  0.54893  1.0000
  C   C84       1.0  0.19046  0.59339  0.55786  1.0000
  C  Sn48      1.0  0.17072  0.61901  0.51817  1.0000
  O  Te45      1.0  0.10471  0.62822  0.42820  1.0000
  O  Te46      1.0  0.09451  0.49551  0.48926  1.0000
  O  Te47      1.0  0.18605  0.52725  0.58915  1.0000
  O  Te48      1.0  0.19624  0.65997  0.52810  1.0000
  Mg  Mg23      1.0  0.13738  0.47357  0.55667  1.0000
  Mg  Mg24      1.0  0.15341  0.68194  0.46083  1.0000
