data_image0
_chemical_formula_structural       C30O6N6H12C30O6N6H12C2Sn2C2HTe2HMgC2Sn2C2HTe2HMgC2Sn2C2HTe2HMgC2Sn2C2HTe2HMgC2Sn2C2HTe2HMgC2Sn2C2HTe2HMgC2Sn2C2HTe2HMgC2Sn2C2HTe2HMgC2Sn2C2HTe2HMgC2Sn2C2HTe2HMgC2Sn2C2HTe2HMgC2Sn2C2HTe2HMg
_chemical_formula_sum              "C108 O12 N12 H48 Sn24 Te24 Mg12"
_cell_length_a       38.843
_cell_length_b       38.9337
_cell_length_c       8.02806
_cell_angle_alpha    67.2459
_cell_angle_beta     122.014
_cell_angle_gamma    120.337

_symmetry_space_group_name_H-M    'P1'
_space_group_IT_number       1

loop_
  _space_group_symop_operation_xyz
  'x, y, z'

loop_
  _atom_site_type_symbol
  _atom_site_label
  _atom_site_symmetry_multiplicity
  _atom_site_fract_x
  _atom_site_fract_y
  _atom_site_fract_z
  _atom_site_occupancy
  C   C1        1.0  0.30531  0.68255  0.99792  1.0000
  C   C2        1.0  0.31392  0.62327  0.98202  1.0000
  C   C3        1.0  0.37662  0.69224  0.01169  1.0000
  C   C4        1.0  0.69267  0.31656  0.01863  1.0000
  C   C5        1.0  0.68273  0.37518  0.03139  1.0000
  C   C6        1.0  0.62118  0.30526  0.00881  1.0000
  C   C7        1.0  0.34904  0.70840  0.00318  1.0000
  C   C8        1.0  0.28900  0.63989  0.99278  1.0000
  C   C9        1.0  0.35745  0.65013  0.98906  1.0000
  C   C10       1.0  0.64882  0.29025  0.01052  1.0000
  C   C11       1.0  0.70822  0.35915  0.02125  1.0000
  C   C12       1.0  0.63909  0.34782  0.02276  1.0000
  C   C13       1.0  0.36412  0.74914  0.00582  1.0000
  C   C14       1.0  0.24908  0.61276  0.00221  1.0000
  C   C15       1.0  0.38337  0.63603  0.98418  1.0000
  C   C16       1.0  0.63497  0.24997  0.00588  1.0000
  C   C17       1.0  0.74825  0.38620  0.01137  1.0000
  C   C18       1.0  0.61229  0.36093  0.02659  1.0000
  C   C19       1.0  0.52759  0.47191  0.01083  1.0000
  C   C20       1.0  0.52360  0.05528  0.00431  1.0000
  C   C21       1.0  0.93856  0.46983  0.97245  1.0000
  C   C22       1.0  0.46339  0.52062  0.00701  1.0000
  C   C23       1.0  0.47517  0.94271  0.99849  1.0000
  C   C24       1.0  0.05398  0.53306  0.99551  1.0000
  C   C25       1.0  0.50697  0.48762  0.01088  1.0000
  C   C26       1.0  0.50808  0.01892  0.00190  1.0000
  C   C27       1.0  0.97559  0.49072  0.97708  1.0000
  C   C28       1.0  0.48433  0.50485  0.00971  1.0000
  C   C29       1.0  0.49096  0.97916  0.99953  1.0000
  C   C30       1.0  0.01639  0.51310  0.98466  1.0000
  O   O1        1.0  0.28235  0.69654  0.00095  1.0000
  O   O2        1.0  0.29798  0.58621  0.96890  1.0000
  O   O3        1.0  0.41623  0.71427  0.03571  1.0000
  O   O4        1.0  0.71614  0.30257  0.01978  1.0000
  O   O5        1.0  0.69800  0.41206  0.04561  1.0000
  O   O6        1.0  0.58266  0.28194  0.99684  1.0000
  N   N1        1.0  0.40510  0.77478  0.02718  1.0000
  N   N2        1.0  0.22335  0.62407  0.01580  1.0000
  N   N3        1.0  0.36940  0.59758  0.97047  1.0000
  N   N4        1.0  0.59537  0.22251  0.99772  1.0000
  N   N5        1.0  0.77502  0.37396  0.01233  1.0000
  N   N6        1.0  0.62511  0.39854  0.04832  1.0000
  H   H1        1.0  0.34206  0.76047  0.99299  1.0000
  H   H2        1.0  0.23901  0.58109  0.00097  1.0000
  H   H3        1.0  0.41608  0.65706  0.99360  1.0000
  H   H4        1.0  0.65766  0.24078  0.00953  1.0000
  H   H5        1.0  0.75836  0.41829  0.00432  1.0000
  H   H6        1.0  0.57964  0.33907  0.01495  1.0000
  H   H7        1.0  0.42375  0.75962  0.05071  1.0000
  H   H8        1.0  0.23729  0.65533  0.01583  1.0000
  H   H9        1.0  0.33782  0.58068  0.96807  1.0000
  H   H10       1.0  0.57700  0.23584  0.99199  1.0000
  H   H11       1.0  0.76181  0.34228  0.02401  1.0000
  H   H12       1.0  0.65735  0.41612  0.06327  1.0000
  C   C31       1.0  0.30801  0.68248  0.49957  1.0000
  C   C32       1.0  0.31893  0.62476  0.48341  1.0000
  C   C33       1.0  0.37915  0.69527  0.50040  1.0000
  C   C34       1.0  0.69547  0.31667  0.52153  1.0000
  C   C35       1.0  0.68678  0.37630  0.53187  1.0000
  C   C36       1.0  0.62431  0.30706  0.50953  1.0000
  C   C37       1.0  0.35101  0.70966  0.49858  1.0000
  C   C38       1.0  0.29295  0.64009  0.49450  1.0000
  C   C39       1.0  0.36189  0.65289  0.48639  1.0000
  C   C40       1.0  0.65135  0.29101  0.51281  1.0000
  C   C41       1.0  0.71142  0.35953  0.52014  1.0000
  C   C42       1.0  0.64325  0.34958  0.52592  1.0000
  C   C43       1.0  0.36437  0.75022  0.49825  1.0000
  C   C44       1.0  0.25294  0.61231  0.50122  1.0000
  C   C45       1.0  0.38855  0.64008  0.47967  1.0000
  C   C46       1.0  0.63615  0.25040  0.50842  1.0000
  C   C47       1.0  0.75146  0.38603  0.50961  1.0000
  C   C48       1.0  0.61794  0.36360  0.53596  1.0000
  C   C49       1.0  0.53885  0.47855  0.52751  1.0000
  C   C50       1.0  0.51521  0.05701  0.48881  1.0000
  C   C51       1.0  0.94277  0.46753  0.48329  1.0000
  C   C52       1.0  0.47337  0.52859  0.50148  1.0000
  C   C53       1.0  0.46348  0.94478  0.46879  1.0000
  C   C54       1.0  0.05773  0.52921  0.49940  1.0000
  C   C55       1.0  0.51825  0.49519  0.51995  1.0000
  C   C56       1.0  0.49767  0.02086  0.48053  1.0000
  C   C57       1.0  0.97969  0.48777  0.48664  1.0000
  C   C58       1.0  0.49509  0.51292  0.51084  1.0000
  C   C59       1.0  0.47937  0.98102  0.47342  1.0000
  C   C60       1.0  0.02041  0.50966  0.49209  1.0000
  O   O7        1.0  0.28483  0.69563  0.50635  1.0000
  O   O8        1.0  0.30441  0.58769  0.47494  1.0000
  O   O9        1.0  0.41767  0.71885  0.51282  1.0000
  O   O10       1.0  0.71875  0.30189  0.52705  1.0000
  O   O11       1.0  0.70316  0.41336  0.54693  1.0000
  O   O12       1.0  0.58553  0.28472  0.49661  1.0000
  N   N7        1.0  0.40416  0.77776  0.51031  1.0000
  N   N8        1.0  0.22661  0.62268  0.51535  1.0000
  N   N9        1.0  0.37611  0.60191  0.46696  1.0000
  N   N10       1.0  0.59620  0.22406  0.50050  1.0000
  N   N11       1.0  0.77806  0.37333  0.51237  1.0000
  N   N12       1.0  0.63237  0.40136  0.56047  1.0000
  H   H13       1.0  0.34171  0.75995  0.49126  1.0000
  H   H14       1.0  0.24300  0.58108  0.49455  1.0000
  H   H15       1.0  0.42065  0.66211  0.48550  1.0000
  H   H16       1.0  0.65786  0.23998  0.51224  1.0000
  H   H17       1.0  0.76173  0.41817  0.50096  1.0000
  H   H18       1.0  0.58532  0.34244  0.52692  1.0000
  H   H19       1.0  0.42367  0.76438  0.52705  1.0000
  H   H20       1.0  0.24048  0.65368  0.52020  1.0000
  H   H21       1.0  0.34494  0.58397  0.46734  1.0000
  H   H22       1.0  0.57886  0.23875  0.49365  1.0000
  H   H23       1.0  0.76497  0.34164  0.52710  1.0000
  H   H24       1.0  0.66454  0.41807  0.57274  1.0000
  C   C61       1.0  0.52980  0.40864  0.93041  1.0000
  C   C62       1.0  0.45233  0.47554  0.00928  1.0000
  C  Sn1       1.0  0.49747  0.49746  0.10179  1.0000
  C  Sn2       1.0  0.52765  0.48508  0.11531  1.0000
  C   C63       1.0  0.51189  0.45109  0.03582  1.0000
  C   C64       1.0  0.55955  0.39642  0.94361  1.0000
  H   H25       1.0  0.49480  0.39184  0.85897  1.0000
  O  Te1       1.0  0.51231  0.53130  0.17986  1.0000
  O  Te2       1.0  0.57293  0.50645  0.20693  1.0000
  H   H26       1.0  0.54762  0.37015  0.88245  1.0000
  Mg  Mg1       1.0  0.57710  0.55052  0.29074  1.0000
  C   C65       1.0  0.51728  0.12521  0.99770  1.0000
  C   C66       1.0  0.53409  0.10121  0.99437  1.0000
  C  Sn3       1.0  0.48331  0.15098  0.00184  1.0000
  C  Sn4       1.0  0.50900  0.19260  0.01289  1.0000
  C   C67       1.0  0.49190  0.21634  0.01628  1.0000
  C   C68       1.0  0.44972  0.19920  0.00868  1.0000
  H   H27       1.0  0.48466  0.11194  0.99193  1.0000
  O  Te3       1.0  0.59247  0.09364  0.99830  1.0000
  O  Te4       1.0  0.55119  0.21019  0.02059  1.0000
  H   H28       1.0  0.43673  0.21778  0.01139  1.0000
  Mg  Mg2       1.0  0.55891  0.16448  0.01178  1.0000
  C   C69       1.0  0.88024  0.39560  0.09399  1.0000
  C   C70       1.0  0.98720  0.40151  0.99032  1.0000
  C  Sn5       1.0  0.96025  0.42347  0.88915  1.0000
  C  Sn6       1.0  0.91846  0.40613  0.89216  1.0000
  C   C71       1.0  0.90470  0.36725  0.99643  1.0000
  C   C72       1.0  0.83904  0.37848  0.09709  1.0000
  H   H29       1.0  0.90132  0.37881  0.17197  1.0000
  O  Te5       1.0  0.97481  0.46224  0.78625  1.0000
  O  Te6       1.0  0.89087  0.42742  0.79239  1.0000
  H   H30       1.0  0.82815  0.34841  0.17746  1.0000
  Mg  Mg3       1.0  0.92536  0.47926  0.67306  1.0000
  C   C73       1.0  0.45477  0.59222  0.95479  1.0000
  C   C74       1.0  0.44591  0.55098  0.99874  1.0000
  C  Sn7       1.0  0.31461  0.55581  0.02263  1.0000
  C  Sn8       1.0  0.28457  0.56933  0.00198  1.0000
  C   C75       1.0  0.38661  0.57770  0.95784  1.0000
  C   C76       1.0  0.42515  0.60557  0.93431  1.0000
  H   H31       1.0  0.48457  0.61378  0.93647  1.0000
  O  Te7       1.0  0.30627  0.51472  0.06659  1.0000
  O  Te8       1.0  0.24593  0.54188  0.02501  1.0000
  H   H32       1.0  0.43199  0.63749  0.90015  1.0000
  Mg  Mg4       1.0  0.24916  0.48901  0.08426  1.0000
  C   C77       1.0  0.48613  0.86863  0.14056  1.0000
  C   C78       1.0  0.46583  0.89625  0.02211  1.0000
  C  Sn9       1.0  0.51375  0.84987  0.89806  1.0000
  C  Sn10      1.0  0.48873  0.80800  0.89286  1.0000
  C   C79       1.0  0.41646  0.81355  0.01204  1.0000
  C   C80       1.0  0.46148  0.82732  0.13559  1.0000
  H   H33       1.0  0.52096  0.87927  0.23624  1.0000
  O  Te9       1.0  0.49399  0.87787  0.78062  1.0000
  O  Te10      1.0  0.44373  0.79375  0.77028  1.0000
  H   H34       1.0  0.47718  0.80593  0.22738  1.0000
  Mg  Mg5       1.0  0.43173  0.84370  0.63778  1.0000
  C   C81       1.0  0.12875  0.60610  0.03376  1.0000
  C   C82       1.0  0.10082  0.56626  0.00366  1.0000
  C  Sn11      1.0  0.20828  0.50868  0.98968  1.0000
  C  Sn12      1.0  0.15874  0.55724  0.00625  1.0000
  C   C83       1.0  0.18643  0.59712  0.03649  1.0000
  C   C84       1.0  0.17151  0.62152  0.05020  1.0000
  H   H35       1.0  0.11722  0.62497  0.04448  1.0000
  O  Te11      1.0  0.17995  0.46895  0.95952  1.0000
  O  Te12      1.0  0.26703  0.50032  0.99290  1.0000
  H   H36       1.0  0.19314  0.65235  0.07363  1.0000
  Mg  Mg6       1.0  0.21608  0.44812  0.95121  1.0000
  C   C85       1.0  0.63168  0.46498  0.63523  1.0000
  C   C86       1.0  0.61535  0.42758  0.58325  1.0000
  C  Sn13      1.0  0.57004  0.40592  0.49477  1.0000
  C  Sn14      1.0  0.54061  0.42209  0.45777  1.0000
  C   C87       1.0  0.55728  0.45954  0.51020  1.0000
  C   C88       1.0  0.60268  0.48095  0.59873  1.0000
  H   H37       1.0  0.66681  0.48155  0.70363  1.0000
  O  Te13      1.0  0.55428  0.36859  0.44383  1.0000
  O  Te14      1.0  0.49517  0.40108  0.36945  1.0000
  H   H38       1.0  0.61531  0.50992  0.63884  1.0000
  Mg  Mg7       1.0  0.48963  0.35139  0.32684  1.0000
  C   C89       1.0  0.51453  0.12889  0.49530  1.0000
  C   C90       1.0  0.52869  0.10352  0.48441  1.0000
  C  Sn15      1.0  0.57044  0.11838  0.49100  1.0000
  C  Sn16      1.0  0.59846  0.15941  0.50890  1.0000
  C   C91       1.0  0.58400  0.18455  0.51983  1.0000
  C   C92       1.0  0.54216  0.16937  0.51303  1.0000
  H   H39       1.0  0.48217  0.11714  0.49016  1.0000
  O  Te15      1.0  0.58406  0.09261  0.47987  1.0000
  O  Te16      1.0  0.64035  0.17505  0.51590  1.0000
  H   H40       1.0  0.53121  0.18902  0.52160  1.0000
  Mg  Mg8       1.0  0.64403  0.12803  0.49546  1.0000
  C   C93       1.0  0.83590  0.44776  0.38845  1.0000
  C   C94       1.0  0.81850  0.40678  0.46138  1.0000
  C  Sn17      1.0  0.84463  0.38407  0.55975  1.0000
  C  Sn18      1.0  0.88898  0.40281  0.58539  1.0000
  C   C95       1.0  0.90608  0.44384  0.51201  1.0000
  C   C96       1.0  0.87965  0.46628  0.41375  1.0000
  H   H41       1.0  0.81546  0.46513  0.31252  1.0000
  O  Te17      1.0  0.82672  0.34315  0.63162  1.0000
  O  Te18      1.0  0.91582  0.38083  0.68320  1.0000
  H   H42       1.0  0.89314  0.49802  0.35741  1.0000
  Mg  Mg9       1.0  0.87640  0.32592  0.75467  1.0000
  C   C97       1.0  0.39941  0.52302  0.51570  1.0000
  C   C98       1.0  0.43734  0.54025  0.48393  1.0000
  C  Sn19      1.0  0.45883  0.58215  0.45117  1.0000
  C  Sn20      1.0  0.44198  0.60717  0.45035  1.0000
  C   C99       1.0  0.40403  0.58964  0.48243  1.0000
  C   C100      1.0  0.38278  0.54768  0.51499  1.0000
  H   H43       1.0  0.38298  0.49056  0.54101  1.0000
  O  Te19      1.0  0.49668  0.59886  0.41960  1.0000
  O  Te20      1.0  0.46282  0.64913  0.41805  1.0000
  H   H44       1.0  0.35343  0.53435  0.53972  1.0000
  Mg  Mg10      1.0  0.51339  0.65765  0.38216  1.0000
  C   C101      1.0  0.39426  0.87086  0.34399  1.0000
  C   C102      1.0  0.43573  0.89762  0.45169  1.0000
  C  Sn21      1.0  0.47042  0.88455  0.58014  1.0000
  C  Sn22      1.0  0.46337  0.84391  0.60078  1.0000
  C   C103      1.0  0.42176  0.81738  0.49227  1.0000
  C   C104      1.0  0.38728  0.83078  0.36420  1.0000
  H   H45       1.0  0.36758  0.88123  0.24481  1.0000
  O  Te21      1.0  0.51165  0.91168  0.68668  1.0000
  O  Te22      1.0  0.49747  0.83005  0.72806  1.0000
  H   H46       1.0  0.35518  0.81005  0.28073  1.0000
  Mg  Mg11      1.0  0.54774  0.87847  0.84149  1.0000
  C   C105      1.0  0.13278  0.53472  0.49523  1.0000
  C   C106      1.0  0.10675  0.54597  0.51804  1.0000
  C  Sn23      1.0  0.12076  0.58572  0.53622  1.0000
  C  Sn24      1.0  0.16159  0.61467  0.53137  1.0000
  C   C107      1.0  0.18737  0.60313  0.50834  1.0000
  C   C108      1.0  0.17305  0.56327  0.49034  1.0000
  H   H47       1.0  0.12169  0.50389  0.48119  1.0000
  O  Te23      1.0  0.09436  0.59644  0.55899  1.0000
  O  Te24      1.0  0.17637  0.65461  0.54914  1.0000
  H   H48       1.0  0.19319  0.55458  0.47255  1.0000
  Mg  Mg12      1.0  0.12871  0.65457  0.57736  1.0000
