data_image0
_chemical_formula_structural       C38O6N6H24C46O6N6H24SnCSn2CSnTe4Mg2SnCSn2CSnTe4Mg2SnCSn2CSnTe4Mg2SnCSn2CSnTe4Mg2SnCSn2CSnTe4Mg2SnCSn2CSnTe4Mg2
_chemical_formula_sum              "C96 O12 N12 H48 Sn24 Te24 Mg12"
_cell_length_a       34.1572
_cell_length_b       34.5127
_cell_length_c       7.96891
_cell_angle_alpha    106.554
_cell_angle_beta     104.581
_cell_angle_gamma    119.756

_symmetry_space_group_name_H-M    'P1'
_space_group_IT_number       1

loop_
  _space_group_symop_operation_xyz
  'x, y, z'

loop_
  _atom_site_type_symbol
  _atom_site_label
  _atom_site_symmetry_multiplicity
  _atom_site_fract_x
  _atom_site_fract_y
  _atom_site_fract_z
  _atom_site_occupancy
  C   C1        1.0  0.30331  0.68479  0.99613  1.0000
  C   C2        1.0  0.31663  0.61752  0.97385  1.0000
  C   C3        1.0  0.38340  0.69922  0.98706  1.0000
  C   C4        1.0  0.69719  0.31281  0.99525  1.0000
  C   C5        1.0  0.68817  0.38296  0.02174  1.0000
  C   C6        1.0  0.61800  0.30143  0.99857  1.0000
  C   C7        1.0  0.35041  0.71441  0.98471  1.0000
  C   C8        1.0  0.28665  0.63603  0.98659  1.0000
  C   C9        1.0  0.36568  0.65051  0.98205  1.0000
  C   C10       1.0  0.64982  0.28486  0.00556  1.0000
  C   C11       1.0  0.71669  0.36266  0.01200  1.0000
  C   C12       1.0  0.63813  0.35082  0.00695  1.0000
  C   C13       1.0  0.36326  0.75868  0.97612  1.0000
  C   C14       1.0  0.24190  0.60539  0.99368  1.0000
  C   C15       1.0  0.39789  0.63685  0.98887  1.0000
  C   C16       1.0  0.63513  0.24050  0.01595  1.0000
  C   C17       1.0  0.76212  0.39189  0.00737  1.0000
  C   C18       1.0  0.60695  0.36571  0.99521  1.0000
  C   C19       1.0  0.83495  0.40196  0.97088  1.0000
  C   C20       1.0  0.60779  0.47258  0.49842  1.0000
  C   C21       1.0  0.51949  0.12699  0.44688  1.0000
  C   C22       1.0  0.85329  0.38363  0.40433  1.0000
  C   C23       1.0  0.37762  0.51562  0.41015  1.0000
  C   C24       1.0  0.13552  0.61616  0.49368  1.0000
  C   C25       1.0  0.58143  0.49292  0.49459  1.0000
  C   C26       1.0  0.50011  0.08112  0.44813  1.0000
  C   C27       1.0  0.89985  0.41175  0.40527  1.0000
  C   C28       1.0  0.40379  0.49527  0.41237  1.0000
  C   C29       1.0  0.08781  0.59058  0.48589  1.0000
  C   C30       1.0  0.92964  0.45430  0.96967  1.0000
  C   C31       1.0  0.91203  0.48073  0.04777  1.0000
  C   C32       1.0  0.86571  0.45519  0.04964  1.0000
  C   C33       1.0  0.52207  0.50009  0.01438  1.0000
  C   C34       1.0  0.50660  0.02058  0.99644  1.0000
  C   C35       1.0  0.97777  0.48162  0.97486  1.0000
  C   C36       1.0  0.50168  0.52094  0.02510  1.0000
  C   C37       1.0  0.48839  0.97910  0.98896  1.0000
  C   C38       1.0  0.01982  0.50684  0.98543  1.0000
  O   O1        1.0  0.27761  0.70118  0.01319  1.0000
  O   O2        1.0  0.30073  0.57421  0.96098  1.0000
  O   O3        1.0  0.42631  0.72757  0.99348  1.0000
  O   O4        1.0  0.72052  0.29381  0.97104  1.0000
  O   O5        1.0  0.70588  0.42661  0.03487  1.0000
  O   O6        1.0  0.57419  0.27407  0.98675  1.0000
  N   N1        1.0  0.40560  0.78897  0.96589  1.0000
  N   N2        1.0  0.21181  0.61865  0.01124  1.0000
  N   N3        1.0  0.38492  0.59256  0.98121  1.0000
  N   N4        1.0  0.59051  0.20982  0.01086  1.0000
  N   N5        1.0  0.78878  0.37514  0.97528  1.0000
  N   N6        1.0  0.62179  0.41028  0.00102  1.0000
  H   H1        1.0  0.33734  0.76837  0.97501  1.0000
  H   H2        1.0  0.23161  0.56936  0.98548  1.0000
  H   H3        1.0  0.43480  0.66314  0.99947  1.0000
  H   H4        1.0  0.66077  0.23032  0.02732  1.0000
  H   H5        1.0  0.77542  0.42940  0.02532  1.0000
  H   H6        1.0  0.56917  0.33984  0.97911  1.0000
  H   H7        1.0  0.42694  0.77514  0.96975  1.0000
  H   H8        1.0  0.22636  0.65397  0.01620  1.0000
  H   H9        1.0  0.34766  0.57064  0.96436  1.0000
  H   H10       1.0  0.56876  0.22308  0.99270  1.0000
  H   H11       1.0  0.77075  0.33805  0.95497  1.0000
  H   H12       1.0  0.65912  0.43076  0.01652  1.0000
  H   H13       1.0  0.64478  0.49291  0.50130  1.0000
  H   H14       1.0  0.49405  0.13522  0.38637  1.0000
  H   H15       1.0  0.83090  0.34238  0.33956  1.0000
  H   H16       1.0  0.33624  0.49094  0.34569  1.0000
  H   H17       1.0  0.15108  0.65043  0.47893  1.0000
  H   H18       1.0  0.59754  0.52913  0.49440  1.0000
  H   H19       1.0  0.45929  0.05324  0.39115  1.0000
  H   H20       1.0  0.91423  0.39285  0.34099  1.0000
  H   H21       1.0  0.38324  0.45439  0.35170  1.0000
  H   H22       1.0  0.06589  0.60495  0.46700  1.0000
  H   H23       1.0  0.93617  0.52201  0.11136  1.0000
  H   H24       1.0  0.85397  0.47655  0.11837  1.0000
  C   C39       1.0  0.30233  0.68615  0.49173  1.0000
  C   C40       1.0  0.31106  0.61573  0.46460  1.0000
  C   C41       1.0  0.38061  0.69621  0.47872  1.0000
  C   C42       1.0  0.69536  0.31352  0.49772  1.0000
  C   C43       1.0  0.68313  0.38150  0.51723  1.0000
  C   C44       1.0  0.61450  0.29924  0.49668  1.0000
  C   C45       1.0  0.35011  0.71416  0.48232  1.0000
  C   C46       1.0  0.28345  0.63689  0.48156  1.0000
  C   C47       1.0  0.36083  0.64754  0.47628  1.0000
  C   C48       1.0  0.64743  0.28396  0.50346  1.0000
  C   C49       1.0  0.71281  0.36244  0.50796  1.0000
  C   C50       1.0  0.63350  0.34858  0.50531  1.0000
  C   C51       1.0  0.36594  0.75952  0.47960  1.0000
  C   C52       1.0  0.23860  0.60813  0.49124  1.0000
  C   C53       1.0  0.39157  0.63215  0.48475  1.0000
  C   C54       1.0  0.63386  0.23976  0.51359  1.0000
  C   C55       1.0  0.75798  0.39253  0.50283  1.0000
  C   C56       1.0  0.60168  0.36267  0.49646  1.0000
  C   C57       1.0  0.58684  0.42552  0.49679  1.0000
  C   C58       1.0  0.57221  0.16295  0.51816  1.0000
  C   C59       1.0  0.83431  0.40796  0.48424  1.0000
  C   C60       1.0  0.40415  0.56845  0.48645  1.0000
  C   C61       1.0  0.16351  0.59710  0.51210  1.0000
  C   C62       1.0  0.85140  0.37493  0.88878  1.0000
  C   C63       1.0  0.89822  0.40069  0.88961  1.0000
  C   C64       1.0  0.53301  0.46675  0.48754  1.0000
  C   C65       1.0  0.53274  0.06958  0.52156  1.0000
  C   C66       1.0  0.92917  0.46537  0.48637  1.0000
  C   C67       1.0  0.45744  0.52709  0.49151  1.0000
  C   C68       1.0  0.06657  0.54514  0.49845  1.0000
  C   C69       1.0  0.51206  0.41917  0.48316  1.0000
  C   C70       1.0  0.58583  0.10673  0.59882  1.0000
  C   C71       1.0  0.90949  0.48927  0.56499  1.0000
  C   C72       1.0  0.48380  0.58029  0.57389  1.0000
  C   C73       1.0  0.09553  0.52690  0.52092  1.0000
  C   C74       1.0  0.53850  0.39896  0.48826  1.0000
  C   C75       1.0  0.60541  0.15282  0.59835  1.0000
  C   C76       1.0  0.86304  0.46117  0.56455  1.0000
  C   C77       1.0  0.45771  0.60077  0.57285  1.0000
  C   C78       1.0  0.14308  0.55230  0.52745  1.0000
  C   C79       1.0  0.50644  0.48762  0.48688  1.0000
  C   C80       1.0  0.51246  0.02195  0.51479  1.0000
  C   C81       1.0  0.97679  0.49403  0.48906  1.0000
  C   C82       1.0  0.48388  0.50619  0.48942  1.0000
  C   C83       1.0  0.49379  0.97968  0.50167  1.0000
  C   C84       1.0  0.01830  0.51842  0.49255  1.0000
  O   O7        1.0  0.27788  0.70414  0.50669  1.0000
  O   O8        1.0  0.29231  0.57122  0.44389  1.0000
  O   O9        1.0  0.42288  0.72173  0.47671  1.0000
  O   O10       1.0  0.72075  0.29661  0.48234  1.0000
  O   O11       1.0  0.69981  0.42489  0.52947  1.0000
  O   O12       1.0  0.57092  0.27102  0.48540  1.0000
  N   N7        1.0  0.40779  0.78765  0.46300  1.0000
  N   N8        1.0  0.21007  0.62347  0.50959  1.0000
  N   N9        1.0  0.37600  0.58700  0.47304  1.0000
  N   N10       1.0  0.58929  0.20770  0.50613  1.0000
  N   N11       1.0  0.78758  0.37870  0.48328  1.0000
  N   N12       1.0  0.61556  0.40742  0.50619  1.0000
  H   H25       1.0  0.34273  0.77215  0.48967  1.0000
  H   H26       1.0  0.22684  0.57181  0.48407  1.0000
  H   H27       1.0  0.42925  0.65761  0.49945  1.0000
  H   H28       1.0  0.66063  0.23102  0.52767  1.0000
  H   H29       1.0  0.76896  0.42859  0.50954  1.0000
  H   H30       1.0  0.56399  0.33600  0.47905  1.0000
  H   H31       1.0  0.42685  0.77149  0.45683  1.0000
  H   H32       1.0  0.22575  0.65860  0.51164  1.0000
  H   H33       1.0  0.33804  0.56587  0.45014  1.0000
  H   H34       1.0  0.56669  0.21996  0.48705  1.0000
  H   H35       1.0  0.77207  0.34258  0.47047  1.0000
  H   H36       1.0  0.65263  0.42868  0.52056  1.0000
  H   H37       1.0  0.82678  0.33355  0.82316  1.0000
  H   H38       1.0  0.91115  0.37990  0.82687  1.0000
  H   H39       1.0  0.47510  0.39876  0.48009  1.0000
  H   H40       1.0  0.61139  0.09895  0.66256  1.0000
  H   H41       1.0  0.93178  0.53053  0.62956  1.0000
  H   H42       1.0  0.52523  0.60535  0.64151  1.0000
  H   H43       1.0  0.08018  0.49269  0.53610  1.0000
  H   H44       1.0  0.52200  0.36292  0.48971  1.0000
  H   H45       1.0  0.64650  0.18149  0.66347  1.0000
  H   H46       1.0  0.84973  0.48065  0.63322  1.0000
  H   H47       1.0  0.47867  0.64189  0.64219  1.0000
  H   H48       1.0  0.16458  0.53756  0.54682  1.0000
  C  Sn1       1.0  0.99878  0.08474  0.87247  1.0000
  C   C85       1.0  0.02394  0.06672  0.94594  1.0000
  C  Sn2       1.0  0.95461  0.97490  0.07842  1.0000
  C  Sn3       1.0  0.48093  0.02776  0.13884  1.0000
  C   C86       1.0  0.45577  0.04575  0.06542  1.0000
  C  Sn4       1.0  0.52510  0.13760  0.93289  1.0000
  O  Te1       1.0  0.94640  0.05032  0.74017  1.0000
  O  Te2       1.0  0.97893  0.95598  0.14980  1.0000
  O  Te3       1.0  0.53335  0.06218  0.27124  1.0000
  O  Te4       1.0  0.50078  0.15650  0.86156  1.0000
  Mg  Mg1       1.0  0.05082  0.01798  0.32729  1.0000
  Mg  Mg2       1.0  0.42889  0.09454  0.68415  1.0000
  C  Sn5       1.0  0.39315  0.86145  0.93087  1.0000
  C   C87       1.0  0.41090  0.83250  0.90808  1.0000
  C  Sn6       1.0  0.46082  0.85474  0.93698  1.0000
  C  Sn7       1.0  0.49368  0.90702  0.98989  1.0000
  C   C88       1.0  0.35423  0.81039  0.01268  1.0000
  C  Sn8       1.0  0.42602  0.91374  0.98378  1.0000
  O  Te5       1.0  0.34311  0.83842  0.90125  1.0000
  O  Te6       1.0  0.47770  0.82501  0.91328  1.0000
  O  Te7       1.0  0.42205  0.80447  0.01950  1.0000
  O  Te8       1.0  0.28744  0.81787  0.00748  1.0000
  Mg  Mg3       1.0  0.54908  0.87371  0.96988  1.0000
  Mg  Mg4       1.0  0.33777  0.89478  0.95102  1.0000
  C  Sn9       1.0  0.25146  0.65434  0.96316  1.0000
  C   C89       1.0  0.27721  0.70044  0.95977  1.0000
  C  Sn10      1.0  0.26149  0.73106  0.99346  1.0000
  C  Sn11      1.0  0.09746  0.58972  0.03147  1.0000
  C   C90       1.0  0.07174  0.54365  0.03488  1.0000
  C  Sn12      1.0  0.08743  0.51301  0.00116  1.0000
  O  Te9       1.0  0.26784  0.62434  0.92909  1.0000
  O  Te10      1.0  0.28783  0.77697  0.98926  1.0000
  O  Te11      1.0  0.08109  0.61977  0.06555  1.0000
  O  Te12      1.0  0.06112  0.46712  0.00539  1.0000
  Mg  Mg5       1.0  0.12931  0.67908  0.04461  1.0000
  Mg  Mg6       1.0  0.21962  0.56499  0.95016  1.0000
  C  Sn13      1.0  0.50058  0.36672  0.06024  1.0000
  C   C91       1.0  0.48293  0.31934  0.04859  1.0000
  C  Sn14      1.0  0.55326  0.40895  0.99349  1.0000
  C  Sn15      1.0  0.51882  0.42059  0.94899  1.0000
  C   C92       1.0  0.53647  0.46794  0.96061  1.0000
  C  Sn16      1.0  0.46613  0.37836  0.01573  1.0000
  O  Te13      1.0  0.55209  0.40208  0.11562  1.0000
  O  Te14      1.0  0.53652  0.36185  0.98295  1.0000
  O  Te15      1.0  0.46727  0.38518  0.89358  1.0000
  O  Te16      1.0  0.48288  0.42543  0.02625  1.0000
  Mg  Mg7       1.0  0.46278  0.32627  0.90040  1.0000
  Mg  Mg8       1.0  0.55660  0.46103  0.10868  1.0000
  C  Sn17      1.0  0.39644  0.51939  0.98670  1.0000
  C   C93       1.0  0.29163  0.44377  0.04117  1.0000
  C  Sn18      1.0  0.34045  0.48103  0.07536  1.0000
  C  Sn19      1.0  0.37305  0.46809  0.05455  1.0000
  C   C94       1.0  0.35616  0.41817  0.00008  1.0000
  C  Sn20      1.0  0.42905  0.50645  0.96589  1.0000
  O  Te17      1.0  0.34749  0.48276  0.95325  1.0000
  O  Te18      1.0  0.35649  0.53071  0.12973  1.0000
  O  Te19      1.0  0.42204  0.50478  0.08806  1.0000
  O  Te20      1.0  0.41301  0.45680  0.91152  1.0000
  Mg  Mg9       1.0  0.42649  0.56717  0.15912  1.0000
  Mg  Mg10      1.0  0.34300  0.42030  0.88200  1.0000
  C  Sn21      1.0  0.48325  0.88902  0.39260  1.0000
  C   C95       1.0  0.46707  0.91926  0.42552  1.0000
  C  Sn22      1.0  0.43175  0.90893  0.49761  1.0000
  C  Sn23      1.0  0.41221  0.86752  0.53777  1.0000
  C   C96       1.0  0.42839  0.83731  0.50489  1.0000
  C  Sn24      1.0  0.46371  0.84761  0.43276  1.0000
  O  Te21      1.0  0.51859  0.90005  0.32048  1.0000
  O  Te22      1.0  0.41614  0.93969  0.52928  1.0000
  O  Te23      1.0  0.37685  0.85651  0.60995  1.0000
  O  Te24      1.0  0.47932  0.81688  0.40113  1.0000
  Mg  Mg11      1.0  0.36732  0.90940  0.62917  1.0000
  Mg  Mg12      1.0  0.52816  0.84715  0.30135  1.0000
