data_image0
_chemical_formula_structural       C44O6N6H24C40O6N6H24C2Sn2C2HTe2HMgC2Sn2C2HTe2HMgC2Sn2C2HTe2HMgC2Sn2C2HTe2HMgC2Sn2C2HTe2HMgC2Sn2C2HTe2HMg
_chemical_formula_sum              "C108 O12 N12 H60 Sn12 Te12 Mg6"
_cell_length_a       34.1572
_cell_length_b       34.5127
_cell_length_c       7.96891
_cell_angle_alpha    106.554
_cell_angle_beta     104.581
_cell_angle_gamma    119.756

_symmetry_space_group_name_H-M    'P1'
_space_group_IT_number       1

loop_
  _space_group_symop_operation_xyz
  'x, y, z'

loop_
  _atom_site_type_symbol
  _atom_site_label
  _atom_site_symmetry_multiplicity
  _atom_site_fract_x
  _atom_site_fract_y
  _atom_site_fract_z
  _atom_site_occupancy
  C   C1        1.0  0.30331  0.68479  0.99613  1.0000
  C   C2        1.0  0.31663  0.61752  0.97385  1.0000
  C   C3        1.0  0.38340  0.69922  0.98706  1.0000
  C   C4        1.0  0.69719  0.31281  0.99525  1.0000
  C   C5        1.0  0.68817  0.38296  0.02174  1.0000
  C   C6        1.0  0.61800  0.30143  0.99857  1.0000
  C   C7        1.0  0.35041  0.71441  0.98471  1.0000
  C   C8        1.0  0.28665  0.63603  0.98659  1.0000
  C   C9        1.0  0.36568  0.65051  0.98205  1.0000
  C   C10       1.0  0.64982  0.28486  0.00556  1.0000
  C   C11       1.0  0.71669  0.36266  0.01200  1.0000
  C   C12       1.0  0.63813  0.35082  0.00695  1.0000
  C   C13       1.0  0.36326  0.75868  0.97612  1.0000
  C   C14       1.0  0.24190  0.60539  0.99368  1.0000
  C   C15       1.0  0.39789  0.63685  0.98887  1.0000
  C   C16       1.0  0.63513  0.24050  0.01595  1.0000
  C   C17       1.0  0.76212  0.39189  0.00737  1.0000
  C   C18       1.0  0.60695  0.36571  0.99521  1.0000
  C   C19       1.0  0.59466  0.43003  0.99482  1.0000
  C   C20       1.0  0.57156  0.16409  0.01642  1.0000
  C   C21       1.0  0.41544  0.57659  0.00007  1.0000
  C   C22       1.0  0.16543  0.59055  0.01282  1.0000
  C   C23       1.0  0.85329  0.38363  0.40433  1.0000
  C   C24       1.0  0.13552  0.61616  0.49368  1.0000
  C   C25       1.0  0.89985  0.41175  0.40527  1.0000
  C   C26       1.0  0.08781  0.59058  0.48589  1.0000
  C   C27       1.0  0.54566  0.47621  0.00251  1.0000
  C   C28       1.0  0.52822  0.06862  0.00480  1.0000
  C   C29       1.0  0.47406  0.54064  0.02328  1.0000
  C   C30       1.0  0.06854  0.53527  0.99614  1.0000
  C   C31       1.0  0.52238  0.42769  0.99108  1.0000
  C   C32       1.0  0.58173  0.10511  0.08817  1.0000
  C   C33       1.0  0.49757  0.59311  0.09298  1.0000
  C   C34       1.0  0.09856  0.51818  0.01557  1.0000
  C   C35       1.0  0.54643  0.40499  0.98766  1.0000
  C   C36       1.0  0.60321  0.15214  0.09435  1.0000
  C   C37       1.0  0.46886  0.61084  0.08300  1.0000
  C   C38       1.0  0.14618  0.54520  0.02355  1.0000
  C   C39       1.0  0.52207  0.50009  0.01438  1.0000
  C   C40       1.0  0.50660  0.02058  0.99644  1.0000
  C   C41       1.0  0.97777  0.48162  0.97486  1.0000
  C   C42       1.0  0.50168  0.52094  0.02510  1.0000
  C   C43       1.0  0.48839  0.97910  0.98896  1.0000
  C   C44       1.0  0.01982  0.50684  0.98543  1.0000
  O   O1        1.0  0.27761  0.70118  0.01319  1.0000
  O   O2        1.0  0.30073  0.57421  0.96098  1.0000
  O   O3        1.0  0.42631  0.72757  0.99348  1.0000
  O   O4        1.0  0.72052  0.29381  0.97104  1.0000
  O   O5        1.0  0.70588  0.42661  0.03487  1.0000
  O   O6        1.0  0.57419  0.27407  0.98675  1.0000
  N   N1        1.0  0.40560  0.78897  0.96589  1.0000
  N   N2        1.0  0.21181  0.61865  0.01124  1.0000
  N   N3        1.0  0.38492  0.59256  0.98121  1.0000
  N   N4        1.0  0.59051  0.20982  0.01086  1.0000
  N   N5        1.0  0.78878  0.37514  0.97528  1.0000
  N   N6        1.0  0.62179  0.41028  0.00102  1.0000
  H   H1        1.0  0.33734  0.76837  0.97501  1.0000
  H   H2        1.0  0.23161  0.56936  0.98548  1.0000
  H   H3        1.0  0.43480  0.66314  0.99947  1.0000
  H   H4        1.0  0.66077  0.23032  0.02732  1.0000
  H   H5        1.0  0.77542  0.42940  0.02532  1.0000
  H   H6        1.0  0.56917  0.33984  0.97911  1.0000
  H   H7        1.0  0.42694  0.77514  0.96975  1.0000
  H   H8        1.0  0.22636  0.65397  0.01620  1.0000
  H   H9        1.0  0.34766  0.57064  0.96436  1.0000
  H   H10       1.0  0.56876  0.22308  0.99270  1.0000
  H   H11       1.0  0.77075  0.33805  0.95497  1.0000
  H   H12       1.0  0.65912  0.43076  0.01652  1.0000
  H   H13       1.0  0.83090  0.34238  0.33956  1.0000
  H   H14       1.0  0.15108  0.65043  0.47893  1.0000
  H   H15       1.0  0.91423  0.39285  0.34099  1.0000
  H   H16       1.0  0.06589  0.60495  0.46700  1.0000
  H   H17       1.0  0.48558  0.40851  0.98981  1.0000
  H   H18       1.0  0.60598  0.09581  0.15013  1.0000
  H   H19       1.0  0.53883  0.61996  0.15725  1.0000
  H   H20       1.0  0.08369  0.48335  0.02595  1.0000
  H   H21       1.0  0.52810  0.36823  0.98362  1.0000
  H   H22       1.0  0.64457  0.18019  0.16367  1.0000
  H   H23       1.0  0.48781  0.65151  0.14205  1.0000
  H   H24       1.0  0.16844  0.53119  0.03965  1.0000
  C   C45       1.0  0.30233  0.68615  0.49173  1.0000
  C   C46       1.0  0.31106  0.61573  0.46460  1.0000
  C   C47       1.0  0.38061  0.69621  0.47872  1.0000
  C   C48       1.0  0.69536  0.31352  0.49772  1.0000
  C   C49       1.0  0.68313  0.38150  0.51723  1.0000
  C   C50       1.0  0.61450  0.29924  0.49668  1.0000
  C   C51       1.0  0.35011  0.71416  0.48232  1.0000
  C   C52       1.0  0.28345  0.63689  0.48156  1.0000
  C   C53       1.0  0.36083  0.64754  0.47628  1.0000
  C   C54       1.0  0.64743  0.28396  0.50346  1.0000
  C   C55       1.0  0.71281  0.36244  0.50796  1.0000
  C   C56       1.0  0.63350  0.34858  0.50531  1.0000
  C   C57       1.0  0.36594  0.75952  0.47960  1.0000
  C   C58       1.0  0.23860  0.60813  0.49124  1.0000
  C   C59       1.0  0.39157  0.63215  0.48475  1.0000
  C   C60       1.0  0.63386  0.23976  0.51359  1.0000
  C   C61       1.0  0.75798  0.39253  0.50283  1.0000
  C   C62       1.0  0.60168  0.36267  0.49646  1.0000
  C   C63       1.0  0.83431  0.40796  0.48424  1.0000
  C   C64       1.0  0.16351  0.59710  0.51210  1.0000
  C   C65       1.0  0.61740  0.47745  0.99889  1.0000
  C   C66       1.0  0.51840  0.12877  0.93879  1.0000
  C   C67       1.0  0.39173  0.52446  0.93520  1.0000
  C   C68       1.0  0.13640  0.60852  0.99796  1.0000
  C   C69       1.0  0.59336  0.50017  0.00288  1.0000
  C   C70       1.0  0.49705  0.08169  0.93135  1.0000
  C   C71       1.0  0.42053  0.50695  0.94734  1.0000
  C   C72       1.0  0.08874  0.58136  0.98907  1.0000
  C   C73       1.0  0.92917  0.46537  0.48637  1.0000
  C   C74       1.0  0.06657  0.54514  0.49845  1.0000
  C   C75       1.0  0.90949  0.48927  0.56499  1.0000
  C   C76       1.0  0.09553  0.52690  0.52092  1.0000
  C   C77       1.0  0.86304  0.46117  0.56455  1.0000
  C   C78       1.0  0.14308  0.55230  0.52745  1.0000
  C   C79       1.0  0.50644  0.48762  0.48688  1.0000
  C   C80       1.0  0.51246  0.02195  0.51479  1.0000
  C   C81       1.0  0.97679  0.49403  0.48906  1.0000
  C   C82       1.0  0.48388  0.50619  0.48942  1.0000
  C   C83       1.0  0.49379  0.97968  0.50167  1.0000
  C   C84       1.0  0.01830  0.51842  0.49255  1.0000
  O   O7        1.0  0.27788  0.70414  0.50669  1.0000
  O   O8        1.0  0.29231  0.57122  0.44389  1.0000
  O   O9        1.0  0.42288  0.72173  0.47671  1.0000
  O   O10       1.0  0.72075  0.29661  0.48234  1.0000
  O   O11       1.0  0.69981  0.42489  0.52947  1.0000
  O   O12       1.0  0.57092  0.27102  0.48540  1.0000
  N   N7        1.0  0.40779  0.78765  0.46300  1.0000
  N   N8        1.0  0.21007  0.62347  0.50959  1.0000
  N   N9        1.0  0.37600  0.58700  0.47304  1.0000
  N   N10       1.0  0.58929  0.20770  0.50613  1.0000
  N   N11       1.0  0.78758  0.37870  0.48328  1.0000
  N   N12       1.0  0.61556  0.40742  0.50619  1.0000
  H   H25       1.0  0.34273  0.77215  0.48967  1.0000
  H   H26       1.0  0.22684  0.57181  0.48407  1.0000
  H   H27       1.0  0.42925  0.65761  0.49945  1.0000
  H   H28       1.0  0.66063  0.23102  0.52767  1.0000
  H   H29       1.0  0.76896  0.42859  0.50954  1.0000
  H   H30       1.0  0.56399  0.33600  0.47905  1.0000
  H   H31       1.0  0.42685  0.77149  0.45683  1.0000
  H   H32       1.0  0.22575  0.65860  0.51164  1.0000
  H   H33       1.0  0.33804  0.56587  0.45014  1.0000
  H   H34       1.0  0.56669  0.21996  0.48705  1.0000
  H   H35       1.0  0.77207  0.34258  0.47047  1.0000
  H   H36       1.0  0.65263  0.42868  0.52056  1.0000
  H   H37       1.0  0.65399  0.49599  0.99791  1.0000
  H   H38       1.0  0.49430  0.13847  0.87894  1.0000
  H   H39       1.0  0.35044  0.49785  0.87262  1.0000
  H   H40       1.0  0.15107  0.64322  0.98654  1.0000
  H   H41       1.0  0.61089  0.53670  0.00496  1.0000
  H   H42       1.0  0.45581  0.05417  0.86703  1.0000
  H   H43       1.0  0.40218  0.46659  0.89510  1.0000
  H   H44       1.0  0.06601  0.59492  0.97322  1.0000
  H   H45       1.0  0.93178  0.53053  0.62956  1.0000
  H   H46       1.0  0.08018  0.49269  0.53610  1.0000
  H   H47       1.0  0.84973  0.48065  0.63322  1.0000
  H   H48       1.0  0.16458  0.53756  0.54682  1.0000
  C   C85       1.0  0.50799  0.11386  0.43034  1.0000
  C   C86       1.0  0.55896  0.15609  0.51081  1.0000
  C  Sn1       1.0  0.59853  0.15406  0.59611  1.0000
  C  Sn2       1.0  0.58673  0.10885  0.60067  1.0000
  C   C87       1.0  0.53561  0.06680  0.51964  1.0000
  C   C88       1.0  0.49632  0.06925  0.43470  1.0000
  H   H49       1.0  0.47759  0.11574  0.36452  1.0000
  O  Te1       1.0  0.64924  0.19660  0.67590  1.0000
  O  Te2       1.0  0.62552  0.10578  0.68495  1.0000
  H   H50       1.0  0.95833  0.03654  0.37229  1.0000
  Mg  Mg1       1.0  0.68870  0.17383  0.77455  1.0000
  C   C89       1.0  0.49491  0.89575  0.45540  1.0000
  C   C90       1.0  0.47665  0.92427  0.46762  1.0000
  C  Sn3       1.0  0.43233  0.90750  0.48723  1.0000
  C  Sn4       1.0  0.40589  0.86130  0.49475  1.0000
  C   C91       1.0  0.42450  0.83307  0.48255  1.0000
  C   C92       1.0  0.46887  0.85020  0.46289  1.0000
  H   H51       1.0  0.52926  0.90902  0.44030  1.0000
  O  Te3       1.0  0.41459  0.93644  0.49916  1.0000
  O  Te4       1.0  0.36151  0.84366  0.51436  1.0000
  H   H52       1.0  0.48302  0.82813  0.45356  1.0000
  Mg  Mg2       1.0  0.35243  0.89653  0.52480  1.0000
  C   C93       1.0  0.87807  0.46770  0.06646  1.0000
  C   C94       1.0  0.96219  0.54072  0.98363  1.0000
  C  Sn5       1.0  0.97047  0.50631  0.89405  1.0000
  C  Sn6       1.0  0.01729  0.52497  0.88756  1.0000
  C   C95       1.0  0.05466  0.57761  0.97097  1.0000
  C   C96       1.0  0.92427  0.48613  0.06018  1.0000
  H   H53       1.0  0.87136  0.49408  0.13558  1.0000
  O  Te5       1.0  0.93251  0.45393  0.81195  1.0000
  O  Te6       1.0  0.02658  0.49142  0.79901  1.0000
  H   H54       1.0  0.95338  0.52682  0.12442  1.0000
  Mg  Mg3       1.0  0.96310  0.42340  0.70758  1.0000
  C   C97       1.0  0.40021  0.86986  0.99783  1.0000
  C   C98       1.0  0.41416  0.83786  0.95486  1.0000
  C  Sn7       1.0  0.45768  0.85410  0.92965  1.0000
  C  Sn8       1.0  0.48773  0.90331  0.94794  1.0000
  C   C99       1.0  0.47348  0.93506  0.99109  1.0000
  C   C100      1.0  0.30814  0.79285  0.01596  1.0000
  H   H55       1.0  0.24477  0.73143  0.01718  1.0000
  O  Te7       1.0  0.47106  0.82163  0.88671  1.0000
  O  Te8       1.0  0.53143  0.92051  0.92355  1.0000
  H   H56       1.0  0.29737  0.81765  0.04936  1.0000
  Mg  Mg4       1.0  0.53396  0.86232  0.86647  1.0000
  C   C101      1.0  0.51201  0.40804  0.47860  1.0000
  C   C102      1.0  0.52746  0.45525  0.49333  1.0000
  C  Sn9       1.0  0.57416  0.48797  0.50050  1.0000
  C  Sn10      1.0  0.60588  0.47304  0.49271  1.0000
  C   C103      1.0  0.59006  0.42572  0.47784  1.0000
  C   C104      1.0  0.54326  0.39328  0.47083  1.0000
  H   H57       1.0  0.47579  0.38293  0.47306  1.0000
  O  Te9       1.0  0.58903  0.53500  0.51529  1.0000
  O  Te10      1.0  0.65273  0.50499  0.49955  1.0000
  H   H58       1.0  0.53129  0.35672  0.45930  1.0000
  Mg  Mg5       1.0  0.65628  0.56530  0.51987  1.0000
  C   C105      1.0  0.39140  0.49316  0.40279  1.0000
  C   C106      1.0  0.44359  0.51790  0.46594  1.0000
  C  Sn11      1.0  0.47771  0.57109  0.55357  1.0000
  C  Sn12      1.0  0.45913  0.59995  0.57829  1.0000
  C   C107      1.0  0.40685  0.57485  0.51474  1.0000
  C   C108      1.0  0.37304  0.52161  0.42718  1.0000
  H   H59       1.0  0.36524  0.45197  0.33513  1.0000
  O  Te11      1.0  0.52973  0.59519  0.61576  1.0000
  O  Te12      1.0  0.49239  0.65316  0.66547  1.0000
  H   H60       1.0  0.33264  0.50247  0.37842  1.0000
  Mg  Mg6       1.0  0.55996  0.66850  0.72623  1.0000
