data_image0
_chemical_formula_structural       C24O6N6H12C24O6N6H12C2Sn2C2HTe2HMgC2Sn2C2HTe2HMgC2Sn2C2HTe2HMgC2Sn2C2HTe2HMgC2Sn2C2HTe2HMgC2Sn2C2HTe2HMgC2Sn2C2HTe2HMgC2Sn2C2HTe2HMgC2Sn2C2HTe2HMgC2Sn2C2HTe2HMgC2Sn2C2HTe2HMgC2Sn2C2HTe2HMg
_chemical_formula_sum              "C96 O12 N12 H48 Sn24 Te24 Mg12"
_cell_length_a       34.1572
_cell_length_b       34.5127
_cell_length_c       7.96891
_cell_angle_alpha    106.554
_cell_angle_beta     104.581
_cell_angle_gamma    119.756

_symmetry_space_group_name_H-M    'P1'
_space_group_IT_number       1

loop_
  _space_group_symop_operation_xyz
  'x, y, z'

loop_
  _atom_site_type_symbol
  _atom_site_label
  _atom_site_symmetry_multiplicity
  _atom_site_fract_x
  _atom_site_fract_y
  _atom_site_fract_z
  _atom_site_occupancy
  C   C1        1.0  0.30331  0.68479  0.99613  1.0000
  C   C2        1.0  0.31663  0.61752  0.97385  1.0000
  C   C3        1.0  0.38340  0.69922  0.98706  1.0000
  C   C4        1.0  0.69719  0.31281  0.99525  1.0000
  C   C5        1.0  0.68817  0.38296  0.02174  1.0000
  C   C6        1.0  0.61800  0.30143  0.99857  1.0000
  C   C7        1.0  0.35041  0.71441  0.98471  1.0000
  C   C8        1.0  0.28665  0.63603  0.98659  1.0000
  C   C9        1.0  0.36568  0.65051  0.98205  1.0000
  C   C10       1.0  0.64982  0.28486  0.00556  1.0000
  C   C11       1.0  0.71669  0.36266  0.01200  1.0000
  C   C12       1.0  0.63813  0.35082  0.00695  1.0000
  C   C13       1.0  0.36326  0.75868  0.97612  1.0000
  C   C14       1.0  0.24190  0.60539  0.99368  1.0000
  C   C15       1.0  0.39789  0.63685  0.98887  1.0000
  C   C16       1.0  0.63513  0.24050  0.01595  1.0000
  C   C17       1.0  0.76212  0.39189  0.00737  1.0000
  C   C18       1.0  0.60695  0.36571  0.99521  1.0000
  C   C19       1.0  0.52207  0.50009  0.01438  1.0000
  C   C20       1.0  0.50660  0.02058  0.99644  1.0000
  C   C21       1.0  0.97777  0.48162  0.97486  1.0000
  C   C22       1.0  0.50168  0.52094  0.02510  1.0000
  C   C23       1.0  0.48839  0.97910  0.98896  1.0000
  C   C24       1.0  0.01982  0.50684  0.98543  1.0000
  O   O1        1.0  0.27761  0.70118  0.01319  1.0000
  O   O2        1.0  0.30073  0.57421  0.96098  1.0000
  O   O3        1.0  0.42631  0.72757  0.99348  1.0000
  O   O4        1.0  0.72052  0.29381  0.97104  1.0000
  O   O5        1.0  0.70588  0.42661  0.03487  1.0000
  O   O6        1.0  0.57419  0.27407  0.98675  1.0000
  N   N1        1.0  0.40560  0.78897  0.96589  1.0000
  N   N2        1.0  0.21181  0.61865  0.01124  1.0000
  N   N3        1.0  0.38492  0.59256  0.98121  1.0000
  N   N4        1.0  0.59051  0.20982  0.01086  1.0000
  N   N5        1.0  0.78878  0.37514  0.97528  1.0000
  N   N6        1.0  0.62179  0.41028  0.00102  1.0000
  H   H1        1.0  0.33734  0.76837  0.97501  1.0000
  H   H2        1.0  0.23161  0.56936  0.98548  1.0000
  H   H3        1.0  0.43480  0.66314  0.99947  1.0000
  H   H4        1.0  0.66077  0.23032  0.02732  1.0000
  H   H5        1.0  0.77542  0.42940  0.02532  1.0000
  H   H6        1.0  0.56917  0.33984  0.97911  1.0000
  H   H7        1.0  0.42694  0.77514  0.96975  1.0000
  H   H8        1.0  0.22636  0.65397  0.01620  1.0000
  H   H9        1.0  0.34766  0.57064  0.96436  1.0000
  H   H10       1.0  0.56876  0.22308  0.99270  1.0000
  H   H11       1.0  0.77075  0.33805  0.95497  1.0000
  H   H12       1.0  0.65912  0.43076  0.01652  1.0000
  C   C25       1.0  0.30233  0.68615  0.49173  1.0000
  C   C26       1.0  0.31106  0.61573  0.46460  1.0000
  C   C27       1.0  0.38061  0.69621  0.47872  1.0000
  C   C28       1.0  0.69536  0.31352  0.49772  1.0000
  C   C29       1.0  0.68313  0.38150  0.51723  1.0000
  C   C30       1.0  0.61450  0.29924  0.49668  1.0000
  C   C31       1.0  0.35011  0.71416  0.48232  1.0000
  C   C32       1.0  0.28345  0.63689  0.48156  1.0000
  C   C33       1.0  0.36083  0.64754  0.47628  1.0000
  C   C34       1.0  0.64743  0.28396  0.50346  1.0000
  C   C35       1.0  0.71281  0.36244  0.50796  1.0000
  C   C36       1.0  0.63350  0.34858  0.50531  1.0000
  C   C37       1.0  0.36594  0.75952  0.47960  1.0000
  C   C38       1.0  0.23860  0.60813  0.49124  1.0000
  C   C39       1.0  0.39157  0.63215  0.48475  1.0000
  C   C40       1.0  0.63386  0.23976  0.51359  1.0000
  C   C41       1.0  0.75798  0.39253  0.50283  1.0000
  C   C42       1.0  0.60168  0.36267  0.49646  1.0000
  C   C43       1.0  0.50644  0.48762  0.48688  1.0000
  C   C44       1.0  0.51246  0.02195  0.51479  1.0000
  C   C45       1.0  0.97679  0.49403  0.48906  1.0000
  C   C46       1.0  0.48388  0.50619  0.48942  1.0000
  C   C47       1.0  0.49379  0.97968  0.50167  1.0000
  C   C48       1.0  0.01830  0.51842  0.49255  1.0000
  O   O7        1.0  0.27788  0.70414  0.50669  1.0000
  O   O8        1.0  0.29231  0.57122  0.44389  1.0000
  O   O9        1.0  0.42288  0.72173  0.47671  1.0000
  O   O10       1.0  0.72075  0.29661  0.48234  1.0000
  O   O11       1.0  0.69981  0.42489  0.52947  1.0000
  O   O12       1.0  0.57092  0.27102  0.48540  1.0000
  N   N7        1.0  0.40779  0.78765  0.46300  1.0000
  N   N8        1.0  0.21007  0.62347  0.50959  1.0000
  N   N9        1.0  0.37600  0.58700  0.47304  1.0000
  N   N10       1.0  0.58929  0.20770  0.50613  1.0000
  N   N11       1.0  0.78758  0.37870  0.48328  1.0000
  N   N12       1.0  0.61556  0.40742  0.50619  1.0000
  H   H13       1.0  0.34273  0.77215  0.48967  1.0000
  H   H14       1.0  0.22684  0.57181  0.48407  1.0000
  H   H15       1.0  0.42925  0.65761  0.49945  1.0000
  H   H16       1.0  0.66063  0.23102  0.52767  1.0000
  H   H17       1.0  0.76896  0.42859  0.50954  1.0000
  H   H18       1.0  0.56399  0.33600  0.47905  1.0000
  H   H19       1.0  0.42685  0.77149  0.45683  1.0000
  H   H20       1.0  0.22575  0.65860  0.51164  1.0000
  H   H21       1.0  0.33804  0.56587  0.45014  1.0000
  H   H22       1.0  0.56669  0.21996  0.48705  1.0000
  H   H23       1.0  0.77207  0.34258  0.47047  1.0000
  H   H24       1.0  0.65263  0.42868  0.52056  1.0000
  C   C49       1.0  0.59360  0.49479  0.50128  1.0000
  C   C50       1.0  0.54444  0.47334  0.48063  1.0000
  C  Sn1       1.0  0.51620  0.42651  0.47669  1.0000
  C  Sn2       1.0  0.53770  0.40077  0.49382  1.0000
  C   C51       1.0  0.58693  0.42256  0.51456  1.0000
  C   C52       1.0  0.61484  0.46943  0.51826  1.0000
  H   H25       1.0  0.61521  0.53107  0.50425  1.0000
  O  Te1       1.0  0.46713  0.40562  0.45589  1.0000
  O  Te2       1.0  0.51032  0.35393  0.49041  1.0000
  H   H26       1.0  0.65292  0.48604  0.53438  1.0000
  Mg  Mg1       1.0  0.44488  0.34092  0.45921  1.0000
  C   C53       1.0  0.49775  0.09007  0.43971  1.0000
  C   C54       1.0  0.52334  0.07094  0.49715  1.0000
  C  Sn3       1.0  0.57656  0.10098  0.57898  1.0000
  C  Sn4       1.0  0.60458  0.15107  0.60363  1.0000
  C   C55       1.0  0.57862  0.16987  0.54583  1.0000
  C   C56       1.0  0.52535  0.13948  0.46404  1.0000
  H   H27       1.0  0.45654  0.06657  0.37652  1.0000
  O  Te3       1.0  0.60153  0.08127  0.63551  1.0000
  O  Te4       1.0  0.65780  0.18191  0.68509  1.0000
  H   H28       1.0  0.50555  0.15431  0.41970  1.0000
  Mg  Mg2       1.0  0.67450  0.13797  0.73938  1.0000
  C   C57       1.0  0.86248  0.38366  0.38670  1.0000
  C   C58       1.0  0.83927  0.40083  0.47227  1.0000
  C  Sn5       1.0  0.86126  0.45277  0.56204  1.0000
  C  Sn6       1.0  0.90733  0.48809  0.56594  1.0000
  C   C59       1.0  0.93023  0.47052  0.47980  1.0000
  C   C60       1.0  0.90791  0.41846  0.39042  1.0000
  H   H29       1.0  0.84519  0.34337  0.31745  1.0000
  O  Te5       1.0  0.83757  0.46928  0.64689  1.0000
  O  Te6       1.0  0.93012  0.54021  0.65462  1.0000
  H   H30       1.0  0.92587  0.40518  0.32407  1.0000
  Mg  Mg3       1.0  0.88334  0.54411  0.75031  1.0000
  C   C61       1.0  0.47029  0.60306  0.59068  1.0000
  C   C62       1.0  0.41756  0.57781  0.50434  1.0000
  C  Sn7       1.0  0.38339  0.52457  0.41427  1.0000
  C  Sn8       1.0  0.40246  0.49617  0.41085  1.0000
  C   C63       1.0  0.45528  0.52179  0.49776  1.0000
  C   C64       1.0  0.48914  0.57508  0.58744  1.0000
  H   H31       1.0  0.49649  0.64429  0.66016  1.0000
  O  Te7       1.0  0.33082  0.49995  0.32865  1.0000
  O  Te8       1.0  0.36916  0.44293  0.32188  1.0000
  H   H32       1.0  0.52996  0.59462  0.65439  1.0000
  Mg  Mg4       1.0  0.30076  0.42679  0.22511  1.0000
  C   C65       1.0  0.40420  0.86944  0.49953  1.0000
  C   C66       1.0  0.41777  0.83716  0.45453  1.0000
  C  Sn9       1.0  0.46152  0.85348  0.43097  1.0000
  C  Sn10      1.0  0.49219  0.90306  0.45301  1.0000
  C   C67       1.0  0.47831  0.93508  0.49819  1.0000
  C   C68       1.0  0.43444  0.91836  0.52138  1.0000
  H   H33       1.0  0.37027  0.85651  0.51759  1.0000
  O  Te9       1.0  0.47451  0.82074  0.38595  1.0000
  O  Te10      1.0  0.53613  0.92035  0.43034  1.0000
  H   H34       1.0  0.42396  0.94337  0.55635  1.0000
  Mg  Mg5       1.0  0.53796  0.86168  0.36927  1.0000
  C   C69       1.0  0.10642  0.52685  0.52010  1.0000
  C   C70       1.0  0.07452  0.54113  0.51452  1.0000
  C  Sn11      1.0  0.08718  0.58456  0.49771  1.0000
  C  Sn12      1.0  0.13264  0.61417  0.48627  1.0000
  C   C71       1.0  0.16428  0.59954  0.49184  1.0000
  C   C72       1.0  0.15125  0.55602  0.50874  1.0000
  H   H35       1.0  0.09633  0.49316  0.53308  1.0000
  O  Te11      1.0  0.05489  0.59829  0.49242  1.0000
  O  Te12      1.0  0.14621  0.65774  0.46933  1.0000
  H   H36       1.0  0.17594  0.54496  0.51293  1.0000
  Mg  Mg6       1.0  0.08982  0.66089  0.46817  1.0000
  C   C73       1.0  0.60516  0.50137  0.00791  1.0000
  C   C74       1.0  0.67834  0.60761  0.99153  1.0000
  C  Sn13      1.0  0.64834  0.56056  0.98403  1.0000
  C  Sn14      1.0  0.66739  0.53244  0.99318  1.0000
  C   C75       1.0  0.59429  0.42656  0.00970  1.0000
  C   C76       1.0  0.62398  0.47367  0.01702  1.0000
  H   H37       1.0  0.62815  0.53783  0.01369  1.0000
  O  Te13      1.0  0.59994  0.54180  0.96758  1.0000
  O  Te14      1.0  0.63822  0.48534  0.98606  1.0000
  H   H38       1.0  0.66156  0.48864  0.02983  1.0000
  Mg  Mg7       1.0  0.57460  0.47579  0.96325  1.0000
  C   C77       1.0  0.59339  0.11726  0.09806  1.0000
  C   C78       1.0  0.54227  0.07839  0.03560  1.0000
  C  Sn15      1.0  0.62584  0.20804  0.95316  1.0000
  C  Sn16      1.0  0.63925  0.25189  0.93302  1.0000
  C   C79       1.0  0.69050  0.29055  0.99584  1.0000
  C   C80       1.0  0.60665  0.16051  0.07818  1.0000
  H   H39       1.0  0.62267  0.11379  0.16168  1.0000
  O  Te15      1.0  0.57496  0.16887  0.89159  1.0000
  O  Te16      1.0  0.60191  0.25695  0.85107  1.0000
  H   H40       1.0  0.64622  0.19060  0.12641  1.0000
  Mg  Mg8       1.0  0.53785  0.19335  0.78908  1.0000
  C   C81       1.0  0.87807  0.46770  0.06646  1.0000
  C   C82       1.0  0.96219  0.54072  0.98363  1.0000
  C  Sn17      1.0  0.97047  0.50631  0.89405  1.0000
  C  Sn18      1.0  0.01729  0.52497  0.88756  1.0000
  C   C83       1.0  0.05466  0.57761  0.97097  1.0000
  C   C84       1.0  0.92427  0.48613  0.06018  1.0000
  H   H41       1.0  0.87136  0.49408  0.13558  1.0000
  O  Te17      1.0  0.93251  0.45393  0.81195  1.0000
  O  Te18      1.0  0.02658  0.49142  0.79901  1.0000
  H   H42       1.0  0.95338  0.52682  0.12442  1.0000
  Mg  Mg9       1.0  0.96310  0.42340  0.70758  1.0000
  C   C85       1.0  0.40784  0.50417  0.93707  1.0000
  C   C86       1.0  0.46021  0.53108  0.99868  1.0000
  C  Sn19      1.0  0.37013  0.45844  0.07474  1.0000
  C  Sn20      1.0  0.34880  0.48482  0.08926  1.0000
  C   C87       1.0  0.29636  0.45755  0.02736  1.0000
  C   C88       1.0  0.38678  0.53015  0.95141  1.0000
  H   H43       1.0  0.38363  0.46319  0.87840  1.0000
  O  Te19      1.0  0.42238  0.48473  0.13555  1.0000
  O  Te20      1.0  0.37953  0.53771  0.16479  1.0000
  H   H44       1.0  0.34623  0.50933  0.90384  1.0000
  Mg  Mg10      1.0  0.44853  0.55663  0.22830  1.0000
  C   C89       1.0  0.40021  0.86986  0.99783  1.0000
  C   C90       1.0  0.41416  0.83786  0.95486  1.0000
  C  Sn21      1.0  0.45768  0.85410  0.92965  1.0000
  C  Sn22      1.0  0.48773  0.90331  0.94794  1.0000
  C   C91       1.0  0.47348  0.93506  0.99109  1.0000
  C   C92       1.0  0.30814  0.79285  0.01596  1.0000
  H   H45       1.0  0.24477  0.73143  0.01718  1.0000
  O  Te21      1.0  0.47106  0.82163  0.88671  1.0000
  O  Te22      1.0  0.53143  0.92051  0.92355  1.0000
  H   H46       1.0  0.29737  0.81765  0.04936  1.0000
  Mg  Mg11      1.0  0.53396  0.86232  0.86647  1.0000
  C   C93       1.0  0.10964  0.51858  0.01445  1.0000
  C   C94       1.0  0.07674  0.53151  0.01156  1.0000
  C  Sn23      1.0  0.21002  0.70083  0.99985  1.0000
  C  Sn24      1.0  0.25539  0.73215  0.99083  1.0000
  C   C95       1.0  0.28804  0.71887  0.99367  1.0000
  C   C96       1.0  0.15440  0.54944  0.00548  1.0000
  H   H47       1.0  0.10039  0.48463  0.02348  1.0000
  O  Te23      1.0  0.17673  0.71319  0.99719  1.0000
  O  Te24      1.0  0.26788  0.77609  0.97899  1.0000
  H   H48       1.0  0.17986  0.53942  0.00759  1.0000
  Mg  Mg12      1.0  0.21039  0.77693  0.97982  1.0000
