data_image0
_chemical_formula_structural       C48N8C8O8H16C8H4C48N8C8O8H16C8H4SnCSn2CSnTe4Mg2SnCSn2CSnTe4Mg2SnCSn2CSnTe4Mg2SnCSn2CSnTe4Mg2SnCSn2CSnTe4Mg2SnCSn2CSnTe4Mg2SnCSn2CSnTe4Mg2SnCSn2CSnTe4Mg2SnCSn2CSnTe4Mg2SnCSn2CSnTe4Mg2SnCSn2CSnTe4Mg2SnCSn2CSnTe4Mg2SnCSn2CSnTe4Mg2SnCSn2CSnTe4Mg2SnCSn2CSnTe4Mg2SnCSn2CSnTe4Mg2
_chemical_formula_sum              "C160 N16 O16 H40 Sn64 Te64 Mg32"
_cell_length_a       34.1108
_cell_length_b       31.8982
_cell_length_c       8.00501
_cell_angle_alpha    89.82
_cell_angle_beta     90.0427
_cell_angle_gamma    90.0009

_symmetry_space_group_name_H-M    'P1'
_space_group_IT_number       1

loop_
  _space_group_symop_operation_xyz
  'x, y, z'

loop_
  _atom_site_type_symbol
  _atom_site_label
  _atom_site_symmetry_multiplicity
  _atom_site_fract_x
  _atom_site_fract_y
  _atom_site_fract_z
  _atom_site_occupancy
  C   C1        1.0  0.46525  0.95550  0.12615  1.0000
  C   C2        1.0  0.53899  0.04465  0.14189  1.0000
  C   C3        1.0  0.03471  0.45560  0.37913  1.0000
  C   C4        1.0  0.96139  0.54503  0.38572  1.0000
  C   C5        1.0  0.03431  0.54533  0.39402  1.0000
  C   C6        1.0  0.96180  0.45509  0.37847  1.0000
  C   C7        1.0  0.46609  0.04515  0.13205  1.0000
  C   C8        1.0  0.53817  0.95467  0.13804  1.0000
  C   C9        1.0  0.43062  0.02196  0.15292  1.0000
  C   C10       1.0  0.57322  0.97776  0.17050  1.0000
  C   C11       1.0  0.06961  0.52229  0.36724  1.0000
  C   C12       1.0  0.92666  0.47861  0.35291  1.0000
  C   C13       1.0  0.06975  0.47952  0.35834  1.0000
  C   C14       1.0  0.92653  0.52148  0.35518  1.0000
  C   C15       1.0  0.43018  0.97916  0.14940  1.0000
  C   C16       1.0  0.57363  0.02065  0.17252  1.0000
  C   C17       1.0  0.46682  0.08950  0.11320  1.0000
  C   C18       1.0  0.53753  0.91038  0.11656  1.0000
  C   C19       1.0  0.03380  0.58962  0.41526  1.0000
  C   C20       1.0  0.96240  0.41051  0.39057  1.0000
  C   C21       1.0  0.03470  0.41103  0.38926  1.0000
  C   C22       1.0  0.96146  0.58938  0.40498  1.0000
  C   C23       1.0  0.46520  0.91128  0.10327  1.0000
  C   C24       1.0  0.53916  0.08908  0.12258  1.0000
  C   C25       1.0  0.33059  0.19445  0.04972  1.0000
  C   C26       1.0  0.67010  0.80001  0.05600  1.0000
  C   C27       1.0  0.16962  0.69636  0.45983  1.0000
  C   C28       1.0  0.82771  0.30236  0.43785  1.0000
  C   C29       1.0  0.17213  0.30696  0.42930  1.0000
  C   C30       1.0  0.82532  0.69611  0.42426  1.0000
  C   C31       1.0  0.32896  0.80599  0.03851  1.0000
  C   C32       1.0  0.67294  0.19819  0.05661  1.0000
  C   C33       1.0  0.78679  0.25139  0.42454  1.0000
  C   C34       1.0  0.21052  0.74722  0.44097  1.0000
  C   C35       1.0  0.70958  0.74770  0.05399  1.0000
  C   C36       1.0  0.29029  0.24592  0.05555  1.0000
  C   C37       1.0  0.71321  0.24984  0.06335  1.0000
  C   C38       1.0  0.28821  0.75522  0.06553  1.0000
  C   C39       1.0  0.78452  0.74714  0.40676  1.0000
  C   C40       1.0  0.21303  0.25603  0.42228  1.0000
  C   C41       1.0  0.76729  0.21335  0.39445  1.0000
  C   C42       1.0  0.22989  0.78522  0.40809  1.0000
  C   C43       1.0  0.72838  0.70885  0.07447  1.0000
  C   C44       1.0  0.27141  0.28441  0.08171  1.0000
  C   C45       1.0  0.73269  0.28793  0.09316  1.0000
  C   C46       1.0  0.26888  0.71786  0.10849  1.0000
  C   C47       1.0  0.76496  0.78506  0.37349  1.0000
  C   C48       1.0  0.23228  0.21776  0.39613  1.0000
  N   N1        1.0  0.32733  0.23293  0.10477  1.0000
  N   N2        1.0  0.67263  0.76081  0.10474  1.0000
  N   N3        1.0  0.17282  0.73448  0.39971  1.0000
  N   N4        1.0  0.82392  0.26453  0.37620  1.0000
  N   N5        1.0  0.17616  0.26896  0.37003  1.0000
  N   N6        1.0  0.82130  0.73334  0.35641  1.0000
  N   N7        1.0  0.32526  0.76915  0.10993  1.0000
  N   N8        1.0  0.67641  0.23639  0.11491  1.0000
  C   C49       1.0  0.26802  0.78617  0.46777  1.0000
  C   C50       1.0  0.73015  0.21164  0.46413  1.0000
  C   C51       1.0  0.23409  0.28591  0.01398  1.0000
  C   C52       1.0  0.76599  0.70803  0.00920  1.0000
  C   C53       1.0  0.23164  0.71492  0.04069  1.0000
  C   C54       1.0  0.76993  0.28953  0.02430  1.0000
  C   C55       1.0  0.26922  0.21623  0.46769  1.0000
  C   C56       1.0  0.72843  0.78764  0.44857  1.0000
  O   O1        1.0  0.79199  0.67479  0.01096  1.0000
  O   O2        1.0  0.20824  0.31917  0.01837  1.0000
  O   O3        1.0  0.70395  0.17856  0.45909  1.0000
  O   O4        1.0  0.29439  0.81898  0.45739  1.0000
  O   O5        1.0  0.70235  0.82090  0.44222  1.0000
  O   O6        1.0  0.29531  0.18313  0.46450  1.0000
  O   O7        1.0  0.79659  0.32223  0.03244  1.0000
  O   O8        1.0  0.20530  0.68219  0.05808  1.0000
  H   H1        1.0  0.40343  0.03898  0.17202  1.0000
  H   H2        1.0  0.60019  0.96061  0.19380  1.0000
  H   H3        1.0  0.09689  0.53940  0.35155  1.0000
  H   H4        1.0  0.89952  0.46182  0.32924  1.0000
  H   H5        1.0  0.09702  0.46311  0.33378  1.0000
  H   H6        1.0  0.89936  0.53832  0.33241  1.0000
  H   H7        1.0  0.40266  0.96251  0.16569  1.0000
  H   H8        1.0  0.60089  0.03698  0.19846  1.0000
  H   H9        1.0  0.78022  0.18828  0.32160  1.0000
  H   H10       1.0  0.21611  0.81101  0.34153  1.0000
  H   H11       1.0  0.71474  0.68253  0.13799  1.0000
  H   H12       1.0  0.28485  0.30981  0.15131  1.0000
  H   H13       1.0  0.71978  0.31308  0.16581  1.0000
  H   H14       1.0  0.28204  0.69428  0.18889  1.0000
  H   H15       1.0  0.77746  0.80959  0.29595  1.0000
  H   H16       1.0  0.21917  0.19237  0.32553  1.0000
  C   C57       1.0  0.50313  0.10973  0.10592  1.0000
  C   C58       1.0  0.50127  0.89046  0.09733  1.0000
  C   C59       1.0  0.99745  0.60993  0.42211  1.0000
  C   C60       1.0  0.99871  0.39018  0.39733  1.0000
  C   C61       1.0  0.50194  0.97748  0.13384  1.0000
  C   C62       1.0  0.50237  0.02248  0.13613  1.0000
  C   C63       1.0  0.99814  0.47776  0.38266  1.0000
  C   C64       1.0  0.99793  0.52276  0.38857  1.0000
  H   H17       1.0  0.50335  0.14319  0.07980  1.0000
  H   H18       1.0  0.50122  0.85706  0.07099  1.0000
  H   H19       1.0  0.99716  0.64348  0.44561  1.0000
  H   H20       1.0  0.99896  0.35641  0.41583  1.0000
  C   C65       1.0  0.46168  0.95559  0.63136  1.0000
  C   C66       1.0  0.53452  0.04520  0.64974  1.0000
  C   C67       1.0  0.03920  0.45560  0.87435  1.0000
  C   C68       1.0  0.96517  0.54445  0.87532  1.0000
  C   C69       1.0  0.03793  0.54551  0.88731  1.0000
  C   C70       1.0  0.96631  0.45482  0.86958  1.0000
  C   C71       1.0  0.46167  0.04567  0.63574  1.0000
  C   C72       1.0  0.53449  0.95591  0.64657  1.0000
  C   C73       1.0  0.42635  0.02198  0.65481  1.0000
  C   C74       1.0  0.56923  0.97903  0.68371  1.0000
  C   C75       1.0  0.07341  0.52278  0.85941  1.0000
  C   C76       1.0  0.93124  0.47793  0.83748  1.0000
  C   C77       1.0  0.07395  0.47997  0.85163  1.0000
  C   C78       1.0  0.93072  0.52072  0.83922  1.0000
  C   C79       1.0  0.42634  0.97908  0.65212  1.0000
  C   C80       1.0  0.56926  0.02184  0.68512  1.0000
  C   C81       1.0  0.46248  0.09009  0.61651  1.0000
  C   C82       1.0  0.53474  0.91189  0.62152  1.0000
  C   C83       1.0  0.03680  0.58964  0.91213  1.0000
  C   C84       1.0  0.96687  0.41048  0.88853  1.0000
  C   C85       1.0  0.03929  0.41106  0.88918  1.0000
  C   C86       1.0  0.96455  0.58861  0.89920  1.0000
  C   C87       1.0  0.46250  0.91129  0.60976  1.0000
  C   C88       1.0  0.53477  0.08937  0.62680  1.0000
  C   C89       1.0  0.32795  0.19789  0.55116  1.0000
  C   C90       1.0  0.67090  0.80764  0.54097  1.0000
  C   C91       1.0  0.17276  0.69517  0.96552  1.0000
  C   C92       1.0  0.82909  0.30737  0.94408  1.0000
  C   C93       1.0  0.17510  0.30443  0.93499  1.0000
  C   C94       1.0  0.82561  0.69075  0.93406  1.0000
  C   C95       1.0  0.32799  0.80377  0.53700  1.0000
  C   C96       1.0  0.67185  0.19276  0.55160  1.0000
  C   C97       1.0  0.78779  0.25690  0.93107  1.0000
  C   C98       1.0  0.21362  0.74573  0.93777  1.0000
  C   C99       1.0  0.71114  0.75607  0.54983  1.0000
  C   C100      1.0  0.28733  0.24917  0.55826  1.0000
  C   C101      1.0  0.71225  0.24422  0.55728  1.0000
  C   C102      1.0  0.28706  0.75292  0.55377  1.0000
  C   C103      1.0  0.78510  0.74210  0.92886  1.0000
  C   C104      1.0  0.21536  0.25287  0.92635  1.0000
  C   C105      1.0  0.76825  0.21899  0.90049  1.0000
  C   C106      1.0  0.23297  0.78303  0.89442  1.0000
  C   C107      1.0  0.73060  0.71823  0.58311  1.0000
  C   C108      1.0  0.26787  0.28734  0.58581  1.0000
  C   C109      1.0  0.73154  0.28238  0.58620  1.0000
  C   C110      1.0  0.26765  0.71502  0.58742  1.0000
  C   C111      1.0  0.76631  0.78089  0.90814  1.0000
  C   C112      1.0  0.23428  0.21434  0.90049  1.0000
  N   N9        1.0  0.32435  0.23615  0.60865  1.0000
  N   N10       1.0  0.67496  0.77008  0.60529  1.0000
  N   N11       1.0  0.17659  0.73185  0.89310  1.0000
  N   N12       1.0  0.82493  0.26963  0.88247  1.0000
  N   N13       1.0  0.17822  0.26606  0.87826  1.0000
  N   N14       1.0  0.82254  0.72970  0.88312  1.0000
  N   N15       1.0  0.32476  0.76547  0.59513  1.0000
  N   N16       1.0  0.67567  0.23084  0.61050  1.0000
  C   C113      1.0  0.27013  0.78606  0.96296  1.0000
  C   C114      1.0  0.73125  0.21721  0.97079  1.0000
  C   C115      1.0  0.23085  0.28885  0.51458  1.0000
  C   C116      1.0  0.76703  0.71566  0.50784  1.0000
  C   C117      1.0  0.22954  0.71410  0.52790  1.0000
  C   C118      1.0  0.76869  0.28398  0.51705  1.0000
  C   C119      1.0  0.27166  0.21272  0.96826  1.0000
  C   C120      1.0  0.72873  0.78163  0.97294  1.0000
  O   O9        1.0  0.79321  0.68276  0.51795  1.0000
  O   O10       1.0  0.20444  0.32170  0.51875  1.0000
  O   O11       1.0  0.70538  0.18387  0.96690  1.0000
  O   O12       1.0  0.29640  0.81884  0.94583  1.0000
  O   O13       1.0  0.70336  0.81526  0.97468  1.0000
  O   O14       1.0  0.29758  0.17933  0.96592  1.0000
  O   O15       1.0  0.79505  0.31678  0.52540  1.0000
  O   O16       1.0  0.20308  0.68143  0.54111  1.0000
  H   H21       1.0  0.39889  0.03863  0.67263  1.0000
  H   H22       1.0  0.59597  0.96190  0.71153  1.0000
  H   H23       1.0  0.10051  0.54014  0.84251  1.0000
  H   H24       1.0  0.90450  0.46080  0.80973  1.0000
  H   H25       1.0  0.10139  0.46396  0.82611  1.0000
  H   H26       1.0  0.90365  0.53728  0.81156  1.0000
  H   H27       1.0  0.39886  0.96224  0.66707  1.0000
  H   H28       1.0  0.59599  0.03884  0.71410  1.0000
  H   H29       1.0  0.78110  0.19390  0.82741  1.0000
  H   H30       1.0  0.21987  0.80637  0.81263  1.0000
  H   H31       1.0  0.71839  0.69402  0.66316  1.0000
  H   H32       1.0  0.28086  0.31262  0.65749  1.0000
  H   H33       1.0  0.71845  0.30745  0.65863  1.0000
  H   H34       1.0  0.28126  0.68944  0.65577  1.0000
  H   H35       1.0  0.78013  0.80748  0.84718  1.0000
  H   H36       1.0  0.22060  0.18882  0.83268  1.0000
  C   C121      1.0  0.49895  0.11023  0.60976  1.0000
  C   C122      1.0  0.49893  0.89112  0.60297  1.0000
  C   C123      1.0  0.00024  0.60957  0.91960  1.0000
  C   C124      1.0  0.00317  0.39026  0.89918  1.0000
  C   C125      1.0  0.49800  0.97814  0.64102  1.0000
  C   C126      1.0  0.49801  0.02307  0.64268  1.0000
  C   C127      1.0  0.00250  0.47759  0.87475  1.0000
  C   C128      1.0  0.00187  0.52254  0.87955  1.0000
  H   H37       1.0  0.49953  0.14368  0.58341  1.0000
  H   H38       1.0  0.49950  0.85778  0.57541  1.0000
  H   H39       1.0  0.99954  0.64289  0.94744  1.0000
  H   H40       1.0  0.00337  0.35663  0.92154  1.0000
  C  Sn1       1.0  0.39518  0.11073  0.94977  1.0000
  C   C129      1.0  0.42906  0.11906  0.04207  1.0000
  C  Sn2       1.0  0.42957  0.15002  0.16509  1.0000
  C  Sn3       1.0  0.39532  0.17392  0.19659  1.0000
  C   C130      1.0  0.36129  0.16637  0.10434  1.0000
  C  Sn4       1.0  0.36093  0.13463  0.98127  1.0000
  O  Te1       1.0  0.39534  0.07962  0.82740  1.0000
  O  Te2       1.0  0.46397  0.15700  0.25571  1.0000
  O  Te3       1.0  0.39519  0.20505  0.31907  1.0000
  O  Te4       1.0  0.32656  0.12765  0.89070  1.0000
  Mg  Mg1       1.0  0.44918  0.20284  0.40947  1.0000
  Mg  Mg2       1.0  0.34131  0.08180  0.73698  1.0000
  C  Sn5       1.0  0.59108  0.81524  0.13250  1.0000
  C   C131      1.0  0.62652  0.82236  0.04967  1.0000
  C  Sn6       1.0  0.63764  0.86302  0.00499  1.0000
  C  Sn7       1.0  0.61282  0.89729  0.04402  1.0000
  C   C132      1.0  0.57741  0.89017  0.12683  1.0000
  C  Sn8       1.0  0.56626  0.84951  0.17152  1.0000
  O  Te5       1.0  0.58055  0.77433  0.17598  1.0000
  O  Te6       1.0  0.67338  0.86856  0.92220  1.0000
  O  Te7       1.0  0.62338  0.93822  0.00046  1.0000
  O  Te8       1.0  0.53073  0.84318  0.25429  1.0000
  Mg  Mg3       1.0  0.67487  0.93007  0.88907  1.0000
  Mg  Mg4       1.0  0.52922  0.78168  0.28755  1.0000
  C  Sn9       1.0  0.13450  0.61600  0.49296  1.0000
  C   C133      1.0  0.14002  0.65558  0.42137  1.0000
  C  Sn10      1.0  0.10799  0.67861  0.36266  1.0000
  C  Sn11      1.0  0.06964  0.66174  0.37586  1.0000
  C   C134      1.0  0.06414  0.62219  0.44744  1.0000
  C  Sn12      1.0  0.09615  0.59914  0.50617  1.0000
  O  Te9       1.0  0.16695  0.59353  0.55084  1.0000
  O  Te10      1.0  0.11424  0.71810  0.29151  1.0000
  O  Te11      1.0  0.03719  0.68425  0.31791  1.0000
  O  Te12      1.0  0.08992  0.55968  0.57730  1.0000
  Mg  Mg5       1.0  0.06069  0.73667  0.23087  1.0000
  Mg  Mg6       1.0  0.14344  0.54109  0.63806  1.0000
  C  Sn13      1.0  0.90735  0.31622  0.36359  1.0000
  C   C135      1.0  0.87256  0.32284  0.45174  1.0000
  C  Sn14      1.0  0.86260  0.36298  0.50657  1.0000
  C  Sn15      1.0  0.88792  0.39722  0.47250  1.0000
  C   C136      1.0  0.92268  0.39059  0.38438  1.0000
  C  Sn16      1.0  0.93267  0.35046  0.32952  1.0000
  O  Te13      1.0  0.91673  0.27582  0.30996  1.0000
  O  Te14      1.0  0.82767  0.36883  0.59452  1.0000
  O  Te15      1.0  0.87851  0.43763  0.52621  1.0000
  O  Te16      1.0  0.96758  0.34460  0.24160  1.0000
  Mg  Mg7       1.0  0.82771  0.42973  0.64139  1.0000
  Mg  Mg8       1.0  0.96755  0.28372  0.19459  1.0000
  C  Sn17      1.0  0.11626  0.40063  0.45902  1.0000
  C   C137      1.0  0.08087  0.39206  0.37797  1.0000
  C  Sn18      1.0  0.07251  0.35154  0.32269  1.0000
  C  Sn19      1.0  0.10008  0.31890  0.34905  1.0000
  C   C138      1.0  0.13544  0.32747  0.43007  1.0000
  C  Sn20      1.0  0.14384  0.36799  0.48537  1.0000
  O  Te17      1.0  0.12401  0.44137  0.51323  1.0000
  O  Te18      1.0  0.03693  0.34373  0.24193  1.0000
  O  Te19      1.0  0.09230  0.27813  0.29475  1.0000
  O  Te20      1.0  0.17938  0.37580  0.56611  1.0000
  Mg  Mg9       1.0  0.03980  0.28311  0.19109  1.0000
  Mg  Mg10      1.0  0.17653  0.43640  0.61708  1.0000
  C  Sn21      1.0  0.89641  0.67115  0.27982  1.0000
  C   C139      1.0  0.86142  0.66495  0.36714  1.0000
  C  Sn22      1.0  0.85912  0.63463  0.49306  1.0000
  C  Sn23      1.0  0.89251  0.61002  0.53262  1.0000
  C   C140      1.0  0.92748  0.61623  0.44535  1.0000
  C  Sn24      1.0  0.92980  0.64654  0.31938  1.0000
  O  Te21      1.0  0.89804  0.70164  0.15442  1.0000
  O  Te22      1.0  0.82381  0.62899  0.57859  1.0000
  O  Te23      1.0  0.89085  0.57951  0.65813  1.0000
  O  Te24      1.0  0.96508  0.65218  0.23391  1.0000
  Mg  Mg11      1.0  0.83619  0.58357  0.73925  1.0000
  Mg  Mg12      1.0  0.95274  0.69761  0.07328  1.0000
  C  Sn25      1.0  0.42716  0.83286  0.11664  1.0000
  C   C141      1.0  0.43271  0.87359  0.05623  1.0000
  C  Sn26      1.0  0.40105  0.89627  0.99846  1.0000
  C  Sn27      1.0  0.36269  0.87949  0.00121  1.0000
  C   C142      1.0  0.35715  0.83879  0.06161  1.0000
  C  Sn28      1.0  0.38898  0.81529  0.11939  1.0000
  O  Te25      1.0  0.45942  0.80997  0.17379  1.0000
  O  Te26      1.0  0.40733  0.93691  0.93860  1.0000
  O  Te27      1.0  0.33060  0.90163  0.94399  1.0000
  O  Te28      1.0  0.38271  0.77467  0.17925  1.0000
  Mg  Mg13      1.0  0.35407  0.95567  0.87433  1.0000
  Mg  Mg14      1.0  0.43594  0.75590  0.24362  1.0000
  C  Sn29      1.0  0.60375  0.17414  0.21747  1.0000
  C   C143      1.0  0.63809  0.16746  0.12622  1.0000
  C  Sn30      1.0  0.64026  0.13480  0.01077  1.0000
  C  Sn31      1.0  0.60759  0.10748  0.98591  1.0000
  C   C144      1.0  0.57310  0.11495  0.07711  1.0000
  C  Sn32      1.0  0.57091  0.14761  0.19261  1.0000
  O  Te29      1.0  0.60224  0.20698  0.33222  1.0000
  O  Te30      1.0  0.67508  0.12794  0.92106  1.0000
  O  Te31      1.0  0.60913  0.07461  0.87105  1.0000
  O  Te32      1.0  0.53628  0.15368  0.28227  1.0000
  Mg  Mg15      1.0  0.66281  0.07899  0.77886  1.0000
  Mg  Mg16      1.0  0.54852  0.20264  0.42442  1.0000
  C  Sn33      1.0  0.40741  0.18462  0.62688  1.0000
  C   C145      1.0  0.37261  0.17717  0.53969  1.0000
  C  Sn34      1.0  0.36277  0.13658  0.48978  1.0000
  C  Sn35      1.0  0.38825  0.10273  0.52790  1.0000
  C   C146      1.0  0.42302  0.11019  0.61506  1.0000
  C  Sn36      1.0  0.43289  0.15077  0.66500  1.0000
  O  Te33      1.0  0.41665  0.22545  0.67556  1.0000
  O  Te34      1.0  0.32782  0.12991  0.40270  1.0000
  O  Te35      1.0  0.37898  0.06188  0.47914  1.0000
  O  Te36      1.0  0.46781  0.15745  0.75205  1.0000
  Mg  Mg17      1.0  0.32809  0.06867  0.36323  1.0000
  Mg  Mg18      1.0  0.46756  0.21867  0.79166  1.0000
  C  Sn37      1.0  0.60673  0.89272  0.45955  1.0000
  C   C147      1.0  0.57312  0.88429  0.55359  1.0000
  C  Sn38      1.0  0.57307  0.85189  0.67142  1.0000
  C  Sn39      1.0  0.60733  0.82743  0.69585  1.0000
  C   C148      1.0  0.64091  0.83586  0.60186  1.0000
  C  Sn40      1.0  0.64098  0.86825  0.48397  1.0000
  O  Te37      1.0  0.60612  0.92526  0.34245  1.0000
  O  Te38      1.0  0.53911  0.84405  0.76391  1.0000
  O  Te39      1.0  0.60791  0.79487  0.81306  1.0000
  O  Te40      1.0  0.67491  0.87610  0.39154  1.0000
  Mg  Mg19      1.0  0.55443  0.79633  0.90861  1.0000
  Mg  Mg20      1.0  0.65964  0.92383  0.24688  1.0000
  C  Sn41      1.0  0.08401  0.65770  0.80715  1.0000
  C   C149      1.0  0.07759  0.61836  0.87945  1.0000
  C  Sn42      1.0  0.10095  0.60521  0.01125  1.0000
  C  Sn43      1.0  0.13153  0.63114  0.07215  1.0000
  C   C150      1.0  0.13811  0.66967  0.99988  1.0000
  C  Sn44      1.0  0.11459  0.68363  0.86805  1.0000
  O  Te41      1.0  0.06012  0.67099  0.67551  1.0000
  O  Te42      1.0  0.09397  0.56576  0.08148  1.0000
  O  Te43      1.0  0.15543  0.61781  0.20389  1.0000
  O  Te44      1.0  0.12155  0.72306  0.79786  1.0000
  Mg  Mg21      1.0  0.13439  0.56158  0.25839  1.0000
  Mg  Mg22      1.0  0.08114  0.72727  0.62101  1.0000
  C  Sn45      1.0  0.90906  0.31779  0.87426  1.0000
  C   C151      1.0  0.87410  0.32676  0.95775  1.0000
  C  Sn46      1.0  0.86519  0.36860  0.00514  1.0000
  C  Sn47      1.0  0.89211  0.40060  0.96822  1.0000
  C   C152      1.0  0.92704  0.39162  0.88475  1.0000
  C  Sn48      1.0  0.93581  0.35057  0.83733  1.0000
  O  Te45      1.0  0.91719  0.27651  0.82805  1.0000
  O  Te46      1.0  0.83006  0.37680  0.08855  1.0000
  O  Te47      1.0  0.88377  0.44268  0.01451  1.0000
  O  Te48      1.0  0.97091  0.34236  0.75395  1.0000
  Mg  Mg23      1.0  0.83213  0.43810  0.12571  1.0000
  Mg  Mg24      1.0  0.96885  0.28109  0.71667  1.0000
  C  Sn49      1.0  0.12155  0.39996  0.95168  1.0000
  C   C153      1.0  0.08539  0.39128  0.87722  1.0000
  C  Sn50      1.0  0.07563  0.35029  0.83260  1.0000
  C  Sn51      1.0  0.10256  0.31726  0.86312  1.0000
  C   C154      1.0  0.13870  0.32594  0.93755  1.0000
  C  Sn52      1.0  0.14848  0.36693  0.98220  1.0000
  O  Te49      1.0  0.13068  0.44118  0.99527  1.0000
  O  Te50      1.0  0.03931  0.34239  0.75827  1.0000
  O  Te51      1.0  0.09340  0.27602  0.81945  1.0000
  O  Te52      1.0  0.18460  0.37562  0.05651  1.0000
  Mg  Mg25      1.0  0.04031  0.28105  0.72139  1.0000
  Mg  Mg26      1.0  0.18362  0.43694  0.09352  1.0000
  C  Sn53      1.0  0.88205  0.59719  0.95946  1.0000
  C   C155      1.0  0.91774  0.60674  0.88267  1.0000
  C  Sn54      1.0  0.92617  0.64784  0.83378  1.0000
  C  Sn55      1.0  0.89835  0.68008  0.86232  1.0000
  C   C156      1.0  0.86269  0.67052  0.93910  1.0000
  C  Sn56      1.0  0.85423  0.62943  0.98801  1.0000
  O  Te53      1.0  0.87407  0.55668  0.00731  1.0000
  O  Te54      1.0  0.96205  0.65662  0.75717  1.0000
  O  Te55      1.0  0.90618  0.72140  0.81439  1.0000
  O  Te56      1.0  0.81821  0.62143  0.06459  1.0000
  Mg  Mg27      1.0  0.95914  0.71772  0.71456  1.0000
  Mg  Mg28      1.0  0.82110  0.56035  0.10733  1.0000
  C  Sn57      1.0  0.37316  0.87306  0.42817  1.0000
  C   C157      1.0  0.36636  0.83411  0.50310  1.0000
  C  Sn58      1.0  0.38917  0.82089  0.63835  1.0000
  C  Sn59      1.0  0.41940  0.84717  0.70007  1.0000
  C   C158      1.0  0.42618  0.88610  0.62517  1.0000
  C  Sn60      1.0  0.40339  0.89934  0.48989  1.0000
  O  Te57      1.0  0.34999  0.88563  0.29310  1.0000
  O  Te58      1.0  0.38183  0.78181  0.71116  1.0000
  O  Te59      1.0  0.44257  0.83456  0.83524  1.0000
  O  Te60      1.0  0.41072  0.93839  0.41711  1.0000
  Mg  Mg29      1.0  0.42126  0.77861  0.89236  1.0000
  Mg  Mg30      1.0  0.37129  0.94164  0.23598  1.0000
  C  Sn61      1.0  0.61652  0.09805  0.54769  1.0000
  C   C159      1.0  0.58213  0.10709  0.63524  1.0000
  C  Sn62      1.0  0.57405  0.14807  0.68572  1.0000
  C  Sn63      1.0  0.60089  0.18069  0.64782  1.0000
  C   C160      1.0  0.63525  0.17164  0.56030  1.0000
  C  Sn64      1.0  0.64336  0.13067  0.50978  1.0000
  O  Te61      1.0  0.62400  0.05685  0.49844  1.0000
  O  Te62      1.0  0.53948  0.15634  0.77316  1.0000
  O  Te63      1.0  0.59338  0.22191  0.69716  1.0000
  O  Te64      1.0  0.67790  0.12240  0.42237  1.0000
  Mg  Mg31      1.0  0.54234  0.21747  0.81338  1.0000
  Mg  Mg32      1.0  0.67506  0.06128  0.38202  1.0000
