data_image0
_chemical_formula_structural       C48N8C8S8H16C8H4C48N8C8S8H16C8H4C2Sn2C2HTe2HMgC2Sn2C2HTe2HMgC2Sn2C2HTe2HMgC2Sn2C2HTe2HMgC2Sn2C2HTe2HMgC2Sn2C2HTe2HMgC2Sn2C2HTe2HMgC2Sn2C2HTe2HMgC2Sn2C2HTe2HMgC2Sn2C2HTe2HMgC2Sn2C2HTe2HMgC2Sn2C2HTe2HMgC2Sn2C2HTe2HMgC2Sn2C2HTe2HMgC2Sn2C2HTe2HMgC2Sn2C2HTe2HMg
_chemical_formula_sum              "C192 N16 S16 H72 Sn32 Te32 Mg16"
_cell_length_a       33.9025
_cell_length_b       33.6528
_cell_length_c       8.09115
_cell_angle_alpha    90.3314
_cell_angle_beta     90.0135
_cell_angle_gamma    89.9822

_symmetry_space_group_name_H-M    'P1'
_space_group_IT_number       1

loop_
  _space_group_symop_operation_xyz
  'x, y, z'

loop_
  _atom_site_type_symbol
  _atom_site_label
  _atom_site_symmetry_multiplicity
  _atom_site_fract_x
  _atom_site_fract_y
  _atom_site_fract_z
  _atom_site_occupancy
  C   C1        1.0  0.46448  0.95766  0.11700  1.0000
  C   C2        1.0  0.53897  0.04210  0.12805  1.0000
  C   C3        1.0  0.03487  0.45757  0.39017  1.0000
  C   C4        1.0  0.96132  0.54253  0.39818  1.0000
  C   C5        1.0  0.03468  0.54268  0.40855  1.0000
  C   C6        1.0  0.96154  0.45730  0.38938  1.0000
  C   C7        1.0  0.46561  0.04281  0.12052  1.0000
  C   C8        1.0  0.53782  0.95681  0.12627  1.0000
  C   C9        1.0  0.42984  0.02099  0.14228  1.0000
  C   C10       1.0  0.57332  0.97865  0.15499  1.0000
  C   C11       1.0  0.07022  0.52073  0.38267  1.0000
  C   C12       1.0  0.92618  0.47963  0.36555  1.0000
  C   C13       1.0  0.07027  0.48016  0.37223  1.0000
  C   C14       1.0  0.92616  0.52028  0.36728  1.0000
  C   C15       1.0  0.42931  0.98039  0.14007  1.0000
  C   C16       1.0  0.57386  0.01930  0.15631  1.0000
  C   C17       1.0  0.46649  0.08477  0.10007  1.0000
  C   C18       1.0  0.53704  0.91478  0.10617  1.0000
  C   C19       1.0  0.03424  0.58464  0.43323  1.0000
  C   C20       1.0  0.96200  0.41512  0.40203  1.0000
  C   C21       1.0  0.03468  0.41536  0.40094  1.0000
  C   C22       1.0  0.96148  0.58449  0.42138  1.0000
  C   C23       1.0  0.46428  0.91565  0.09406  1.0000
  C   C24       1.0  0.53934  0.08417  0.10758  1.0000
  C   C25       1.0  0.32789  0.18219  0.01590  1.0000
  C   C26       1.0  0.67222  0.81249  0.02199  1.0000
  C   C27       1.0  0.17250  0.68425  0.49593  1.0000
  C   C28       1.0  0.82570  0.31390  0.47095  1.0000
  C   C29       1.0  0.17347  0.31802  0.47183  1.0000
  C   C30       1.0  0.82263  0.68330  0.46391  1.0000
  C   C31       1.0  0.32607  0.81760  0.00565  1.0000
  C   C32       1.0  0.67656  0.18443  0.02501  1.0000
  C   C33       1.0  0.78750  0.26056  0.44310  1.0000
  C   C34       1.0  0.21103  0.73711  0.46144  1.0000
  C   C35       1.0  0.70983  0.75852  0.03883  1.0000
  C   C36       1.0  0.28998  0.23583  0.04027  1.0000
  C   C37       1.0  0.71376  0.23877  0.04359  1.0000
  C   C38       1.0  0.28824  0.76437  0.04004  1.0000
  C   C39       1.0  0.78507  0.73694  0.43235  1.0000
  C   C40       1.0  0.21216  0.26504  0.44889  1.0000
  C   C41       1.0  0.77642  0.22187  0.39667  1.0000
  C   C42       1.0  0.22235  0.77531  0.41091  1.0000
  C   C43       1.0  0.72080  0.71973  0.08214  1.0000
  C   C44       1.0  0.27926  0.27454  0.08745  1.0000
  C   C45       1.0  0.72450  0.27760  0.08940  1.0000
  C   C46       1.0  0.27741  0.72632  0.09363  1.0000
  C   C47       1.0  0.77464  0.77558  0.38399  1.0000
  C   C48       1.0  0.22368  0.22659  0.40208  1.0000
  N   N1        1.0  0.32578  0.21856  0.07485  1.0000
  N   N2        1.0  0.67428  0.77603  0.07826  1.0000
  N   N3        1.0  0.17449  0.72026  0.43459  1.0000
  N   N4        1.0  0.82361  0.27765  0.41057  1.0000
  N   N5        1.0  0.17623  0.28180  0.41195  1.0000
  N   N6        1.0  0.82096  0.71919  0.40123  1.0000
  N   N7        1.0  0.32426  0.78181  0.06919  1.0000
  N   N8        1.0  0.67843  0.22095  0.08283  1.0000
  C   C49       1.0  0.26053  0.78758  0.44939  1.0000
  C   C50       1.0  0.73914  0.20899  0.44492  1.0000
  C   C51       1.0  0.24183  0.28745  0.04225  1.0000
  C   C52       1.0  0.75826  0.70702  0.03524  1.0000
  C   C53       1.0  0.23966  0.71335  0.05347  1.0000
  C   C54       1.0  0.76167  0.29074  0.04097  1.0000
  C   C55       1.0  0.26099  0.21414  0.45087  1.0000
  C   C56       1.0  0.73754  0.78935  0.43124  1.0000
  S   S1        1.0  0.78083  0.66156  0.07292  1.0000
  S   S2        1.0  0.22004  0.33330  0.08048  1.0000
  S   S3        1.0  0.71717  0.16287  0.41236  1.0000
  S   S4        1.0  0.28316  0.83260  0.40442  1.0000
  S   S5        1.0  0.71634  0.83579  0.39841  1.0000
  S   S6        1.0  0.28353  0.16873  0.41232  1.0000
  S   S7        1.0  0.78414  0.33626  0.08062  1.0000
  S   S8        1.0  0.21748  0.66838  0.10171  1.0000
  H   H1        1.0  0.79667  0.20348  0.32580  1.0000
  H   H2        1.0  0.20170  0.79396  0.34401  1.0000
  H   H3        1.0  0.70044  0.70124  0.15106  1.0000
  H   H4        1.0  0.29985  0.29275  0.15760  1.0000
  H   H5        1.0  0.70425  0.29568  0.16174  1.0000
  H   H6        1.0  0.29807  0.70856  0.16443  1.0000
  H   H7        1.0  0.79531  0.79322  0.31279  1.0000
  H   H8        1.0  0.20379  0.20810  0.32987  1.0000
  H   H9        1.0  0.40250  0.03724  0.16117  1.0000
  H   H10       1.0  0.60051  0.96234  0.17563  1.0000
  H   H11       1.0  0.09778  0.53690  0.37060  1.0000
  H   H12       1.0  0.89880  0.46372  0.34321  1.0000
  H   H13       1.0  0.09786  0.46458  0.35072  1.0000
  H   H14       1.0  0.89884  0.53623  0.34485  1.0000
  H   H15       1.0  0.40151  0.96490  0.15699  1.0000
  H   H16       1.0  0.60138  0.03486  0.18013  1.0000
  C   C57       1.0  0.50310  0.10391  0.09239  1.0000
  C   C58       1.0  0.50058  0.89580  0.08932  1.0000
  C   C59       1.0  0.99768  0.60394  0.44064  1.0000
  C   C60       1.0  0.99843  0.39567  0.40795  1.0000
  C   C61       1.0  0.50143  0.97851  0.12340  1.0000
  C   C62       1.0  0.50203  0.02119  0.12470  1.0000
  C   C63       1.0  0.99815  0.47871  0.39269  1.0000
  C   C64       1.0  0.99804  0.52135  0.40004  1.0000
  H   H17       1.0  0.50338  0.13558  0.06633  1.0000
  H   H18       1.0  0.50066  0.86404  0.06447  1.0000
  H   H19       1.0  0.99728  0.63561  0.46807  1.0000
  H   H20       1.0  0.99855  0.36374  0.42755  1.0000
  C   C65       1.0  0.46196  0.95842  0.62269  1.0000
  C   C66       1.0  0.53521  0.04334  0.64149  1.0000
  C   C67       1.0  0.03934  0.45804  0.88496  1.0000
  C   C68       1.0  0.96515  0.54244  0.88342  1.0000
  C   C69       1.0  0.03831  0.54320  0.89744  1.0000
  C   C70       1.0  0.96601  0.45752  0.88052  1.0000
  C   C71       1.0  0.46199  0.04382  0.62887  1.0000
  C   C72       1.0  0.53526  0.95865  0.63507  1.0000
  C   C73       1.0  0.42644  0.02139  0.64680  1.0000
  C   C74       1.0  0.57027  0.98062  0.67123  1.0000
  C   C75       1.0  0.07408  0.52153  0.87238  1.0000
  C   C76       1.0  0.93072  0.47941  0.84913  1.0000
  C   C77       1.0  0.07445  0.48094  0.86343  1.0000
  C   C78       1.0  0.93032  0.52002  0.84915  1.0000
  C   C79       1.0  0.42641  0.98071  0.64387  1.0000
  C   C80       1.0  0.57027  0.02120  0.67400  1.0000
  C   C81       1.0  0.46272  0.08588  0.60860  1.0000
  C   C82       1.0  0.53542  0.91697  0.60589  1.0000
  C   C83       1.0  0.03722  0.58505  0.92249  1.0000
  C   C84       1.0  0.96649  0.41564  0.90312  1.0000
  C   C85       1.0  0.03931  0.41596  0.90327  1.0000
  C   C86       1.0  0.96470  0.58429  0.90896  1.0000
  C   C87       1.0  0.46270  0.91649  0.59797  1.0000
  C   C88       1.0  0.53542  0.08511  0.61797  1.0000
  C   C89       1.0  0.32573  0.18567  0.52071  1.0000
  C   C90       1.0  0.67350  0.81967  0.50405  1.0000
  C   C91       1.0  0.17437  0.68434  0.99782  1.0000
  C   C92       1.0  0.82661  0.31944  0.97316  1.0000
  C   C93       1.0  0.17708  0.31656  0.97665  1.0000
  C   C94       1.0  0.82378  0.67910  0.97233  1.0000
  C   C95       1.0  0.32642  0.81574  0.50476  1.0000
  C   C96       1.0  0.67490  0.17991  0.51997  1.0000
  C   C97       1.0  0.78827  0.26619  0.94776  1.0000
  C   C98       1.0  0.21246  0.73721  0.96119  1.0000
  C   C99       1.0  0.71032  0.76520  0.52177  1.0000
  C   C100      1.0  0.28730  0.23893  0.54454  1.0000
  C   C101      1.0  0.71245  0.23388  0.53612  1.0000
  C   C102      1.0  0.28785  0.76291  0.53739  1.0000
  C   C103      1.0  0.78513  0.73203  0.94694  1.0000
  C   C104      1.0  0.21467  0.26271  0.95265  1.0000
  C   C105      1.0  0.77741  0.22756  0.90054  1.0000
  C   C106      1.0  0.22336  0.77515  0.90688  1.0000
  C   C107      1.0  0.72058  0.72652  0.56891  1.0000
  C   C108      1.0  0.27572  0.27741  0.59149  1.0000
  C   C109      1.0  0.72324  0.27275  0.58006  1.0000
  C   C110      1.0  0.27650  0.72481  0.58843  1.0000
  C   C111      1.0  0.77405  0.77065  0.90206  1.0000
  C   C112      1.0  0.22535  0.22394  0.90611  1.0000
  N   N9        1.0  0.32320  0.22192  0.58093  1.0000
  N   N10       1.0  0.67495  0.78309  0.55909  1.0000
  N   N11       1.0  0.17635  0.71989  0.93252  1.0000
  N   N12       1.0  0.82406  0.28333  0.91192  1.0000
  N   N13       1.0  0.17889  0.28014  0.91798  1.0000
  N   N14       1.0  0.82131  0.71529  0.91362  1.0000
  N   N15       1.0  0.32427  0.77975  0.56614  1.0000
  N   N16       1.0  0.67700  0.21658  0.57555  1.0000
  C   C113      1.0  0.26098  0.78829  0.94840  1.0000
  C   C114      1.0  0.74042  0.21434  0.95002  1.0000
  C   C115      1.0  0.23840  0.28992  0.54235  1.0000
  C   C116      1.0  0.75781  0.71299  0.52381  1.0000
  C   C117      1.0  0.23846  0.71245  0.54879  1.0000
  C   C118      1.0  0.76057  0.28544  0.53315  1.0000
  C   C119      1.0  0.26290  0.21106  0.95055  1.0000
  C   C120      1.0  0.73659  0.78331  0.94863  1.0000
  S   S9        1.0  0.77942  0.66746  0.56720  1.0000
  S   S10       1.0  0.21565  0.33536  0.57944  1.0000
  S   S11       1.0  0.71883  0.16827  0.91474  1.0000
  S   S12       1.0  0.28298  0.83351  0.90210  1.0000
  S   S13       1.0  0.71454  0.82907  0.91379  1.0000
  S   S14       1.0  0.28504  0.16532  0.91178  1.0000
  S   S15       1.0  0.78263  0.33101  0.57272  1.0000
  S   S16       1.0  0.21605  0.66740  0.59409  1.0000
  H   H21       1.0  0.79761  0.20964  0.82734  1.0000
  H   H22       1.0  0.20286  0.79274  0.83455  1.0000
  H   H23       1.0  0.69989  0.70894  0.64018  1.0000
  H   H24       1.0  0.29544  0.29592  0.66440  1.0000
  H   H25       1.0  0.70293  0.29128  0.65004  1.0000
  H   H26       1.0  0.29687  0.70637  0.65773  1.0000
  H   H27       1.0  0.79462  0.78923  0.83448  1.0000
  H   H28       1.0  0.20457  0.20566  0.83733  1.0000
  H   H29       1.0  0.39878  0.03720  0.66325  1.0000
  H   H30       1.0  0.59734  0.96448  0.69623  1.0000
  H   H31       1.0  0.10142  0.53796  0.85776  1.0000
  H   H32       1.0  0.90364  0.46323  0.82437  1.0000
  H   H33       1.0  0.10205  0.46564  0.83888  1.0000
  H   H34       1.0  0.90305  0.53579  0.82361  1.0000
  H   H35       1.0  0.39876  0.96473  0.65755  1.0000
  H   H36       1.0  0.59733  0.03720  0.70145  1.0000
  C   C121      1.0  0.49941  0.10500  0.60182  1.0000
  C   C122      1.0  0.49928  0.89736  0.58796  1.0000
  C   C123      1.0  0.00057  0.60417  0.92963  1.0000
  C   C124      1.0  0.00294  0.39639  0.91497  1.0000
  C   C125      1.0  0.49852  0.97973  0.63258  1.0000
  C   C126      1.0  0.49851  0.02235  0.63591  1.0000
  C   C127      1.0  0.00249  0.47898  0.88381  1.0000
  C   C128      1.0  0.00198  0.52157  0.88761  1.0000
  H   H37       1.0  0.50006  0.13659  0.57428  1.0000
  H   H38       1.0  0.49960  0.86590  0.55642  1.0000
  H   H39       1.0  0.99991  0.63578  0.95877  1.0000
  H   H40       1.0  0.00304  0.36475  0.94115  1.0000
  C   C129      1.0  0.38801  0.09642  0.96683  1.0000
  C   C130      1.0  0.42327  0.10422  0.04750  1.0000
  C  Sn1       1.0  0.42714  0.13997  0.13471  1.0000
  C  Sn2       1.0  0.39499  0.16694  0.14109  1.0000
  C   C131      1.0  0.35977  0.15745  0.06007  1.0000
  C   C132      1.0  0.35629  0.12300  0.97311  1.0000
  H   H41       1.0  0.38526  0.06868  0.89962  1.0000
  O  Te1       1.0  0.46263  0.14869  0.21456  1.0000
  O  Te2       1.0  0.39805  0.20286  0.22741  1.0000
  H   H42       1.0  0.32893  0.11588  0.91075  1.0000
  Mg  Mg1       1.0  0.45245  0.20138  0.31623  1.0000
  C   C133      1.0  0.59723  0.82940  0.16795  1.0000
  C   C134      1.0  0.62973  0.83397  0.06358  1.0000
  C  Sn3       1.0  0.63466  0.87034  0.97374  1.0000
  C  Sn4       1.0  0.60643  0.90128  0.98894  1.0000
  C   C135      1.0  0.57398  0.89504  0.09378  1.0000
  C   C136      1.0  0.56938  0.85991  0.18307  1.0000
  H   H43       1.0  0.59368  0.80222  0.23712  1.0000
  O  Te3       1.0  0.66730  0.87441  0.86998  1.0000
  O  Te4       1.0  0.61059  0.93656  0.90062  1.0000
  H   H44       1.0  0.54423  0.85639  0.26395  1.0000
  Mg  Mg2       1.0  0.66004  0.92804  0.77512  1.0000
  C   C137      1.0  0.09498  0.66948  0.37357  1.0000
  C   C138      1.0  0.12852  0.66405  0.47129  1.0000
  C  Sn5       1.0  0.13384  0.62870  0.55826  1.0000
  C  Sn6       1.0  0.10499  0.59827  0.54690  1.0000
  C   C139      1.0  0.07155  0.60398  0.44871  1.0000
  C   C140      1.0  0.06652  0.63947  0.36225  1.0000
  H   H45       1.0  0.09110  0.69693  0.30659  1.0000
  O  Te5       1.0  0.16752  0.62378  0.65538  1.0000
  O  Te6       1.0  0.10957  0.56265  0.63247  1.0000
  H   H46       1.0  0.04056  0.64365  0.28651  1.0000
  Mg  Mg3       1.0  0.16047  0.56996  0.74871  1.0000
  C   C141      1.0  0.86703  0.38609  0.54919  1.0000
  C   C142      1.0  0.85815  0.35037  0.46846  1.0000
  C  Sn7       1.0  0.88548  0.33298  0.36097  1.0000
  C  Sn8       1.0  0.92238  0.35175  0.33408  1.0000
  C   C143      1.0  0.93100  0.38746  0.41553  1.0000
  C   C144      1.0  0.90342  0.40462  0.52279  1.0000
  H   H47       1.0  0.84571  0.39935  0.63225  1.0000
  O  Te7       1.0  0.87612  0.29730  0.28127  1.0000
  O  Te8       1.0  0.95024  0.33501  0.22734  1.0000
  H   H48       1.0  0.91032  0.43225  0.58536  1.0000
  Mg  Mg4       1.0  0.92379  0.28610  0.14737  1.0000
  C   C145      1.0  0.07969  0.34513  0.32179  1.0000
  C   C146      1.0  0.06998  0.38105  0.39925  1.0000
  C  Sn9       1.0  0.09685  0.39954  0.50566  1.0000
  C  Sn10      1.0  0.13410  0.38168  0.53479  1.0000
  C   C147      1.0  0.14354  0.34576  0.45661  1.0000
  C   C148      1.0  0.11643  0.32750  0.35040  1.0000
  H   H49       1.0  0.05872  0.33101  0.23954  1.0000
  O  Te9       1.0  0.08667  0.43541  0.58208  1.0000
  O  Te10      1.0  0.16151  0.39953  0.64051  1.0000
  H   H50       1.0  0.12396  0.29971  0.29037  1.0000
  Mg  Mg5       1.0  0.13397  0.44826  0.71577  1.0000
  C   C149      1.0  0.88174  0.59802  0.53773  1.0000
  C   C150      1.0  0.91605  0.60370  0.44511  1.0000
  C  Sn11      1.0  0.92147  0.63875  0.35630  1.0000
  C  Sn12      1.0  0.89195  0.66864  0.36055  1.0000
  C   C151      1.0  0.85774  0.66269  0.45367  1.0000
  C   C152      1.0  0.85262  0.62749  0.54204  1.0000
  H   H51       1.0  0.87778  0.57080  0.60618  1.0000
  O  Te11      1.0  0.95591  0.64393  0.26436  1.0000
  O  Te12      1.0  0.89661  0.70396  0.27299  1.0000
  H   H52       1.0  0.82606  0.62311  0.61382  1.0000
  Mg  Mg6       1.0  0.94868  0.69717  0.16571  1.0000
  C   C153      1.0  0.36696  0.89165  0.95099  1.0000
  C   C154      1.0  0.36004  0.85116  0.00068  1.0000
  C  Sn13      1.0  0.38810  0.83103  0.09501  1.0000
  C  Sn14      1.0  0.42366  0.85047  0.14028  1.0000
  C   C155      1.0  0.43024  0.88959  0.09004  1.0000
  C   C156      1.0  0.40202  0.91085  0.99563  1.0000
  H   H53       1.0  0.34508  0.90703  0.87801  1.0000
  O  Te13      1.0  0.38078  0.79197  0.14358  1.0000
  O  Te14      1.0  0.45220  0.83105  0.23455  1.0000
  H   H54       1.0  0.40733  0.94113  0.95726  1.0000
  Mg  Mg7       1.0  0.42866  0.77797  0.27093  1.0000
  C   C157      1.0  0.61873  0.09819  0.98216  1.0000
  C   C158      1.0  0.58466  0.10366  0.07563  1.0000
  C  Sn15      1.0  0.57912  0.14012  0.15582  1.0000
  C  Sn16      1.0  0.60822  0.17021  0.14192  1.0000
  C   C159      1.0  0.64213  0.16306  0.04802  1.0000
  C   C160      1.0  0.64743  0.12786  0.96833  1.0000
  H   H55       1.0  0.62278  0.06989  0.92042  1.0000
  O  Te15      1.0  0.54498  0.14647  0.24876  1.0000
  O  Te16      1.0  0.60343  0.20692  0.22074  1.0000
  H   H56       1.0  0.67376  0.12257  0.89588  1.0000
  Mg  Mg8       1.0  0.55188  0.20139  0.33327  1.0000
  C   C161      1.0  0.42046  0.15893  0.66151  1.0000
  C   C162      1.0  0.42646  0.11952  0.61225  1.0000
  C  Sn17      1.0  0.39850  0.10010  0.51394  1.0000
  C  Sn18      1.0  0.36394  0.12059  0.46418  1.0000
  C   C163      1.0  0.35823  0.16003  0.51402  1.0000
  C   C164      1.0  0.38639  0.17917  0.61243  1.0000
  H   H57       1.0  0.44225  0.17376  0.73757  1.0000
  O  Te17      1.0  0.40495  0.06071  0.46589  1.0000
  O  Te18      1.0  0.33553  0.10190  0.36588  1.0000
  H   H58       1.0  0.38175  0.20969  0.65046  1.0000
  Mg  Mg9       1.0  0.35764  0.04800  0.33199  1.0000
  C   C165      1.0  0.57902  0.84472  0.65035  1.0000
  C   C166      1.0  0.57255  0.88445  0.60903  1.0000
  C  Sn19      1.0  0.60048  0.90520  0.51645  1.0000
  C  Sn20      1.0  0.63550  0.88573  0.46441  1.0000
  C   C167      1.0  0.64169  0.84596  0.50628  1.0000
  C   C168      1.0  0.61355  0.82548  0.59902  1.0000
  H   H59       1.0  0.55725  0.82887  0.72202  1.0000
  O  Te19      1.0  0.59356  0.94489  0.47629  1.0000
  O  Te20      1.0  0.66390  0.90576  0.37171  1.0000
  H   H60       1.0  0.61856  0.79471  0.63090  1.0000
  Mg  Mg10      1.0  0.64104  0.95957  0.34785  1.0000
  C   C169      1.0  0.09821  0.66930  0.86602  1.0000
  C   C170      1.0  0.13072  0.66430  0.97007  1.0000
  C  Sn21      1.0  0.13499  0.62800  0.06092  1.0000
  C  Sn22      1.0  0.10619  0.59757  0.04705  1.0000
  C   C171      1.0  0.07385  0.60424  0.94252  1.0000
  C   C172      1.0  0.06980  0.63930  0.85221  1.0000
  H   H61       1.0  0.09509  0.69641  0.79607  1.0000
  O  Te21      1.0  0.16764  0.62349  0.16435  1.0000
  O  Te22      1.0  0.10980  0.56238  0.13640  1.0000
  H   H62       1.0  0.04464  0.64315  0.77158  1.0000
  Mg  Mg11      1.0  0.15950  0.57017  0.26094  1.0000
  C   C173      1.0  0.88663  0.40530  0.02243  1.0000
  C   C174      1.0  0.92307  0.39651  0.95297  1.0000
  C  Sn23      1.0  0.92784  0.36010  0.87154  1.0000
  C  Sn24      1.0  0.89552  0.33346  0.85959  1.0000
  C   C175      1.0  0.85923  0.34393  0.92939  1.0000
  C   C176      1.0  0.85473  0.37905  0.01065  1.0000
  H   H63       1.0  0.88318  0.43355  0.08523  1.0000
  O  Te23      1.0  0.96440  0.35039  0.80289  1.0000
  O  Te24      1.0  0.89946  0.29688  0.77884  1.0000
  H   H64       1.0  0.82655  0.38693  0.06432  1.0000
  Mg  Mg12      1.0  0.95516  0.29709  0.70523  1.0000
  C   C177      1.0  0.11890  0.40358  0.02633  1.0000
  C   C178      1.0  0.08433  0.39784  0.93727  1.0000
  C  Sn25      1.0  0.07854  0.36136  0.85756  1.0000
  C  Sn26      1.0  0.10801  0.33153  0.86745  1.0000
  C   C179      1.0  0.14254  0.33894  0.95696  1.0000
  C   C180      1.0  0.14798  0.37416  0.03621  1.0000
  H   H65       1.0  0.12315  0.43189  0.08773  1.0000
  O  Te25      1.0  0.04377  0.35474  0.76905  1.0000
  O  Te26      1.0  0.10297  0.29480  0.78902  1.0000
  H   H66       1.0  0.17478  0.37966  0.10524  1.0000
  Mg  Mg13      1.0  0.05056  0.29992  0.68327  1.0000
  C   C181      1.0  0.88582  0.59557  0.03607  1.0000
  C   C182      1.0  0.91924  0.60384  0.93895  1.0000
  C  Sn27      1.0  0.92282  0.63914  0.85011  1.0000
  C  Sn28      1.0  0.89239  0.66803  0.85895  1.0000
  C   C183      1.0  0.85914  0.66087  0.95656  1.0000
  C   C184      1.0  0.85581  0.62406  0.04491  1.0000
  H   H67       1.0  0.88329  0.56817  0.10450  1.0000
  O  Te27      1.0  0.95634  0.64553  0.75363  1.0000
  O  Te28      1.0  0.89521  0.70356  0.77148  1.0000
  H   H68       1.0  0.82998  0.61875  0.12018  1.0000
  Mg  Mg14      1.0  0.94661  0.69858  0.65704  1.0000
  C   C185      1.0  0.36800  0.88881  0.43951  1.0000
  C   C186      1.0  0.36116  0.85028  0.49632  1.0000
  C  Sn29      1.0  0.38784  0.83229  0.60420  1.0000
  C  Sn30      1.0  0.42197  0.85334  0.65599  1.0000
  C   C187      1.0  0.42854  0.89188  0.59855  1.0000
  C   C188      1.0  0.40165  0.90959  0.49058  1.0000
  H   H69       1.0  0.34719  0.90252  0.35604  1.0000
  O  Te29      1.0  0.38056  0.79378  0.65972  1.0000
  O  Te30      1.0  0.44911  0.83608  0.76380  1.0000
  H   H70       1.0  0.40695  0.93943  0.44670  1.0000
  Mg  Mg15      1.0  0.42623  0.78294  0.80538  1.0000
  C   C189      1.0  0.59971  0.16782  0.66555  1.0000
  C   C190      1.0  0.63411  0.15807  0.57922  1.0000
  C  Sn31      1.0  0.63664  0.12226  0.49166  1.0000
  C  Sn32      1.0  0.60408  0.09578  0.49070  1.0000
  C   C191      1.0  0.56979  0.10582  0.57736  1.0000
  C   C192      1.0  0.56758  0.14173  0.66461  1.0000
  H   H71       1.0  0.59799  0.19561  0.73298  1.0000
  O  Te31      1.0  0.67123  0.11297  0.40612  1.0000
  O  Te32      1.0  0.60581  0.05979  0.40416  1.0000
  H   H72       1.0  0.54093  0.14928  0.73135  1.0000
  Mg  Mg16      1.0  0.65936  0.06042  0.30650  1.0000
