data_image0
_chemical_formula_structural       C74N8C8S8H32C8H4C70N8C8S8H32C8H4C2Sn2C2HTe2HMgC2Sn2C2HTe2HMgC2Sn2C2HTe2HMgC2Sn2C2HTe2HMgC2Sn2C2HTe2HMgC2Sn2C2HTe2HMgC2Sn2C2HTe2HMgC2Sn2C2HTe2HMg
_chemical_formula_sum              "C208 N16 S16 H88 Sn16 Te16 Mg8"
_cell_length_a       33.9025
_cell_length_b       33.6528
_cell_length_c       8.09115
_cell_angle_alpha    90.3314
_cell_angle_beta     90.0135
_cell_angle_gamma    89.9822

_symmetry_space_group_name_H-M    'P1'
_space_group_IT_number       1

loop_
  _space_group_symop_operation_xyz
  'x, y, z'

loop_
  _atom_site_type_symbol
  _atom_site_label
  _atom_site_symmetry_multiplicity
  _atom_site_fract_x
  _atom_site_fract_y
  _atom_site_fract_z
  _atom_site_occupancy
  C   C1        1.0  0.46448  0.95766  0.11700  1.0000
  C   C2        1.0  0.53897  0.04210  0.12805  1.0000
  C   C3        1.0  0.03487  0.45757  0.39017  1.0000
  C   C4        1.0  0.96132  0.54253  0.39818  1.0000
  C   C5        1.0  0.03468  0.54268  0.40855  1.0000
  C   C6        1.0  0.96154  0.45730  0.38938  1.0000
  C   C7        1.0  0.46561  0.04281  0.12052  1.0000
  C   C8        1.0  0.53782  0.95681  0.12627  1.0000
  C   C9        1.0  0.42984  0.02099  0.14228  1.0000
  C   C10       1.0  0.57332  0.97865  0.15499  1.0000
  C   C11       1.0  0.07022  0.52073  0.38267  1.0000
  C   C12       1.0  0.92618  0.47963  0.36555  1.0000
  C   C13       1.0  0.07027  0.48016  0.37223  1.0000
  C   C14       1.0  0.92616  0.52028  0.36728  1.0000
  C   C15       1.0  0.42931  0.98039  0.14007  1.0000
  C   C16       1.0  0.57386  0.01930  0.15631  1.0000
  C   C17       1.0  0.46649  0.08477  0.10007  1.0000
  C   C18       1.0  0.53704  0.91478  0.10617  1.0000
  C   C19       1.0  0.03424  0.58464  0.43323  1.0000
  C   C20       1.0  0.96200  0.41512  0.40203  1.0000
  C   C21       1.0  0.03468  0.41536  0.40094  1.0000
  C   C22       1.0  0.96148  0.58449  0.42138  1.0000
  C   C23       1.0  0.46428  0.91565  0.09406  1.0000
  C   C24       1.0  0.53934  0.08417  0.10758  1.0000
  C   C25       1.0  0.43031  0.10871  0.07970  1.0000
  C   C26       1.0  0.57282  0.88998  0.09122  1.0000
  C   C27       1.0  0.07027  0.60905  0.45111  1.0000
  C   C28       1.0  0.92619  0.39050  0.41725  1.0000
  C   C29       1.0  0.07095  0.39139  0.41485  1.0000
  C   C30       1.0  0.42730  0.14652  0.15473  1.0000
  C   C31       1.0  0.57441  0.85232  0.16673  1.0000
  C   C32       1.0  0.07172  0.64713  0.37892  1.0000
  C   C33       1.0  0.92440  0.35308  0.33815  1.0000
  C   C34       1.0  0.07394  0.35410  0.33507  1.0000
  C   C35       1.0  0.39414  0.17020  0.13345  1.0000
  C   C36       1.0  0.60654  0.82717  0.14481  1.0000
  C   C37       1.0  0.10457  0.67148  0.39500  1.0000
  C   C38       1.0  0.89206  0.32820  0.35641  1.0000
  C   C39       1.0  0.10715  0.33032  0.35365  1.0000
  C   C40       1.0  0.36226  0.15669  0.03667  1.0000
  C   C41       1.0  0.63872  0.83903  0.04674  1.0000
  C   C42       1.0  0.13801  0.65848  0.48276  1.0000
  C   C43       1.0  0.85978  0.33996  0.45451  1.0000
  C   C44       1.0  0.13898  0.34331  0.45191  1.0000
  C   C45       1.0  0.36160  0.12175  0.46992  1.0000
  C   C46       1.0  0.14222  0.38121  0.02337  1.0000
  C   C47       1.0  0.63693  0.11682  0.47226  1.0000
  C   C48       1.0  0.39458  0.09770  0.49096  1.0000
  C   C49       1.0  0.10902  0.40517  0.00677  1.0000
  C   C50       1.0  0.60329  0.09401  0.49803  1.0000
  C   C51       1.0  0.32789  0.18219  0.01590  1.0000
  C   C52       1.0  0.67222  0.81249  0.02199  1.0000
  C   C53       1.0  0.17250  0.68425  0.49593  1.0000
  C   C54       1.0  0.82570  0.31390  0.47095  1.0000
  C   C55       1.0  0.17347  0.31802  0.47183  1.0000
  C   C56       1.0  0.82263  0.68330  0.46391  1.0000
  C   C57       1.0  0.32607  0.81760  0.00565  1.0000
  C   C58       1.0  0.67656  0.18443  0.02501  1.0000
  C   C59       1.0  0.78750  0.26056  0.44310  1.0000
  C   C60       1.0  0.21103  0.73711  0.46144  1.0000
  C   C61       1.0  0.70983  0.75852  0.03883  1.0000
  C   C62       1.0  0.28998  0.23583  0.04027  1.0000
  C   C63       1.0  0.71376  0.23877  0.04359  1.0000
  C   C64       1.0  0.28824  0.76437  0.04004  1.0000
  C   C65       1.0  0.78507  0.73694  0.43235  1.0000
  C   C66       1.0  0.21216  0.26504  0.44889  1.0000
  C   C67       1.0  0.77642  0.22187  0.39667  1.0000
  C   C68       1.0  0.22235  0.77531  0.41091  1.0000
  C   C69       1.0  0.72080  0.71973  0.08214  1.0000
  C   C70       1.0  0.27926  0.27454  0.08745  1.0000
  C   C71       1.0  0.72450  0.27760  0.08940  1.0000
  C   C72       1.0  0.27741  0.72632  0.09363  1.0000
  C   C73       1.0  0.77464  0.77558  0.38399  1.0000
  C   C74       1.0  0.22368  0.22659  0.40208  1.0000
  N   N1        1.0  0.32578  0.21856  0.07485  1.0000
  N   N2        1.0  0.67428  0.77603  0.07826  1.0000
  N   N3        1.0  0.17449  0.72026  0.43459  1.0000
  N   N4        1.0  0.82361  0.27765  0.41057  1.0000
  N   N5        1.0  0.17623  0.28180  0.41195  1.0000
  N   N6        1.0  0.82096  0.71919  0.40123  1.0000
  N   N7        1.0  0.32426  0.78181  0.06919  1.0000
  N   N8        1.0  0.67843  0.22095  0.08283  1.0000
  C   C75       1.0  0.26053  0.78758  0.44939  1.0000
  C   C76       1.0  0.73914  0.20899  0.44492  1.0000
  C   C77       1.0  0.24183  0.28745  0.04225  1.0000
  C   C78       1.0  0.75826  0.70702  0.03524  1.0000
  C   C79       1.0  0.23966  0.71335  0.05347  1.0000
  C   C80       1.0  0.76167  0.29074  0.04097  1.0000
  C   C81       1.0  0.26099  0.21414  0.45087  1.0000
  C   C82       1.0  0.73754  0.78935  0.43124  1.0000
  S   S1        1.0  0.78083  0.66156  0.07292  1.0000
  S   S2        1.0  0.22004  0.33330  0.08048  1.0000
  S   S3        1.0  0.71717  0.16287  0.41236  1.0000
  S   S4        1.0  0.28316  0.83260  0.40442  1.0000
  S   S5        1.0  0.71634  0.83579  0.39841  1.0000
  S   S6        1.0  0.28353  0.16873  0.41232  1.0000
  S   S7        1.0  0.78414  0.33626  0.08062  1.0000
  S   S8        1.0  0.21748  0.66838  0.10171  1.0000
  H   H1        1.0  0.79667  0.20348  0.32580  1.0000
  H   H2        1.0  0.20170  0.79396  0.34401  1.0000
  H   H3        1.0  0.70044  0.70124  0.15106  1.0000
  H   H4        1.0  0.29985  0.29275  0.15760  1.0000
  H   H5        1.0  0.70425  0.29568  0.16174  1.0000
  H   H6        1.0  0.29807  0.70856  0.16443  1.0000
  H   H7        1.0  0.79531  0.79322  0.31279  1.0000
  H   H8        1.0  0.20379  0.20810  0.32987  1.0000
  H   H9        1.0  0.40250  0.03724  0.16117  1.0000
  H   H10       1.0  0.60051  0.96234  0.17563  1.0000
  H   H11       1.0  0.09778  0.53690  0.37060  1.0000
  H   H12       1.0  0.89880  0.46372  0.34321  1.0000
  H   H13       1.0  0.09786  0.46458  0.35072  1.0000
  H   H14       1.0  0.89884  0.53623  0.34485  1.0000
  H   H15       1.0  0.40151  0.96490  0.15699  1.0000
  H   H16       1.0  0.60138  0.03486  0.18013  1.0000
  H   H17       1.0  0.45106  0.15686  0.23444  1.0000
  H   H18       1.0  0.55028  0.84322  0.24672  1.0000
  H   H19       1.0  0.04690  0.65704  0.30450  1.0000
  H   H20       1.0  0.94845  0.34401  0.25740  1.0000
  H   H21       1.0  0.05019  0.34416  0.25439  1.0000
  H   H22       1.0  0.39173  0.19910  0.19354  1.0000
  H   H23       1.0  0.60776  0.79849  0.20581  1.0000
  H   H24       1.0  0.10541  0.70052  0.33687  1.0000
  H   H25       1.0  0.89062  0.29983  0.29196  1.0000
  H   H26       1.0  0.10940  0.30170  0.29121  1.0000
  H   H27       1.0  0.33737  0.11115  0.39305  1.0000
  H   H28       1.0  0.16739  0.39227  0.09340  1.0000
  H   H29       1.0  0.65970  0.10586  0.38868  1.0000
  H   H30       1.0  0.39598  0.06913  0.42797  1.0000
  H   H31       1.0  0.10846  0.43406  0.06745  1.0000
  H   H32       1.0  0.60001  0.06568  0.43428  1.0000
  C   C83       1.0  0.50310  0.10391  0.09239  1.0000
  C   C84       1.0  0.50058  0.89580  0.08932  1.0000
  C   C85       1.0  0.99768  0.60394  0.44064  1.0000
  C   C86       1.0  0.99843  0.39567  0.40795  1.0000
  C   C87       1.0  0.50143  0.97851  0.12340  1.0000
  C   C88       1.0  0.50203  0.02119  0.12470  1.0000
  C   C89       1.0  0.99815  0.47871  0.39269  1.0000
  C   C90       1.0  0.99804  0.52135  0.40004  1.0000
  H   H33       1.0  0.50338  0.13558  0.06633  1.0000
  H   H34       1.0  0.50066  0.86404  0.06447  1.0000
  H   H35       1.0  0.99728  0.63561  0.46807  1.0000
  H   H36       1.0  0.99855  0.36374  0.42755  1.0000
  C   C91       1.0  0.46196  0.95842  0.62269  1.0000
  C   C92       1.0  0.53521  0.04334  0.64149  1.0000
  C   C93       1.0  0.03934  0.45804  0.88496  1.0000
  C   C94       1.0  0.96515  0.54244  0.88342  1.0000
  C   C95       1.0  0.03831  0.54320  0.89744  1.0000
  C   C96       1.0  0.96601  0.45752  0.88052  1.0000
  C   C97       1.0  0.46199  0.04382  0.62887  1.0000
  C   C98       1.0  0.53526  0.95865  0.63507  1.0000
  C   C99       1.0  0.42644  0.02139  0.64680  1.0000
  C   C100      1.0  0.57027  0.98062  0.67123  1.0000
  C   C101      1.0  0.07408  0.52153  0.87238  1.0000
  C   C102      1.0  0.93072  0.47941  0.84913  1.0000
  C   C103      1.0  0.07445  0.48094  0.86343  1.0000
  C   C104      1.0  0.93032  0.52002  0.84915  1.0000
  C   C105      1.0  0.42641  0.98071  0.64387  1.0000
  C   C106      1.0  0.57027  0.02120  0.67400  1.0000
  C   C107      1.0  0.46272  0.08588  0.60860  1.0000
  C   C108      1.0  0.53542  0.91697  0.60589  1.0000
  C   C109      1.0  0.03722  0.58505  0.92249  1.0000
  C   C110      1.0  0.96649  0.41564  0.90312  1.0000
  C   C111      1.0  0.03931  0.41596  0.90327  1.0000
  C   C112      1.0  0.96470  0.58429  0.90896  1.0000
  C   C113      1.0  0.46270  0.91649  0.59797  1.0000
  C   C114      1.0  0.53542  0.08511  0.61797  1.0000
  C   C115      1.0  0.42696  0.11042  0.58654  1.0000
  C   C116      1.0  0.07551  0.39186  0.91960  1.0000
  C   C117      1.0  0.57224  0.10795  0.59818  1.0000
  C   C118      1.0  0.42505  0.14886  0.65706  1.0000
  C   C119      1.0  0.07670  0.35300  0.85281  1.0000
  C   C120      1.0  0.57638  0.14563  0.67286  1.0000
  C   C121      1.0  0.39243  0.17323  0.63472  1.0000
  C   C122      1.0  0.10949  0.32870  0.87157  1.0000
  C   C123      1.0  0.60998  0.16842  0.64872  1.0000
  C   C124      1.0  0.35988  0.15989  0.54160  1.0000
  C   C125      1.0  0.14305  0.34254  0.95685  1.0000
  C   C126      1.0  0.64078  0.15445  0.54696  1.0000
  C   C127      1.0  0.36499  0.11905  0.96119  1.0000
  C   C128      1.0  0.63747  0.87672  0.97268  1.0000
  C   C129      1.0  0.13684  0.62060  0.55537  1.0000
  C   C130      1.0  0.86149  0.37707  0.53503  1.0000
  C   C131      1.0  0.13618  0.38040  0.53180  1.0000
  C   C132      1.0  0.39842  0.09566  0.98196  1.0000
  C   C133      1.0  0.60509  0.90157  0.99361  1.0000
  C   C134      1.0  0.10355  0.59663  0.54139  1.0000
  C   C135      1.0  0.89403  0.40178  0.51687  1.0000
  C   C136      1.0  0.10268  0.40378  0.51462  1.0000
  C   C137      1.0  0.32573  0.18567  0.52071  1.0000
  C   C138      1.0  0.67350  0.81967  0.50405  1.0000
  C   C139      1.0  0.17437  0.68434  0.99782  1.0000
  C   C140      1.0  0.82661  0.31944  0.97316  1.0000
  C   C141      1.0  0.17708  0.31656  0.97665  1.0000
  C   C142      1.0  0.82378  0.67910  0.97233  1.0000
  C   C143      1.0  0.32642  0.81574  0.50476  1.0000
  C   C144      1.0  0.67490  0.17991  0.51997  1.0000
  C   C145      1.0  0.78827  0.26619  0.94776  1.0000
  C   C146      1.0  0.21246  0.73721  0.96119  1.0000
  C   C147      1.0  0.71032  0.76520  0.52177  1.0000
  C   C148      1.0  0.28730  0.23893  0.54454  1.0000
  C   C149      1.0  0.71245  0.23388  0.53612  1.0000
  C   C150      1.0  0.28785  0.76291  0.53739  1.0000
  C   C151      1.0  0.78513  0.73203  0.94694  1.0000
  C   C152      1.0  0.21467  0.26271  0.95265  1.0000
  C   C153      1.0  0.77741  0.22756  0.90054  1.0000
  C   C154      1.0  0.22336  0.77515  0.90688  1.0000
  C   C155      1.0  0.72058  0.72652  0.56891  1.0000
  C   C156      1.0  0.27572  0.27741  0.59149  1.0000
  C   C157      1.0  0.72324  0.27275  0.58006  1.0000
  C   C158      1.0  0.27650  0.72481  0.58843  1.0000
  C   C159      1.0  0.77405  0.77065  0.90206  1.0000
  C   C160      1.0  0.22535  0.22394  0.90611  1.0000
  N   N9        1.0  0.32320  0.22192  0.58093  1.0000
  N   N10       1.0  0.67495  0.78309  0.55909  1.0000
  N   N11       1.0  0.17635  0.71989  0.93252  1.0000
  N   N12       1.0  0.82406  0.28333  0.91192  1.0000
  N   N13       1.0  0.17889  0.28014  0.91798  1.0000
  N   N14       1.0  0.82131  0.71529  0.91362  1.0000
  N   N15       1.0  0.32427  0.77975  0.56614  1.0000
  N   N16       1.0  0.67700  0.21658  0.57555  1.0000
  C   C161      1.0  0.26098  0.78829  0.94840  1.0000
  C   C162      1.0  0.74042  0.21434  0.95002  1.0000
  C   C163      1.0  0.23840  0.28992  0.54235  1.0000
  C   C164      1.0  0.75781  0.71299  0.52381  1.0000
  C   C165      1.0  0.23846  0.71245  0.54879  1.0000
  C   C166      1.0  0.76057  0.28544  0.53315  1.0000
  C   C167      1.0  0.26290  0.21106  0.95055  1.0000
  C   C168      1.0  0.73659  0.78331  0.94863  1.0000
  S   S9        1.0  0.77942  0.66746  0.56720  1.0000
  S   S10       1.0  0.21565  0.33536  0.57944  1.0000
  S   S11       1.0  0.71883  0.16827  0.91474  1.0000
  S   S12       1.0  0.28298  0.83351  0.90210  1.0000
  S   S13       1.0  0.71454  0.82907  0.91379  1.0000
  S   S14       1.0  0.28504  0.16532  0.91178  1.0000
  S   S15       1.0  0.78263  0.33101  0.57272  1.0000
  S   S16       1.0  0.21605  0.66740  0.59409  1.0000
  H   H37       1.0  0.79761  0.20964  0.82734  1.0000
  H   H38       1.0  0.20286  0.79274  0.83455  1.0000
  H   H39       1.0  0.69989  0.70894  0.64018  1.0000
  H   H40       1.0  0.29544  0.29592  0.66440  1.0000
  H   H41       1.0  0.70293  0.29128  0.65004  1.0000
  H   H42       1.0  0.29687  0.70637  0.65773  1.0000
  H   H43       1.0  0.79462  0.78923  0.83448  1.0000
  H   H44       1.0  0.20457  0.20566  0.83733  1.0000
  H   H45       1.0  0.39878  0.03720  0.66325  1.0000
  H   H46       1.0  0.59734  0.96448  0.69623  1.0000
  H   H47       1.0  0.10142  0.53796  0.85776  1.0000
  H   H48       1.0  0.90364  0.46323  0.82437  1.0000
  H   H49       1.0  0.10205  0.46564  0.83888  1.0000
  H   H50       1.0  0.90305  0.53579  0.82361  1.0000
  H   H51       1.0  0.39876  0.96473  0.65755  1.0000
  H   H52       1.0  0.59733  0.03720  0.70145  1.0000
  H   H53       1.0  0.44921  0.15915  0.73476  1.0000
  H   H54       1.0  0.05166  0.34214  0.78153  1.0000
  H   H55       1.0  0.55324  0.15648  0.75460  1.0000
  H   H56       1.0  0.39087  0.20251  0.69200  1.0000
  H   H57       1.0  0.11012  0.29888  0.81909  1.0000
  H   H58       1.0  0.61347  0.19708  0.70965  1.0000
  H   H59       1.0  0.34132  0.10860  0.88091  1.0000
  H   H60       1.0  0.66143  0.88609  0.89236  1.0000
  H   H61       1.0  0.16190  0.61012  0.62725  1.0000
  H   H62       1.0  0.83772  0.38611  0.61748  1.0000
  H   H63       1.0  0.15982  0.39040  0.61300  1.0000
  H   H64       1.0  0.40072  0.06758  0.91565  1.0000
  H   H65       1.0  0.60396  0.92977  0.92888  1.0000
  H   H66       1.0  0.10262  0.56855  0.60709  1.0000
  H   H67       1.0  0.89538  0.42952  0.58595  1.0000
  H   H68       1.0  0.10012  0.43119  0.58544  1.0000
  C   C169      1.0  0.49941  0.10500  0.60182  1.0000
  C   C170      1.0  0.49928  0.89736  0.58796  1.0000
  C   C171      1.0  0.00057  0.60417  0.92963  1.0000
  C   C172      1.0  0.00294  0.39639  0.91497  1.0000
  C   C173      1.0  0.49852  0.97973  0.63258  1.0000
  C   C174      1.0  0.49851  0.02235  0.63591  1.0000
  C   C175      1.0  0.00249  0.47898  0.88381  1.0000
  C   C176      1.0  0.00198  0.52157  0.88761  1.0000
  H   H69       1.0  0.50006  0.13659  0.57428  1.0000
  H   H70       1.0  0.49960  0.86590  0.55642  1.0000
  H   H71       1.0  0.99991  0.63578  0.95877  1.0000
  H   H72       1.0  0.00304  0.36475  0.94115  1.0000
  C   C177      1.0  0.63725  0.10926  0.97779  1.0000
  C   C178      1.0  0.64317  0.14727  0.02728  1.0000
  C  Sn1       1.0  0.61460  0.16708  0.12101  1.0000
  C  Sn2       1.0  0.57943  0.14700  0.16587  1.0000
  C   C179      1.0  0.57375  0.10758  0.11584  1.0000
  C   C180      1.0  0.60253  0.08804  0.02203  1.0000
  H   H73       1.0  0.65952  0.09413  0.90528  1.0000
  O  Te1       1.0  0.62103  0.20644  0.16938  1.0000
  O  Te2       1.0  0.55040  0.16609  0.25954  1.0000
  H   H74       1.0  0.59796  0.05892  0.98382  1.0000
  Mg  Mg1       1.0  0.57275  0.21979  0.29587  1.0000
  C   C181      1.0  0.61497  0.90738  0.48044  1.0000
  C   C182      1.0  0.57915  0.89723  0.55444  1.0000
  C  Sn3       1.0  0.57452  0.86018  0.62901  1.0000
  C  Sn4       1.0  0.60639  0.83285  0.62936  1.0000
  C   C183      1.0  0.64212  0.84330  0.55510  1.0000
  C   C184      1.0  0.64643  0.88044  0.48079  1.0000
  H   H75       1.0  0.61832  0.93612  0.42302  1.0000
  O  Te3       1.0  0.53852  0.85052  0.70233  1.0000
  O  Te4       1.0  0.60257  0.79563  0.70307  1.0000
  H   H76       1.0  0.67418  0.88830  0.42360  1.0000
  Mg  Mg2       1.0  0.54771  0.79618  0.78697  1.0000
  C   C185      1.0  0.88174  0.59802  0.53773  1.0000
  C   C186      1.0  0.91605  0.60370  0.44511  1.0000
  C  Sn5       1.0  0.92147  0.63875  0.35630  1.0000
  C  Sn6       1.0  0.89195  0.66864  0.36055  1.0000
  C   C187      1.0  0.85774  0.66269  0.45367  1.0000
  C   C188      1.0  0.85262  0.62749  0.54204  1.0000
  H   H77       1.0  0.87778  0.57080  0.60618  1.0000
  O  Te5       1.0  0.95591  0.64393  0.26436  1.0000
  O  Te6       1.0  0.89661  0.70396  0.27299  1.0000
  H   H78       1.0  0.82606  0.62311  0.61382  1.0000
  Mg  Mg3       1.0  0.94868  0.69717  0.16571  1.0000
  C   C189      1.0  0.38572  0.90381  0.95678  1.0000
  C   C190      1.0  0.41945  0.89508  0.05075  1.0000
  C  Sn7       1.0  0.42412  0.85874  0.13113  1.0000
  C  Sn8       1.0  0.39438  0.82927  0.11689  1.0000
  C   C191      1.0  0.36070  0.83690  0.02250  1.0000
  C   C192      1.0  0.35637  0.87476  0.94263  1.0000
  H   H79       1.0  0.38233  0.93202  0.89491  1.0000
  O  Te7       1.0  0.45806  0.85190  0.22457  1.0000
  O  Te8       1.0  0.39830  0.79270  0.19589  1.0000
  H   H80       1.0  0.33022  0.88043  0.86979  1.0000
  Mg  Mg4       1.0  0.44989  0.79740  0.30913  1.0000
  C   C193      1.0  0.40241  0.83077  0.64149  1.0000
  C   C194      1.0  0.36798  0.83808  0.55163  1.0000
  C  Sn9       1.0  0.36394  0.87319  0.46187  1.0000
  C  Sn10      1.0  0.39499  0.90144  0.46229  1.0000
  C   C195      1.0  0.42932  0.89384  0.55248  1.0000
  C   C196      1.0  0.43306  0.85862  0.64191  1.0000
  H   H81       1.0  0.40531  0.80351  0.71061  1.0000
  O  Te9       1.0  0.32933  0.88002  0.37282  1.0000
  O  Te10      1.0  0.39172  0.93677  0.37361  1.0000
  H   H82       1.0  0.45973  0.85296  0.71138  1.0000
  Mg  Mg5       1.0  0.33881  0.93258  0.27133  1.0000
  C   C197      1.0  0.88663  0.40530  0.02243  1.0000
  C   C198      1.0  0.92307  0.39651  0.95297  1.0000
  C  Sn11      1.0  0.92784  0.36010  0.87154  1.0000
  C  Sn12      1.0  0.89552  0.33346  0.85959  1.0000
  C   C199      1.0  0.85923  0.34393  0.92939  1.0000
  C   C200      1.0  0.85473  0.37905  0.01065  1.0000
  H   H83       1.0  0.88318  0.43355  0.08523  1.0000
  O  Te11      1.0  0.96440  0.35039  0.80289  1.0000
  O  Te12      1.0  0.89946  0.29688  0.77884  1.0000
  H   H84       1.0  0.82655  0.38693  0.06432  1.0000
  Mg  Mg6       1.0  0.95516  0.29709  0.70523  1.0000
  C   C201      1.0  0.11541  0.59838  0.05716  1.0000
  C   C202      1.0  0.07972  0.60812  0.97866  1.0000
  C  Sn13      1.0  0.07497  0.64346  0.89110  1.0000
  C  Sn14      1.0  0.10667  0.67089  0.88214  1.0000
  C   C203      1.0  0.14232  0.66224  0.96100  1.0000
  C   C204      1.0  0.14669  0.62541  0.04833  1.0000
  H   H85       1.0  0.11884  0.57094  0.12466  1.0000
  O  Te13      1.0  0.03905  0.65134  0.81345  1.0000
  O  Te14      1.0  0.10273  0.70643  0.79540  1.0000
  H   H86       1.0  0.17438  0.61894  0.10900  1.0000
  Mg  Mg7       1.0  0.04803  0.70379  0.71020  1.0000
  C   C205      1.0  0.88582  0.59557  0.03607  1.0000
  C   C206      1.0  0.91924  0.60384  0.93895  1.0000
  C  Sn15      1.0  0.92282  0.63914  0.85011  1.0000
  C  Sn16      1.0  0.89239  0.66803  0.85895  1.0000
  C   C207      1.0  0.85914  0.66087  0.95656  1.0000
  C   C208      1.0  0.85581  0.62406  0.04491  1.0000
  H   H87       1.0  0.88329  0.56817  0.10450  1.0000
  O  Te15      1.0  0.95634  0.64553  0.75363  1.0000
  O  Te16      1.0  0.89521  0.70356  0.77148  1.0000
  H   H88       1.0  0.82998  0.61875  0.12018  1.0000
  Mg  Mg8       1.0  0.94661  0.69858  0.65704  1.0000
