data_image0
_chemical_formula_structural       C70N8C8O8H32C8H4C74N8C8O8H32C8H4SnCSn2CSnTe4Mg2SnCSn2CSnTe4Mg2SnCSn2CSnTe4Mg2SnCSn2CSnTe4Mg2SnCSn2CSnTe4Mg2SnCSn2CSnTe4Mg2SnCSn2CSnTe4Mg2SnCSn2CSnTe4Mg2
_chemical_formula_sum              "C192 N16 O16 H72 Sn32 Te32 Mg16"
_cell_length_a       34.1108
_cell_length_b       31.8982
_cell_length_c       8.00501
_cell_angle_alpha    89.82
_cell_angle_beta     90.0427
_cell_angle_gamma    90.0009

_symmetry_space_group_name_H-M    'P1'
_space_group_IT_number       1

loop_
  _space_group_symop_operation_xyz
  'x, y, z'

loop_
  _atom_site_type_symbol
  _atom_site_label
  _atom_site_symmetry_multiplicity
  _atom_site_fract_x
  _atom_site_fract_y
  _atom_site_fract_z
  _atom_site_occupancy
  C   C1        1.0  0.46525  0.95550  0.12615  1.0000
  C   C2        1.0  0.53899  0.04465  0.14189  1.0000
  C   C3        1.0  0.03471  0.45560  0.37913  1.0000
  C   C4        1.0  0.96139  0.54503  0.38572  1.0000
  C   C5        1.0  0.03431  0.54533  0.39402  1.0000
  C   C6        1.0  0.96180  0.45509  0.37847  1.0000
  C   C7        1.0  0.46609  0.04515  0.13205  1.0000
  C   C8        1.0  0.53817  0.95467  0.13804  1.0000
  C   C9        1.0  0.43062  0.02196  0.15292  1.0000
  C   C10       1.0  0.57322  0.97776  0.17050  1.0000
  C   C11       1.0  0.06961  0.52229  0.36724  1.0000
  C   C12       1.0  0.92666  0.47861  0.35291  1.0000
  C   C13       1.0  0.06975  0.47952  0.35834  1.0000
  C   C14       1.0  0.92653  0.52148  0.35518  1.0000
  C   C15       1.0  0.43018  0.97916  0.14940  1.0000
  C   C16       1.0  0.57363  0.02065  0.17252  1.0000
  C   C17       1.0  0.46682  0.08950  0.11320  1.0000
  C   C18       1.0  0.53753  0.91038  0.11656  1.0000
  C   C19       1.0  0.03380  0.58962  0.41526  1.0000
  C   C20       1.0  0.96240  0.41051  0.39057  1.0000
  C   C21       1.0  0.03470  0.41103  0.38926  1.0000
  C   C22       1.0  0.96146  0.58938  0.40498  1.0000
  C   C23       1.0  0.46520  0.91128  0.10327  1.0000
  C   C24       1.0  0.53916  0.08908  0.12258  1.0000
  C   C25       1.0  0.43110  0.11529  0.09661  1.0000
  C   C26       1.0  0.07077  0.38555  0.39727  1.0000
  C   C27       1.0  0.92549  0.61523  0.40801  1.0000
  C   C28       1.0  0.42931  0.15482  0.17486  1.0000
  C   C29       1.0  0.07243  0.34657  0.31457  1.0000
  C   C30       1.0  0.92513  0.65434  0.32519  1.0000
  C   C31       1.0  0.39662  0.18035  0.15898  1.0000
  C   C32       1.0  0.10537  0.32115  0.32494  1.0000
  C   C33       1.0  0.89255  0.68039  0.32910  1.0000
  C   C34       1.0  0.36411  0.16696  0.06486  1.0000
  C   C35       1.0  0.13830  0.33418  0.41731  1.0000
  C   C36       1.0  0.85872  0.66810  0.41699  1.0000
  C   C37       1.0  0.36159  0.13031  0.48936  1.0000
  C   C38       1.0  0.63636  0.87587  0.48999  1.0000
  C   C39       1.0  0.14200  0.37232  0.99663  1.0000
  C   C40       1.0  0.36246  0.87100  0.47198  1.0000
  C   C41       1.0  0.63670  0.12526  0.49818  1.0000
  C   C42       1.0  0.39415  0.10430  0.50489  1.0000
  C   C43       1.0  0.60342  0.90102  0.51210  1.0000
  C   C44       1.0  0.10911  0.39800  0.98627  1.0000
  C   C45       1.0  0.39490  0.89708  0.49086  1.0000
  C   C46       1.0  0.60348  0.10039  0.51775  1.0000
  C   C47       1.0  0.33059  0.19445  0.04972  1.0000
  C   C48       1.0  0.67010  0.80001  0.05600  1.0000
  C   C49       1.0  0.16962  0.69636  0.45983  1.0000
  C   C50       1.0  0.82771  0.30236  0.43785  1.0000
  C   C51       1.0  0.17213  0.30696  0.42930  1.0000
  C   C52       1.0  0.82532  0.69611  0.42426  1.0000
  C   C53       1.0  0.32896  0.80599  0.03851  1.0000
  C   C54       1.0  0.67294  0.19819  0.05661  1.0000
  C   C55       1.0  0.78679  0.25139  0.42454  1.0000
  C   C56       1.0  0.21052  0.74722  0.44097  1.0000
  C   C57       1.0  0.70958  0.74770  0.05399  1.0000
  C   C58       1.0  0.29029  0.24592  0.05555  1.0000
  C   C59       1.0  0.71321  0.24984  0.06335  1.0000
  C   C60       1.0  0.28821  0.75522  0.06553  1.0000
  C   C61       1.0  0.78452  0.74714  0.40676  1.0000
  C   C62       1.0  0.21303  0.25603  0.42228  1.0000
  C   C63       1.0  0.76729  0.21335  0.39445  1.0000
  C   C64       1.0  0.22989  0.78522  0.40809  1.0000
  C   C65       1.0  0.72838  0.70885  0.07447  1.0000
  C   C66       1.0  0.27141  0.28441  0.08171  1.0000
  C   C67       1.0  0.73269  0.28793  0.09316  1.0000
  C   C68       1.0  0.26888  0.71786  0.10849  1.0000
  C   C69       1.0  0.76496  0.78506  0.37349  1.0000
  C   C70       1.0  0.23228  0.21776  0.39613  1.0000
  N   N1        1.0  0.32733  0.23293  0.10477  1.0000
  N   N2        1.0  0.67263  0.76081  0.10474  1.0000
  N   N3        1.0  0.17282  0.73448  0.39971  1.0000
  N   N4        1.0  0.82392  0.26453  0.37620  1.0000
  N   N5        1.0  0.17616  0.26896  0.37003  1.0000
  N   N6        1.0  0.82130  0.73334  0.35641  1.0000
  N   N7        1.0  0.32526  0.76915  0.10993  1.0000
  N   N8        1.0  0.67641  0.23639  0.11491  1.0000
  C   C71       1.0  0.26802  0.78617  0.46777  1.0000
  C   C72       1.0  0.73015  0.21164  0.46413  1.0000
  C   C73       1.0  0.23409  0.28591  0.01398  1.0000
  C   C74       1.0  0.76599  0.70803  0.00920  1.0000
  C   C75       1.0  0.23164  0.71492  0.04069  1.0000
  C   C76       1.0  0.76993  0.28953  0.02430  1.0000
  C   C77       1.0  0.26922  0.21623  0.46769  1.0000
  C   C78       1.0  0.72843  0.78764  0.44857  1.0000
  O   O1        1.0  0.79199  0.67479  0.01096  1.0000
  O   O2        1.0  0.20824  0.31917  0.01837  1.0000
  O   O3        1.0  0.70395  0.17856  0.45909  1.0000
  O   O4        1.0  0.29439  0.81898  0.45739  1.0000
  O   O5        1.0  0.70235  0.82090  0.44222  1.0000
  O   O6        1.0  0.29531  0.18313  0.46450  1.0000
  O   O7        1.0  0.79659  0.32223  0.03244  1.0000
  O   O8        1.0  0.20530  0.68219  0.05808  1.0000
  H   H1        1.0  0.40343  0.03898  0.17202  1.0000
  H   H2        1.0  0.60019  0.96061  0.19380  1.0000
  H   H3        1.0  0.09689  0.53940  0.35155  1.0000
  H   H4        1.0  0.89952  0.46182  0.32924  1.0000
  H   H5        1.0  0.09702  0.46311  0.33378  1.0000
  H   H6        1.0  0.89936  0.53832  0.33241  1.0000
  H   H7        1.0  0.40266  0.96251  0.16569  1.0000
  H   H8        1.0  0.60089  0.03698  0.19846  1.0000
  H   H9        1.0  0.45348  0.16478  0.25406  1.0000
  H   H10       1.0  0.04773  0.33670  0.23812  1.0000
  H   H11       1.0  0.95067  0.66379  0.25303  1.0000
  H   H12       1.0  0.39514  0.21049  0.22170  1.0000
  H   H13       1.0  0.10665  0.29128  0.26009  1.0000
  H   H14       1.0  0.89239  0.71020  0.26277  1.0000
  H   H15       1.0  0.33679  0.12063  0.41339  1.0000
  H   H16       1.0  0.66062  0.88680  0.41327  1.0000
  H   H17       1.0  0.16754  0.38259  0.06663  1.0000
  H   H18       1.0  0.33807  0.88063  0.39324  1.0000
  H   H19       1.0  0.66076  0.11469  0.41998  1.0000
  H   H20       1.0  0.39469  0.07468  0.43823  1.0000
  H   H21       1.0  0.60193  0.93138  0.45041  1.0000
  H   H22       1.0  0.10905  0.42772  0.05233  1.0000
  H   H23       1.0  0.39589  0.92675  0.42378  1.0000
  H   H24       1.0  0.60175  0.07062  0.45252  1.0000
  H   H25       1.0  0.78022  0.18828  0.32160  1.0000
  H   H26       1.0  0.21611  0.81101  0.34153  1.0000
  H   H27       1.0  0.71474  0.68253  0.13799  1.0000
  H   H28       1.0  0.28485  0.30981  0.15131  1.0000
  H   H29       1.0  0.71978  0.31308  0.16581  1.0000
  H   H30       1.0  0.28204  0.69428  0.18889  1.0000
  H   H31       1.0  0.77746  0.80959  0.29595  1.0000
  H   H32       1.0  0.21917  0.19237  0.32553  1.0000
  C   C79       1.0  0.50313  0.10973  0.10592  1.0000
  C   C80       1.0  0.50127  0.89046  0.09733  1.0000
  C   C81       1.0  0.99745  0.60993  0.42211  1.0000
  C   C82       1.0  0.99871  0.39018  0.39733  1.0000
  C   C83       1.0  0.50194  0.97748  0.13384  1.0000
  C   C84       1.0  0.50237  0.02248  0.13613  1.0000
  C   C85       1.0  0.99814  0.47776  0.38266  1.0000
  C   C86       1.0  0.99793  0.52276  0.38857  1.0000
  H   H33       1.0  0.50335  0.14319  0.07980  1.0000
  H   H34       1.0  0.50122  0.85706  0.07099  1.0000
  H   H35       1.0  0.99716  0.64348  0.44561  1.0000
  H   H36       1.0  0.99896  0.35641  0.41583  1.0000
  C   C87       1.0  0.46168  0.95559  0.63136  1.0000
  C   C88       1.0  0.53452  0.04520  0.64974  1.0000
  C   C89       1.0  0.03920  0.45560  0.87435  1.0000
  C   C90       1.0  0.96517  0.54445  0.87532  1.0000
  C   C91       1.0  0.03793  0.54551  0.88731  1.0000
  C   C92       1.0  0.96631  0.45482  0.86958  1.0000
  C   C93       1.0  0.46167  0.04567  0.63574  1.0000
  C   C94       1.0  0.53449  0.95591  0.64657  1.0000
  C   C95       1.0  0.42635  0.02198  0.65481  1.0000
  C   C96       1.0  0.56923  0.97903  0.68371  1.0000
  C   C97       1.0  0.07341  0.52278  0.85941  1.0000
  C   C98       1.0  0.93124  0.47793  0.83748  1.0000
  C   C99       1.0  0.07395  0.47997  0.85163  1.0000
  C   C100      1.0  0.93072  0.52072  0.83922  1.0000
  C   C101      1.0  0.42634  0.97908  0.65212  1.0000
  C   C102      1.0  0.56926  0.02184  0.68512  1.0000
  C   C103      1.0  0.46248  0.09009  0.61651  1.0000
  C   C104      1.0  0.53474  0.91189  0.62152  1.0000
  C   C105      1.0  0.03680  0.58964  0.91213  1.0000
  C   C106      1.0  0.96687  0.41048  0.88853  1.0000
  C   C107      1.0  0.03929  0.41106  0.88918  1.0000
  C   C108      1.0  0.96455  0.58861  0.89920  1.0000
  C   C109      1.0  0.46250  0.91129  0.60976  1.0000
  C   C110      1.0  0.53477  0.08937  0.62680  1.0000
  C   C111      1.0  0.42712  0.11647  0.59883  1.0000
  C   C112      1.0  0.57106  0.88707  0.60600  1.0000
  C   C113      1.0  0.07522  0.38530  0.89954  1.0000
  C   C114      1.0  0.42722  0.88493  0.58904  1.0000
  C   C115      1.0  0.57121  0.11408  0.61248  1.0000
  C   C116      1.0  0.42642  0.15656  0.67319  1.0000
  C   C117      1.0  0.57323  0.84696  0.67975  1.0000
  C   C118      1.0  0.07562  0.34515  0.82554  1.0000
  C   C119      1.0  0.42606  0.84492  0.66491  1.0000
  C   C120      1.0  0.57379  0.15368  0.68933  1.0000
  C   C121      1.0  0.39431  0.18293  0.65694  1.0000
  C   C122      1.0  0.60586  0.82161  0.65851  1.0000
  C   C123      1.0  0.10799  0.31902  0.83767  1.0000
  C   C124      1.0  0.39408  0.81851  0.64550  1.0000
  C   C125      1.0  0.60677  0.17870  0.67090  1.0000
  C   C126      1.0  0.36119  0.16994  0.56599  1.0000
  C   C127      1.0  0.63784  0.83564  0.56223  1.0000
  C   C128      1.0  0.14183  0.33239  0.92273  1.0000
  C   C129      1.0  0.36152  0.83145  0.55017  1.0000
  C   C130      1.0  0.63861  0.16501  0.57334  1.0000
  C   C131      1.0  0.36550  0.12775  0.98547  1.0000
  C   C132      1.0  0.13705  0.37294  0.50040  1.0000
  C   C133      1.0  0.85865  0.62918  0.50036  1.0000
  C   C134      1.0  0.39864  0.10262  0.00059  1.0000
  C   C135      1.0  0.10365  0.39782  0.49146  1.0000
  C   C136      1.0  0.89154  0.60340  0.49599  1.0000
  C   C137      1.0  0.32795  0.19789  0.55116  1.0000
  C   C138      1.0  0.67090  0.80764  0.54097  1.0000
  C   C139      1.0  0.17276  0.69517  0.96552  1.0000
  C   C140      1.0  0.82909  0.30737  0.94408  1.0000
  C   C141      1.0  0.17510  0.30443  0.93499  1.0000
  C   C142      1.0  0.82561  0.69075  0.93406  1.0000
  C   C143      1.0  0.32799  0.80377  0.53700  1.0000
  C   C144      1.0  0.67185  0.19276  0.55160  1.0000
  C   C145      1.0  0.78779  0.25690  0.93107  1.0000
  C   C146      1.0  0.21362  0.74573  0.93777  1.0000
  C   C147      1.0  0.71114  0.75607  0.54983  1.0000
  C   C148      1.0  0.28733  0.24917  0.55826  1.0000
  C   C149      1.0  0.71225  0.24422  0.55728  1.0000
  C   C150      1.0  0.28706  0.75292  0.55377  1.0000
  C   C151      1.0  0.78510  0.74210  0.92886  1.0000
  C   C152      1.0  0.21536  0.25287  0.92635  1.0000
  C   C153      1.0  0.76825  0.21899  0.90049  1.0000
  C   C154      1.0  0.23297  0.78303  0.89442  1.0000
  C   C155      1.0  0.73060  0.71823  0.58311  1.0000
  C   C156      1.0  0.26787  0.28734  0.58581  1.0000
  C   C157      1.0  0.73154  0.28238  0.58620  1.0000
  C   C158      1.0  0.26765  0.71502  0.58742  1.0000
  C   C159      1.0  0.76631  0.78089  0.90814  1.0000
  C   C160      1.0  0.23428  0.21434  0.90049  1.0000
  N   N9        1.0  0.32435  0.23615  0.60865  1.0000
  N   N10       1.0  0.67496  0.77008  0.60529  1.0000
  N   N11       1.0  0.17659  0.73185  0.89310  1.0000
  N   N12       1.0  0.82493  0.26963  0.88247  1.0000
  N   N13       1.0  0.17822  0.26606  0.87826  1.0000
  N   N14       1.0  0.82254  0.72970  0.88312  1.0000
  N   N15       1.0  0.32476  0.76547  0.59513  1.0000
  N   N16       1.0  0.67567  0.23084  0.61050  1.0000
  C   C161      1.0  0.27013  0.78606  0.96296  1.0000
  C   C162      1.0  0.73125  0.21721  0.97079  1.0000
  C   C163      1.0  0.23085  0.28885  0.51458  1.0000
  C   C164      1.0  0.76703  0.71566  0.50784  1.0000
  C   C165      1.0  0.22954  0.71410  0.52790  1.0000
  C   C166      1.0  0.76869  0.28398  0.51705  1.0000
  C   C167      1.0  0.27166  0.21272  0.96826  1.0000
  C   C168      1.0  0.72873  0.78163  0.97294  1.0000
  O   O9        1.0  0.79321  0.68276  0.51795  1.0000
  O   O10       1.0  0.20444  0.32170  0.51875  1.0000
  O   O11       1.0  0.70538  0.18387  0.96690  1.0000
  O   O12       1.0  0.29640  0.81884  0.94583  1.0000
  O   O13       1.0  0.70336  0.81526  0.97468  1.0000
  O   O14       1.0  0.29758  0.17933  0.96592  1.0000
  O   O15       1.0  0.79505  0.31678  0.52540  1.0000
  O   O16       1.0  0.20308  0.68143  0.54111  1.0000
  H   H37       1.0  0.39889  0.03863  0.67263  1.0000
  H   H38       1.0  0.59597  0.96190  0.71153  1.0000
  H   H39       1.0  0.10051  0.54014  0.84251  1.0000
  H   H40       1.0  0.90450  0.46080  0.80973  1.0000
  H   H41       1.0  0.10139  0.46396  0.82611  1.0000
  H   H42       1.0  0.90365  0.53728  0.81156  1.0000
  H   H43       1.0  0.39886  0.96224  0.66707  1.0000
  H   H44       1.0  0.59599  0.03884  0.71410  1.0000
  H   H45       1.0  0.45111  0.16635  0.74975  1.0000
  H   H46       1.0  0.54919  0.83617  0.75790  1.0000
  H   H47       1.0  0.05035  0.33485  0.75364  1.0000
  H   H48       1.0  0.45021  0.83535  0.74532  1.0000
  H   H49       1.0  0.54972  0.16424  0.76774  1.0000
  H   H50       1.0  0.39379  0.21344  0.71719  1.0000
  H   H51       1.0  0.60750  0.79085  0.71693  1.0000
  H   H52       1.0  0.10801  0.28822  0.77990  1.0000
  H   H53       1.0  0.39317  0.78812  0.70745  1.0000
  H   H54       1.0  0.60868  0.20889  0.73301  1.0000
  H   H55       1.0  0.34107  0.11786  0.90764  1.0000
  H   H56       1.0  0.16185  0.38280  0.57596  1.0000
  H   H57       1.0  0.83311  0.61978  0.57233  1.0000
  H   H58       1.0  0.40004  0.07334  0.93190  1.0000
  H   H59       1.0  0.10215  0.42647  0.56432  1.0000
  H   H60       1.0  0.89158  0.57432  0.56715  1.0000
  H   H61       1.0  0.78110  0.19390  0.82741  1.0000
  H   H62       1.0  0.21987  0.80637  0.81263  1.0000
  H   H63       1.0  0.71839  0.69402  0.66316  1.0000
  H   H64       1.0  0.28086  0.31262  0.65749  1.0000
  H   H65       1.0  0.71845  0.30745  0.65863  1.0000
  H   H66       1.0  0.28126  0.68944  0.65577  1.0000
  H   H67       1.0  0.78013  0.80748  0.84718  1.0000
  H   H68       1.0  0.22060  0.18882  0.83268  1.0000
  C   C169      1.0  0.49895  0.11023  0.60976  1.0000
  C   C170      1.0  0.49893  0.89112  0.60297  1.0000
  C   C171      1.0  0.00024  0.60957  0.91960  1.0000
  C   C172      1.0  0.00317  0.39026  0.89918  1.0000
  C   C173      1.0  0.49800  0.97814  0.64102  1.0000
  C   C174      1.0  0.49801  0.02307  0.64268  1.0000
  C   C175      1.0  0.00250  0.47759  0.87475  1.0000
  C   C176      1.0  0.00187  0.52254  0.87955  1.0000
  H   H69       1.0  0.49953  0.14368  0.58341  1.0000
  H   H70       1.0  0.49950  0.85778  0.57541  1.0000
  H   H71       1.0  0.99954  0.64289  0.94744  1.0000
  H   H72       1.0  0.00337  0.35663  0.92154  1.0000
  C  Sn1       1.0  0.86611  0.38624  0.96772  1.0000
  C   C177      1.0  0.85956  0.34642  0.90092  1.0000
  C  Sn2       1.0  0.89096  0.32220  0.84440  1.0000
  C  Sn3       1.0  0.92971  0.33810  0.85497  1.0000
  C   C178      1.0  0.93624  0.37789  0.92176  1.0000
  C  Sn4       1.0  0.90486  0.40214  0.97828  1.0000
  O  Te1       1.0  0.83410  0.41068  0.02347  1.0000
  O  Te2       1.0  0.88369  0.28249  0.77805  1.0000
  O  Te3       1.0  0.96155  0.31440  0.79914  1.0000
  O  Te4       1.0  0.91194  0.44261  0.04462  1.0000
  Mg  Mg1       1.0  0.93670  0.26214  0.71872  1.0000
  Mg  Mg2       1.0  0.85895  0.46298  0.10407  1.0000
  C  Sn5       1.0  0.08953  0.68352  0.39310  1.0000
  C   C179      1.0  0.12475  0.67614  0.47751  1.0000
  C  Sn6       1.0  0.13469  0.63564  0.52927  1.0000
  C  Sn7       1.0  0.10889  0.60181  0.49588  1.0000
  C   C180      1.0  0.07370  0.60920  0.41149  1.0000
  C  Sn8       1.0  0.06374  0.64969  0.35971  1.0000
  O  Te5       1.0  0.08020  0.72425  0.34250  1.0000
  O  Te6       1.0  0.17005  0.62904  0.61350  1.0000
  O  Te7       1.0  0.11825  0.56106  0.54656  1.0000
  O  Te8       1.0  0.02840  0.65629  0.27550  1.0000
  Mg  Mg3       1.0  0.16976  0.56792  0.65719  1.0000
  Mg  Mg4       1.0  0.02868  0.71740  0.23168  1.0000
  C  Sn9       1.0  0.62158  0.10121  0.05729  1.0000
  C   C181      1.0  0.58584  0.10927  0.13622  1.0000
  C  Sn10      1.0  0.57530  0.15025  0.17769  1.0000
  C  Sn11      1.0  0.60100  0.18388  0.13937  1.0000
  C   C182      1.0  0.63670  0.17581  0.06047  1.0000
  C  Sn12      1.0  0.64727  0.13484  0.01897  1.0000
  O  Te9       1.0  0.63151  0.05999  0.01697  1.0000
  O  Te10      1.0  0.53943  0.15753  0.25661  1.0000
  O  Te11      1.0  0.59103  0.22512  0.17977  1.0000
  O  Te12      1.0  0.68329  0.12677  0.94008  1.0000
  Mg  Mg5       1.0  0.53899  0.21912  0.28641  1.0000
  Mg  Mg6       1.0  0.68375  0.06519  0.91014  1.0000
  C  Sn13      1.0  0.91580  0.34241  0.27629  1.0000
  C   C183      1.0  0.92149  0.38153  0.35057  1.0000
  C  Sn14      1.0  0.89783  0.39426  0.48344  1.0000
  C  Sn15      1.0  0.86787  0.36731  0.54340  1.0000
  C   C184      1.0  0.86220  0.32822  0.46915  1.0000
  C  Sn16      1.0  0.88584  0.31547  0.33624  1.0000
  O  Te13      1.0  0.93979  0.33034  0.14361  1.0000
  O  Te14      1.0  0.90408  0.43352  0.55565  1.0000
  O  Te15      1.0  0.84387  0.37943  0.67618  1.0000
  O  Te16      1.0  0.87961  0.27623  0.26407  1.0000
  Mg  Mg7       1.0  0.86380  0.43587  0.73335  1.0000
  Mg  Mg8       1.0  0.91988  0.27384  0.08643  1.0000
  C  Sn17      1.0  0.09308  0.68317  0.89603  1.0000
  C   C185      1.0  0.12781  0.67522  0.98331  1.0000
  C  Sn18      1.0  0.13677  0.63536  0.03575  1.0000
  C  Sn19      1.0  0.11067  0.60194  0.00012  1.0000
  C   C186      1.0  0.07615  0.60910  0.91287  1.0000
  C  Sn20      1.0  0.06698  0.64975  0.86041  1.0000
  O  Te17      1.0  0.08454  0.72405  0.84480  1.0000
  O  Te18      1.0  0.17165  0.62819  0.12287  1.0000
  O  Te19      1.0  0.11924  0.56104  0.05144  1.0000
  O  Te20      1.0  0.03213  0.65692  0.77331  1.0000
  Mg  Mg9       1.0  0.17032  0.56707  0.16633  1.0000
  Mg  Mg10      1.0  0.03344  0.71802  0.72972  1.0000
  C  Sn21      1.0  0.92484  0.66602  0.86607  1.0000
  C   C187      1.0  0.93086  0.62592  0.93213  1.0000
  C  Sn22      1.0  0.89912  0.60190  0.98703  1.0000
  C  Sn23      1.0  0.86055  0.61828  0.97557  1.0000
  C   C188      1.0  0.85455  0.65834  0.90952  1.0000
  C  Sn24      1.0  0.88627  0.68239  0.85462  1.0000
  O  Te21      1.0  0.95700  0.68948  0.81194  1.0000
  O  Te22      1.0  0.90570  0.56269  0.05266  1.0000
  O  Te23      1.0  0.82820  0.59556  0.02977  1.0000
  O  Te24      1.0  0.87953  0.72236  0.78899  1.0000
  Mg  Mg11      1.0  0.85238  0.54277  0.10975  1.0000
  Mg  Mg12      1.0  0.93283  0.74230  0.73178  1.0000
  C  Sn25      1.0  0.63798  0.88204  0.04333  1.0000
  C   C189      1.0  0.64218  0.84146  0.10722  1.0000
  C  Sn26      1.0  0.60943  0.81906  0.16224  1.0000
  C  Sn27      1.0  0.57169  0.83759  0.15311  1.0000
  C   C190      1.0  0.56750  0.87814  0.08922  1.0000
  C  Sn28      1.0  0.60024  0.90057  0.03420  1.0000
  O  Te25      1.0  0.67131  0.90307  0.98903  1.0000
  O  Te26      1.0  0.61437  0.77855  0.22569  1.0000
  O  Te27      1.0  0.53853  0.81574  0.20748  1.0000
  O  Te28      1.0  0.59549  0.94027  0.97076  1.0000
  Mg  Mg13      1.0  0.56027  0.76144  0.28396  1.0000
  Mg  Mg14      1.0  0.64956  0.95740  0.91237  1.0000
  C  Sn29      1.0  0.42716  0.83286  0.11664  1.0000
  C   C191      1.0  0.43271  0.87359  0.05623  1.0000
  C  Sn30      1.0  0.40105  0.89627  0.99846  1.0000
  C  Sn31      1.0  0.36269  0.87949  0.00121  1.0000
  C   C192      1.0  0.35715  0.83879  0.06161  1.0000
  C  Sn32      1.0  0.38898  0.81529  0.11939  1.0000
  O  Te29      1.0  0.45942  0.80997  0.17379  1.0000
  O  Te30      1.0  0.40733  0.93691  0.93860  1.0000
  O  Te31      1.0  0.33060  0.90163  0.94399  1.0000
  O  Te32      1.0  0.38271  0.77467  0.17925  1.0000
  Mg  Mg15      1.0  0.35407  0.95567  0.87433  1.0000
  Mg  Mg16      1.0  0.43594  0.75590  0.24362  1.0000
