data_image0
_chemical_formula_structural       C64N8C5H40C8H4C62N8C5H40C8H4C2Sn2C2HTe2HMgC2Sn2C2HTe2HMgC2Sn2C2HTe2HMgC2Sn2C2HTe2HMgC2Sn2C2HTe2HMgC2Sn2C2HTe2HMgC2Sn2C2HTe2HMgC2Sn2C2HTe2HMgC2Sn2C2HTe2HMgC2Sn2C2HTe2HMgC2Sn2C2HTe2HMgC2Sn2C2HTe2HMg
_chemical_formula_sum              "C200 N16 H112 Sn24 Te24 Mg12"
_cell_length_a       33.3034
_cell_length_b       35.6288
_cell_length_c       8.12942
_cell_angle_alpha    89.9659
_cell_angle_beta     89.6966
_cell_angle_gamma    90.0657

_symmetry_space_group_name_H-M    'P1'
_space_group_IT_number       1

loop_
  _space_group_symop_operation_xyz
  'x, y, z'

loop_
  _atom_site_type_symbol
  _atom_site_label
  _atom_site_symmetry_multiplicity
  _atom_site_fract_x
  _atom_site_fract_y
  _atom_site_fract_z
  _atom_site_occupancy
  C   C1        1.0  0.46048  0.95940  0.50586  1.0000
  C   C2        1.0  0.53486  0.04004  0.50543  1.0000
  C   C3        1.0  0.04023  0.46056  0.00333  1.0000
  C   C4        1.0  0.96472  0.54015  0.00260  1.0000
  C   C5        1.0  0.03937  0.54099  0.01286  1.0000
  C   C6        1.0  0.96558  0.45991  0.99501  1.0000
  C   C7        1.0  0.46016  0.03990  0.50265  1.0000
  C   C8        1.0  0.53510  0.95980  0.50956  1.0000
  C   C9        1.0  0.42410  0.01872  0.52562  1.0000
  C   C10       1.0  0.57107  0.98091  0.53244  1.0000
  C   C11       1.0  0.07574  0.52047  0.98826  1.0000
  C   C12       1.0  0.92964  0.48066  0.96625  1.0000
  C   C13       1.0  0.07613  0.48211  0.98287  1.0000
  C   C14       1.0  0.92918  0.51901  0.97016  1.0000
  C   C15       1.0  0.42421  0.98032  0.52637  1.0000
  C   C16       1.0  0.57096  0.01925  0.53022  1.0000
  C   C17       1.0  0.46045  0.07967  0.48460  1.0000
  C   C18       1.0  0.53516  0.92006  0.49413  1.0000
  C   C19       1.0  0.03843  0.58059  0.03566  1.0000
  C   C20       1.0  0.96601  0.42014  0.01090  1.0000
  C   C21       1.0  0.04014  0.42075  0.01828  1.0000
  C   C22       1.0  0.96446  0.57973  0.02456  1.0000
  C   C23       1.0  0.46123  0.91963  0.49089  1.0000
  C   C24       1.0  0.53449  0.07976  0.48846  1.0000
  C   C25       1.0  0.42370  0.10255  0.46893  1.0000
  C   C26       1.0  0.57213  0.89749  0.48003  1.0000
  C   C27       1.0  0.07701  0.39796  0.03136  1.0000
  C   C28       1.0  0.57135  0.10263  0.47652  1.0000
  C   C29       1.0  0.57678  0.86136  0.04858  1.0000
  C   C30       1.0  0.07363  0.63896  0.46789  1.0000
  C   C31       1.0  0.57824  0.13769  0.04570  1.0000
  C   C32       1.0  0.61036  0.83857  0.03395  1.0000
  C   C33       1.0  0.10706  0.66193  0.48228  1.0000
  C   C34       1.0  0.61217  0.16001  0.03054  1.0000
  C   C35       1.0  0.35488  0.14904  0.43971  1.0000
  C   C36       1.0  0.64060  0.85100  0.44350  1.0000
  C   C37       1.0  0.14536  0.35075  0.05805  1.0000
  C   C38       1.0  0.63960  0.14984  0.44686  1.0000
  C   C39       1.0  0.35679  0.11408  0.35974  1.0000
  C   C40       1.0  0.63809  0.88555  0.36042  1.0000
  C   C41       1.0  0.14413  0.38581  0.13737  1.0000
  C   C42       1.0  0.63782  0.11533  0.36329  1.0000
  C   C43       1.0  0.39048  0.09121  0.37461  1.0000
  C   C44       1.0  0.60458  0.90850  0.37950  1.0000
  C   C45       1.0  0.11062  0.40898  0.12413  1.0000
  C   C46       1.0  0.60445  0.09199  0.37900  1.0000
  C   C47       1.0  0.31949  0.17271  0.42307  1.0000
  C   C48       1.0  0.67540  0.82668  0.42122  1.0000
  C   C49       1.0  0.17777  0.67594  0.09572  1.0000
  C   C50       1.0  0.82587  0.32526  0.06717  1.0000
  C   C51       1.0  0.18035  0.32644  0.07362  1.0000
  C   C52       1.0  0.82395  0.67369  0.06835  1.0000
  C   C53       1.0  0.32471  0.82174  0.41914  1.0000
  C   C54       1.0  0.67467  0.17405  0.42854  1.0000
  C   C55       1.0  0.78607  0.27398  0.98657  1.0000
  C   C56       1.0  0.21666  0.72701  0.00522  1.0000
  C   C57       1.0  0.71459  0.77480  0.50030  1.0000
  C   C58       1.0  0.78474  0.72471  0.98348  1.0000
  C   C59       1.0  0.21844  0.27409  0.99477  1.0000
  C   C60       1.0  0.71542  0.73771  0.05826  1.0000
  C   C61       1.0  0.28864  0.26189  0.05406  1.0000
  C   C62       1.0  0.71776  0.25916  0.07071  1.0000
  C   C63       1.0  0.28669  0.74007  0.06446  1.0000
  C   C64       1.0  0.78167  0.75820  0.40749  1.0000
  N   N1        1.0  0.31411  0.20170  0.51661  1.0000
  N   N2        1.0  0.68122  0.79833  0.51784  1.0000
  N   N3        1.0  0.18226  0.70449  0.99882  1.0000
  N   N4        1.0  0.82005  0.29698  0.97030  1.0000
  N   N5        1.0  0.18443  0.29692  0.98221  1.0000
  N   N6        1.0  0.81903  0.70213  0.97123  1.0000
  N   N7        1.0  0.31760  0.79560  0.52596  1.0000
  N   N8        1.0  0.68007  0.20272  0.52382  1.0000
  C   C65       1.0  0.25656  0.28666  0.04554  1.0000
  C   C66       1.0  0.74762  0.71305  0.05040  1.0000
  C   C67       1.0  0.25447  0.71533  0.06352  1.0000
  C   C68       1.0  0.74954  0.28439  0.06234  1.0000
  C   C69       1.0  0.75033  0.78379  0.41511  1.0000
  H   H1        1.0  0.40049  0.03449  0.04889  1.0000
  H   H2        1.0  0.60260  0.96533  0.05125  1.0000
  H   H3        1.0  0.09969  0.53603  0.47097  1.0000
  H   H4        1.0  0.89706  0.46654  0.45206  1.0000
  H   H5        1.0  0.09994  0.46753  0.45588  1.0000
  H   H6        1.0  0.89692  0.53502  0.46118  1.0000
  H   H7        1.0  0.40023  0.96583  0.05115  1.0000
  H   H8        1.0  0.60291  0.03381  0.04975  1.0000
  H   H9        1.0  0.55158  0.85235  0.12478  1.0000
  H   H10       1.0  0.04911  0.64735  0.38803  1.0000
  H   H11       1.0  0.55332  0.14702  0.12239  1.0000
  H   H12       1.0  0.61176  0.81152  0.09579  1.0000
  H   H13       1.0  0.10921  0.68828  0.41517  1.0000
  H   H14       1.0  0.61418  0.18691  0.09296  1.0000
  H   H15       1.0  0.33182  0.10521  0.28306  1.0000
  H   H16       1.0  0.66218  0.89401  0.27718  1.0000
  H   H17       1.0  0.16934  0.39449  0.21317  1.0000
  H   H18       1.0  0.66250  0.10722  0.28251  1.0000
  H   H19       1.0  0.39188  0.06492  0.30705  1.0000
  H   H20       1.0  0.60236  0.93443  0.30963  1.0000
  H   H21       1.0  0.10963  0.43517  0.19246  1.0000
  H   H22       1.0  0.60313  0.06597  0.30946  1.0000
  H   H23       1.0  0.29844  0.16460  0.32569  1.0000
  H   H24       1.0  0.69523  0.83343  0.31667  1.0000
  H   H25       1.0  0.19964  0.66867  0.19144  1.0000
  H   H26       1.0  0.80563  0.33196  0.17039  1.0000
  H   H27       1.0  0.20225  0.33426  0.16834  1.0000
  H   H28       1.0  0.80276  0.66677  0.16815  1.0000
  H   H29       1.0  0.30592  0.82605  0.30990  1.0000
  H   H30       1.0  0.69540  0.16682  0.32760  1.0000
  H   H31       1.0  0.68684  0.72916  0.11192  1.0000
  H   H32       1.0  0.31807  0.27119  0.09487  1.0000
  H   H33       1.0  0.68963  0.26664  0.13086  1.0000
  H   H34       1.0  0.31592  0.73141  0.10990  1.0000
  H   H35       1.0  0.80920  0.76464  0.34060  1.0000
  H   H36       1.0  0.26070  0.31602  0.07802  1.0000
  H   H37       1.0  0.74420  0.68456  0.09659  1.0000
  H   H38       1.0  0.25859  0.68673  0.10731  1.0000
  H   H39       1.0  0.74610  0.31232  0.11456  1.0000
  H   H40       1.0  0.75355  0.81087  0.35478  1.0000
  C   C70       1.0  0.49752  0.09820  0.47815  1.0000
  C   C71       1.0  0.49837  0.90136  0.48479  1.0000
  C   C72       1.0  0.00107  0.59847  0.04261  1.0000
  C   C73       1.0  0.00312  0.40203  0.02372  1.0000
  C   C74       1.0  0.49769  0.97967  0.50737  1.0000
  C   C75       1.0  0.49755  0.01993  0.50525  1.0000
  C   C76       1.0  0.00271  0.48027  0.00133  1.0000
  C   C77       1.0  0.00228  0.52052  0.00554  1.0000
  H   H41       1.0  0.00033  0.62838  0.06883  1.0000
  H   H42       1.0  0.00318  0.37188  0.04443  1.0000
  H   H43       1.0  0.49767  0.12837  0.45759  1.0000
  H   H44       1.0  0.49859  0.87122  0.46376  1.0000
  C   C78       1.0  0.46412  0.95981  0.00435  1.0000
  C   C79       1.0  0.53915  0.03993  0.00308  1.0000
  C   C80       1.0  0.03576  0.46091  0.49565  1.0000
  C   C81       1.0  0.96078  0.54086  0.50667  1.0000
  C   C82       1.0  0.03544  0.54122  0.51036  1.0000
  C   C83       1.0  0.96105  0.46051  0.49532  1.0000
  C   C84       1.0  0.46452  0.04010  0.00476  1.0000
  C   C85       1.0  0.53878  0.95948  0.00388  1.0000
  C   C86       1.0  0.42834  0.01925  0.02955  1.0000
  C   C87       1.0  0.57483  0.98043  0.02926  1.0000
  C   C88       1.0  0.07171  0.52061  0.48492  1.0000
  C   C89       1.0  0.92495  0.48154  0.47402  1.0000
  C   C90       1.0  0.07184  0.48228  0.47691  1.0000
  C   C91       1.0  0.92484  0.51989  0.47922  1.0000
  C   C92       1.0  0.42817  0.98089  0.03001  1.0000
  C   C93       1.0  0.57502  0.01880  0.02855  1.0000
  C   C94       1.0  0.46499  0.07982  0.98722  1.0000
  C   C95       1.0  0.53831  0.91976  0.98523  1.0000
  C   C96       1.0  0.03486  0.58083  0.53254  1.0000
  C   C97       1.0  0.96147  0.42065  0.50719  1.0000
  C   C98       1.0  0.03550  0.42105  0.50695  1.0000
  C   C99       1.0  0.96089  0.58047  0.52743  1.0000
  C   C100      1.0  0.46422  0.92014  0.98427  1.0000
  C   C101      1.0  0.53900  0.07965  0.98462  1.0000
  C   C102      1.0  0.57513  0.89687  0.97146  1.0000
  C   C103      1.0  0.07148  0.60393  0.54897  1.0000
  C   C104      1.0  0.57596  0.10226  0.96869  1.0000
  C   C105      1.0  0.42171  0.13798  0.54680  1.0000
  C   C106      1.0  0.57469  0.86259  0.56169  1.0000
  C   C107      1.0  0.07858  0.36267  0.95241  1.0000
  C   C108      1.0  0.57322  0.13746  0.55896  1.0000
  C   C109      1.0  0.38807  0.16063  0.53344  1.0000
  C   C110      1.0  0.60831  0.84000  0.54524  1.0000
  C   C111      1.0  0.11184  0.33957  0.96536  1.0000
  C   C112      1.0  0.60665  0.16048  0.54551  1.0000
  C   C113      1.0  0.64379  0.85024  0.94008  1.0000
  C   C114      1.0  0.13961  0.65110  0.58139  1.0000
  C   C115      1.0  0.64535  0.14803  0.93633  1.0000
  C   C116      1.0  0.64227  0.88544  0.86177  1.0000
  C   C117      1.0  0.13734  0.61664  0.66559  1.0000
  C   C118      1.0  0.64313  0.11295  0.85735  1.0000
  C   C119      1.0  0.60864  0.90837  0.87782  1.0000
  C   C120      1.0  0.10405  0.59326  0.64803  1.0000
  C   C121      1.0  0.60911  0.09046  0.87393  1.0000
  C   C122      1.0  0.32400  0.17280  0.92530  1.0000
  C   C123      1.0  0.67906  0.82637  0.92054  1.0000
  C   C124      1.0  0.17503  0.67496  0.59656  1.0000
  C   C125      1.0  0.82176  0.32536  0.57197  1.0000
  C   C126      1.0  0.17502  0.32665  0.57195  1.0000
  C   C127      1.0  0.81933  0.67296  0.57567  1.0000
  C   C128      1.0  0.32260  0.82802  0.91567  1.0000
  C   C129      1.0  0.68089  0.17175  0.91922  1.0000
  C   C130      1.0  0.71855  0.77459  0.99634  1.0000
  C   C131      1.0  0.28431  0.22398  0.00767  1.0000
  C   C132      1.0  0.72060  0.22305  0.00059  1.0000
  C   C133      1.0  0.28286  0.77703  0.00429  1.0000
  C   C134      1.0  0.77911  0.72310  0.48702  1.0000
  C   C135      1.0  0.78893  0.23784  0.91688  1.0000
  C   C136      1.0  0.21284  0.76395  0.94506  1.0000
  C   C137      1.0  0.71188  0.73952  0.57833  1.0000
  C   C138      1.0  0.78783  0.76150  0.92054  1.0000
  C   C139      1.0  0.21402  0.23616  0.94913  1.0000
  N   N9        1.0  0.31848  0.20141  0.02071  1.0000
  N   N10       1.0  0.68436  0.79717  0.01267  1.0000
  N   N11       1.0  0.18158  0.70219  0.49432  1.0000
  N   N12       1.0  0.81551  0.29716  0.47502  1.0000
  N   N13       1.0  0.18191  0.29946  0.47011  1.0000
  N   N14       1.0  0.81294  0.69999  0.47269  1.0000
  N   N15       1.0  0.31717  0.79960  0.01256  1.0000
  N   N16       1.0  0.68646  0.20025  0.01527  1.0000
  C   C140      1.0  0.24508  0.78871  0.94597  1.0000
  C   C141      1.0  0.75717  0.21261  0.92518  1.0000
  C   C142      1.0  0.74325  0.71392  0.57098  1.0000
  C   C143      1.0  0.24617  0.21137  0.95682  1.0000
  C   C144      1.0  0.75558  0.78615  0.92802  1.0000
  H   H45       1.0  0.39609  0.03374  0.54456  1.0000
  H   H46       1.0  0.59892  0.96581  0.55272  1.0000
  H   H47       1.0  0.10362  0.53591  0.97206  1.0000
  H   H48       1.0  0.90222  0.46538  0.93955  1.0000
  H   H49       1.0  0.10425  0.46748  0.96125  1.0000
  H   H50       1.0  0.90130  0.53389  0.94744  1.0000
  H   H51       1.0  0.39622  0.96515  0.54464  1.0000
  H   H52       1.0  0.59883  0.03445  0.54902  1.0000
  H   H53       1.0  0.44653  0.14692  0.62397  1.0000
  H   H54       1.0  0.55031  0.85392  0.64283  1.0000
  H   H55       1.0  0.05357  0.35408  0.87553  1.0000
  H   H56       1.0  0.54842  0.14565  0.63876  1.0000
  H   H57       1.0  0.38610  0.18734  0.59768  1.0000
  H   H58       1.0  0.61069  0.81353  0.61109  1.0000
  H   H59       1.0  0.11305  0.31271  0.90208  1.0000
  H   H60       1.0  0.60828  0.18689  0.61197  1.0000
  H   H61       1.0  0.66728  0.89438  0.78423  1.0000
  H   H62       1.0  0.16166  0.60840  0.74708  1.0000
  H   H63       1.0  0.66798  0.10355  0.78024  1.0000
  H   H64       1.0  0.60734  0.93476  0.81095  1.0000
  H   H65       1.0  0.10232  0.56717  0.71721  1.0000
  H   H66       1.0  0.60717  0.06411  0.80714  1.0000
  H   H67       1.0  0.30320  0.16569  0.82529  1.0000
  H   H68       1.0  0.70020  0.83452  0.82246  1.0000
  H   H69       1.0  0.19523  0.66869  0.69954  1.0000
  H   H70       1.0  0.80151  0.33227  0.67483  1.0000
  H   H71       1.0  0.19419  0.33247  0.67872  1.0000
  H   H72       1.0  0.79933  0.66700  0.68047  1.0000
  H   H73       1.0  0.30162  0.83540  0.81680  1.0000
  H   H74       1.0  0.70189  0.16436  0.81972  1.0000
  H   H75       1.0  0.81709  0.23028  0.85728  1.0000
  H   H76       1.0  0.18361  0.77267  0.89984  1.0000
  H   H77       1.0  0.68422  0.73295  0.64406  1.0000
  H   H78       1.0  0.81648  0.77007  0.86764  1.0000
  H   H79       1.0  0.18447  0.22691  0.90948  1.0000
  H   H80       1.0  0.24102  0.81736  0.90270  1.0000
  H   H81       1.0  0.76073  0.18468  0.87309  1.0000
  H   H82       1.0  0.73993  0.68673  0.63039  1.0000
  H   H83       1.0  0.24185  0.18202  0.92433  1.0000
  H   H84       1.0  0.75905  0.81461  0.88143  1.0000
  C   C145      1.0  0.50204  0.09822  0.97730  1.0000
  C   C146      1.0  0.50115  0.90152  0.97436  1.0000
  C   C147      1.0  0.99772  0.59911  0.54071  1.0000
  C   C148      1.0  0.99856  0.40236  0.51367  1.0000
  C   C149      1.0  0.50156  0.97970  0.00450  1.0000
  C   C150      1.0  0.50176  0.01996  0.00458  1.0000
  C   C151      1.0  0.99833  0.48077  0.49839  1.0000
  C   C152      1.0  0.99819  0.52100  0.50506  1.0000
  H   H85       1.0  0.99749  0.62917  0.56402  1.0000
  H   H86       1.0  0.99869  0.37212  0.53197  1.0000
  H   H87       1.0  0.50205  0.12833  0.95530  1.0000
  H   H88       1.0  0.50097  0.87149  0.95027  1.0000
  C   C153      1.0  0.09884  0.66134  0.97233  1.0000
  C   C154      1.0  0.13431  0.65687  0.06925  1.0000
  C  Sn1       1.0  0.13993  0.62378  0.15849  1.0000
  C  Sn2       1.0  0.11074  0.59481  0.15027  1.0000
  C   C155      1.0  0.07666  0.59968  0.05286  1.0000
  C   C156      1.0  0.07004  0.63277  0.96411  1.0000
  H   H89       1.0  0.09473  0.68704  0.90358  1.0000
  O  Te1       1.0  0.17424  0.61965  0.25475  1.0000
  O  Te2       1.0  0.11561  0.56145  0.23816  1.0000
  H   H90       1.0  0.04359  0.63632  0.88900  1.0000
  Mg  Mg1       1.0  0.16738  0.56905  0.35209  1.0000
  C   C157      1.0  0.21856  0.76983  0.42608  1.0000
  C   C158      1.0  0.21617  0.73240  0.47670  1.0000
  C  Sn3       1.0  0.24852  0.71559  0.55682  1.0000
  C  Sn4       1.0  0.28387  0.73671  0.58669  1.0000
  C   C159      1.0  0.28596  0.77415  0.53567  1.0000
  C   C160      1.0  0.25342  0.79069  0.45555  1.0000
  H   H91       1.0  0.19338  0.78263  0.36417  1.0000
  O  Te3       1.0  0.24563  0.67816  0.60652  1.0000
  O  Te4       1.0  0.31664  0.72061  0.66658  1.0000
  H   H92       1.0  0.25527  0.81968  0.41647  1.0000
  Mg  Mg2       1.0  0.29827  0.66869  0.71081  1.0000
  C   C161      1.0  0.92327  0.35237  0.93395  1.0000
  C   C162      1.0  0.92888  0.38881  0.99316  1.0000
  C  Sn5       1.0  0.90081  0.40583  0.09159  1.0000
  C  Sn6       1.0  0.86521  0.38580  0.13130  1.0000
  C   C163      1.0  0.85990  0.34935  0.07155  1.0000
  C   C164      1.0  0.88817  0.33259  0.97311  1.0000
  H   H93       1.0  0.94616  0.33950  0.85786  1.0000
  O  Te5       1.0  0.90690  0.44226  0.14966  1.0000
  O  Te6       1.0  0.83539  0.40200  0.22948  1.0000
  H   H94       1.0  0.88383  0.30437  0.92737  1.0000
  Mg  Mg3       1.0  0.85752  0.45231  0.27914  1.0000
  C   C165      1.0  0.27766  0.26856  0.59717  1.0000
  C   C166      1.0  0.27994  0.23234  0.53194  1.0000
  C  Sn7       1.0  0.24911  0.21857  0.43283  1.0000
  C  Sn8       1.0  0.21541  0.24157  0.39857  1.0000
  C   C167      1.0  0.21343  0.27777  0.46432  1.0000
  C   C168      1.0  0.24444  0.29126  0.56338  1.0000
  H   H95       1.0  0.30166  0.27901  0.67374  1.0000
  O  Te7       1.0  0.25186  0.18231  0.36871  1.0000
  O  Te8       1.0  0.18418  0.22852  0.29984  1.0000
  H   H96       1.0  0.24268  0.31931  0.61378  1.0000
  Mg  Mg4       1.0  0.20169  0.17714  0.24093  1.0000
  C   C169      1.0  0.88158  0.40617  0.63618  1.0000
  C   C170      1.0  0.91749  0.39983  0.55098  1.0000
  C  Sn9       1.0  0.92225  0.36754  0.45547  1.0000
  C  Sn10      1.0  0.89041  0.34116  0.44526  1.0000
  C   C171      1.0  0.85459  0.34777  0.53087  1.0000
  C   C172      1.0  0.85015  0.38017  0.62613  1.0000
  H   H97       1.0  0.87813  0.43125  0.70982  1.0000
  O  Te9       1.0  0.95833  0.36164  0.37118  1.0000
  O  Te10      1.0  0.89436  0.30866  0.35065  1.0000
  H   H98       1.0  0.82234  0.38509  0.69200  1.0000
  Mg  Mg5       1.0  0.94930  0.31312  0.25837  1.0000
  C   C173      1.0  0.41905  0.85359  0.05764  1.0000
  C   C174      1.0  0.42715  0.88738  0.98011  1.0000
  C  Sn11      1.0  0.39927  0.90468  0.87710  1.0000
  C  Sn12      1.0  0.36130  0.88762  0.85150  1.0000
  C   C175      1.0  0.35217  0.85368  0.92972  1.0000
  C   C176      1.0  0.38159  0.83675  0.03251  1.0000
  H   H99       1.0  0.44080  0.84039  0.13724  1.0000
  O  Te11      1.0  0.40916  0.93857  0.80056  1.0000
  O  Te12      1.0  0.33287  0.90430  0.74922  1.0000
  H   H100      1.0  0.37430  0.81049  0.09260  1.0000
  Mg  Mg6       1.0  0.36038  0.95043  0.67231  1.0000
  C   C177      1.0  0.13318  0.39463  0.64442  1.0000
  C   C178      1.0  0.13975  0.35869  0.58109  1.0000
  C  Sn13      1.0  0.11175  0.34236  0.47556  1.0000
  C  Sn14      1.0  0.07656  0.36245  0.43282  1.0000
  C   C179      1.0  0.07028  0.39841  0.49674  1.0000
  C   C180      1.0  0.09849  0.41448  0.60228  1.0000
  H   H101      1.0  0.15502  0.40707  0.72601  1.0000
  O  Te13      1.0  0.11878  0.30642  0.41344  1.0000
  O  Te14      1.0  0.04809  0.34680  0.32755  1.0000
  H   H102      1.0  0.09341  0.44231  0.65121  1.0000
  Mg  Mg7       1.0  0.07113  0.29702  0.27454  1.0000
  C   C181      1.0  0.78002  0.22780  0.42777  1.0000
  C   C182      1.0  0.78166  0.26597  0.46669  1.0000
  C  Sn15      1.0  0.74843  0.28375  0.53740  1.0000
  C  Sn16      1.0  0.71295  0.26286  0.56964  1.0000
  C   C183      1.0  0.71162  0.22469  0.53036  1.0000
  C   C184      1.0  0.74504  0.20717  0.45959  1.0000
  H   H103      1.0  0.80588  0.21424  0.37310  1.0000
  O  Te15      1.0  0.75057  0.32191  0.57546  1.0000
  O  Te16      1.0  0.67931  0.27994  0.64028  1.0000
  H   H104      1.0  0.74378  0.17761  0.42957  1.0000
  Mg  Mg8       1.0  0.69687  0.33260  0.67016  1.0000
  C   C185      1.0  0.38517  0.09281  0.85889  1.0000
  C   C186      1.0  0.42087  0.09988  0.94303  1.0000
  C  Sn17      1.0  0.42618  0.13242  0.03824  1.0000
  C  Sn18      1.0  0.39381  0.15817  0.04920  1.0000
  C   C187      1.0  0.35692  0.15069  0.96465  1.0000
  C   C188      1.0  0.35322  0.11818  0.86969  1.0000
  H   H105      1.0  0.38229  0.06764  0.78549  1.0000
  O  Te17      1.0  0.46206  0.13906  0.12146  1.0000
  O  Te18      1.0  0.39703  0.19077  0.14353  1.0000
  H   H106      1.0  0.32557  0.11270  0.80465  1.0000
  Mg  Mg9       1.0  0.45196  0.18742  0.23427  1.0000
  C   C189      1.0  0.86188  0.60595  0.65761  1.0000
  C   C190      1.0  0.85517  0.64150  0.59048  1.0000
  C  Sn19      1.0  0.88355  0.65770  0.48493  1.0000
  C  Sn20      1.0  0.91928  0.63786  0.44606  1.0000
  C   C191      1.0  0.92570  0.60231  0.51377  1.0000
  C   C192      1.0  0.89711  0.58637  0.61928  1.0000
  H   H107      1.0  0.83975  0.59361  0.73918  1.0000
  O  Te19      1.0  0.87637  0.69324  0.41899  1.0000
  O  Te20      1.0  0.94813  0.65339  0.34087  1.0000
  H   H108      1.0  0.90230  0.55883  0.67115  1.0000
  Mg  Mg10      1.0  0.92469  0.70260  0.28183  1.0000
  C   C193      1.0  0.41856  0.85224  0.56981  1.0000
  C   C194      1.0  0.42680  0.88599  0.48864  1.0000
  C  Sn21      1.0  0.39881  0.90130  0.38022  1.0000
  C  Sn22      1.0  0.36192  0.88240  0.35284  1.0000
  C   C195      1.0  0.35396  0.84866  0.43474  1.0000
  C   C196      1.0  0.38218  0.83360  0.54293  1.0000
  H   H109      1.0  0.44039  0.84059  0.65359  1.0000
  O  Te21      1.0  0.40752  0.93503  0.30009  1.0000
  O  Te22      1.0  0.33341  0.89708  0.24518  1.0000
  H   H110      1.0  0.37579  0.80748  0.60584  1.0000
  Mg  Mg11      1.0  0.35912  0.94381  0.16492  1.0000
  C   C197      1.0  0.86461  0.60526  0.14350  1.0000
  C   C198      1.0  0.85898  0.64143  0.08119  1.0000
  C  Sn23      1.0  0.88719  0.65797  0.98251  1.0000
  C  Sn24      1.0  0.92296  0.63800  0.94571  1.0000
  C   C199      1.0  0.92959  0.60196  0.00855  1.0000
  C   C200      1.0  0.89988  0.58554  0.10721  1.0000
  H   H111      1.0  0.84162  0.59254  0.21976  1.0000
  O  Te23      1.0  0.88108  0.69413  0.92131  1.0000
  O  Te24      1.0  0.95293  0.65400  0.84735  1.0000
  H   H112      1.0  0.90423  0.55753  0.15536  1.0000
  Mg  Mg12      1.0  0.93070  0.70398  0.79287  1.0000
