data_image0
_chemical_formula_structural       C70N8C8O8H32C8H4C74N8C8O8H32C8H4C2Sn2C2HTe2HMgC2Sn2C2HTe2HMgC2Sn2C2HTe2HMgC2Sn2C2HTe2HMgC2Sn2C2HTe2HMgC2Sn2C2HTe2HMgC2Sn2C2HTe2HMgC2Sn2C2HTe2HMg
_chemical_formula_sum              "C208 N16 O16 H88 Sn16 Te16 Mg8"
_cell_length_a       34.1108
_cell_length_b       31.8982
_cell_length_c       8.00501
_cell_angle_alpha    89.82
_cell_angle_beta     90.0427
_cell_angle_gamma    90.0009

_symmetry_space_group_name_H-M    'P1'
_space_group_IT_number       1

loop_
  _space_group_symop_operation_xyz
  'x, y, z'

loop_
  _atom_site_type_symbol
  _atom_site_label
  _atom_site_symmetry_multiplicity
  _atom_site_fract_x
  _atom_site_fract_y
  _atom_site_fract_z
  _atom_site_occupancy
  C   C1        1.0  0.46525  0.95550  0.12615  1.0000
  C   C2        1.0  0.53899  0.04465  0.14189  1.0000
  C   C3        1.0  0.03471  0.45560  0.37913  1.0000
  C   C4        1.0  0.96139  0.54503  0.38572  1.0000
  C   C5        1.0  0.03431  0.54533  0.39402  1.0000
  C   C6        1.0  0.96180  0.45509  0.37847  1.0000
  C   C7        1.0  0.46609  0.04515  0.13205  1.0000
  C   C8        1.0  0.53817  0.95467  0.13804  1.0000
  C   C9        1.0  0.43062  0.02196  0.15292  1.0000
  C   C10       1.0  0.57322  0.97776  0.17050  1.0000
  C   C11       1.0  0.06961  0.52229  0.36724  1.0000
  C   C12       1.0  0.92666  0.47861  0.35291  1.0000
  C   C13       1.0  0.06975  0.47952  0.35834  1.0000
  C   C14       1.0  0.92653  0.52148  0.35518  1.0000
  C   C15       1.0  0.43018  0.97916  0.14940  1.0000
  C   C16       1.0  0.57363  0.02065  0.17252  1.0000
  C   C17       1.0  0.46682  0.08950  0.11320  1.0000
  C   C18       1.0  0.53753  0.91038  0.11656  1.0000
  C   C19       1.0  0.03380  0.58962  0.41526  1.0000
  C   C20       1.0  0.96240  0.41051  0.39057  1.0000
  C   C21       1.0  0.03470  0.41103  0.38926  1.0000
  C   C22       1.0  0.96146  0.58938  0.40498  1.0000
  C   C23       1.0  0.46520  0.91128  0.10327  1.0000
  C   C24       1.0  0.53916  0.08908  0.12258  1.0000
  C   C25       1.0  0.43110  0.11529  0.09661  1.0000
  C   C26       1.0  0.57298  0.88391  0.10724  1.0000
  C   C27       1.0  0.92692  0.38410  0.40115  1.0000
  C   C28       1.0  0.42931  0.15482  0.17486  1.0000
  C   C29       1.0  0.57254  0.84351  0.17990  1.0000
  C   C30       1.0  0.92626  0.34473  0.32094  1.0000
  C   C31       1.0  0.39662  0.18035  0.15898  1.0000
  C   C32       1.0  0.60405  0.81631  0.16404  1.0000
  C   C33       1.0  0.89423  0.31808  0.33378  1.0000
  C   C34       1.0  0.36411  0.16696  0.06486  1.0000
  C   C35       1.0  0.63771  0.82886  0.07570  1.0000
  C   C36       1.0  0.86108  0.33023  0.42632  1.0000
  C   C37       1.0  0.63636  0.87587  0.48999  1.0000
  C   C38       1.0  0.13819  0.62834  0.03699  1.0000
  C   C39       1.0  0.86429  0.37412  0.00495  1.0000
  C   C40       1.0  0.14200  0.37232  0.99663  1.0000
  C   C41       1.0  0.63670  0.12526  0.49818  1.0000
  C   C42       1.0  0.60342  0.90102  0.51210  1.0000
  C   C43       1.0  0.10512  0.60298  0.02376  1.0000
  C   C44       1.0  0.89778  0.39877  0.99206  1.0000
  C   C45       1.0  0.10911  0.39800  0.98627  1.0000
  C   C46       1.0  0.60348  0.10039  0.51775  1.0000
  C   C47       1.0  0.33059  0.19445  0.04972  1.0000
  C   C48       1.0  0.67010  0.80001  0.05600  1.0000
  C   C49       1.0  0.16962  0.69636  0.45983  1.0000
  C   C50       1.0  0.82771  0.30236  0.43785  1.0000
  C   C51       1.0  0.17213  0.30696  0.42930  1.0000
  C   C52       1.0  0.82532  0.69611  0.42426  1.0000
  C   C53       1.0  0.32896  0.80599  0.03851  1.0000
  C   C54       1.0  0.67294  0.19819  0.05661  1.0000
  C   C55       1.0  0.78679  0.25139  0.42454  1.0000
  C   C56       1.0  0.21052  0.74722  0.44097  1.0000
  C   C57       1.0  0.70958  0.74770  0.05399  1.0000
  C   C58       1.0  0.29029  0.24592  0.05555  1.0000
  C   C59       1.0  0.71321  0.24984  0.06335  1.0000
  C   C60       1.0  0.28821  0.75522  0.06553  1.0000
  C   C61       1.0  0.78452  0.74714  0.40676  1.0000
  C   C62       1.0  0.21303  0.25603  0.42228  1.0000
  C   C63       1.0  0.76729  0.21335  0.39445  1.0000
  C   C64       1.0  0.22989  0.78522  0.40809  1.0000
  C   C65       1.0  0.72838  0.70885  0.07447  1.0000
  C   C66       1.0  0.27141  0.28441  0.08171  1.0000
  C   C67       1.0  0.73269  0.28793  0.09316  1.0000
  C   C68       1.0  0.26888  0.71786  0.10849  1.0000
  C   C69       1.0  0.76496  0.78506  0.37349  1.0000
  C   C70       1.0  0.23228  0.21776  0.39613  1.0000
  N   N1        1.0  0.32733  0.23293  0.10477  1.0000
  N   N2        1.0  0.67263  0.76081  0.10474  1.0000
  N   N3        1.0  0.17282  0.73448  0.39971  1.0000
  N   N4        1.0  0.82392  0.26453  0.37620  1.0000
  N   N5        1.0  0.17616  0.26896  0.37003  1.0000
  N   N6        1.0  0.82130  0.73334  0.35641  1.0000
  N   N7        1.0  0.32526  0.76915  0.10993  1.0000
  N   N8        1.0  0.67641  0.23639  0.11491  1.0000
  C   C71       1.0  0.26802  0.78617  0.46777  1.0000
  C   C72       1.0  0.73015  0.21164  0.46413  1.0000
  C   C73       1.0  0.23409  0.28591  0.01398  1.0000
  C   C74       1.0  0.76599  0.70803  0.00920  1.0000
  C   C75       1.0  0.23164  0.71492  0.04069  1.0000
  C   C76       1.0  0.76993  0.28953  0.02430  1.0000
  C   C77       1.0  0.26922  0.21623  0.46769  1.0000
  C   C78       1.0  0.72843  0.78764  0.44857  1.0000
  O   O1        1.0  0.79199  0.67479  0.01096  1.0000
  O   O2        1.0  0.20824  0.31917  0.01837  1.0000
  O   O3        1.0  0.70395  0.17856  0.45909  1.0000
  O   O4        1.0  0.29439  0.81898  0.45739  1.0000
  O   O5        1.0  0.70235  0.82090  0.44222  1.0000
  O   O6        1.0  0.29531  0.18313  0.46450  1.0000
  O   O7        1.0  0.79659  0.32223  0.03244  1.0000
  O   O8        1.0  0.20530  0.68219  0.05808  1.0000
  H   H1        1.0  0.40343  0.03898  0.17202  1.0000
  H   H2        1.0  0.60019  0.96061  0.19380  1.0000
  H   H3        1.0  0.09689  0.53940  0.35155  1.0000
  H   H4        1.0  0.89952  0.46182  0.32924  1.0000
  H   H5        1.0  0.09702  0.46311  0.33378  1.0000
  H   H6        1.0  0.89936  0.53832  0.33241  1.0000
  H   H7        1.0  0.40266  0.96251  0.16569  1.0000
  H   H8        1.0  0.60089  0.03698  0.19846  1.0000
  H   H9        1.0  0.45348  0.16478  0.25406  1.0000
  H   H10       1.0  0.54716  0.83389  0.25266  1.0000
  H   H11       1.0  0.95093  0.33565  0.24310  1.0000
  H   H12       1.0  0.39514  0.21049  0.22170  1.0000
  H   H13       1.0  0.60348  0.78533  0.22108  1.0000
  H   H14       1.0  0.89384  0.28803  0.26993  1.0000
  H   H15       1.0  0.66062  0.88680  0.41327  1.0000
  H   H16       1.0  0.16309  0.61816  0.11164  1.0000
  H   H17       1.0  0.83923  0.38508  0.07623  1.0000
  H   H18       1.0  0.16754  0.38259  0.06663  1.0000
  H   H19       1.0  0.66076  0.11469  0.41998  1.0000
  H   H20       1.0  0.60193  0.93138  0.45041  1.0000
  H   H21       1.0  0.10406  0.57339  0.09139  1.0000
  H   H22       1.0  0.89901  0.42857  0.05733  1.0000
  H   H23       1.0  0.10905  0.42772  0.05233  1.0000
  H   H24       1.0  0.60175  0.07062  0.45252  1.0000
  H   H25       1.0  0.78022  0.18828  0.32160  1.0000
  H   H26       1.0  0.21611  0.81101  0.34153  1.0000
  H   H27       1.0  0.71474  0.68253  0.13799  1.0000
  H   H28       1.0  0.28485  0.30981  0.15131  1.0000
  H   H29       1.0  0.71978  0.31308  0.16581  1.0000
  H   H30       1.0  0.28204  0.69428  0.18889  1.0000
  H   H31       1.0  0.77746  0.80959  0.29595  1.0000
  H   H32       1.0  0.21917  0.19237  0.32553  1.0000
  C   C79       1.0  0.50313  0.10973  0.10592  1.0000
  C   C80       1.0  0.50127  0.89046  0.09733  1.0000
  C   C81       1.0  0.99745  0.60993  0.42211  1.0000
  C   C82       1.0  0.99871  0.39018  0.39733  1.0000
  C   C83       1.0  0.50194  0.97748  0.13384  1.0000
  C   C84       1.0  0.50237  0.02248  0.13613  1.0000
  C   C85       1.0  0.99814  0.47776  0.38266  1.0000
  C   C86       1.0  0.99793  0.52276  0.38857  1.0000
  H   H33       1.0  0.50335  0.14319  0.07980  1.0000
  H   H34       1.0  0.50122  0.85706  0.07099  1.0000
  H   H35       1.0  0.99716  0.64348  0.44561  1.0000
  H   H36       1.0  0.99896  0.35641  0.41583  1.0000
  C   C87       1.0  0.46168  0.95559  0.63136  1.0000
  C   C88       1.0  0.53452  0.04520  0.64974  1.0000
  C   C89       1.0  0.03920  0.45560  0.87435  1.0000
  C   C90       1.0  0.96517  0.54445  0.87532  1.0000
  C   C91       1.0  0.03793  0.54551  0.88731  1.0000
  C   C92       1.0  0.96631  0.45482  0.86958  1.0000
  C   C93       1.0  0.46167  0.04567  0.63574  1.0000
  C   C94       1.0  0.53449  0.95591  0.64657  1.0000
  C   C95       1.0  0.42635  0.02198  0.65481  1.0000
  C   C96       1.0  0.56923  0.97903  0.68371  1.0000
  C   C97       1.0  0.07341  0.52278  0.85941  1.0000
  C   C98       1.0  0.93124  0.47793  0.83748  1.0000
  C   C99       1.0  0.07395  0.47997  0.85163  1.0000
  C   C100      1.0  0.93072  0.52072  0.83922  1.0000
  C   C101      1.0  0.42634  0.97908  0.65212  1.0000
  C   C102      1.0  0.56926  0.02184  0.68512  1.0000
  C   C103      1.0  0.46248  0.09009  0.61651  1.0000
  C   C104      1.0  0.53474  0.91189  0.62152  1.0000
  C   C105      1.0  0.03680  0.58964  0.91213  1.0000
  C   C106      1.0  0.96687  0.41048  0.88853  1.0000
  C   C107      1.0  0.03929  0.41106  0.88918  1.0000
  C   C108      1.0  0.96455  0.58861  0.89920  1.0000
  C   C109      1.0  0.46250  0.91129  0.60976  1.0000
  C   C110      1.0  0.53477  0.08937  0.62680  1.0000
  C   C111      1.0  0.57106  0.88707  0.60600  1.0000
  C   C112      1.0  0.07230  0.61568  0.92962  1.0000
  C   C113      1.0  0.93084  0.38508  0.90214  1.0000
  C   C114      1.0  0.07522  0.38530  0.89954  1.0000
  C   C115      1.0  0.57121  0.11408  0.61248  1.0000
  C   C116      1.0  0.57323  0.84696  0.67975  1.0000
  C   C117      1.0  0.07355  0.65541  0.85184  1.0000
  C   C118      1.0  0.92919  0.34501  0.82845  1.0000
  C   C119      1.0  0.07562  0.34515  0.82554  1.0000
  C   C120      1.0  0.57379  0.15368  0.68933  1.0000
  C   C121      1.0  0.60586  0.82161  0.65851  1.0000
  C   C122      1.0  0.10613  0.68113  0.86594  1.0000
  C   C123      1.0  0.89617  0.31989  0.84287  1.0000
  C   C124      1.0  0.10799  0.31902  0.83767  1.0000
  C   C125      1.0  0.60677  0.17870  0.67090  1.0000
  C   C126      1.0  0.63784  0.83564  0.56223  1.0000
  C   C127      1.0  0.13910  0.66769  0.95742  1.0000
  C   C128      1.0  0.86307  0.33429  0.93053  1.0000
  C   C129      1.0  0.14183  0.33239  0.92273  1.0000
  C   C130      1.0  0.63861  0.16501  0.57334  1.0000
  C   C131      1.0  0.36550  0.12775  0.98547  1.0000
  C   C132      1.0  0.63886  0.86928  0.00517  1.0000
  C   C133      1.0  0.86134  0.36930  0.50732  1.0000
  C   C134      1.0  0.39864  0.10262  0.00059  1.0000
  C   C135      1.0  0.60691  0.89609  0.01980  1.0000
  C   C136      1.0  0.89385  0.39548  0.49563  1.0000
  C   C137      1.0  0.32795  0.19789  0.55116  1.0000
  C   C138      1.0  0.67090  0.80764  0.54097  1.0000
  C   C139      1.0  0.17276  0.69517  0.96552  1.0000
  C   C140      1.0  0.82909  0.30737  0.94408  1.0000
  C   C141      1.0  0.17510  0.30443  0.93499  1.0000
  C   C142      1.0  0.82561  0.69075  0.93406  1.0000
  C   C143      1.0  0.32799  0.80377  0.53700  1.0000
  C   C144      1.0  0.67185  0.19276  0.55160  1.0000
  C   C145      1.0  0.78779  0.25690  0.93107  1.0000
  C   C146      1.0  0.21362  0.74573  0.93777  1.0000
  C   C147      1.0  0.71114  0.75607  0.54983  1.0000
  C   C148      1.0  0.28733  0.24917  0.55826  1.0000
  C   C149      1.0  0.71225  0.24422  0.55728  1.0000
  C   C150      1.0  0.28706  0.75292  0.55377  1.0000
  C   C151      1.0  0.78510  0.74210  0.92886  1.0000
  C   C152      1.0  0.21536  0.25287  0.92635  1.0000
  C   C153      1.0  0.76825  0.21899  0.90049  1.0000
  C   C154      1.0  0.23297  0.78303  0.89442  1.0000
  C   C155      1.0  0.73060  0.71823  0.58311  1.0000
  C   C156      1.0  0.26787  0.28734  0.58581  1.0000
  C   C157      1.0  0.73154  0.28238  0.58620  1.0000
  C   C158      1.0  0.26765  0.71502  0.58742  1.0000
  C   C159      1.0  0.76631  0.78089  0.90814  1.0000
  C   C160      1.0  0.23428  0.21434  0.90049  1.0000
  N   N9        1.0  0.32435  0.23615  0.60865  1.0000
  N   N10       1.0  0.67496  0.77008  0.60529  1.0000
  N   N11       1.0  0.17659  0.73185  0.89310  1.0000
  N   N12       1.0  0.82493  0.26963  0.88247  1.0000
  N   N13       1.0  0.17822  0.26606  0.87826  1.0000
  N   N14       1.0  0.82254  0.72970  0.88312  1.0000
  N   N15       1.0  0.32476  0.76547  0.59513  1.0000
  N   N16       1.0  0.67567  0.23084  0.61050  1.0000
  C   C161      1.0  0.27013  0.78606  0.96296  1.0000
  C   C162      1.0  0.73125  0.21721  0.97079  1.0000
  C   C163      1.0  0.23085  0.28885  0.51458  1.0000
  C   C164      1.0  0.76703  0.71566  0.50784  1.0000
  C   C165      1.0  0.22954  0.71410  0.52790  1.0000
  C   C166      1.0  0.76869  0.28398  0.51705  1.0000
  C   C167      1.0  0.27166  0.21272  0.96826  1.0000
  C   C168      1.0  0.72873  0.78163  0.97294  1.0000
  O   O9        1.0  0.79321  0.68276  0.51795  1.0000
  O   O10       1.0  0.20444  0.32170  0.51875  1.0000
  O   O11       1.0  0.70538  0.18387  0.96690  1.0000
  O   O12       1.0  0.29640  0.81884  0.94583  1.0000
  O   O13       1.0  0.70336  0.81526  0.97468  1.0000
  O   O14       1.0  0.29758  0.17933  0.96592  1.0000
  O   O15       1.0  0.79505  0.31678  0.52540  1.0000
  O   O16       1.0  0.20308  0.68143  0.54111  1.0000
  H   H37       1.0  0.39889  0.03863  0.67263  1.0000
  H   H38       1.0  0.59597  0.96190  0.71153  1.0000
  H   H39       1.0  0.10051  0.54014  0.84251  1.0000
  H   H40       1.0  0.90450  0.46080  0.80973  1.0000
  H   H41       1.0  0.10139  0.46396  0.82611  1.0000
  H   H42       1.0  0.90365  0.53728  0.81156  1.0000
  H   H43       1.0  0.39886  0.96224  0.66707  1.0000
  H   H44       1.0  0.59599  0.03884  0.71410  1.0000
  H   H45       1.0  0.54919  0.83617  0.75790  1.0000
  H   H46       1.0  0.04901  0.66537  0.77448  1.0000
  H   H47       1.0  0.95394  0.33409  0.75489  1.0000
  H   H48       1.0  0.05035  0.33485  0.75364  1.0000
  H   H49       1.0  0.54972  0.16424  0.76774  1.0000
  H   H50       1.0  0.60750  0.79085  0.71693  1.0000
  H   H51       1.0  0.10725  0.71141  0.80337  1.0000
  H   H52       1.0  0.89493  0.28928  0.78380  1.0000
  H   H53       1.0  0.10801  0.28822  0.77990  1.0000
  H   H54       1.0  0.60868  0.20889  0.73301  1.0000
  H   H55       1.0  0.34107  0.11786  0.90764  1.0000
  H   H56       1.0  0.66449  0.87899  0.93444  1.0000
  H   H57       1.0  0.83649  0.37841  0.58388  1.0000
  H   H58       1.0  0.40004  0.07334  0.93190  1.0000
  H   H59       1.0  0.60758  0.92628  0.95650  1.0000
  H   H60       1.0  0.89434  0.42460  0.56561  1.0000
  H   H61       1.0  0.78110  0.19390  0.82741  1.0000
  H   H62       1.0  0.21987  0.80637  0.81263  1.0000
  H   H63       1.0  0.71839  0.69402  0.66316  1.0000
  H   H64       1.0  0.28086  0.31262  0.65749  1.0000
  H   H65       1.0  0.71845  0.30745  0.65863  1.0000
  H   H66       1.0  0.28126  0.68944  0.65577  1.0000
  H   H67       1.0  0.78013  0.80748  0.84718  1.0000
  H   H68       1.0  0.22060  0.18882  0.83268  1.0000
  C   C169      1.0  0.49895  0.11023  0.60976  1.0000
  C   C170      1.0  0.49893  0.89112  0.60297  1.0000
  C   C171      1.0  0.00024  0.60957  0.91960  1.0000
  C   C172      1.0  0.00317  0.39026  0.89918  1.0000
  C   C173      1.0  0.49800  0.97814  0.64102  1.0000
  C   C174      1.0  0.49801  0.02307  0.64268  1.0000
  C   C175      1.0  0.00250  0.47759  0.87475  1.0000
  C   C176      1.0  0.00187  0.52254  0.87955  1.0000
  H   H69       1.0  0.49953  0.14368  0.58341  1.0000
  H   H70       1.0  0.49950  0.85778  0.57541  1.0000
  H   H71       1.0  0.99954  0.64289  0.94744  1.0000
  H   H72       1.0  0.00337  0.35663  0.92154  1.0000
  C   C177      1.0  0.13221  0.38318  0.51015  1.0000
  C   C178      1.0  0.13885  0.34345  0.44276  1.0000
  C  Sn1       1.0  0.11044  0.32450  0.34236  1.0000
  C  Sn2       1.0  0.07476  0.34581  0.30899  1.0000
  C   C179      1.0  0.06841  0.38556  0.37690  1.0000
  C   C180      1.0  0.09703  0.40422  0.47725  1.0000
  H   H73       1.0  0.15436  0.39763  0.58772  1.0000
  O  Te1       1.0  0.11754  0.28479  0.27607  1.0000
  O  Te2       1.0  0.04587  0.32761  0.20900  1.0000
  H   H74       1.0  0.09189  0.43500  0.52932  1.0000
  Mg  Mg1       1.0  0.06921  0.27298  0.14723  1.0000
  C   C181      1.0  0.63665  0.11836  0.00102  1.0000
  C   C182      1.0  0.64117  0.15983  0.05340  1.0000
  C  Sn3       1.0  0.61183  0.17926  0.14705  1.0000
  C  Sn4       1.0  0.57736  0.15667  0.18887  1.0000
  C   C183      1.0  0.57313  0.11518  0.13597  1.0000
  C   C184      1.0  0.60267  0.09605  0.04227  1.0000
  H   H75       1.0  0.65969  0.10276  0.92860  1.0000
  O  Te3       1.0  0.61681  0.22072  0.19833  1.0000
  O  Te4       1.0  0.54758  0.17532  0.28238  1.0000
  H   H76       1.0  0.59917  0.06393  0.00182  1.0000
  Mg  Mg2       1.0  0.56797  0.23249  0.32335  1.0000
  C   C185      1.0  0.90357  0.67709  0.82445  1.0000
  C   C186      1.0  0.86727  0.66784  0.89650  1.0000
  C  Sn5       1.0  0.86187  0.63035  0.98419  1.0000
  C  Sn6       1.0  0.89345  0.60165  0.99988  1.0000
  C   C187      1.0  0.92966  0.61122  0.92745  1.0000
  C   C188      1.0  0.93474  0.64882  0.83992  1.0000
  H   H77       1.0  0.90752  0.70620  0.75681  1.0000
  O  Te5       1.0  0.82523  0.62237  0.05534  1.0000
  O  Te6       1.0  0.88869  0.56475  0.08690  1.0000
  H   H78       1.0  0.96286  0.65599  0.78425  1.0000
  Mg  Mg3       1.0  0.83342  0.56692  0.16179  1.0000
  C   C189      1.0  0.90308  0.67902  0.31719  1.0000
  C   C190      1.0  0.86640  0.67160  0.38907  1.0000
  C  Sn7       1.0  0.85974  0.63508  0.48156  1.0000
  C  Sn8       1.0  0.89043  0.60549  0.50229  1.0000
  C   C191      1.0  0.92703  0.61321  0.42998  1.0000
  C   C192      1.0  0.93338  0.64986  0.33763  1.0000
  H   H79       1.0  0.90800  0.70738  0.24581  1.0000
  O  Te7       1.0  0.82291  0.62816  0.55248  1.0000
  O  Te8       1.0  0.88458  0.56873  0.59417  1.0000
  H   H80       1.0  0.96179  0.65560  0.28208  1.0000
  Mg  Mg4       1.0  0.82926  0.57339  0.66664  1.0000
  C   C193      1.0  0.09289  0.67932  0.34112  1.0000
  C   C194      1.0  0.12665  0.67456  0.43837  1.0000
  C  Sn9       1.0  0.13273  0.63777  0.52998  1.0000
  C  Sn10      1.0  0.10444  0.60520  0.52382  1.0000
  C   C195      1.0  0.07078  0.61026  0.42606  1.0000
  C   C196      1.0  0.06498  0.64721  0.33493  1.0000
  H   H81       1.0  0.08841  0.70790  0.27053  1.0000
  O  Te9       1.0  0.16661  0.63354  0.62655  1.0000
  O  Te10      1.0  0.10978  0.56810  0.61409  1.0000
  H   H82       1.0  0.03886  0.65087  0.25956  1.0000
  Mg  Mg5       1.0  0.16068  0.57712  0.72749  1.0000
  C   C197      1.0  0.36805  0.88410  0.96718  1.0000
  C   C198      1.0  0.36185  0.84391  0.02382  1.0000
  C  Sn11      1.0  0.39037  0.82383  0.12056  1.0000
  C  Sn12      1.0  0.42554  0.84526  0.16118  1.0000
  C   C199      1.0  0.43128  0.88626  0.10400  1.0000
  C   C200      1.0  0.40256  0.90605  0.00723  1.0000
  H   H83       1.0  0.34582  0.89943  0.89238  1.0000
  O  Te11      1.0  0.38387  0.78288  0.17608  1.0000
  O  Te12      1.0  0.45452  0.82593  0.25772  1.0000
  H   H84       1.0  0.40740  0.93700  0.96348  1.0000
  Mg  Mg6       1.0  0.43210  0.76984  0.30406  1.0000
  C   C201      1.0  0.38540  0.89488  0.46911  1.0000
  C   C202      1.0  0.41863  0.88953  0.56917  1.0000
  C  Sn13      1.0  0.42391  0.85248  0.66000  1.0000
  C  Sn14      1.0  0.39534  0.82024  0.65020  1.0000
  C   C203      1.0  0.36222  0.82589  0.54965  1.0000
  C   C204      1.0  0.35723  0.86309  0.45932  1.0000
  H   H85       1.0  0.38155  0.92365  0.39915  1.0000
  O  Te13      1.0  0.45726  0.84766  0.75941  1.0000
  O  Te14      1.0  0.39989  0.78289  0.73962  1.0000
  H   H86       1.0  0.33151  0.86721  0.38178  1.0000
  Mg  Mg7       1.0  0.45031  0.79110  0.85783  1.0000
  C   C205      1.0  0.42209  0.16724  0.67912  1.0000
  C   C206      1.0  0.42695  0.12594  0.62514  1.0000
  C  Sn15      1.0  0.39815  0.10679  0.52740  1.0000
  C  Sn16      1.0  0.36389  0.12948  0.48305  1.0000
  C   C207      1.0  0.35933  0.17079  0.53759  1.0000
  C   C208      1.0  0.38832  0.18965  0.63538  1.0000
  H   H87       1.0  0.44453  0.18184  0.75472  1.0000
  O  Te15      1.0  0.40346  0.06551  0.47457  1.0000
  O  Te16      1.0  0.33466  0.11111  0.38543  1.0000
  H   H88       1.0  0.38456  0.22163  0.67708  1.0000
  Mg  Mg8       1.0  0.35534  0.05409  0.34377  1.0000
