data_image0
_chemical_formula_structural       C48N8C8S8H16C8H4C48N8C8S8H16C8H4SnCSn2CSnTe4Mg2SnCSn2CSnTe4Mg2SnCSn2CSnTe4Mg2SnCSn2CSnTe4Mg2SnCSn2CSnTe4Mg2SnCSn2CSnTe4Mg2SnCSn2CSnTe4Mg2SnCSn2CSnTe4Mg2SnCSn2CSnTe4Mg2SnCSn2CSnTe4Mg2SnCSn2CSnTe4Mg2SnCSn2CSnTe4Mg2SnCSn2CSnTe4Mg2SnCSn2CSnTe4Mg2SnCSn2CSnTe4Mg2SnCSn2CSnTe4Mg2
_chemical_formula_sum              "C160 N16 S16 H40 Sn64 Te64 Mg32"
_cell_length_a       33.9025
_cell_length_b       33.6528
_cell_length_c       8.09115
_cell_angle_alpha    90.3314
_cell_angle_beta     90.0135
_cell_angle_gamma    89.9822

_symmetry_space_group_name_H-M    'P1'
_space_group_IT_number       1

loop_
  _space_group_symop_operation_xyz
  'x, y, z'

loop_
  _atom_site_type_symbol
  _atom_site_label
  _atom_site_symmetry_multiplicity
  _atom_site_fract_x
  _atom_site_fract_y
  _atom_site_fract_z
  _atom_site_occupancy
  C   C1        1.0  0.46448  0.95766  0.11700  1.0000
  C   C2        1.0  0.53897  0.04210  0.12805  1.0000
  C   C3        1.0  0.03487  0.45757  0.39017  1.0000
  C   C4        1.0  0.96132  0.54253  0.39818  1.0000
  C   C5        1.0  0.03468  0.54268  0.40855  1.0000
  C   C6        1.0  0.96154  0.45730  0.38938  1.0000
  C   C7        1.0  0.46561  0.04281  0.12052  1.0000
  C   C8        1.0  0.53782  0.95681  0.12627  1.0000
  C   C9        1.0  0.42984  0.02099  0.14228  1.0000
  C   C10       1.0  0.57332  0.97865  0.15499  1.0000
  C   C11       1.0  0.07022  0.52073  0.38267  1.0000
  C   C12       1.0  0.92618  0.47963  0.36555  1.0000
  C   C13       1.0  0.07027  0.48016  0.37223  1.0000
  C   C14       1.0  0.92616  0.52028  0.36728  1.0000
  C   C15       1.0  0.42931  0.98039  0.14007  1.0000
  C   C16       1.0  0.57386  0.01930  0.15631  1.0000
  C   C17       1.0  0.46649  0.08477  0.10007  1.0000
  C   C18       1.0  0.53704  0.91478  0.10617  1.0000
  C   C19       1.0  0.03424  0.58464  0.43323  1.0000
  C   C20       1.0  0.96200  0.41512  0.40203  1.0000
  C   C21       1.0  0.03468  0.41536  0.40094  1.0000
  C   C22       1.0  0.96148  0.58449  0.42138  1.0000
  C   C23       1.0  0.46428  0.91565  0.09406  1.0000
  C   C24       1.0  0.53934  0.08417  0.10758  1.0000
  C   C25       1.0  0.32789  0.18219  0.01590  1.0000
  C   C26       1.0  0.67222  0.81249  0.02199  1.0000
  C   C27       1.0  0.17250  0.68425  0.49593  1.0000
  C   C28       1.0  0.82570  0.31390  0.47095  1.0000
  C   C29       1.0  0.17347  0.31802  0.47183  1.0000
  C   C30       1.0  0.82263  0.68330  0.46391  1.0000
  C   C31       1.0  0.32607  0.81760  0.00565  1.0000
  C   C32       1.0  0.67656  0.18443  0.02501  1.0000
  C   C33       1.0  0.78750  0.26056  0.44310  1.0000
  C   C34       1.0  0.21103  0.73711  0.46144  1.0000
  C   C35       1.0  0.70983  0.75852  0.03883  1.0000
  C   C36       1.0  0.28998  0.23583  0.04027  1.0000
  C   C37       1.0  0.71376  0.23877  0.04359  1.0000
  C   C38       1.0  0.28824  0.76437  0.04004  1.0000
  C   C39       1.0  0.78507  0.73694  0.43235  1.0000
  C   C40       1.0  0.21216  0.26504  0.44889  1.0000
  C   C41       1.0  0.77642  0.22187  0.39667  1.0000
  C   C42       1.0  0.22235  0.77531  0.41091  1.0000
  C   C43       1.0  0.72080  0.71973  0.08214  1.0000
  C   C44       1.0  0.27926  0.27454  0.08745  1.0000
  C   C45       1.0  0.72450  0.27760  0.08940  1.0000
  C   C46       1.0  0.27741  0.72632  0.09363  1.0000
  C   C47       1.0  0.77464  0.77558  0.38399  1.0000
  C   C48       1.0  0.22368  0.22659  0.40208  1.0000
  N   N1        1.0  0.32578  0.21856  0.07485  1.0000
  N   N2        1.0  0.67428  0.77603  0.07826  1.0000
  N   N3        1.0  0.17449  0.72026  0.43459  1.0000
  N   N4        1.0  0.82361  0.27765  0.41057  1.0000
  N   N5        1.0  0.17623  0.28180  0.41195  1.0000
  N   N6        1.0  0.82096  0.71919  0.40123  1.0000
  N   N7        1.0  0.32426  0.78181  0.06919  1.0000
  N   N8        1.0  0.67843  0.22095  0.08283  1.0000
  C   C49       1.0  0.26053  0.78758  0.44939  1.0000
  C   C50       1.0  0.73914  0.20899  0.44492  1.0000
  C   C51       1.0  0.24183  0.28745  0.04225  1.0000
  C   C52       1.0  0.75826  0.70702  0.03524  1.0000
  C   C53       1.0  0.23966  0.71335  0.05347  1.0000
  C   C54       1.0  0.76167  0.29074  0.04097  1.0000
  C   C55       1.0  0.26099  0.21414  0.45087  1.0000
  C   C56       1.0  0.73754  0.78935  0.43124  1.0000
  S   S1        1.0  0.78083  0.66156  0.07292  1.0000
  S   S2        1.0  0.22004  0.33330  0.08048  1.0000
  S   S3        1.0  0.71717  0.16287  0.41236  1.0000
  S   S4        1.0  0.28316  0.83260  0.40442  1.0000
  S   S5        1.0  0.71634  0.83579  0.39841  1.0000
  S   S6        1.0  0.28353  0.16873  0.41232  1.0000
  S   S7        1.0  0.78414  0.33626  0.08062  1.0000
  S   S8        1.0  0.21748  0.66838  0.10171  1.0000
  H   H1        1.0  0.79667  0.20348  0.32580  1.0000
  H   H2        1.0  0.20170  0.79396  0.34401  1.0000
  H   H3        1.0  0.70044  0.70124  0.15106  1.0000
  H   H4        1.0  0.29985  0.29275  0.15760  1.0000
  H   H5        1.0  0.70425  0.29568  0.16174  1.0000
  H   H6        1.0  0.29807  0.70856  0.16443  1.0000
  H   H7        1.0  0.79531  0.79322  0.31279  1.0000
  H   H8        1.0  0.20379  0.20810  0.32987  1.0000
  H   H9        1.0  0.40250  0.03724  0.16117  1.0000
  H   H10       1.0  0.60051  0.96234  0.17563  1.0000
  H   H11       1.0  0.09778  0.53690  0.37060  1.0000
  H   H12       1.0  0.89880  0.46372  0.34321  1.0000
  H   H13       1.0  0.09786  0.46458  0.35072  1.0000
  H   H14       1.0  0.89884  0.53623  0.34485  1.0000
  H   H15       1.0  0.40151  0.96490  0.15699  1.0000
  H   H16       1.0  0.60138  0.03486  0.18013  1.0000
  C   C57       1.0  0.50310  0.10391  0.09239  1.0000
  C   C58       1.0  0.50058  0.89580  0.08932  1.0000
  C   C59       1.0  0.99768  0.60394  0.44064  1.0000
  C   C60       1.0  0.99843  0.39567  0.40795  1.0000
  C   C61       1.0  0.50143  0.97851  0.12340  1.0000
  C   C62       1.0  0.50203  0.02119  0.12470  1.0000
  C   C63       1.0  0.99815  0.47871  0.39269  1.0000
  C   C64       1.0  0.99804  0.52135  0.40004  1.0000
  H   H17       1.0  0.50338  0.13558  0.06633  1.0000
  H   H18       1.0  0.50066  0.86404  0.06447  1.0000
  H   H19       1.0  0.99728  0.63561  0.46807  1.0000
  H   H20       1.0  0.99855  0.36374  0.42755  1.0000
  C   C65       1.0  0.46196  0.95842  0.62269  1.0000
  C   C66       1.0  0.53521  0.04334  0.64149  1.0000
  C   C67       1.0  0.03934  0.45804  0.88496  1.0000
  C   C68       1.0  0.96515  0.54244  0.88342  1.0000
  C   C69       1.0  0.03831  0.54320  0.89744  1.0000
  C   C70       1.0  0.96601  0.45752  0.88052  1.0000
  C   C71       1.0  0.46199  0.04382  0.62887  1.0000
  C   C72       1.0  0.53526  0.95865  0.63507  1.0000
  C   C73       1.0  0.42644  0.02139  0.64680  1.0000
  C   C74       1.0  0.57027  0.98062  0.67123  1.0000
  C   C75       1.0  0.07408  0.52153  0.87238  1.0000
  C   C76       1.0  0.93072  0.47941  0.84913  1.0000
  C   C77       1.0  0.07445  0.48094  0.86343  1.0000
  C   C78       1.0  0.93032  0.52002  0.84915  1.0000
  C   C79       1.0  0.42641  0.98071  0.64387  1.0000
  C   C80       1.0  0.57027  0.02120  0.67400  1.0000
  C   C81       1.0  0.46272  0.08588  0.60860  1.0000
  C   C82       1.0  0.53542  0.91697  0.60589  1.0000
  C   C83       1.0  0.03722  0.58505  0.92249  1.0000
  C   C84       1.0  0.96649  0.41564  0.90312  1.0000
  C   C85       1.0  0.03931  0.41596  0.90327  1.0000
  C   C86       1.0  0.96470  0.58429  0.90896  1.0000
  C   C87       1.0  0.46270  0.91649  0.59797  1.0000
  C   C88       1.0  0.53542  0.08511  0.61797  1.0000
  C   C89       1.0  0.32573  0.18567  0.52071  1.0000
  C   C90       1.0  0.67350  0.81967  0.50405  1.0000
  C   C91       1.0  0.17437  0.68434  0.99782  1.0000
  C   C92       1.0  0.82661  0.31944  0.97316  1.0000
  C   C93       1.0  0.17708  0.31656  0.97665  1.0000
  C   C94       1.0  0.82378  0.67910  0.97233  1.0000
  C   C95       1.0  0.32642  0.81574  0.50476  1.0000
  C   C96       1.0  0.67490  0.17991  0.51997  1.0000
  C   C97       1.0  0.78827  0.26619  0.94776  1.0000
  C   C98       1.0  0.21246  0.73721  0.96119  1.0000
  C   C99       1.0  0.71032  0.76520  0.52177  1.0000
  C   C100      1.0  0.28730  0.23893  0.54454  1.0000
  C   C101      1.0  0.71245  0.23388  0.53612  1.0000
  C   C102      1.0  0.28785  0.76291  0.53739  1.0000
  C   C103      1.0  0.78513  0.73203  0.94694  1.0000
  C   C104      1.0  0.21467  0.26271  0.95265  1.0000
  C   C105      1.0  0.77741  0.22756  0.90054  1.0000
  C   C106      1.0  0.22336  0.77515  0.90688  1.0000
  C   C107      1.0  0.72058  0.72652  0.56891  1.0000
  C   C108      1.0  0.27572  0.27741  0.59149  1.0000
  C   C109      1.0  0.72324  0.27275  0.58006  1.0000
  C   C110      1.0  0.27650  0.72481  0.58843  1.0000
  C   C111      1.0  0.77405  0.77065  0.90206  1.0000
  C   C112      1.0  0.22535  0.22394  0.90611  1.0000
  N   N9        1.0  0.32320  0.22192  0.58093  1.0000
  N   N10       1.0  0.67495  0.78309  0.55909  1.0000
  N   N11       1.0  0.17635  0.71989  0.93252  1.0000
  N   N12       1.0  0.82406  0.28333  0.91192  1.0000
  N   N13       1.0  0.17889  0.28014  0.91798  1.0000
  N   N14       1.0  0.82131  0.71529  0.91362  1.0000
  N   N15       1.0  0.32427  0.77975  0.56614  1.0000
  N   N16       1.0  0.67700  0.21658  0.57555  1.0000
  C   C113      1.0  0.26098  0.78829  0.94840  1.0000
  C   C114      1.0  0.74042  0.21434  0.95002  1.0000
  C   C115      1.0  0.23840  0.28992  0.54235  1.0000
  C   C116      1.0  0.75781  0.71299  0.52381  1.0000
  C   C117      1.0  0.23846  0.71245  0.54879  1.0000
  C   C118      1.0  0.76057  0.28544  0.53315  1.0000
  C   C119      1.0  0.26290  0.21106  0.95055  1.0000
  C   C120      1.0  0.73659  0.78331  0.94863  1.0000
  S   S9        1.0  0.77942  0.66746  0.56720  1.0000
  S   S10       1.0  0.21565  0.33536  0.57944  1.0000
  S   S11       1.0  0.71883  0.16827  0.91474  1.0000
  S   S12       1.0  0.28298  0.83351  0.90210  1.0000
  S   S13       1.0  0.71454  0.82907  0.91379  1.0000
  S   S14       1.0  0.28504  0.16532  0.91178  1.0000
  S   S15       1.0  0.78263  0.33101  0.57272  1.0000
  S   S16       1.0  0.21605  0.66740  0.59409  1.0000
  H   H21       1.0  0.79761  0.20964  0.82734  1.0000
  H   H22       1.0  0.20286  0.79274  0.83455  1.0000
  H   H23       1.0  0.69989  0.70894  0.64018  1.0000
  H   H24       1.0  0.29544  0.29592  0.66440  1.0000
  H   H25       1.0  0.70293  0.29128  0.65004  1.0000
  H   H26       1.0  0.29687  0.70637  0.65773  1.0000
  H   H27       1.0  0.79462  0.78923  0.83448  1.0000
  H   H28       1.0  0.20457  0.20566  0.83733  1.0000
  H   H29       1.0  0.39878  0.03720  0.66325  1.0000
  H   H30       1.0  0.59734  0.96448  0.69623  1.0000
  H   H31       1.0  0.10142  0.53796  0.85776  1.0000
  H   H32       1.0  0.90364  0.46323  0.82437  1.0000
  H   H33       1.0  0.10205  0.46564  0.83888  1.0000
  H   H34       1.0  0.90305  0.53579  0.82361  1.0000
  H   H35       1.0  0.39876  0.96473  0.65755  1.0000
  H   H36       1.0  0.59733  0.03720  0.70145  1.0000
  C   C121      1.0  0.49941  0.10500  0.60182  1.0000
  C   C122      1.0  0.49928  0.89736  0.58796  1.0000
  C   C123      1.0  0.00057  0.60417  0.92963  1.0000
  C   C124      1.0  0.00294  0.39639  0.91497  1.0000
  C   C125      1.0  0.49852  0.97973  0.63258  1.0000
  C   C126      1.0  0.49851  0.02235  0.63591  1.0000
  C   C127      1.0  0.00249  0.47898  0.88381  1.0000
  C   C128      1.0  0.00198  0.52157  0.88761  1.0000
  H   H37       1.0  0.50006  0.13659  0.57428  1.0000
  H   H38       1.0  0.49960  0.86590  0.55642  1.0000
  H   H39       1.0  0.99991  0.63578  0.95877  1.0000
  H   H40       1.0  0.00304  0.36475  0.94115  1.0000
  C  Sn1       1.0  0.41625  0.14852  0.19682  1.0000
  C   C129      1.0  0.42440  0.11126  0.12772  1.0000
  C  Sn2       1.0  0.40257  0.09857  0.99331  1.0000
  C  Sn3       1.0  0.37191  0.12225  0.92650  1.0000
  C   C130      1.0  0.36378  0.15948  0.99557  1.0000
  C  Sn4       1.0  0.38559  0.17219  0.13000  1.0000
  O  Te1       1.0  0.43851  0.16199  0.33114  1.0000
  O  Te2       1.0  0.41127  0.06122  0.92637  1.0000
  O  Te3       1.0  0.34965  0.10874  0.79207  1.0000
  O  Te4       1.0  0.37691  0.20952  0.19691  1.0000
  Mg  Mg1       1.0  0.37269  0.05588  0.74386  1.0000
  Mg  Mg2       1.0  0.41548  0.21490  0.37936  1.0000
  C  Sn5       1.0  0.58541  0.85001  0.20871  1.0000
  C   C131      1.0  0.57865  0.88737  0.13963  1.0000
  C  Sn6       1.0  0.60096  0.90019  0.00498  1.0000
  C  Sn7       1.0  0.63069  0.87653  0.93790  1.0000
  C   C132      1.0  0.63738  0.83781  0.00695  1.0000
  C  Sn8       1.0  0.61508  0.82497  0.14163  1.0000
  O  Te5       1.0  0.56275  0.83781  0.34328  1.0000
  O  Te6       1.0  0.59372  0.93905  0.93807  1.0000
  O  Te7       1.0  0.65336  0.88877  0.80323  1.0000
  O  Te8       1.0  0.62236  0.78752  0.20851  1.0000
  Mg  Mg3       1.0  0.63234  0.94236  0.75516  1.0000
  Mg  Mg4       1.0  0.58374  0.78417  0.39136  1.0000
  C  Sn9       1.0  0.09147  0.67327  0.42523  1.0000
  C   C133      1.0  0.12650  0.66540  0.51005  1.0000
  C  Sn10      1.0  0.13579  0.62666  0.55745  1.0000
  C  Sn11      1.0  0.10953  0.59512  0.51917  1.0000
  C   C134      1.0  0.07453  0.60300  0.43437  1.0000
  C  Sn12      1.0  0.06521  0.64173  0.38695  1.0000
  O  Te9       1.0  0.08278  0.71223  0.37904  1.0000
  O  Te10      1.0  0.17097  0.61953  0.64220  1.0000
  O  Te11      1.0  0.11824  0.55615  0.56544  1.0000
  O  Te12      1.0  0.03005  0.64887  0.30223  1.0000
  Mg  Mg5       1.0  0.16974  0.56142  0.67875  1.0000
  Mg  Mg6       1.0  0.03126  0.70696  0.26554  1.0000
  C  Sn13      1.0  0.90547  0.32627  0.38391  1.0000
  C   C135      1.0  0.87131  0.33317  0.47633  1.0000
  C  Sn14      1.0  0.86228  0.37143  0.53259  1.0000
  C  Sn15      1.0  0.88792  0.40346  0.49561  1.0000
  C   C136      1.0  0.92205  0.39656  0.40321  1.0000
  C  Sn16      1.0  0.93111  0.35831  0.34693  1.0000
  O  Te13      1.0  0.91392  0.28779  0.32893  1.0000
  O  Te14      1.0  0.82796  0.37759  0.62482  1.0000
  O  Te15      1.0  0.87944  0.44197  0.55068  1.0000
  O  Te16      1.0  0.96540  0.35214  0.25472  1.0000
  Mg  Mg7       1.0  0.82920  0.43537  0.67201  1.0000
  Mg  Mg8       1.0  0.96418  0.29438  0.20740  1.0000
  C  Sn17      1.0  0.11578  0.40637  0.48552  1.0000
  C   C137      1.0  0.08138  0.39770  0.39725  1.0000
  C  Sn18      1.0  0.07391  0.35901  0.34221  1.0000
  C  Sn19      1.0  0.10139  0.32833  0.37618  1.0000
  C   C138      1.0  0.13576  0.33701  0.46442  1.0000
  C  Sn20      1.0  0.14326  0.37570  0.51949  1.0000
  O  Te17      1.0  0.12264  0.44526  0.53936  1.0000
  O  Te18      1.0  0.03931  0.35107  0.25414  1.0000
  O  Te19      1.0  0.09450  0.28942  0.32225  1.0000
  O  Te20      1.0  0.17783  0.38364  0.60753  1.0000
  Mg  Mg9       1.0  0.04316  0.29340  0.20698  1.0000
  Mg  Mg10      1.0  0.17400  0.44129  0.65482  1.0000
  C  Sn21      1.0  0.87878  0.59393  0.48584  1.0000
  C   C139      1.0  0.91441  0.60214  0.40616  1.0000
  C  Sn22      1.0  0.92337  0.64084  0.35727  1.0000
  C  Sn23      1.0  0.89616  0.67200  0.38875  1.0000
  C   C140      1.0  0.86057  0.66379  0.46841  1.0000
  C  Sn24      1.0  0.85158  0.62509  0.51732  1.0000
  O  Te21      1.0  0.87044  0.55502  0.53364  1.0000
  O  Te22      1.0  0.95916  0.64831  0.27775  1.0000
  O  Te23      1.0  0.90453  0.71093  0.34087  1.0000
  O  Te24      1.0  0.81581  0.61762  0.59682  1.0000
  Mg  Mg11      1.0  0.95713  0.70620  0.23646  1.0000
  Mg  Mg12      1.0  0.81782  0.55974  0.63824  1.0000
  C  Sn25      1.0  0.37271  0.88385  0.91215  1.0000
  C   C141      1.0  0.36494  0.84633  0.97769  1.0000
  C  Sn26      1.0  0.38802  0.83000  0.10598  1.0000
  C  Sn27      1.0  0.41958  0.85305  0.17018  1.0000
  C   C142      1.0  0.42733  0.89055  0.10467  1.0000
  C  Sn28      1.0  0.40426  0.90690  0.97635  1.0000
  O  Te25      1.0  0.34919  0.89819  0.78392  1.0000
  O  Te26      1.0  0.37969  0.79240  0.16945  1.0000
  O  Te27      1.0  0.44310  0.83867  0.29850  1.0000
  O  Te28      1.0  0.41257  0.94448  0.91291  1.0000
  Mg  Mg13      1.0  0.42010  0.78579  0.34386  1.0000
  Mg  Mg14      1.0  0.37218  0.95112  0.73857  1.0000
  C  Sn29      1.0  0.57784  0.15858  0.11856  1.0000
  C   C143      1.0  0.57237  0.11937  0.06555  1.0000
  C  Sn30      1.0  0.60441  0.09676  0.01078  1.0000
  C  Sn31      1.0  0.64272  0.11367  0.00906  1.0000
  C   C144      1.0  0.64817  0.15286  0.06207  1.0000
  C  Sn32      1.0  0.61615  0.17550  0.11684  1.0000
  O  Te29      1.0  0.54538  0.18064  0.17282  1.0000
  O  Te30      1.0  0.59827  0.05902  0.95832  1.0000
  O  Te31      1.0  0.67524  0.09297  0.95474  1.0000
  O  Te32      1.0  0.62233  0.21461  0.16930  1.0000
  Mg  Mg15      1.0  0.65181  0.04094  0.89546  1.0000
  Mg  Mg16      1.0  0.56882  0.23270  0.23226  1.0000
  C  Sn33      1.0  0.36253  0.10971  0.50780  1.0000
  C   C145      1.0  0.35580  0.14794  0.57000  1.0000
  C  Sn34      1.0  0.38703  0.17063  0.63198  1.0000
  C  Sn35      1.0  0.42580  0.15478  0.63169  1.0000
  C   C146      1.0  0.43252  0.11658  0.56950  1.0000
  C  Sn36      1.0  0.40130  0.09386  0.50752  1.0000
  O  Te33      1.0  0.33087  0.08756  0.44645  1.0000
  O  Te34      1.0  0.37957  0.20877  0.69356  1.0000
  O  Te35      1.0  0.45747  0.17697  0.69312  1.0000
  O  Te36      1.0  0.40874  0.05575  0.44594  1.0000
  Mg  Mg17      1.0  0.43240  0.22741  0.76369  1.0000
  Mg  Mg18      1.0  0.35594  0.03709  0.37570  1.0000
  C  Sn37      1.0  0.63669  0.89621  0.50998  1.0000
  C   C147      1.0  0.64369  0.85741  0.56321  1.0000
  C  Sn38      1.0  0.61257  0.83374  0.61836  1.0000
  C  Sn39      1.0  0.57363  0.84918  0.62025  1.0000
  C   C148      1.0  0.56665  0.88795  0.56701  1.0000
  C  Sn40      1.0  0.59776  0.91164  0.51186  1.0000
  O  Te37      1.0  0.66825  0.91933  0.45534  1.0000
  O  Te38      1.0  0.62029  0.79505  0.67103  1.0000
  O  Te39      1.0  0.54207  0.82601  0.67495  1.0000
  O  Te40      1.0  0.59005  0.95031  0.45919  1.0000
  Mg  Mg19      1.0  0.56751  0.77512  0.73439  1.0000
  Mg  Mg20      1.0  0.64280  0.97026  0.39572  1.0000
  C  Sn41      1.0  0.08581  0.64924  0.82697  1.0000
  C   C149      1.0  0.07860  0.61199  0.89621  1.0000
  C  Sn42      1.0  0.10097  0.59736  0.02990  1.0000
  C  Sn43      1.0  0.13121  0.62188  0.09584  1.0000
  C   C150      1.0  0.13840  0.65910  0.02663  1.0000
  C  Sn44      1.0  0.11606  0.67375  0.89291  1.0000
  O  Te41      1.0  0.06303  0.66186  0.69337  1.0000
  O  Te42      1.0  0.09322  0.56001  0.09699  1.0000
  O  Te43      1.0  0.15400  0.60921  0.22954  1.0000
  O  Te44      1.0  0.12378  0.71108  0.82585  1.0000
  Mg  Mg21      1.0  0.13222  0.55599  0.27831  1.0000
  Mg  Mg22      1.0  0.08479  0.71513  0.64460  1.0000
  C  Sn45      1.0  0.86518  0.39625  0.98799  1.0000
  C   C151      1.0  0.85788  0.35828  0.92423  1.0000
  C  Sn46      1.0  0.88898  0.33455  0.86813  1.0000
  C  Sn47      1.0  0.92821  0.34907  0.87600  1.0000
  C   C152      1.0  0.93550  0.38701  0.93975  1.0000
  C  Sn48      1.0  0.90441  0.41077  0.99586  1.0000
  O  Te45      1.0  0.83358  0.41807  0.04339  1.0000
  O  Te46      1.0  0.88095  0.29669  0.80484  1.0000
  O  Te47      1.0  0.95977  0.32582  0.82053  1.0000
  O  Te48      1.0  0.91238  0.44721  0.05914  1.0000
  Mg  Mg23      1.0  0.93384  0.27627  0.74477  1.0000
  Mg  Mg24      1.0  0.85952  0.46764  0.11932  1.0000
  C  Sn49      1.0  0.07769  0.34153  0.89362  1.0000
  C   C153      1.0  0.07236  0.38076  0.94668  1.0000
  C  Sn50      1.0  0.10461  0.40352  0.99801  1.0000
  C  Sn51      1.0  0.14299  0.38674  0.99617  1.0000
  C   C154      1.0  0.14830  0.34754  0.94311  1.0000
  C  Sn52      1.0  0.11607  0.32475  0.89178  1.0000
  O  Te49      1.0  0.04503  0.31932  0.84283  1.0000
  O  Te50      1.0  0.09849  0.44128  0.05059  1.0000
  O  Te51      1.0  0.17560  0.40760  0.04702  1.0000
  O  Te52      1.0  0.12212  0.28563  0.83920  1.0000
  Mg  Mg25      1.0  0.15230  0.45959  0.10795  1.0000
  Mg  Mg26      1.0  0.06834  0.26730  0.78173  1.0000
  C  Sn53      1.0  0.87230  0.61549  0.07564  1.0000
  C   C155      1.0  0.86369  0.65204  0.00285  1.0000
  C  Sn54      1.0  0.88647  0.66736  0.87135  1.0000
  C  Sn55      1.0  0.91845  0.64425  0.81126  1.0000
  C   C156      1.0  0.92704  0.60772  0.88402  1.0000
  C  Sn56      1.0  0.90428  0.59239  0.01556  1.0000
  O  Te53      1.0  0.84920  0.60216  0.20697  1.0000
  O  Te54      1.0  0.87730  0.70399  0.80062  1.0000
  O  Te55      1.0  0.94156  0.65762  0.67983  1.0000
  O  Te56      1.0  0.91343  0.55577  0.08625  1.0000
  Mg  Mg27      1.0  0.91742  0.70942  0.62441  1.0000
  Mg  Mg28      1.0  0.87333  0.55031  0.26240  1.0000
  C  Sn57      1.0  0.38231  0.90537  0.49643  1.0000
  C   C157      1.0  0.41588  0.89790  0.59157  1.0000
  C  Sn58      1.0  0.42423  0.85942  0.64517  1.0000
  C  Sn59      1.0  0.39850  0.82774  0.60271  1.0000
  C   C158      1.0  0.36496  0.83522  0.50761  1.0000
  C  Sn60      1.0  0.35658  0.87369  0.45398  1.0000
  O  Te57      1.0  0.37454  0.94407  0.44419  1.0000
  O  Te58      1.0  0.45797  0.85268  0.74020  1.0000
  O  Te59      1.0  0.40630  0.78902  0.65505  1.0000
  O  Te60      1.0  0.32287  0.88043  0.35898  1.0000
  Mg  Mg29      1.0  0.45591  0.79481  0.78192  1.0000
  Mg  Mg30      1.0  0.32491  0.93829  0.31713  1.0000
  C  Sn61      1.0  0.61672  0.09154  0.52465  1.0000
  C   C159      1.0  0.58347  0.10109  0.61894  1.0000
  C  Sn62      1.0  0.57687  0.14021  0.67059  1.0000
  C  Sn63      1.0  0.60404  0.17041  0.62702  1.0000
  C   C160      1.0  0.63726  0.16086  0.53277  1.0000
  C  Sn64      1.0  0.64389  0.12174  0.48107  1.0000
  O  Te61      1.0  0.62273  0.05223  0.47435  1.0000
  O  Te62      1.0  0.54343  0.14903  0.76481  1.0000
  O  Te63      1.0  0.59801  0.20974  0.67741  1.0000
  O  Te64      1.0  0.67731  0.11292  0.38689  1.0000
  Mg  Mg31      1.0  0.54812  0.20697  0.80382  1.0000
  Mg  Mg32      1.0  0.67263  0.05499  0.34774  1.0000
