data_image0
_chemical_formula_structural       C32N8H16C8H4C32N8H16C8H4SnCSn2CSnTe4Mg2SnCSn2CSnTe4Mg2SnCSn2CSnTe4Mg2SnCSn2CSnTe4Mg2SnCSn2CSnTe4Mg2SnCSn2CSnTe4Mg2SnCSn2CSnTe4Mg2SnCSn2CSnTe4Mg2SnCSn2CSnTe4Mg2SnCSn2CSnTe4Mg2SnCSn2CSnTe4Mg2SnCSn2CSnTe4Mg2SnCSn2CSnTe4Mg2SnCSn2CSnTe4Mg2SnCSn2CSnTe4Mg2SnCSn2CSnTe4Mg2SnCSn2CSnTe4Mg2SnCSn2CSnTe4Mg2SnCSn2CSnTe4Mg2SnCSn2CSnTe4Mg2SnCSn2CSnTe4Mg2SnCSn2CSnTe4Mg2SnCSn2CSnTe4Mg2SnCSn2CSnTe4Mg2
_chemical_formula_sum              "C128 N16 H40 Sn96 Te96 Mg48"
_cell_length_a       33.3034
_cell_length_b       35.6288
_cell_length_c       8.12942
_cell_angle_alpha    89.9659
_cell_angle_beta     89.6966
_cell_angle_gamma    90.0657

_symmetry_space_group_name_H-M    'P1'
_space_group_IT_number       1

loop_
  _space_group_symop_operation_xyz
  'x, y, z'

loop_
  _atom_site_type_symbol
  _atom_site_label
  _atom_site_symmetry_multiplicity
  _atom_site_fract_x
  _atom_site_fract_y
  _atom_site_fract_z
  _atom_site_occupancy
  C   C1        1.0  0.46048  0.95940  0.50586  1.0000
  C   C2        1.0  0.53486  0.04004  0.50543  1.0000
  C   C3        1.0  0.04023  0.46056  0.00333  1.0000
  C   C4        1.0  0.96472  0.54015  0.00260  1.0000
  C   C5        1.0  0.03937  0.54099  0.01286  1.0000
  C   C6        1.0  0.96558  0.45991  0.99501  1.0000
  C   C7        1.0  0.46016  0.03990  0.50265  1.0000
  C   C8        1.0  0.53510  0.95980  0.50956  1.0000
  C   C9        1.0  0.42410  0.01872  0.52562  1.0000
  C   C10       1.0  0.57107  0.98091  0.53244  1.0000
  C   C11       1.0  0.07574  0.52047  0.98826  1.0000
  C   C12       1.0  0.92964  0.48066  0.96625  1.0000
  C   C13       1.0  0.07613  0.48211  0.98287  1.0000
  C   C14       1.0  0.92918  0.51901  0.97016  1.0000
  C   C15       1.0  0.42421  0.98032  0.52637  1.0000
  C   C16       1.0  0.57096  0.01925  0.53022  1.0000
  C   C17       1.0  0.46045  0.07967  0.48460  1.0000
  C   C18       1.0  0.53516  0.92006  0.49413  1.0000
  C   C19       1.0  0.03843  0.58059  0.03566  1.0000
  C   C20       1.0  0.96601  0.42014  0.01090  1.0000
  C   C21       1.0  0.04014  0.42075  0.01828  1.0000
  C   C22       1.0  0.96446  0.57973  0.02456  1.0000
  C   C23       1.0  0.46123  0.91963  0.49089  1.0000
  C   C24       1.0  0.53449  0.07976  0.48846  1.0000
  C   C25       1.0  0.31949  0.17271  0.42307  1.0000
  C   C26       1.0  0.67540  0.82668  0.42122  1.0000
  C   C27       1.0  0.17777  0.67594  0.09572  1.0000
  C   C28       1.0  0.82587  0.32526  0.06717  1.0000
  C   C29       1.0  0.18035  0.32644  0.07362  1.0000
  C   C30       1.0  0.82395  0.67369  0.06835  1.0000
  C   C31       1.0  0.32471  0.82174  0.41914  1.0000
  C   C32       1.0  0.67467  0.17405  0.42854  1.0000
  N   N1        1.0  0.31411  0.20170  0.51661  1.0000
  N   N2        1.0  0.68122  0.79833  0.51784  1.0000
  N   N3        1.0  0.18226  0.70449  0.99882  1.0000
  N   N4        1.0  0.82005  0.29698  0.97030  1.0000
  N   N5        1.0  0.18443  0.29692  0.98221  1.0000
  N   N6        1.0  0.81903  0.70213  0.97123  1.0000
  N   N7        1.0  0.31760  0.79560  0.52596  1.0000
  N   N8        1.0  0.68007  0.20272  0.52382  1.0000
  H   H1        1.0  0.40049  0.03449  0.04889  1.0000
  H   H2        1.0  0.60260  0.96533  0.05125  1.0000
  H   H3        1.0  0.09969  0.53603  0.47097  1.0000
  H   H4        1.0  0.89706  0.46654  0.45206  1.0000
  H   H5        1.0  0.09994  0.46753  0.45588  1.0000
  H   H6        1.0  0.89692  0.53502  0.46118  1.0000
  H   H7        1.0  0.40023  0.96583  0.05115  1.0000
  H   H8        1.0  0.60291  0.03381  0.04975  1.0000
  H   H9        1.0  0.29844  0.16460  0.32569  1.0000
  H   H10       1.0  0.69523  0.83343  0.31667  1.0000
  H   H11       1.0  0.19964  0.66867  0.19144  1.0000
  H   H12       1.0  0.80563  0.33196  0.17039  1.0000
  H   H13       1.0  0.20225  0.33426  0.16834  1.0000
  H   H14       1.0  0.80276  0.66677  0.16815  1.0000
  H   H15       1.0  0.30592  0.82605  0.30990  1.0000
  H   H16       1.0  0.69540  0.16682  0.32760  1.0000
  C   C33       1.0  0.49752  0.09820  0.47815  1.0000
  C   C34       1.0  0.49837  0.90136  0.48479  1.0000
  C   C35       1.0  0.00107  0.59847  0.04261  1.0000
  C   C36       1.0  0.00312  0.40203  0.02372  1.0000
  C   C37       1.0  0.49769  0.97967  0.50737  1.0000
  C   C38       1.0  0.49755  0.01993  0.50525  1.0000
  C   C39       1.0  0.00271  0.48027  0.00133  1.0000
  C   C40       1.0  0.00228  0.52052  0.00554  1.0000
  H   H17       1.0  0.00033  0.62838  0.06883  1.0000
  H   H18       1.0  0.00318  0.37188  0.04443  1.0000
  H   H19       1.0  0.49767  0.12837  0.45759  1.0000
  H   H20       1.0  0.49859  0.87122  0.46376  1.0000
  C   C41       1.0  0.46412  0.95981  0.00435  1.0000
  C   C42       1.0  0.53915  0.03993  0.00308  1.0000
  C   C43       1.0  0.03576  0.46091  0.49565  1.0000
  C   C44       1.0  0.96078  0.54086  0.50667  1.0000
  C   C45       1.0  0.03544  0.54122  0.51036  1.0000
  C   C46       1.0  0.96105  0.46051  0.49532  1.0000
  C   C47       1.0  0.46452  0.04010  0.00476  1.0000
  C   C48       1.0  0.53878  0.95948  0.00388  1.0000
  C   C49       1.0  0.42834  0.01925  0.02955  1.0000
  C   C50       1.0  0.57483  0.98043  0.02926  1.0000
  C   C51       1.0  0.07171  0.52061  0.48492  1.0000
  C   C52       1.0  0.92495  0.48154  0.47402  1.0000
  C   C53       1.0  0.07184  0.48228  0.47691  1.0000
  C   C54       1.0  0.92484  0.51989  0.47922  1.0000
  C   C55       1.0  0.42817  0.98089  0.03001  1.0000
  C   C56       1.0  0.57502  0.01880  0.02855  1.0000
  C   C57       1.0  0.46499  0.07982  0.98722  1.0000
  C   C58       1.0  0.53831  0.91976  0.98523  1.0000
  C   C59       1.0  0.03486  0.58083  0.53254  1.0000
  C   C60       1.0  0.96147  0.42065  0.50719  1.0000
  C   C61       1.0  0.03550  0.42105  0.50695  1.0000
  C   C62       1.0  0.96089  0.58047  0.52743  1.0000
  C   C63       1.0  0.46422  0.92014  0.98427  1.0000
  C   C64       1.0  0.53900  0.07965  0.98462  1.0000
  C   C65       1.0  0.32400  0.17280  0.92530  1.0000
  C   C66       1.0  0.67906  0.82637  0.92054  1.0000
  C   C67       1.0  0.17503  0.67496  0.59656  1.0000
  C   C68       1.0  0.82176  0.32536  0.57197  1.0000
  C   C69       1.0  0.17502  0.32665  0.57195  1.0000
  C   C70       1.0  0.81933  0.67296  0.57567  1.0000
  C   C71       1.0  0.32260  0.82802  0.91567  1.0000
  C   C72       1.0  0.68089  0.17175  0.91922  1.0000
  N   N9        1.0  0.31848  0.20141  0.02071  1.0000
  N   N10       1.0  0.68436  0.79717  0.01267  1.0000
  N   N11       1.0  0.18158  0.70219  0.49432  1.0000
  N   N12       1.0  0.81551  0.29716  0.47502  1.0000
  N   N13       1.0  0.18191  0.29946  0.47011  1.0000
  N   N14       1.0  0.81294  0.69999  0.47269  1.0000
  N   N15       1.0  0.31717  0.79960  0.01256  1.0000
  N   N16       1.0  0.68646  0.20025  0.01527  1.0000
  H   H21       1.0  0.39609  0.03374  0.54456  1.0000
  H   H22       1.0  0.59892  0.96581  0.55272  1.0000
  H   H23       1.0  0.10362  0.53591  0.97206  1.0000
  H   H24       1.0  0.90222  0.46538  0.93955  1.0000
  H   H25       1.0  0.10425  0.46748  0.96125  1.0000
  H   H26       1.0  0.90130  0.53389  0.94744  1.0000
  H   H27       1.0  0.39622  0.96515  0.54464  1.0000
  H   H28       1.0  0.59883  0.03445  0.54902  1.0000
  H   H29       1.0  0.30320  0.16569  0.82529  1.0000
  H   H30       1.0  0.70020  0.83452  0.82246  1.0000
  H   H31       1.0  0.19523  0.66869  0.69954  1.0000
  H   H32       1.0  0.80151  0.33227  0.67483  1.0000
  H   H33       1.0  0.19419  0.33247  0.67872  1.0000
  H   H34       1.0  0.79933  0.66700  0.68047  1.0000
  H   H35       1.0  0.30162  0.83540  0.81680  1.0000
  H   H36       1.0  0.70189  0.16436  0.81972  1.0000
  C   C73       1.0  0.50204  0.09822  0.97730  1.0000
  C   C74       1.0  0.50115  0.90152  0.97436  1.0000
  C   C75       1.0  0.99772  0.59911  0.54071  1.0000
  C   C76       1.0  0.99856  0.40236  0.51367  1.0000
  C   C77       1.0  0.50156  0.97970  0.00450  1.0000
  C   C78       1.0  0.50176  0.01996  0.00458  1.0000
  C   C79       1.0  0.99833  0.48077  0.49839  1.0000
  C   C80       1.0  0.99819  0.52100  0.50506  1.0000
  H   H37       1.0  0.99749  0.62917  0.56402  1.0000
  H   H38       1.0  0.99869  0.37212  0.53197  1.0000
  H   H39       1.0  0.50205  0.12833  0.95530  1.0000
  H   H40       1.0  0.50097  0.87149  0.95027  1.0000
  C  Sn1       1.0  0.41431  0.13851  0.09892  1.0000
  C   C81       1.0  0.42258  0.10463  0.01921  1.0000
  C  Sn2       1.0  0.39889  0.09351  0.88259  1.0000
  C  Sn3       1.0  0.36759  0.11690  0.82435  1.0000
  C   C82       1.0  0.35934  0.15076  0.90403  1.0000
  C  Sn4       1.0  0.38301  0.16190  0.04069  1.0000
  O  Te1       1.0  0.43708  0.14893  0.23528  1.0000
  O  Te2       1.0  0.40771  0.05951  0.80497  1.0000
  O  Te3       1.0  0.34482  0.10646  0.68789  1.0000
  O  Te4       1.0  0.37421  0.19589  0.11827  1.0000
  Mg  Mg1       1.0  0.36827  0.05755  0.62379  1.0000
  Mg  Mg2       1.0  0.41364  0.19788  0.29940  1.0000
  C  Sn5       1.0  0.64125  0.89713  0.89784  1.0000
  C   C83       1.0  0.64758  0.86152  0.96499  1.0000
  C  Sn6       1.0  0.61667  0.84089  0.02794  1.0000
  C  Sn7       1.0  0.57731  0.85601  0.02359  1.0000
  C   C84       1.0  0.56970  0.89146  0.95645  1.0000
  C  Sn8       1.0  0.60189  0.91225  0.89349  1.0000
  O  Te5       1.0  0.67388  0.91739  0.83560  1.0000
  O  Te6       1.0  0.62375  0.80536  0.09451  1.0000
  O  Te7       1.0  0.54467  0.83572  0.08591  1.0000
  O  Te8       1.0  0.59483  0.94776  0.82693  1.0000
  Mg  Mg3       1.0  0.56955  0.78857  0.16393  1.0000
  Mg  Mg4       1.0  0.64899  0.96456  0.75741  1.0000
  C  Sn9       1.0  0.13678  0.60475  0.63065  1.0000
  C   C85       1.0  0.14347  0.64005  0.56061  1.0000
  C  Sn10      1.0  0.11175  0.66013  0.49152  1.0000
  C  Sn11      1.0  0.07251  0.64462  0.49255  1.0000
  C   C86       1.0  0.06583  0.60934  0.56258  1.0000
  C  Sn12      1.0  0.09754  0.58923  0.63168  1.0000
  O  Te9       1.0  0.16895  0.58518  0.69903  1.0000
  O  Te10      1.0  0.11917  0.69537  0.42217  1.0000
  O  Te11      1.0  0.04034  0.66423  0.42409  1.0000
  O  Te12      1.0  0.09013  0.55402  0.70102  1.0000
  Mg  Mg5       1.0  0.06557  0.71120  0.34429  1.0000
  Mg  Mg6       1.0  0.14370  0.53818  0.77901  1.0000
  C  Sn13      1.0  0.90322  0.33714  0.47863  1.0000
  C   C87       1.0  0.86847  0.34320  0.57197  1.0000
  C  Sn14      1.0  0.85960  0.37895  0.63235  1.0000
  C  Sn15      1.0  0.88600  0.40930  0.59866  1.0000
  C   C88       1.0  0.92072  0.40323  0.50536  1.0000
  C  Sn16      1.0  0.92962  0.36748  0.44494  1.0000
  O  Te13      1.0  0.91149  0.30116  0.41950  1.0000
  O  Te14      1.0  0.82469  0.38432  0.72543  1.0000
  O  Te15      1.0  0.87771  0.44529  0.65789  1.0000
  O  Te16      1.0  0.96450  0.36211  0.35190  1.0000
  Mg  Mg7       1.0  0.82646  0.43851  0.77878  1.0000
  Mg  Mg8       1.0  0.96275  0.30794  0.29842  1.0000
  C  Sn17      1.0  0.10464  0.34853  0.40348  1.0000
  C   C89       1.0  0.13845  0.35401  0.50173  1.0000
  C  Sn18      1.0  0.13797  0.38080  0.62709  1.0000
  C  Sn19      1.0  0.10296  0.40257  0.65490  1.0000
  C   C90       1.0  0.06917  0.39709  0.55670  1.0000
  C  Sn20      1.0  0.06963  0.37030  0.43128  1.0000
  O  Te17      1.0  0.10579  0.32159  0.27886  1.0000
  O  Te18      1.0  0.17214  0.38578  0.72368  1.0000
  O  Te19      1.0  0.10183  0.42953  0.77963  1.0000
  O  Te20      1.0  0.03548  0.36532  0.33475  1.0000
  Mg  Mg9       1.0  0.15588  0.42594  0.87843  1.0000
  Mg  Mg10      1.0  0.05170  0.32515  0.18003  1.0000
  C  Sn21      1.0  0.86801  0.61415  0.69176  1.0000
  C   C91       1.0  0.86028  0.64784  0.60980  1.0000
  C  Sn22      1.0  0.88343  0.65839  0.47361  1.0000
  C  Sn23      1.0  0.91495  0.63476  0.41810  1.0000
  C   C92       1.0  0.92266  0.60109  0.50002  1.0000
  C  Sn24      1.0  0.89953  0.59052  0.63626  1.0000
  O  Te21      1.0  0.84449  0.60416  0.82764  1.0000
  O  Te22      1.0  0.87514  0.69222  0.39370  1.0000
  O  Te23      1.0  0.93848  0.64478  0.28210  1.0000
  O  Te24      1.0  0.90780  0.55671  0.71612  1.0000
  Mg  Mg11      1.0  0.91554  0.69358  0.21423  1.0000
  Mg  Mg12      1.0  0.86741  0.55531  0.89554  1.0000
  C  Sn25      1.0  0.42392  0.85046  0.00746  1.0000
  C   C93       1.0  0.42958  0.88603  0.94193  1.0000
  C  Sn26      1.0  0.39789  0.90702  0.87786  1.0000
  C  Sn27      1.0  0.35842  0.89201  0.87942  1.0000
  C   C94       1.0  0.35149  0.85633  0.94494  1.0000
  C  Sn28      1.0  0.38446  0.83546  0.00902  1.0000
  O  Te25      1.0  0.45605  0.82998  0.07086  1.0000
  O  Te26      1.0  0.40558  0.94264  0.81295  1.0000
  O  Te27      1.0  0.32629  0.91253  0.81594  1.0000
  O  Te28      1.0  0.37678  0.79986  0.07392  1.0000
  Mg  Mg13      1.0  0.35192  0.95973  0.74101  1.0000
  Mg  Mg14      1.0  0.43041  0.78275  0.14597  1.0000
  C  Sn29      1.0  0.62236  0.08820  0.90363  1.0000
  C   C95       1.0  0.58691  0.09617  0.98943  1.0000
  C  Sn30      1.0  0.58000  0.13286  0.04170  1.0000
  C  Sn31      1.0  0.60780  0.16206  0.00741  1.0000
  C   C96       1.0  0.64192  0.15394  0.92163  1.0000
  C  Sn32      1.0  0.65015  0.11740  0.86933  1.0000
  O  Te29      1.0  0.62994  0.05145  0.85254  1.0000
  O  Te30      1.0  0.54437  0.14014  0.12734  1.0000
  O  Te31      1.0  0.60019  0.19882  0.05858  1.0000
  O  Te32      1.0  0.68575  0.11011  0.78372  1.0000
  Mg  Mg15      1.0  0.54753  0.19471  0.17121  1.0000
  Mg  Mg16      1.0  0.68262  0.05555  0.73972  1.0000
  C  Sn33      1.0  0.40145  0.16278  0.50393  1.0000
  C   C97       1.0  0.36613  0.15543  0.41756  1.0000
  C  Sn34      1.0  0.35746  0.11909  0.36386  1.0000
  C  Sn35      1.0  0.38465  0.08947  0.39725  1.0000
  C   C98       1.0  0.41994  0.09682  0.48359  1.0000
  C  Sn36      1.0  0.42863  0.13316  0.53732  1.0000
  O  Te33      1.0  0.40950  0.19932  0.55645  1.0000
  O  Te34      1.0  0.32197  0.11244  0.27769  1.0000
  O  Te35      1.0  0.37657  0.05291  0.34464  1.0000
  O  Te36      1.0  0.46409  0.13982  0.62346  1.0000
  Mg  Mg17      1.0  0.32433  0.05792  0.23179  1.0000
  Mg  Mg18      1.0  0.46176  0.19432  0.66949  1.0000
  C  Sn37      1.0  0.58594  0.86133  0.60376  1.0000
  C   C99       1.0  0.57773  0.89543  0.52592  1.0000
  C  Sn38      1.0  0.60005  0.90666  0.38844  1.0000
  C  Sn39      1.0  0.63119  0.88330  0.32742  1.0000
  C   C100      1.0  0.63938  0.84922  0.40522  1.0000
  C  Sn40      1.0  0.61709  0.83797  0.54273  1.0000
  O  Te37      1.0  0.56325  0.85066  0.74101  1.0000
  O  Te38      1.0  0.59130  0.94088  0.31273  1.0000
  O  Te39      1.0  0.65389  0.89400  0.19005  1.0000
  O  Te40      1.0  0.62582  0.80377  0.61840  1.0000
  Mg  Mg19      1.0  0.63058  0.94314  0.12933  1.0000
  Mg  Mg20      1.0  0.58654  0.80148  0.80175  1.0000
  C  Sn41      1.0  0.11159  0.60105  0.19658  1.0000
  C   C101      1.0  0.07672  0.60719  0.10561  1.0000
  C  Sn42      1.0  0.07436  0.63515  0.98581  1.0000
  C  Sn43      1.0  0.10888  0.65757  0.95623  1.0000
  C   C102      1.0  0.14502  0.65156  0.04714  1.0000
  C  Sn44      1.0  0.14611  0.62347  0.16700  1.0000
  O  Te41      1.0  0.11198  0.57281  0.31574  1.0000
  O  Te42      1.0  0.03915  0.64077  0.89647  1.0000
  O  Te43      1.0  0.10846  0.68583  0.83696  1.0000
  O  Te44      1.0  0.18130  0.61784  0.25629  1.0000
  Mg  Mg21      1.0  0.05343  0.68270  0.74721  1.0000
  Mg  Mg22      1.0  0.16706  0.57591  0.40550  1.0000
  C  Sn45      1.0  0.89159  0.40015  0.16185  1.0000
  C   C103      1.0  0.92667  0.39401  0.07071  1.0000
  C  Sn46      1.0  0.92650  0.36624  0.94897  1.0000
  C  Sn47      1.0  0.89182  0.34429  0.91760  1.0000
  C   C104      1.0  0.85806  0.35056  0.00869  1.0000
  C  Sn48      1.0  0.85692  0.37819  0.13048  1.0000
  O  Te45      1.0  0.89116  0.42793  0.28295  1.0000
  O  Te46      1.0  0.96191  0.36062  0.85949  1.0000
  O  Te47      1.0  0.89228  0.31649  0.79638  1.0000
  O  Te48      1.0  0.82153  0.38382  0.21991  1.0000
  Mg  Mg23      1.0  0.94762  0.31942  0.70724  1.0000
  Mg  Mg24      1.0  0.83578  0.42502  0.37212  1.0000
  C  Sn49      1.0  0.13334  0.38732  0.18172  1.0000
  C   C105      1.0  0.14043  0.35287  0.10476  1.0000
  C  Sn50      1.0  0.11533  0.34121  0.97313  1.0000
  C  Sn51      1.0  0.08379  0.36460  0.91718  1.0000
  C   C106      1.0  0.07672  0.39902  0.99410  1.0000
  C  Sn52      1.0  0.10180  0.41071  0.12577  1.0000
  O  Te49      1.0  0.15752  0.39828  0.31309  1.0000
  O  Te50      1.0  0.12299  0.30665  0.89819  1.0000
  O  Te51      1.0  0.05961  0.35361  0.78571  1.0000
  O  Te52      1.0  0.09416  0.44525  0.20067  1.0000
  Mg  Mg25      1.0  0.08183  0.30407  0.72370  1.0000
  Mg  Mg26      1.0  0.13531  0.44786  0.37511  1.0000
  C  Sn53      1.0  0.87054  0.61308  0.17983  1.0000
  C   C107      1.0  0.86400  0.64754  0.10225  1.0000
  C  Sn54      1.0  0.88718  0.65876  0.97129  1.0000
  C  Sn55      1.0  0.91884  0.63519  0.91664  1.0000
  C   C108      1.0  0.92536  0.60076  0.99419  1.0000
  C  Sn56      1.0  0.90220  0.58951  0.12519  1.0000
  O  Te53      1.0  0.84571  0.60229  0.31052  1.0000
  O  Te54      1.0  0.88007  0.69334  0.89571  1.0000
  O  Te55      1.0  0.94368  0.64602  0.78585  1.0000
  O  Te56      1.0  0.90930  0.55496  0.20073  1.0000
  Mg  Mg27      1.0  0.92203  0.69565  0.72255  1.0000
  Mg  Mg28      1.0  0.86735  0.55261  0.37383  1.0000
  C  Sn57      1.0  0.37144  0.88329  0.31336  1.0000
  C   C109      1.0  0.36490  0.84862  0.38945  1.0000
  C  Sn58      1.0  0.38743  0.83814  0.52640  1.0000
  C  Sn59      1.0  0.41711  0.86284  0.58869  1.0000
  C   C110      1.0  0.42364  0.89749  0.51264  1.0000
  C  Sn60      1.0  0.40112  0.90799  0.37565  1.0000
  O  Te57      1.0  0.34856  0.89319  0.17659  1.0000
  O  Te58      1.0  0.38035  0.80333  0.60035  1.0000
  O  Te59      1.0  0.44000  0.85291  0.72557  1.0000
  O  Te60      1.0  0.40819  0.94278  0.30174  1.0000
  Mg  Mg29      1.0  0.41923  0.80252  0.78373  1.0000
  Mg  Mg30      1.0  0.36932  0.94362  0.11841  1.0000
  C  Sn61      1.0  0.57397  0.14942  0.52446  1.0000
  C   C111      1.0  0.56753  0.11428  0.45297  1.0000
  C  Sn62      1.0  0.59953  0.09427  0.38430  1.0000
  C  Sn63      1.0  0.63879  0.10970  0.38724  1.0000
  C   C112      1.0  0.64522  0.14482  0.45873  1.0000
  C  Sn64      1.0  0.61324  0.16485  0.52740  1.0000
  O  Te61      1.0  0.54153  0.16892  0.59238  1.0000
  O  Te62      1.0  0.59234  0.05920  0.31347  1.0000
  O  Te63      1.0  0.67124  0.09017  0.31924  1.0000
  O  Te64      1.0  0.62041  0.19990  0.59823  1.0000
  Mg  Mg31      1.0  0.64627  0.04341  0.23693  1.0000
  Mg  Mg32      1.0  0.56651  0.21570  0.67487  1.0000
  C  Sn65      1.0  0.73944  0.28003  0.61170  1.0000
  C   C113      1.0  0.77742  0.27339  0.54386  1.0000
  C  Sn66      1.0  0.78394  0.24237  0.44222  1.0000
  C  Sn67      1.0  0.75183  0.21747  0.40757  1.0000
  C   C114      1.0  0.71388  0.22411  0.47536  1.0000
  C  Sn68      1.0  0.70733  0.25512  0.57705  1.0000
  O  Te65      1.0  0.73361  0.31122  0.71297  1.0000
  O  Te66      1.0  0.82218  0.23632  0.37588  1.0000
  O  Te67      1.0  0.75770  0.18626  0.30621  1.0000
  O  Te68      1.0  0.66912  0.26118  0.64335  1.0000
  Mg  Mg33      1.0  0.81517  0.18995  0.24496  1.0000
  Mg  Mg34      1.0  0.67609  0.30755  0.77421  1.0000
  C  Sn69      1.0  0.28381  0.72603  0.54745  1.0000
  C   C115      1.0  0.28613  0.76282  0.48845  1.0000
  C  Sn70      1.0  0.25125  0.78236  0.44728  1.0000
  C  Sn71      1.0  0.21326  0.76476  0.46557  1.0000
  C   C116      1.0  0.21096  0.72800  0.52457  1.0000
  C  Sn72      1.0  0.24583  0.70843  0.56574  1.0000
  O  Te69      1.0  0.31907  0.70703  0.58785  1.0000
  O  Te70      1.0  0.25433  0.81911  0.38848  1.0000
  O  Te71      1.0  0.17800  0.78380  0.42510  1.0000
  O  Te72      1.0  0.24276  0.67170  0.62453  1.0000
  Mg  Mg35      1.0  0.19771  0.83339  0.35004  1.0000
  Mg  Mg36      1.0  0.29935  0.65740  0.66309  1.0000
  C  Sn73      1.0  0.73542  0.71291  0.01266  1.0000
  C   C117      1.0  0.77283  0.71952  0.95227  1.0000
  C  Sn74      1.0  0.78620  0.75624  0.92629  1.0000
  C  Sn75      1.0  0.76036  0.78684  0.96149  1.0000
  C   C118      1.0  0.72297  0.78022  0.02187  1.0000
  C  Sn76      1.0  0.70957  0.74351  0.04786  1.0000
  O  Te73      1.0  0.72268  0.67597  0.03771  1.0000
  O  Te74      1.0  0.82502  0.76229  0.86578  1.0000
  O  Te75      1.0  0.77313  0.82379  0.93638  1.0000
  O  Te76      1.0  0.67078  0.73745  0.10836  1.0000
  Mg  Mg37      1.0  0.82860  0.81768  0.85215  1.0000
  Mg  Mg38      1.0  0.66718  0.68208  0.12212  1.0000
  C  Sn77      1.0  0.24063  0.21708  0.90400  1.0000
  C   C119      1.0  0.27975  0.22433  0.95669  1.0000
  C  Sn78      1.0  0.28975  0.25719  0.04410  1.0000
  C  Sn79      1.0  0.25871  0.28321  0.07970  1.0000
  C   C120      1.0  0.21961  0.27596  0.02705  1.0000
  C  Sn80      1.0  0.20958  0.24310  0.93960  1.0000
  O  Te77      1.0  0.23261  0.18418  0.81680  1.0000
  O  Te78      1.0  0.32910  0.26383  0.09544  1.0000
  O  Te79      1.0  0.26676  0.31613  0.16698  1.0000
  O  Te80      1.0  0.17026  0.23646  0.88830  1.0000
  Mg  Mg39      1.0  0.32505  0.31263  0.21065  1.0000
  Mg  Mg40      1.0  0.17428  0.18766  0.77317  1.0000
  C  Sn81      1.0  0.77958  0.23447  0.86956  1.0000
  C   C121      1.0  0.78138  0.27082  0.93363  1.0000
  C  Sn82      1.0  0.75447  0.28288  0.05012  1.0000
  C  Sn83      1.0  0.72385  0.25796  0.10379  1.0000
  C   C122      1.0  0.72207  0.22163  0.03975  1.0000
  C  Sn84      1.0  0.74896  0.20954  0.92322  1.0000
  O  Te81      1.0  0.80808  0.22314  0.75322  1.0000
  O  Te82      1.0  0.75687  0.31936  0.11235  1.0000
  O  Te83      1.0  0.69534  0.26932  0.22022  1.0000
  O  Te84      1.0  0.74658  0.17309  0.86103  1.0000
  Mg  Mg41      1.0  0.71115  0.32171  0.26866  1.0000
  Mg  Mg42      1.0  0.79229  0.17070  0.70479  1.0000
  C  Sn85      1.0  0.23338  0.78872  0.98677  1.0000
  C   C123      1.0  0.27408  0.78206  0.03683  1.0000
  C  Sn86      1.0  0.28776  0.74532  0.05751  1.0000
  C  Sn87      1.0  0.26151  0.71473  0.02744  1.0000
  C   C124      1.0  0.22084  0.72140  0.97740  1.0000
  C  Sn88      1.0  0.20713  0.75814  0.95671  1.0000
  O  Te85      1.0  0.22034  0.82568  0.96687  1.0000
  O  Te86      1.0  0.32728  0.73922  0.10769  1.0000
  O  Te87      1.0  0.27458  0.67775  0.04739  1.0000
  O  Te88      1.0  0.16764  0.76424  0.90653  1.0000
  Mg  Mg43      1.0  0.33103  0.68381  0.11761  1.0000
  Mg  Mg44      1.0  0.16386  0.81963  0.89649  1.0000
  C  Sn89      1.0  0.78134  0.76979  0.44439  1.0000
  C   C125      1.0  0.78254  0.73350  0.50952  1.0000
  C  Sn90      1.0  0.74725  0.71577  0.56140  1.0000
  C  Sn91      1.0  0.70997  0.73469  0.54780  1.0000
  C   C126      1.0  0.70878  0.77095  0.48268  1.0000
  C  Sn92      1.0  0.74406  0.78871  0.43079  1.0000
  O  Te89      1.0  0.81700  0.78697  0.39329  1.0000
  O  Te90      1.0  0.74921  0.67949  0.62616  1.0000
  O  Te91      1.0  0.67430  0.71748  0.59898  1.0000
  O  Te92      1.0  0.74211  0.82497  0.36604  1.0000
  Mg  Mg45      1.0  0.69244  0.66785  0.67887  1.0000
  Mg  Mg46      1.0  0.79886  0.83662  0.31321  1.0000
  C  Sn93      1.0  0.21428  0.22989  0.43360  1.0000
  C   C127      1.0  0.21168  0.26514  0.50818  1.0000
  C  Sn94      1.0  0.24598  0.28243  0.57113  1.0000
  C  Sn95      1.0  0.28367  0.26412  0.55921  1.0000
  C   C128      1.0  0.28626  0.22889  0.48465  1.0000
  C  Sn96      1.0  0.25197  0.21158  0.42168  1.0000
  O  Te93      1.0  0.17960  0.21313  0.37150  1.0000
  O  Te94      1.0  0.24263  0.31768  0.64520  1.0000
  O  Te95      1.0  0.31837  0.28091  0.62139  1.0000
  O  Te96      1.0  0.25531  0.17636  0.34762  1.0000
  Mg  Mg47      1.0  0.29846  0.32908  0.71123  1.0000
  Mg  Mg48      1.0  0.19951  0.16494  0.28147  1.0000
