data_image0
_chemical_formula_structural       C32N8H16C8H4C32N8H16C8H4C2Sn2C2HTe2HMgC2Sn2C2HTe2HMgC2Sn2C2HTe2HMgC2Sn2C2HTe2HMgC2Sn2C2HTe2HMgC2Sn2C2HTe2HMgC2Sn2C2HTe2HMgC2Sn2C2HTe2HMgC2Sn2C2HTe2HMgC2Sn2C2HTe2HMgC2Sn2C2HTe2HMgC2Sn2C2HTe2HMgC2Sn2C2HTe2HMgC2Sn2C2HTe2HMgC2Sn2C2HTe2HMgC2Sn2C2HTe2HMgC2Sn2C2HTe2HMgC2Sn2C2HTe2HMgC2Sn2C2HTe2HMgC2Sn2C2HTe2HMgC2Sn2C2HTe2HMgC2Sn2C2HTe2HMgC2Sn2C2HTe2HMgC2Sn2C2HTe2HMg
_chemical_formula_sum              "C176 N16 H88 Sn48 Te48 Mg24"
_cell_length_a       33.3034
_cell_length_b       35.6288
_cell_length_c       8.12942
_cell_angle_alpha    89.9659
_cell_angle_beta     89.6966
_cell_angle_gamma    90.0657

_symmetry_space_group_name_H-M    'P1'
_space_group_IT_number       1

loop_
  _space_group_symop_operation_xyz
  'x, y, z'

loop_
  _atom_site_type_symbol
  _atom_site_label
  _atom_site_symmetry_multiplicity
  _atom_site_fract_x
  _atom_site_fract_y
  _atom_site_fract_z
  _atom_site_occupancy
  C   C1        1.0  0.46048  0.95940  0.50586  1.0000
  C   C2        1.0  0.53486  0.04004  0.50543  1.0000
  C   C3        1.0  0.04023  0.46056  0.00333  1.0000
  C   C4        1.0  0.96472  0.54015  0.00260  1.0000
  C   C5        1.0  0.03937  0.54099  0.01286  1.0000
  C   C6        1.0  0.96558  0.45991  0.99501  1.0000
  C   C7        1.0  0.46016  0.03990  0.50265  1.0000
  C   C8        1.0  0.53510  0.95980  0.50956  1.0000
  C   C9        1.0  0.42410  0.01872  0.52562  1.0000
  C   C10       1.0  0.57107  0.98091  0.53244  1.0000
  C   C11       1.0  0.07574  0.52047  0.98826  1.0000
  C   C12       1.0  0.92964  0.48066  0.96625  1.0000
  C   C13       1.0  0.07613  0.48211  0.98287  1.0000
  C   C14       1.0  0.92918  0.51901  0.97016  1.0000
  C   C15       1.0  0.42421  0.98032  0.52637  1.0000
  C   C16       1.0  0.57096  0.01925  0.53022  1.0000
  C   C17       1.0  0.46045  0.07967  0.48460  1.0000
  C   C18       1.0  0.53516  0.92006  0.49413  1.0000
  C   C19       1.0  0.03843  0.58059  0.03566  1.0000
  C   C20       1.0  0.96601  0.42014  0.01090  1.0000
  C   C21       1.0  0.04014  0.42075  0.01828  1.0000
  C   C22       1.0  0.96446  0.57973  0.02456  1.0000
  C   C23       1.0  0.46123  0.91963  0.49089  1.0000
  C   C24       1.0  0.53449  0.07976  0.48846  1.0000
  C   C25       1.0  0.31949  0.17271  0.42307  1.0000
  C   C26       1.0  0.67540  0.82668  0.42122  1.0000
  C   C27       1.0  0.17777  0.67594  0.09572  1.0000
  C   C28       1.0  0.82587  0.32526  0.06717  1.0000
  C   C29       1.0  0.18035  0.32644  0.07362  1.0000
  C   C30       1.0  0.82395  0.67369  0.06835  1.0000
  C   C31       1.0  0.32471  0.82174  0.41914  1.0000
  C   C32       1.0  0.67467  0.17405  0.42854  1.0000
  N   N1        1.0  0.31411  0.20170  0.51661  1.0000
  N   N2        1.0  0.68122  0.79833  0.51784  1.0000
  N   N3        1.0  0.18226  0.70449  0.99882  1.0000
  N   N4        1.0  0.82005  0.29698  0.97030  1.0000
  N   N5        1.0  0.18443  0.29692  0.98221  1.0000
  N   N6        1.0  0.81903  0.70213  0.97123  1.0000
  N   N7        1.0  0.31760  0.79560  0.52596  1.0000
  N   N8        1.0  0.68007  0.20272  0.52382  1.0000
  H   H1        1.0  0.40049  0.03449  0.04889  1.0000
  H   H2        1.0  0.60260  0.96533  0.05125  1.0000
  H   H3        1.0  0.09969  0.53603  0.47097  1.0000
  H   H4        1.0  0.89706  0.46654  0.45206  1.0000
  H   H5        1.0  0.09994  0.46753  0.45588  1.0000
  H   H6        1.0  0.89692  0.53502  0.46118  1.0000
  H   H7        1.0  0.40023  0.96583  0.05115  1.0000
  H   H8        1.0  0.60291  0.03381  0.04975  1.0000
  H   H9        1.0  0.29844  0.16460  0.32569  1.0000
  H   H10       1.0  0.69523  0.83343  0.31667  1.0000
  H   H11       1.0  0.19964  0.66867  0.19144  1.0000
  H   H12       1.0  0.80563  0.33196  0.17039  1.0000
  H   H13       1.0  0.20225  0.33426  0.16834  1.0000
  H   H14       1.0  0.80276  0.66677  0.16815  1.0000
  H   H15       1.0  0.30592  0.82605  0.30990  1.0000
  H   H16       1.0  0.69540  0.16682  0.32760  1.0000
  C   C33       1.0  0.49752  0.09820  0.47815  1.0000
  C   C34       1.0  0.49837  0.90136  0.48479  1.0000
  C   C35       1.0  0.00107  0.59847  0.04261  1.0000
  C   C36       1.0  0.00312  0.40203  0.02372  1.0000
  C   C37       1.0  0.49769  0.97967  0.50737  1.0000
  C   C38       1.0  0.49755  0.01993  0.50525  1.0000
  C   C39       1.0  0.00271  0.48027  0.00133  1.0000
  C   C40       1.0  0.00228  0.52052  0.00554  1.0000
  H   H17       1.0  0.00033  0.62838  0.06883  1.0000
  H   H18       1.0  0.00318  0.37188  0.04443  1.0000
  H   H19       1.0  0.49767  0.12837  0.45759  1.0000
  H   H20       1.0  0.49859  0.87122  0.46376  1.0000
  C   C41       1.0  0.46412  0.95981  0.00435  1.0000
  C   C42       1.0  0.53915  0.03993  0.00308  1.0000
  C   C43       1.0  0.03576  0.46091  0.49565  1.0000
  C   C44       1.0  0.96078  0.54086  0.50667  1.0000
  C   C45       1.0  0.03544  0.54122  0.51036  1.0000
  C   C46       1.0  0.96105  0.46051  0.49532  1.0000
  C   C47       1.0  0.46452  0.04010  0.00476  1.0000
  C   C48       1.0  0.53878  0.95948  0.00388  1.0000
  C   C49       1.0  0.42834  0.01925  0.02955  1.0000
  C   C50       1.0  0.57483  0.98043  0.02926  1.0000
  C   C51       1.0  0.07171  0.52061  0.48492  1.0000
  C   C52       1.0  0.92495  0.48154  0.47402  1.0000
  C   C53       1.0  0.07184  0.48228  0.47691  1.0000
  C   C54       1.0  0.92484  0.51989  0.47922  1.0000
  C   C55       1.0  0.42817  0.98089  0.03001  1.0000
  C   C56       1.0  0.57502  0.01880  0.02855  1.0000
  C   C57       1.0  0.46499  0.07982  0.98722  1.0000
  C   C58       1.0  0.53831  0.91976  0.98523  1.0000
  C   C59       1.0  0.03486  0.58083  0.53254  1.0000
  C   C60       1.0  0.96147  0.42065  0.50719  1.0000
  C   C61       1.0  0.03550  0.42105  0.50695  1.0000
  C   C62       1.0  0.96089  0.58047  0.52743  1.0000
  C   C63       1.0  0.46422  0.92014  0.98427  1.0000
  C   C64       1.0  0.53900  0.07965  0.98462  1.0000
  C   C65       1.0  0.32400  0.17280  0.92530  1.0000
  C   C66       1.0  0.67906  0.82637  0.92054  1.0000
  C   C67       1.0  0.17503  0.67496  0.59656  1.0000
  C   C68       1.0  0.82176  0.32536  0.57197  1.0000
  C   C69       1.0  0.17502  0.32665  0.57195  1.0000
  C   C70       1.0  0.81933  0.67296  0.57567  1.0000
  C   C71       1.0  0.32260  0.82802  0.91567  1.0000
  C   C72       1.0  0.68089  0.17175  0.91922  1.0000
  N   N9        1.0  0.31848  0.20141  0.02071  1.0000
  N   N10       1.0  0.68436  0.79717  0.01267  1.0000
  N   N11       1.0  0.18158  0.70219  0.49432  1.0000
  N   N12       1.0  0.81551  0.29716  0.47502  1.0000
  N   N13       1.0  0.18191  0.29946  0.47011  1.0000
  N   N14       1.0  0.81294  0.69999  0.47269  1.0000
  N   N15       1.0  0.31717  0.79960  0.01256  1.0000
  N   N16       1.0  0.68646  0.20025  0.01527  1.0000
  H   H21       1.0  0.39609  0.03374  0.54456  1.0000
  H   H22       1.0  0.59892  0.96581  0.55272  1.0000
  H   H23       1.0  0.10362  0.53591  0.97206  1.0000
  H   H24       1.0  0.90222  0.46538  0.93955  1.0000
  H   H25       1.0  0.10425  0.46748  0.96125  1.0000
  H   H26       1.0  0.90130  0.53389  0.94744  1.0000
  H   H27       1.0  0.39622  0.96515  0.54464  1.0000
  H   H28       1.0  0.59883  0.03445  0.54902  1.0000
  H   H29       1.0  0.30320  0.16569  0.82529  1.0000
  H   H30       1.0  0.70020  0.83452  0.82246  1.0000
  H   H31       1.0  0.19523  0.66869  0.69954  1.0000
  H   H32       1.0  0.80151  0.33227  0.67483  1.0000
  H   H33       1.0  0.19419  0.33247  0.67872  1.0000
  H   H34       1.0  0.79933  0.66700  0.68047  1.0000
  H   H35       1.0  0.30162  0.83540  0.81680  1.0000
  H   H36       1.0  0.70189  0.16436  0.81972  1.0000
  C   C73       1.0  0.50204  0.09822  0.97730  1.0000
  C   C74       1.0  0.50115  0.90152  0.97436  1.0000
  C   C75       1.0  0.99772  0.59911  0.54071  1.0000
  C   C76       1.0  0.99856  0.40236  0.51367  1.0000
  C   C77       1.0  0.50156  0.97970  0.00450  1.0000
  C   C78       1.0  0.50176  0.01996  0.00458  1.0000
  C   C79       1.0  0.99833  0.48077  0.49839  1.0000
  C   C80       1.0  0.99819  0.52100  0.50506  1.0000
  H   H37       1.0  0.99749  0.62917  0.56402  1.0000
  H   H38       1.0  0.99869  0.37212  0.53197  1.0000
  H   H39       1.0  0.50205  0.12833  0.95530  1.0000
  H   H40       1.0  0.50097  0.87149  0.95027  1.0000
  C   C81       1.0  0.40143  0.15796  0.06422  1.0000
  C   C82       1.0  0.36697  0.15338  0.96144  1.0000
  C  Sn1       1.0  0.36323  0.12127  0.86413  1.0000
  C  Sn2       1.0  0.39330  0.09313  0.87013  1.0000
  C   C83       1.0  0.42635  0.09782  0.97344  1.0000
  C   C84       1.0  0.43109  0.13021  0.07026  1.0000
  H   H41       1.0  0.40409  0.18290  0.13920  1.0000
  O  Te1       1.0  0.32991  0.11729  0.76208  1.0000
  O  Te2       1.0  0.39030  0.06075  0.77422  1.0000
  H   H42       1.0  0.45677  0.13363  0.14990  1.0000
  Mg  Mg1       1.0  0.33928  0.06817  0.65461  1.0000
  C   C85       1.0  0.60059  0.84047  0.05538  1.0000
  C   C86       1.0  0.63331  0.84530  0.95628  1.0000
  C  Sn3       1.0  0.63829  0.87827  0.86529  1.0000
  C  Sn4       1.0  0.60862  0.90676  0.87397  1.0000
  C   C87       1.0  0.57472  0.90154  0.97358  1.0000
  C   C88       1.0  0.57132  0.86856  0.06406  1.0000
  H   H43       1.0  0.59698  0.81487  0.12547  1.0000
  O  Te3       1.0  0.67244  0.88277  0.76685  1.0000
  O  Te4       1.0  0.61284  0.94000  0.78437  1.0000
  H   H44       1.0  0.54500  0.86474  0.14087  1.0000
  Mg  Mg2       1.0  0.66464  0.93302  0.66775  1.0000
  C   C89       1.0  0.07846  0.64827  0.45968  1.0000
  C   C90       1.0  0.07167  0.61239  0.52355  1.0000
  C  Sn5       1.0  0.09965  0.59596  0.62885  1.0000
  C  Sn6       1.0  0.13503  0.61591  0.67080  1.0000
  C   C91       1.0  0.14153  0.65181  0.60636  1.0000
  C   C92       1.0  0.11335  0.66798  0.50105  1.0000
  H   H45       1.0  0.05665  0.66079  0.37828  1.0000
  O  Te5       1.0  0.09240  0.56008  0.69151  1.0000
  O  Te6       1.0  0.16348  0.60017  0.77583  1.0000
  H   H46       1.0  0.11860  0.69577  0.45171  1.0000
  Mg  Mg3       1.0  0.14011  0.55052  0.82979  1.0000
  C   C93       1.0  0.91811  0.35324  0.42845  1.0000
  C   C94       1.0  0.92440  0.38915  0.49241  1.0000
  C  Sn7       1.0  0.89629  0.40508  0.59968  1.0000
  C  Sn8       1.0  0.86126  0.38460  0.64352  1.0000
  C   C95       1.0  0.85527  0.34868  0.57896  1.0000
  C   C96       1.0  0.88358  0.33301  0.47168  1.0000
  H   H47       1.0  0.94003  0.34111  0.34551  1.0000
  O  Te7       1.0  0.90303  0.44100  0.66241  1.0000
  O  Te8       1.0  0.83269  0.39984  0.75053  1.0000
  H   H48       1.0  0.87872  0.30520  0.42226  1.0000
  Mg  Mg4       1.0  0.85533  0.44976  0.80377  1.0000
  C   C97       1.0  0.13318  0.39463  0.64442  1.0000
  C   C98       1.0  0.13975  0.35869  0.58109  1.0000
  C  Sn9       1.0  0.11175  0.34236  0.47556  1.0000
  C  Sn10      1.0  0.07656  0.36245  0.43282  1.0000
  C   C99       1.0  0.07028  0.39841  0.49674  1.0000
  C   C100      1.0  0.09849  0.41448  0.60228  1.0000
  H   H49       1.0  0.15502  0.40707  0.72601  1.0000
  O  Te9       1.0  0.11878  0.30642  0.41344  1.0000
  O  Te10      1.0  0.04809  0.34680  0.32755  1.0000
  H   H50       1.0  0.09341  0.44231  0.65121  1.0000
  Mg  Mg5       1.0  0.07113  0.29702  0.27454  1.0000
  C   C101      1.0  0.89831  0.65880  0.44748  1.0000
  C   C102      1.0  0.86208  0.65192  0.52966  1.0000
  C  Sn11      1.0  0.85752  0.61982  0.62686  1.0000
  C  Sn12      1.0  0.88988  0.59421  0.64187  1.0000
  C   C103      1.0  0.92602  0.60137  0.55926  1.0000
  C   C104      1.0  0.93025  0.63356  0.46228  1.0000
  H   H51       1.0  0.90160  0.68372  0.37251  1.0000
  O  Te11      1.0  0.82111  0.61336  0.70807  1.0000
  O  Te12      1.0  0.88614  0.56193  0.73826  1.0000
  H   H52       1.0  0.95832  0.63890  0.39875  1.0000
  Mg  Mg6       1.0  0.83060  0.56542  0.82497  1.0000
  C   C105      1.0  0.40166  0.84052  0.04209  1.0000
  C   C106      1.0  0.36436  0.84824  0.96163  1.0000
  C  Sn13      1.0  0.35999  0.88160  0.87314  1.0000
  C  Sn14      1.0  0.39232  0.90752  0.86524  1.0000
  C   C107      1.0  0.42823  0.89938  0.94607  1.0000
  C   C108      1.0  0.43357  0.86606  0.03431  1.0000
  H   H53       1.0  0.40480  0.81462  0.11030  1.0000
  O  Te13      1.0  0.32381  0.88901  0.79353  1.0000
  O  Te14      1.0  0.38877  0.94107  0.77762  1.0000
  H   H54       1.0  0.46146  0.85997  0.09650  1.0000
  Mg  Mg7       1.0  0.33350  0.93853  0.68971  1.0000
  C   C109      1.0  0.61895  0.09219  0.85276  1.0000
  C   C110      1.0  0.58493  0.09774  0.95107  1.0000
  C  Sn15      1.0  0.58192  0.13087  0.04223  1.0000
  C  Sn16      1.0  0.61229  0.15878  0.03454  1.0000
  C   C111      1.0  0.64491  0.15284  0.93574  1.0000
  C   C112      1.0  0.64892  0.11972  0.84506  1.0000
  H   H55       1.0  0.62204  0.06657  0.78253  1.0000
  O  Te15      1.0  0.54774  0.13595  0.13987  1.0000
  O  Te16      1.0  0.60875  0.19203  0.12435  1.0000
  H   H56       1.0  0.67525  0.11544  0.76887  1.0000
  Mg  Mg8       1.0  0.55662  0.18596  0.23962  1.0000
  C   C113      1.0  0.39782  0.15873  0.55462  1.0000
  C   C114      1.0  0.36400  0.15382  0.45586  1.0000
  C  Sn17      1.0  0.35941  0.12106  0.36342  1.0000
  C  Sn18      1.0  0.38928  0.09274  0.37028  1.0000
  C   C115      1.0  0.42298  0.09792  0.46955  1.0000
  C   C116      1.0  0.42728  0.13081  0.56150  1.0000
  H   H57       1.0  0.40113  0.18417  0.62584  1.0000
  O  Te17      1.0  0.32545  0.11661  0.26535  1.0000
  O  Te18      1.0  0.38544  0.05972  0.27920  1.0000
  H   H58       1.0  0.45345  0.13460  0.63803  1.0000
  Mg  Mg9       1.0  0.33377  0.06668  0.16378  1.0000
  C   C117      1.0  0.59871  0.84197  0.56777  1.0000
  C   C118      1.0  0.63180  0.84651  0.46321  1.0000
  C  Sn19      1.0  0.63560  0.87882  0.36688  1.0000
  C  Sn20      1.0  0.60567  0.90707  0.37569  1.0000
  C   C119      1.0  0.57269  0.90227  0.48077  1.0000
  C   C120      1.0  0.56918  0.86982  0.57658  1.0000
  H   H59       1.0  0.59600  0.81688  0.64197  1.0000
  O  Te19      1.0  0.66885  0.88290  0.26304  1.0000
  O  Te20      1.0  0.60873  0.93964  0.28082  1.0000
  H   H60       1.0  0.54357  0.86633  0.65760  1.0000
  Mg  Mg10      1.0  0.65960  0.93229  0.15794  1.0000
  C   C121      1.0  0.09884  0.66134  0.97233  1.0000
  C   C122      1.0  0.13431  0.65687  0.06925  1.0000
  C  Sn21      1.0  0.13993  0.62378  0.15849  1.0000
  C  Sn22      1.0  0.11074  0.59481  0.15027  1.0000
  C   C123      1.0  0.07666  0.59968  0.05286  1.0000
  C   C124      1.0  0.07004  0.63277  0.96411  1.0000
  H   H61       1.0  0.09473  0.68704  0.90358  1.0000
  O  Te21      1.0  0.17424  0.61965  0.25475  1.0000
  O  Te22      1.0  0.11561  0.56145  0.23816  1.0000
  H   H62       1.0  0.04359  0.63632  0.88900  1.0000
  Mg  Mg11      1.0  0.16738  0.56905  0.35209  1.0000
  C   C125      1.0  0.88452  0.40709  0.12554  1.0000
  C   C126      1.0  0.92144  0.39992  0.04940  1.0000
  C  Sn23      1.0  0.92596  0.36669  0.96035  1.0000
  C  Sn24      1.0  0.89416  0.34034  0.94747  1.0000
  C   C127      1.0  0.85862  0.34792  0.02399  1.0000
  C   C128      1.0  0.85314  0.38112  0.11284  1.0000
  H   H63       1.0  0.88027  0.43279  0.19421  1.0000
  O  Te23      1.0  0.96304  0.35996  0.88509  1.0000
  O  Te24      1.0  0.89914  0.30704  0.85918  1.0000
  H   H64       1.0  0.82454  0.38667  0.17169  1.0000
  Mg  Mg12      1.0  0.95522  0.31055  0.77839  1.0000
  C   C129      1.0  0.10124  0.34076  0.95111  1.0000
  C   C130      1.0  0.13901  0.34777  0.02982  1.0000
  C  Sn25      1.0  0.14453  0.38075  0.11991  1.0000
  C  Sn26      1.0  0.11288  0.40726  0.13122  1.0000
  C   C131      1.0  0.07649  0.40010  0.05212  1.0000
  C   C132      1.0  0.07001  0.36689  0.96226  1.0000
  H   H65       1.0  0.09722  0.31515  0.88165  1.0000
  O  Te25      1.0  0.18117  0.38719  0.19774  1.0000
  O  Te26      1.0  0.11758  0.44044  0.22049  1.0000
  H   H66       1.0  0.04175  0.36155  0.90142  1.0000
  Mg  Mg13      1.0  0.17308  0.43654  0.30490  1.0000
  C   C133      1.0  0.88358  0.59339  0.14377  1.0000
  C   C134      1.0  0.91815  0.59782  0.04745  1.0000
  C  Sn27      1.0  0.92241  0.63020  0.95388  1.0000
  C  Sn28      1.0  0.89277  0.65877  0.95708  1.0000
  C   C135      1.0  0.85960  0.65421  0.05394  1.0000
  C   C136      1.0  0.85434  0.62156  0.14705  1.0000
  H   H67       1.0  0.87952  0.56814  0.21589  1.0000
  O  Te27      1.0  0.95711  0.63417  0.85828  1.0000
  O  Te28      1.0  0.89756  0.69155  0.86480  1.0000
  H   H68       1.0  0.82759  0.61815  0.22170  1.0000
  Mg  Mg14      1.0  0.94998  0.68393  0.75377  1.0000
  C   C137      1.0  0.38303  0.90343  0.35223  1.0000
  C   C138      1.0  0.41596  0.90030  0.45716  1.0000
  C  Sn29      1.0  0.42113  0.86803  0.55241  1.0000
  C  Sn30      1.0  0.39277  0.83839  0.54213  1.0000
  C   C139      1.0  0.35994  0.84179  0.43670  1.0000
  C   C140      1.0  0.35505  0.87421  0.34197  1.0000
  H   H69       1.0  0.37926  0.92851  0.27886  1.0000
  O  Te29      1.0  0.45420  0.86536  0.65665  1.0000
  O  Te30      1.0  0.39722  0.80582  0.63592  1.0000
  H   H70       1.0  0.32956  0.87662  0.26066  1.0000
  Mg  Mg15      1.0  0.44721  0.81539  0.75987  1.0000
  C   C141      1.0  0.61411  0.09413  0.35712  1.0000
  C   C142      1.0  0.58053  0.09807  0.45949  1.0000
  C  Sn31      1.0  0.57582  0.13027  0.55566  1.0000
  C  Sn32      1.0  0.60531  0.15901  0.54893  1.0000
  C   C143      1.0  0.63878  0.15481  0.44604  1.0000
  C   C144      1.0  0.64320  0.12247  0.35036  1.0000
  H   H71       1.0  0.61752  0.06912  0.28302  1.0000
  O  Te31      1.0  0.54211  0.13375  0.65731  1.0000
  O  Te32      1.0  0.60135  0.19148  0.64371  1.0000
  H   H72       1.0  0.66918  0.11944  0.27104  1.0000
  Mg  Mg16      1.0  0.55012  0.18323  0.76317  1.0000
  C   C145      1.0  0.78002  0.22780  0.42777  1.0000
  C   C146      1.0  0.78166  0.26597  0.46669  1.0000
  C  Sn33      1.0  0.74843  0.28375  0.53740  1.0000
  C  Sn34      1.0  0.71295  0.26286  0.56964  1.0000
  C   C147      1.0  0.71162  0.22469  0.53036  1.0000
  C   C148      1.0  0.74504  0.20717  0.45959  1.0000
  H   H73       1.0  0.80588  0.21424  0.37310  1.0000
  O  Te33      1.0  0.75057  0.32191  0.57546  1.0000
  O  Te34      1.0  0.67931  0.27994  0.64028  1.0000
  H   H74       1.0  0.74378  0.17761  0.42957  1.0000
  Mg  Mg17      1.0  0.69687  0.33260  0.67016  1.0000
  C   C149      1.0  0.28039  0.72823  0.60048  1.0000
  C   C150      1.0  0.28486  0.76356  0.52786  1.0000
  C  Sn35      1.0  0.25276  0.78013  0.44518  1.0000
  C  Sn36      1.0  0.21551  0.76090  0.43528  1.0000
  C   C151      1.0  0.21133  0.72558  0.50844  1.0000
  C   C152      1.0  0.24366  0.70926  0.59082  1.0000
  H   H75       1.0  0.30539  0.71560  0.66430  1.0000
  O  Te35      1.0  0.25775  0.81543  0.37327  1.0000
  O  Te36      1.0  0.18293  0.77682  0.35345  1.0000
  H   H76       1.0  0.24017  0.68191  0.64713  1.0000
  Mg  Mg18      1.0  0.20452  0.82549  0.27516  1.0000
  C   C153      1.0  0.78346  0.77073  0.90792  1.0000
  C   C154      1.0  0.78659  0.73448  0.97222  1.0000
  C  Sn37      1.0  0.75467  0.71747  0.04648  1.0000
  C  Sn38      1.0  0.71766  0.73706  0.05632  1.0000
  C   C155      1.0  0.71354  0.77318  0.99152  1.0000
  C   C156      1.0  0.74697  0.79007  0.91752  1.0000
  H   H77       1.0  0.80931  0.78380  0.85059  1.0000
  O  Te37      1.0  0.75832  0.68124  0.11014  1.0000
  O  Te38      1.0  0.68399  0.72059  0.12983  1.0000
  H   H78       1.0  0.74452  0.81813  0.86766  1.0000
  Mg  Mg19      1.0  0.70394  0.67070  0.19868  1.0000
  C   C157      1.0  0.23512  0.21276  0.95133  1.0000
  C   C158      1.0  0.27536  0.22011  0.98717  1.0000
  C  Sn39      1.0  0.28864  0.25625  0.03413  1.0000
  C  Sn40      1.0  0.25974  0.28538  0.04534  1.0000
  C   C159      1.0  0.21955  0.27773  0.00934  1.0000
  C   C160      1.0  0.20659  0.24147  0.96242  1.0000
  H   H79       1.0  0.22608  0.18480  0.91511  1.0000
  O  Te39      1.0  0.32897  0.26311  0.06945  1.0000
  O  Te40      1.0  0.27090  0.32162  0.09203  1.0000
  H   H80       1.0  0.17543  0.23578  0.93478  1.0000
  Mg  Mg20      1.0  0.32947  0.31708  0.12773  1.0000
  C   C161      1.0  0.78532  0.22798  0.91108  1.0000
  C   C162      1.0  0.78641  0.26563  0.95894  1.0000
  C  Sn41      1.0  0.75479  0.28186  0.03934  1.0000
  C  Sn42      1.0  0.72018  0.25978  0.07230  1.0000
  C   C163      1.0  0.71940  0.22213  0.02402  1.0000
  C   C164      1.0  0.75120  0.20617  0.94360  1.0000
  H   H81       1.0  0.81093  0.21573  0.84893  1.0000
  O  Te41      1.0  0.75637  0.31952  0.08626  1.0000
  O  Te42      1.0  0.68687  0.27515  0.15253  1.0000
  H   H82       1.0  0.75036  0.17701  0.90665  1.0000
  Mg  Mg21      1.0  0.70342  0.32775  0.19227  1.0000
  C   C165      1.0  0.28248  0.73078  0.07752  1.0000
  C   C166      1.0  0.28483  0.76726  0.01486  1.0000
  C  Sn43      1.0  0.24949  0.78439  0.94980  1.0000
  C  Sn44      1.0  0.21243  0.76471  0.94764  1.0000
  C   C167      1.0  0.21167  0.72838  0.01073  1.0000
  C   C168      1.0  0.24593  0.71136  0.07549  1.0000
  H   H83       1.0  0.30898  0.71762  0.12772  1.0000
  O  Te43      1.0  0.25237  0.82084  0.88765  1.0000
  O  Te44      1.0  0.17793  0.78131  0.88339  1.0000
  H   H84       1.0  0.24410  0.68313  0.12410  1.0000
  Mg  Mg22      1.0  0.19702  0.83149  0.81300  1.0000
  C   C169      1.0  0.76103  0.78182  0.40372  1.0000
  C   C170      1.0  0.72261  0.77753  0.47111  1.0000
  C  Sn45      1.0  0.71232  0.74465  0.55519  1.0000
  C  Sn46      1.0  0.74110  0.71559  0.57195  1.0000
  C   C171      1.0  0.77947  0.72016  0.50418  1.0000
  C   C172      1.0  0.78944  0.75317  0.42024  1.0000
  H   H85       1.0  0.76875  0.80736  0.33885  1.0000
  O  Te45      1.0  0.67379  0.74082  0.62172  1.0000
  O  Te46      1.0  0.73162  0.68245  0.65543  1.0000
  H   H86       1.0  0.81920  0.75649  0.36817  1.0000
  Mg  Mg23      1.0  0.67518  0.69043  0.72455  1.0000
  C   C173      1.0  0.21899  0.23323  0.38337  1.0000
  C   C174      1.0  0.21388  0.26677  0.46995  1.0000
  C  Sn47      1.0  0.24437  0.28022  0.57161  1.0000
  C  Sn48      1.0  0.28062  0.25964  0.58659  1.0000
  C   C175      1.0  0.28545  0.22613  0.49936  1.0000
  C   C176      1.0  0.25474  0.21292  0.39802  1.0000
  H   H87       1.0  0.19524  0.22302  0.30489  1.0000
  O  Te47      1.0  0.23877  0.31377  0.65729  1.0000
  O  Te48      1.0  0.31159  0.27244  0.68729  1.0000
  H   H88       1.0  0.25871  0.18696  0.33092  1.0000
  Mg  Mg24      1.0  0.28972  0.31969  0.77919  1.0000
