data_image0
_chemical_formula_structural       C64N8C5H40C8H4C62N8C5H40C8H4SnCSn2CSnTe4Mg2SnCSn2CSnTe4Mg2SnCSn2CSnTe4Mg2SnCSn2CSnTe4Mg2SnCSn2CSnTe4Mg2SnCSn2CSnTe4Mg2SnCSn2CSnTe4Mg2SnCSn2CSnTe4Mg2SnCSn2CSnTe4Mg2SnCSn2CSnTe4Mg2SnCSn2CSnTe4Mg2SnCSn2CSnTe4Mg2
_chemical_formula_sum              "C176 N16 H88 Sn48 Te48 Mg24"
_cell_length_a       33.3034
_cell_length_b       35.6288
_cell_length_c       8.12942
_cell_angle_alpha    89.9659
_cell_angle_beta     89.6966
_cell_angle_gamma    90.0657

_symmetry_space_group_name_H-M    'P1'
_space_group_IT_number       1

loop_
  _space_group_symop_operation_xyz
  'x, y, z'

loop_
  _atom_site_type_symbol
  _atom_site_label
  _atom_site_symmetry_multiplicity
  _atom_site_fract_x
  _atom_site_fract_y
  _atom_site_fract_z
  _atom_site_occupancy
  C   C1        1.0  0.46048  0.95940  0.50586  1.0000
  C   C2        1.0  0.53486  0.04004  0.50543  1.0000
  C   C3        1.0  0.04023  0.46056  0.00333  1.0000
  C   C4        1.0  0.96472  0.54015  0.00260  1.0000
  C   C5        1.0  0.03937  0.54099  0.01286  1.0000
  C   C6        1.0  0.96558  0.45991  0.99501  1.0000
  C   C7        1.0  0.46016  0.03990  0.50265  1.0000
  C   C8        1.0  0.53510  0.95980  0.50956  1.0000
  C   C9        1.0  0.42410  0.01872  0.52562  1.0000
  C   C10       1.0  0.57107  0.98091  0.53244  1.0000
  C   C11       1.0  0.07574  0.52047  0.98826  1.0000
  C   C12       1.0  0.92964  0.48066  0.96625  1.0000
  C   C13       1.0  0.07613  0.48211  0.98287  1.0000
  C   C14       1.0  0.92918  0.51901  0.97016  1.0000
  C   C15       1.0  0.42421  0.98032  0.52637  1.0000
  C   C16       1.0  0.57096  0.01925  0.53022  1.0000
  C   C17       1.0  0.46045  0.07967  0.48460  1.0000
  C   C18       1.0  0.53516  0.92006  0.49413  1.0000
  C   C19       1.0  0.03843  0.58059  0.03566  1.0000
  C   C20       1.0  0.96601  0.42014  0.01090  1.0000
  C   C21       1.0  0.04014  0.42075  0.01828  1.0000
  C   C22       1.0  0.96446  0.57973  0.02456  1.0000
  C   C23       1.0  0.46123  0.91963  0.49089  1.0000
  C   C24       1.0  0.53449  0.07976  0.48846  1.0000
  C   C25       1.0  0.57213  0.89749  0.48003  1.0000
  C   C26       1.0  0.07463  0.60415  0.05354  1.0000
  C   C27       1.0  0.92744  0.60240  0.03205  1.0000
  C   C28       1.0  0.42509  0.89601  0.47511  1.0000
  C   C29       1.0  0.42552  0.13739  0.05615  1.0000
  C   C30       1.0  0.07363  0.63896  0.46789  1.0000
  C   C31       1.0  0.57824  0.13769  0.04570  1.0000
  C   C32       1.0  0.39180  0.15994  0.04233  1.0000
  C   C33       1.0  0.10706  0.66193  0.48228  1.0000
  C   C34       1.0  0.61217  0.16001  0.03054  1.0000
  C   C35       1.0  0.64060  0.85100  0.44350  1.0000
  C   C36       1.0  0.14241  0.65193  0.08357  1.0000
  C   C37       1.0  0.85907  0.64946  0.05363  1.0000
  C   C38       1.0  0.35907  0.84672  0.43790  1.0000
  C   C39       1.0  0.63809  0.88555  0.36042  1.0000
  C   C40       1.0  0.14138  0.61673  0.16179  1.0000
  C   C41       1.0  0.85997  0.61463  0.13511  1.0000
  C   C42       1.0  0.36017  0.88136  0.35533  1.0000
  C   C43       1.0  0.60458  0.90850  0.37950  1.0000
  C   C44       1.0  0.10821  0.59316  0.14612  1.0000
  C   C45       1.0  0.89346  0.59137  0.12345  1.0000
  C   C46       1.0  0.39244  0.90582  0.37498  1.0000
  C   C47       1.0  0.31949  0.17271  0.42307  1.0000
  C   C48       1.0  0.67540  0.82668  0.42122  1.0000
  C   C49       1.0  0.17777  0.67594  0.09572  1.0000
  C   C50       1.0  0.82587  0.32526  0.06717  1.0000
  C   C51       1.0  0.18035  0.32644  0.07362  1.0000
  C   C52       1.0  0.82395  0.67369  0.06835  1.0000
  C   C53       1.0  0.32471  0.82174  0.41914  1.0000
  C   C54       1.0  0.67467  0.17405  0.42854  1.0000
  C   C55       1.0  0.78607  0.27398  0.98657  1.0000
  C   C56       1.0  0.21666  0.72701  0.00522  1.0000
  C   C57       1.0  0.28024  0.22472  0.50061  1.0000
  C   C58       1.0  0.28334  0.77306  0.51308  1.0000
  C   C59       1.0  0.21844  0.27409  0.99477  1.0000
  C   C60       1.0  0.21461  0.76010  0.43275  1.0000
  C   C61       1.0  0.28864  0.26189  0.05406  1.0000
  C   C62       1.0  0.71776  0.25916  0.07071  1.0000
  C   C63       1.0  0.28669  0.74007  0.06446  1.0000
  C   C64       1.0  0.21427  0.24199  0.39991  1.0000
  N   N1        1.0  0.31411  0.20170  0.51661  1.0000
  N   N2        1.0  0.68122  0.79833  0.51784  1.0000
  N   N3        1.0  0.18226  0.70449  0.99882  1.0000
  N   N4        1.0  0.82005  0.29698  0.97030  1.0000
  N   N5        1.0  0.18443  0.29692  0.98221  1.0000
  N   N6        1.0  0.81903  0.70213  0.97123  1.0000
  N   N7        1.0  0.31760  0.79560  0.52596  1.0000
  N   N8        1.0  0.68007  0.20272  0.52382  1.0000
  C   C65       1.0  0.24727  0.78432  0.43768  1.0000
  C   C66       1.0  0.25656  0.28666  0.04554  1.0000
  C   C67       1.0  0.25447  0.71533  0.06352  1.0000
  C   C68       1.0  0.74954  0.28439  0.06234  1.0000
  C   C69       1.0  0.24575  0.21657  0.40710  1.0000
  H   H1        1.0  0.40049  0.03449  0.04889  1.0000
  H   H2        1.0  0.60260  0.96533  0.05125  1.0000
  H   H3        1.0  0.09969  0.53603  0.47097  1.0000
  H   H4        1.0  0.89706  0.46654  0.45206  1.0000
  H   H5        1.0  0.09994  0.46753  0.45588  1.0000
  H   H6        1.0  0.89692  0.53502  0.46118  1.0000
  H   H7        1.0  0.40023  0.96583  0.05115  1.0000
  H   H8        1.0  0.60291  0.03381  0.04975  1.0000
  H   H9        1.0  0.45002  0.14595  0.13581  1.0000
  H   H10       1.0  0.04911  0.64735  0.38803  1.0000
  H   H11       1.0  0.55332  0.14702  0.12239  1.0000
  H   H12       1.0  0.38938  0.18626  0.10928  1.0000
  H   H13       1.0  0.10921  0.68828  0.41517  1.0000
  H   H14       1.0  0.61418  0.18691  0.09296  1.0000
  H   H15       1.0  0.66218  0.89401  0.27718  1.0000
  H   H16       1.0  0.16655  0.60811  0.23783  1.0000
  H   H17       1.0  0.83448  0.60618  0.21101  1.0000
  H   H18       1.0  0.33578  0.88874  0.27291  1.0000
  H   H19       1.0  0.60236  0.93443  0.30963  1.0000
  H   H20       1.0  0.10742  0.56658  0.21186  1.0000
  H   H21       1.0  0.89434  0.56519  0.19215  1.0000
  H   H22       1.0  0.39342  0.93195  0.30597  1.0000
  H   H23       1.0  0.29844  0.16460  0.32569  1.0000
  H   H24       1.0  0.69523  0.83343  0.31667  1.0000
  H   H25       1.0  0.19964  0.66867  0.19144  1.0000
  H   H26       1.0  0.80563  0.33196  0.17039  1.0000
  H   H27       1.0  0.20225  0.33426  0.16834  1.0000
  H   H28       1.0  0.80276  0.66677  0.16815  1.0000
  H   H29       1.0  0.30592  0.82605  0.30990  1.0000
  H   H30       1.0  0.69540  0.16682  0.32760  1.0000
  H   H31       1.0  0.18670  0.76830  0.37407  1.0000
  H   H32       1.0  0.31807  0.27119  0.09487  1.0000
  H   H33       1.0  0.68963  0.26664  0.13086  1.0000
  H   H34       1.0  0.31592  0.73141  0.10990  1.0000
  H   H35       1.0  0.18769  0.23617  0.32711  1.0000
  H   H36       1.0  0.24486  0.81225  0.38447  1.0000
  H   H37       1.0  0.26070  0.31602  0.07802  1.0000
  H   H38       1.0  0.25859  0.68673  0.10731  1.0000
  H   H39       1.0  0.74610  0.31232  0.11456  1.0000
  H   H40       1.0  0.24358  0.19047  0.33859  1.0000
  C   C70       1.0  0.49752  0.09820  0.47815  1.0000
  C   C71       1.0  0.49837  0.90136  0.48479  1.0000
  C   C72       1.0  0.00107  0.59847  0.04261  1.0000
  C   C73       1.0  0.00312  0.40203  0.02372  1.0000
  C   C74       1.0  0.49769  0.97967  0.50737  1.0000
  C   C75       1.0  0.49755  0.01993  0.50525  1.0000
  C   C76       1.0  0.00271  0.48027  0.00133  1.0000
  C   C77       1.0  0.00228  0.52052  0.00554  1.0000
  H   H41       1.0  0.00033  0.62838  0.06883  1.0000
  H   H42       1.0  0.00318  0.37188  0.04443  1.0000
  H   H43       1.0  0.49767  0.12837  0.45759  1.0000
  H   H44       1.0  0.49859  0.87122  0.46376  1.0000
  C   C78       1.0  0.46412  0.95981  0.00435  1.0000
  C   C79       1.0  0.53915  0.03993  0.00308  1.0000
  C   C80       1.0  0.03576  0.46091  0.49565  1.0000
  C   C81       1.0  0.96078  0.54086  0.50667  1.0000
  C   C82       1.0  0.03544  0.54122  0.51036  1.0000
  C   C83       1.0  0.96105  0.46051  0.49532  1.0000
  C   C84       1.0  0.46452  0.04010  0.00476  1.0000
  C   C85       1.0  0.53878  0.95948  0.00388  1.0000
  C   C86       1.0  0.42834  0.01925  0.02955  1.0000
  C   C87       1.0  0.57483  0.98043  0.02926  1.0000
  C   C88       1.0  0.07171  0.52061  0.48492  1.0000
  C   C89       1.0  0.92495  0.48154  0.47402  1.0000
  C   C90       1.0  0.07184  0.48228  0.47691  1.0000
  C   C91       1.0  0.92484  0.51989  0.47922  1.0000
  C   C92       1.0  0.42817  0.98089  0.03001  1.0000
  C   C93       1.0  0.57502  0.01880  0.02855  1.0000
  C   C94       1.0  0.46499  0.07982  0.98722  1.0000
  C   C95       1.0  0.53831  0.91976  0.98523  1.0000
  C   C96       1.0  0.03486  0.58083  0.53254  1.0000
  C   C97       1.0  0.96147  0.42065  0.50719  1.0000
  C   C98       1.0  0.03550  0.42105  0.50695  1.0000
  C   C99       1.0  0.96089  0.58047  0.52743  1.0000
  C   C100      1.0  0.46422  0.92014  0.98427  1.0000
  C   C101      1.0  0.53900  0.07965  0.98462  1.0000
  C   C102      1.0  0.42813  0.10259  0.97366  1.0000
  C   C103      1.0  0.07148  0.60393  0.54897  1.0000
  C   C104      1.0  0.57596  0.10226  0.96869  1.0000
  C   C105      1.0  0.57469  0.86259  0.56169  1.0000
  C   C106      1.0  0.07548  0.64003  0.97933  1.0000
  C   C107      1.0  0.92641  0.63749  0.95133  1.0000
  C   C108      1.0  0.42398  0.86088  0.55562  1.0000
  C   C109      1.0  0.60831  0.84000  0.54524  1.0000
  C   C110      1.0  0.10859  0.66336  0.99328  1.0000
  C   C111      1.0  0.89289  0.66045  0.96059  1.0000
  C   C112      1.0  0.39161  0.83679  0.53861  1.0000
  C   C113      1.0  0.35935  0.14891  0.94287  1.0000
  C   C114      1.0  0.13961  0.65110  0.58139  1.0000
  C   C115      1.0  0.64535  0.14803  0.93633  1.0000
  C   C116      1.0  0.36203  0.11461  0.85802  1.0000
  C   C117      1.0  0.13734  0.61664  0.66559  1.0000
  C   C118      1.0  0.64313  0.11295  0.85735  1.0000
  C   C119      1.0  0.39568  0.09174  0.87429  1.0000
  C   C120      1.0  0.10405  0.59326  0.64803  1.0000
  C   C121      1.0  0.60911  0.09046  0.87393  1.0000
  C   C122      1.0  0.32400  0.17280  0.92530  1.0000
  C   C123      1.0  0.67906  0.82637  0.92054  1.0000
  C   C124      1.0  0.17503  0.67496  0.59656  1.0000
  C   C125      1.0  0.82176  0.32536  0.57197  1.0000
  C   C126      1.0  0.17502  0.32665  0.57195  1.0000
  C   C127      1.0  0.81933  0.67296  0.57567  1.0000
  C   C128      1.0  0.32260  0.82802  0.91567  1.0000
  C   C129      1.0  0.68089  0.17175  0.91922  1.0000
  C   C130      1.0  0.21628  0.72426  0.50569  1.0000
  C   C131      1.0  0.28431  0.22398  0.00767  1.0000
  C   C132      1.0  0.72060  0.22305  0.00059  1.0000
  C   C133      1.0  0.28286  0.77703  0.00429  1.0000
  C   C134      1.0  0.21551  0.27619  0.48706  1.0000
  C   C135      1.0  0.78893  0.23784  0.91688  1.0000
  C   C136      1.0  0.21284  0.76395  0.94506  1.0000
  C   C137      1.0  0.28141  0.25888  0.58793  1.0000
  C   C138      1.0  0.28506  0.73723  0.58621  1.0000
  C   C139      1.0  0.21402  0.23616  0.94913  1.0000
  N   N9        1.0  0.31848  0.20141  0.02071  1.0000
  N   N10       1.0  0.68436  0.79717  0.01267  1.0000
  N   N11       1.0  0.18158  0.70219  0.49432  1.0000
  N   N12       1.0  0.81551  0.29716  0.47502  1.0000
  N   N13       1.0  0.18191  0.29946  0.47011  1.0000
  N   N14       1.0  0.81294  0.69999  0.47269  1.0000
  N   N15       1.0  0.31717  0.79960  0.01256  1.0000
  N   N16       1.0  0.68646  0.20025  0.01527  1.0000
  C   C140      1.0  0.24508  0.78871  0.94597  1.0000
  C   C141      1.0  0.75717  0.21261  0.92518  1.0000
  C   C142      1.0  0.24997  0.28438  0.58051  1.0000
  C   C143      1.0  0.25239  0.71303  0.58105  1.0000
  C   C144      1.0  0.24617  0.21137  0.95682  1.0000
  H   H45       1.0  0.39609  0.03374  0.54456  1.0000
  H   H46       1.0  0.59892  0.96581  0.55272  1.0000
  H   H47       1.0  0.10362  0.53591  0.97206  1.0000
  H   H48       1.0  0.90222  0.46538  0.93955  1.0000
  H   H49       1.0  0.10425  0.46748  0.96125  1.0000
  H   H50       1.0  0.90130  0.53389  0.94744  1.0000
  H   H51       1.0  0.39622  0.96515  0.54464  1.0000
  H   H52       1.0  0.59883  0.03445  0.54902  1.0000
  H   H53       1.0  0.55031  0.85392  0.64283  1.0000
  H   H54       1.0  0.05017  0.64892  0.90483  1.0000
  H   H55       1.0  0.95207  0.64592  0.87657  1.0000
  H   H56       1.0  0.44860  0.85329  0.63641  1.0000
  H   H57       1.0  0.61069  0.81353  0.61109  1.0000
  H   H58       1.0  0.10949  0.69051  0.93220  1.0000
  H   H59       1.0  0.89179  0.68708  0.89529  1.0000
  H   H60       1.0  0.39045  0.81010  0.60337  1.0000
  H   H61       1.0  0.33801  0.10635  0.77519  1.0000
  H   H62       1.0  0.16166  0.60840  0.74708  1.0000
  H   H63       1.0  0.66798  0.10355  0.78024  1.0000
  H   H64       1.0  0.39799  0.06605  0.80278  1.0000
  H   H65       1.0  0.10232  0.56717  0.71721  1.0000
  H   H66       1.0  0.60717  0.06411  0.80714  1.0000
  H   H67       1.0  0.30320  0.16569  0.82529  1.0000
  H   H68       1.0  0.70020  0.83452  0.82246  1.0000
  H   H69       1.0  0.19523  0.66869  0.69954  1.0000
  H   H70       1.0  0.80151  0.33227  0.67483  1.0000
  H   H71       1.0  0.19419  0.33247  0.67872  1.0000
  H   H72       1.0  0.79933  0.66700  0.68047  1.0000
  H   H73       1.0  0.30162  0.83540  0.81680  1.0000
  H   H74       1.0  0.70189  0.16436  0.81972  1.0000
  H   H75       1.0  0.81709  0.23028  0.85728  1.0000
  H   H76       1.0  0.18361  0.77267  0.89984  1.0000
  H   H77       1.0  0.30799  0.26461  0.66086  1.0000
  H   H78       1.0  0.31297  0.72899  0.64496  1.0000
  H   H79       1.0  0.18447  0.22691  0.90948  1.0000
  H   H80       1.0  0.24102  0.81736  0.90270  1.0000
  H   H81       1.0  0.76073  0.18468  0.87309  1.0000
  H   H82       1.0  0.25220  0.31072  0.64734  1.0000
  H   H83       1.0  0.25489  0.68514  0.63440  1.0000
  H   H84       1.0  0.24185  0.18202  0.92433  1.0000
  C   C145      1.0  0.50204  0.09822  0.97730  1.0000
  C   C146      1.0  0.50115  0.90152  0.97436  1.0000
  C   C147      1.0  0.99772  0.59911  0.54071  1.0000
  C   C148      1.0  0.99856  0.40236  0.51367  1.0000
  C   C149      1.0  0.50156  0.97970  0.00450  1.0000
  C   C150      1.0  0.50176  0.01996  0.00458  1.0000
  C   C151      1.0  0.99833  0.48077  0.49839  1.0000
  C   C152      1.0  0.99819  0.52100  0.50506  1.0000
  H   H85       1.0  0.99749  0.62917  0.56402  1.0000
  H   H86       1.0  0.99869  0.37212  0.53197  1.0000
  H   H87       1.0  0.50205  0.12833  0.95530  1.0000
  H   H88       1.0  0.50097  0.87149  0.95027  1.0000
  C  Sn1       1.0  0.10861  0.34769  0.91541  1.0000
  C   C153      1.0  0.14443  0.35367  0.00898  1.0000
  C  Sn2       1.0  0.14499  0.38118  0.13133  1.0000
  C  Sn3       1.0  0.11031  0.40329  0.16084  1.0000
  C   C154      1.0  0.07581  0.39744  0.06733  1.0000
  C  Sn4       1.0  0.07393  0.36981  0.94493  1.0000
  O  Te1       1.0  0.10873  0.32004  0.79374  1.0000
  O  Te2       1.0  0.17987  0.38651  0.22325  1.0000
  O  Te3       1.0  0.11023  0.43097  0.28263  1.0000
  O  Te4       1.0  0.03908  0.36447  0.85306  1.0000
  Mg  Mg1       1.0  0.16494  0.42763  0.37535  1.0000
  Mg  Mg2       1.0  0.05397  0.32334  0.70100  1.0000
  C  Sn5       1.0  0.42392  0.85046  0.00746  1.0000
  C   C155      1.0  0.42958  0.88603  0.94193  1.0000
  C  Sn6       1.0  0.39789  0.90702  0.87786  1.0000
  C  Sn7       1.0  0.35842  0.89201  0.87942  1.0000
  C   C156      1.0  0.35149  0.85633  0.94494  1.0000
  C  Sn8       1.0  0.38446  0.83546  0.00902  1.0000
  O  Te5       1.0  0.45605  0.82998  0.07086  1.0000
  O  Te6       1.0  0.40558  0.94264  0.81295  1.0000
  O  Te7       1.0  0.32629  0.91253  0.81594  1.0000
  O  Te8       1.0  0.37678  0.79986  0.07392  1.0000
  Mg  Mg3       1.0  0.35192  0.95973  0.74101  1.0000
  Mg  Mg4       1.0  0.43041  0.78275  0.14597  1.0000
  C  Sn9       1.0  0.92057  0.64951  0.48510  1.0000
  C   C157      1.0  0.92746  0.61489  0.56065  1.0000
  C  Sn10      1.0  0.89567  0.59475  0.63073  1.0000
  C  Sn11      1.0  0.85617  0.60951  0.62510  1.0000
  C   C158      1.0  0.84930  0.64411  0.54957  1.0000
  C  Sn12      1.0  0.88106  0.66428  0.47947  1.0000
  O  Te9       1.0  0.95279  0.66916  0.41582  1.0000
  O  Te10      1.0  0.90331  0.56020  0.70563  1.0000
  O  Te11      1.0  0.82394  0.58983  0.69447  1.0000
  O  Te12      1.0  0.87344  0.69880  0.40458  1.0000
  Mg  Mg5       1.0  0.84952  0.54396  0.78257  1.0000
  Mg  Mg6       1.0  0.92720  0.71505  0.32753  1.0000
  C  Sn13      1.0  0.77488  0.23387  0.38380  1.0000
  C   C159      1.0  0.77702  0.27093  0.43933  1.0000
  C  Sn14      1.0  0.74804  0.28492  0.54786  1.0000
  C  Sn15      1.0  0.71625  0.26136  0.60212  1.0000
  C   C160      1.0  0.71413  0.22433  0.54663  1.0000
  C  Sn16      1.0  0.74310  0.21032  0.43807  1.0000
  O  Te13      1.0  0.80419  0.22049  0.27533  1.0000
  O  Te14      1.0  0.75081  0.32207  0.60162  1.0000
  O  Te15      1.0  0.68693  0.27479  0.71067  1.0000
  O  Te16      1.0  0.74034  0.17319  0.38434  1.0000
  Mg  Mg7       1.0  0.70367  0.32736  0.74916  1.0000
  Mg  Mg8       1.0  0.78748  0.16786  0.23687  1.0000
  C  Sn17      1.0  0.89159  0.40015  0.16185  1.0000
  C   C161      1.0  0.92667  0.39401  0.07071  1.0000
  C  Sn18      1.0  0.92650  0.36624  0.94897  1.0000
  C  Sn19      1.0  0.89182  0.34429  0.91760  1.0000
  C   C162      1.0  0.85806  0.35056  0.00869  1.0000
  C  Sn20      1.0  0.85692  0.37819  0.13048  1.0000
  O  Te17      1.0  0.89116  0.42793  0.28295  1.0000
  O  Te18      1.0  0.96191  0.36062  0.85949  1.0000
  O  Te19      1.0  0.89228  0.31649  0.79638  1.0000
  O  Te20      1.0  0.82153  0.38382  0.21991  1.0000
  Mg  Mg9       1.0  0.94762  0.31942  0.70724  1.0000
  Mg  Mg10      1.0  0.83578  0.42502  0.37212  1.0000
  C  Sn21      1.0  0.64125  0.89713  0.89784  1.0000
  C   C163      1.0  0.64758  0.86152  0.96499  1.0000
  C  Sn22      1.0  0.61667  0.84089  0.02794  1.0000
  C  Sn23      1.0  0.57731  0.85601  0.02359  1.0000
  C   C164      1.0  0.56970  0.89146  0.95645  1.0000
  C  Sn24      1.0  0.60189  0.91225  0.89349  1.0000
  O  Te21      1.0  0.67388  0.91739  0.83560  1.0000
  O  Te22      1.0  0.62375  0.80536  0.09451  1.0000
  O  Te23      1.0  0.54467  0.83572  0.08591  1.0000
  O  Te24      1.0  0.59483  0.94776  0.82693  1.0000
  Mg  Mg11      1.0  0.56955  0.78857  0.16393  1.0000
  Mg  Mg12      1.0  0.64899  0.96456  0.75741  1.0000
  C  Sn25      1.0  0.61794  0.08986  0.40704  1.0000
  C   C165      1.0  0.58280  0.09628  0.49740  1.0000
  C  Sn26      1.0  0.57385  0.13221  0.55561  1.0000
  C  Sn27      1.0  0.60056  0.16236  0.52273  1.0000
  C   C166      1.0  0.63567  0.15593  0.43240  1.0000
  C  Sn28      1.0  0.64465  0.12001  0.37416  1.0000
  O  Te25      1.0  0.62628  0.05372  0.35005  1.0000
  O  Te26      1.0  0.53855  0.13794  0.64572  1.0000
  O  Te27      1.0  0.59219  0.19852  0.57982  1.0000
  O  Te28      1.0  0.67993  0.11428  0.28408  1.0000
  Mg  Mg13      1.0  0.54037  0.19223  0.69696  1.0000
  Mg  Mg14      1.0  0.67813  0.06001  0.23271  1.0000
  C  Sn29      1.0  0.73034  0.71326  0.53752  1.0000
  C   C167      1.0  0.76790  0.71756  0.46232  1.0000
  C  Sn30      1.0  0.78157  0.75313  0.41606  1.0000
  C  Sn31      1.0  0.75722  0.78507  0.44567  1.0000
  C   C168      1.0  0.71969  0.78077  0.52086  1.0000
  C  Sn32      1.0  0.70598  0.74520  0.56714  1.0000
  O  Te29      1.0  0.71727  0.67743  0.58275  1.0000
  O  Te30      1.0  0.81922  0.75672  0.34100  1.0000
  O  Te31      1.0  0.77032  0.82092  0.40037  1.0000
  O  Te32      1.0  0.66836  0.74161  0.64218  1.0000
  Mg  Mg15      1.0  0.82383  0.81141  0.30185  1.0000
  Mg  Mg16      1.0  0.66374  0.68693  0.68145  1.0000
  C  Sn33      1.0  0.85938  0.39599  0.60339  1.0000
  C   C169      1.0  0.85283  0.36098  0.53083  1.0000
  C  Sn34      1.0  0.88464  0.34131  0.45890  1.0000
  C  Sn35      1.0  0.92382  0.35693  0.45959  1.0000
  C   C170      1.0  0.93037  0.39192  0.53213  1.0000
  C  Sn36      1.0  0.89857  0.41162  0.60407  1.0000
  O  Te33      1.0  0.82714  0.41517  0.67458  1.0000
  O  Te34      1.0  0.87734  0.30636  0.38707  1.0000
  O  Te35      1.0  0.95608  0.33773  0.38831  1.0000
  O  Te36      1.0  0.90585  0.44654  0.67590  1.0000
  Mg  Mg17      1.0  0.93102  0.29103  0.30581  1.0000
  Mg  Mg18      1.0  0.85221  0.46188  0.75726  1.0000
  C  Sn37      1.0  0.10464  0.34853  0.40348  1.0000
  C   C171      1.0  0.13845  0.35401  0.50173  1.0000
  C  Sn38      1.0  0.13797  0.38080  0.62709  1.0000
  C  Sn39      1.0  0.10296  0.40257  0.65490  1.0000
  C   C172      1.0  0.06917  0.39709  0.55670  1.0000
  C  Sn40      1.0  0.06963  0.37030  0.43128  1.0000
  O  Te37      1.0  0.10579  0.32159  0.27886  1.0000
  O  Te38      1.0  0.17214  0.38578  0.72368  1.0000
  O  Te39      1.0  0.10183  0.42953  0.77963  1.0000
  O  Te40      1.0  0.03548  0.36532  0.33475  1.0000
  Mg  Mg19      1.0  0.15588  0.42594  0.87843  1.0000
  Mg  Mg20      1.0  0.05170  0.32515  0.18003  1.0000
  C  Sn41      1.0  0.40145  0.16278  0.50393  1.0000
  C   C173      1.0  0.36613  0.15543  0.41756  1.0000
  C  Sn42      1.0  0.35746  0.11909  0.36386  1.0000
  C  Sn43      1.0  0.38465  0.08947  0.39725  1.0000
  C   C174      1.0  0.41994  0.09682  0.48359  1.0000
  C  Sn44      1.0  0.42863  0.13316  0.53732  1.0000
  O  Te41      1.0  0.40950  0.19932  0.55645  1.0000
  O  Te42      1.0  0.32197  0.11244  0.27769  1.0000
  O  Te43      1.0  0.37657  0.05291  0.34464  1.0000
  O  Te44      1.0  0.46409  0.13982  0.62346  1.0000
  Mg  Mg21      1.0  0.32433  0.05792  0.23179  1.0000
  Mg  Mg22      1.0  0.46176  0.19432  0.66949  1.0000
  C  Sn45      1.0  0.76034  0.77933  0.87628  1.0000
  C   C175      1.0  0.72223  0.77313  0.94379  1.0000
  C  Sn46      1.0  0.71658  0.74257  0.04715  1.0000
  C  Sn47      1.0  0.74841  0.71757  0.08388  1.0000
  C   C176      1.0  0.78650  0.72378  0.01641  1.0000
  C  Sn48      1.0  0.79217  0.75432  0.91301  1.0000
  O  Te45      1.0  0.76659  0.81019  0.77327  1.0000
  O  Te46      1.0  0.67822  0.73695  0.11313  1.0000
  O  Te47      1.0  0.74213  0.68669  0.18698  1.0000
  O  Te48      1.0  0.83050  0.75996  0.84707  1.0000
  Mg  Mg23      1.0  0.68463  0.69092  0.24694  1.0000
  Mg  Mg24      1.0  0.82413  0.80599  0.71333  1.0000
