data_image0
_chemical_formula_structural       C60N16C76H96C4SnCSn2CSnTe4Mg2SnCSn2CSnTe4Mg2SnCSn2CSnTe4Mg2SnCSn2CSnTe4Mg2SnCSn2CSnTe4Mg2SnCSn2CSnTe4Mg2SnCSn2CSnTe4Mg2SnCSn2CSnTe4Mg2SnCSn2CSnTe4Mg2SnCSn2CSnTe4Mg2SnCSn2CSnTe4Mg2SnCSn2CSnTe4Mg2SnCSn2CSnTe4Mg2SnCSn2CSnTe4Mg2SnCSn2CSnTe4Mg2SnCSn2CSnTe4Mg2SnCSn2CSnTe4Mg2SnCSn2CSnTe4Mg2SnCSn2CSnTe4Mg2SnCSn2CSnTe4Mg2
_chemical_formula_sum              "C180 N16 H96 Sn80 Te80 Mg40"
_cell_length_a       27.0456
_cell_length_b       26.9706
_cell_length_c       8.53838
_cell_angle_alpha    90.0437
_cell_angle_beta     90.3297
_cell_angle_gamma    90.5774

_symmetry_space_group_name_H-M    'P1'
_space_group_IT_number       1

loop_
  _space_group_symop_operation_xyz
  'x, y, z'

loop_
  _atom_site_type_symbol
  _atom_site_label
  _atom_site_symmetry_multiplicity
  _atom_site_fract_x
  _atom_site_fract_y
  _atom_site_fract_z
  _atom_site_occupancy
  C   C1        1.0  0.51784  0.66627  0.74034  1.0000
  C   C2        1.0  0.33495  0.02082  0.99688  1.0000
  C   C3        1.0  0.16508  0.48329  0.49438  1.0000
  C   C4        1.0  0.48043  0.83765  0.50799  1.0000
  C   C5        1.0  0.01589  0.66230  0.00756  1.0000
  C   C6        1.0  0.66290  0.48400  0.25663  1.0000
  C   C7        1.0  0.01889  0.16378  0.24459  1.0000
  C   C8        1.0  0.83519  0.51652  0.48985  1.0000
  C   C9        1.0  0.98389  0.33355  0.00705  1.0000
  C   C10       1.0  0.33478  0.51941  0.25870  1.0000
  C   C11       1.0  0.55945  0.67907  0.64919  1.0000
  C   C12       1.0  0.32119  0.06262  0.90792  1.0000
  C   C13       1.0  0.17054  0.44201  0.39458  1.0000
  C   C14       1.0  0.43808  0.82496  0.59574  1.0000
  C   C15       1.0  0.05743  0.67214  0.10387  1.0000
  C   C16       1.0  0.67554  0.44179  0.34529  1.0000
  C   C17       1.0  0.06106  0.17204  0.15120  1.0000
  C   C18       1.0  0.82306  0.55919  0.40261  1.0000
  C   C19       1.0  0.94282  0.32623  0.10589  1.0000
  C   C20       1.0  0.32984  0.56102  0.35773  1.0000
  C   C21       1.0  0.55412  0.70002  0.50198  1.0000
  C   C22       1.0  0.30071  0.05760  0.75944  1.0000
  C   C23       1.0  0.18991  0.44692  0.24548  1.0000
  C   C24       1.0  0.44198  0.80465  0.74446  1.0000
  C   C25       1.0  0.05247  0.69262  0.25173  1.0000
  C   C26       1.0  0.69697  0.44626  0.49241  1.0000
  C   C27       1.0  0.05735  0.19118  0.00106  1.0000
  C   C28       1.0  0.80179  0.55561  0.25491  1.0000
  C   C29       1.0  0.94807  0.30610  0.25402  1.0000
  C   C30       1.0  0.31043  0.55682  0.50709  1.0000
  C   C31       1.0  0.50703  0.70850  0.43487  1.0000
  C   C32       1.0  0.29392  0.01058  0.68859  1.0000
  C   C33       1.0  0.20542  0.49341  0.18598  1.0000
  C   C34       1.0  0.48847  0.79680  0.81628  1.0000
  C   C35       1.0  0.00560  0.70405  0.31420  1.0000
  C   C36       1.0  0.70557  0.49315  0.56205  1.0000
  C   C37       1.0  0.01118  0.20326  0.93374  1.0000
  C   C38       1.0  0.79259  0.50908  0.18362  1.0000
  C   C39       1.0  0.99468  0.29206  0.31415  1.0000
  C   C40       1.0  0.29444  0.51066  0.56776  1.0000
  C   C41       1.0  0.46563  0.69506  0.52609  1.0000
  C   C42       1.0  0.30814  0.96897  0.77793  1.0000
  C   C43       1.0  0.19978  0.53459  0.28664  1.0000
  C   C44       1.0  0.53064  0.80994  0.72818  1.0000
  C   C45       1.0  0.96415  0.69321  0.21812  1.0000
  C   C46       1.0  0.69260  0.53522  0.47311  1.0000
  C   C47       1.0  0.96909  0.19481  0.02789  1.0000
  C   C48       1.0  0.80505  0.46658  0.27116  1.0000
  C   C49       1.0  0.03578  0.30050  0.21583  1.0000
  C   C50       1.0  0.30015  0.46907  0.46875  1.0000
  C   C51       1.0  0.47068  0.67445  0.67394  1.0000
  C   C52       1.0  0.32787  0.97370  0.92757  1.0000
  C   C53       1.0  0.17997  0.52998  0.43528  1.0000
  C   C54       1.0  0.52694  0.82958  0.57873  1.0000
  C   C55       1.0  0.96891  0.67295  0.06977  1.0000
  C   C56       1.0  0.67199  0.53100  0.32452  1.0000
  C   C57       1.0  0.97258  0.17572  0.17807  1.0000
  C   C58       1.0  0.82583  0.46993  0.41966  1.0000
  C   C59       1.0  0.03080  0.32069  0.06735  1.0000
  C   C60       1.0  0.31986  0.47301  0.31981  1.0000
  N   N1        1.0  0.52616  0.64310  0.88326  1.0000
  N   N2        1.0  0.97113  0.85499  0.38882  1.0000
  N   N3        1.0  0.35816  0.02948  0.14030  1.0000
  N   N4        1.0  0.14244  0.47445  0.63774  1.0000
  N   N5        1.0  0.47295  0.86053  0.36391  1.0000
  N   N6        1.0  0.02452  0.63924  0.86491  1.0000
  N   N7        1.0  0.63904  0.47593  0.11435  1.0000
  N   N8        1.0  0.85840  0.02386  0.61477  1.0000
  N   N9        1.0  0.02664  0.14132  0.38923  1.0000
  N   N10       1.0  0.47424  0.35795  0.88876  1.0000
  N   N11       1.0  0.85884  0.52390  0.63297  1.0000
  N   N12       1.0  0.64347  0.97424  0.13516  1.0000
  N   N13       1.0  0.97493  0.35648  0.86412  1.0000
  N   N14       1.0  0.53217  0.14610  0.36099  1.0000
  N   N15       1.0  0.14057  0.97247  0.61742  1.0000
  N   N16       1.0  0.35731  0.52768  0.11480  1.0000
  C   C61       1.0  0.45695  0.75094  0.22505  1.0000
  C   C62       1.0  0.03698  0.75231  0.72158  1.0000
  C   C63       1.0  0.25279  0.95988  0.47618  1.0000
  C   C64       1.0  0.53769  0.75474  0.02700  1.0000
  C   C65       1.0  0.95528  0.74469  0.52603  1.0000
  C   C66       1.0  0.96174  0.24082  0.71444  1.0000
  C   C67       1.0  0.04500  0.25311  0.53127  1.0000
  C   C68       1.0  0.24880  0.04096  0.27755  1.0000
  C   C69       1.0  0.50179  0.73048  0.27850  1.0000
  C   C70       1.0  0.99161  0.77046  0.77740  1.0000
  C   C71       1.0  0.27269  0.00533  0.53056  1.0000
  C   C72       1.0  0.49292  0.77520  0.97348  1.0000
  C   C73       1.0  0.00060  0.72620  0.47059  1.0000
  C   C74       1.0  0.00730  0.22484  0.77641  1.0000
  C   C75       1.0  0.99944  0.26955  0.47001  1.0000
  C   C76       1.0  0.22853  0.99567  0.22375  1.0000
  C   C77       1.0  0.54183  0.73276  0.17339  1.0000
  C   C78       1.0  0.95105  0.76616  0.67329  1.0000
  C   C79       1.0  0.27045  0.04554  0.42495  1.0000
  C   C80       1.0  0.45277  0.77283  0.07829  1.0000
  C   C81       1.0  0.04120  0.73077  0.57451  1.0000
  C   C82       1.0  0.04870  0.23145  0.67837  1.0000
  C   C83       1.0  0.95802  0.26245  0.56757  1.0000
  C   C84       1.0  0.23115  0.95532  0.32874  1.0000
  C   C85       1.0  0.49264  0.64389  0.99140  1.0000
  C   C86       1.0  0.00617  0.85704  0.49319  1.0000
  C   C87       1.0  0.35894  0.99527  0.24684  1.0000
  C   C88       1.0  0.14111  0.50863  0.74480  1.0000
  C   C89       1.0  0.50838  0.86270  0.26219  1.0000
  C   C90       1.0  0.99117  0.63911  0.75504  1.0000
  C   C91       1.0  0.63974  0.50960  0.00594  1.0000
  C   C92       1.0  0.86009  0.98910  0.51003  1.0000
  C   C93       1.0  0.99153  0.13873  0.49205  1.0000
  C   C94       1.0  0.50770  0.35987  0.99816  1.0000
  C   C95       1.0  0.85833  0.48981  0.73992  1.0000
  C   C96       1.0  0.64176  0.00928  0.23879  1.0000
  C   C97       1.0  0.00776  0.35603  0.75390  1.0000
  C   C98       1.0  0.49604  0.13931  0.26246  1.0000
  C   C99       1.0  0.14075  0.00641  0.50984  1.0000
  C   C100      1.0  0.35812  0.49354  0.00754  1.0000
  C   C101      1.0  0.49668  0.61406  0.13189  1.0000
  C   C102      1.0  0.00178  0.88620  0.63508  1.0000
  C   C103      1.0  0.11168  0.50283  0.88488  1.0000
  C   C104      1.0  0.50469  0.89206  0.12078  1.0000
  C   C105      1.0  0.00259  0.38593  0.61407  1.0000
  C   C106      1.0  0.50090  0.11115  0.11911  1.0000
  C   C107      1.0  0.45658  0.61023  0.23484  1.0000
  C   C108      1.0  0.04312  0.89292  0.73332  1.0000
  C   C109      1.0  0.10742  0.54263  0.98990  1.0000
  C   C110      1.0  0.54638  0.89851  0.02544  1.0000
  C   C111      1.0  0.04224  0.38997  0.50937  1.0000
  C   C112      1.0  0.45831  0.10205  0.02820  1.0000
  C   C113      1.0  0.45740  0.57684  0.35949  1.0000
  C   C114      1.0  0.04215  0.92644  0.85768  1.0000
  C   C115      1.0  0.07391  0.54065  0.11344  1.0000
  C   C116      1.0  0.54547  0.93105  0.89862  1.0000
  C   C117      1.0  0.04102  0.42352  0.38524  1.0000
  C   C118      1.0  0.45930  0.06975  0.90129  1.0000
  C   C119      1.0  0.49850  0.54695  0.38520  1.0000
  C   C120      1.0  0.99948  0.95360  0.88819  1.0000
  C   C121      1.0  0.04433  0.49849  0.13626  1.0000
  C   C122      1.0  0.50262  0.95745  0.86300  1.0000
  C   C123      1.0  0.99966  0.45325  0.36116  1.0000
  C   C124      1.0  0.50301  0.04555  0.86195  1.0000
  C   C125      1.0  0.53975  0.55248  0.28595  1.0000
  C   C126      1.0  0.95710  0.94488  0.79459  1.0000
  C   C127      1.0  0.05045  0.45753  0.03531  1.0000
  C   C128      1.0  0.46013  0.94940  0.95515  1.0000
  C   C129      1.0  0.95866  0.44730  0.46145  1.0000
  C   C130      1.0  0.54625  0.05619  0.94895  1.0000
  C   C131      1.0  0.53898  0.58533  0.16176  1.0000
  C   C132      1.0  0.95801  0.91176  0.67082  1.0000
  C   C133      1.0  0.08342  0.45946  0.91214  1.0000
  C   C134      1.0  0.46099  0.91740  0.08165  1.0000
  C   C135      1.0  0.96001  0.41447  0.58565  1.0000
  C   C136      1.0  0.54553  0.08878  0.07441  1.0000
  H   H1        1.0  0.59601  0.67250  0.69848  1.0000
  H   H2        1.0  0.32672  0.09908  0.96030  1.0000
  H   H3        1.0  0.15864  0.40600  0.43872  1.0000
  H   H4        1.0  0.40208  0.83134  0.54222  1.0000
  H   H5        1.0  0.09368  0.66283  0.05837  1.0000
  H   H6        1.0  0.66847  0.40555  0.29333  1.0000
  H   H7        1.0  0.09688  0.16275  0.20118  1.0000
  H   H8        1.0  0.83047  0.59516  0.45610  1.0000
  H   H9        1.0  0.90669  0.33742  0.06256  1.0000
  H   H10       1.0  0.34206  0.59684  0.31302  1.0000
  H   H11       1.0  0.58714  0.71049  0.43754  1.0000
  H   H12       1.0  0.28930  0.09072  0.69700  1.0000
  H   H13       1.0  0.19262  0.41394  0.17321  1.0000
  H   H14       1.0  0.40837  0.79428  0.80620  1.0000
  H   H15       1.0  0.08571  0.69987  0.32041  1.0000
  H   H16       1.0  0.70793  0.41292  0.55457  1.0000
  H   H17       1.0  0.09105  0.19679  0.93447  1.0000
  H   H18       1.0  0.79159  0.58939  0.19371  1.0000
  H   H19       1.0  0.91520  0.30178  0.32528  1.0000
  H   H20       1.0  0.30789  0.59006  0.57850  1.0000
  H   H21       1.0  0.42866  0.69952  0.47798  1.0000
  H   H22       1.0  0.30484  0.93213  0.72703  1.0000
  H   H23       1.0  0.21129  0.57128  0.24812  1.0000
  H   H24       1.0  0.56718  0.80566  0.77952  1.0000
  H   H25       1.0  0.92718  0.69978  0.26217  1.0000
  H   H26       1.0  0.69742  0.57196  0.52379  1.0000
  H   H27       1.0  0.93252  0.20288  0.98195  1.0000
  H   H28       1.0  0.79957  0.43015  0.21908  1.0000
  H   H29       1.0  0.07267  0.29171  0.25762  1.0000
  H   H30       1.0  0.28889  0.43254  0.50935  1.0000
  H   H31       1.0  0.43785  0.66273  0.73758  1.0000
  H   H32       1.0  0.33950  0.94065  0.99022  1.0000
  H   H33       1.0  0.17545  0.56308  0.50638  1.0000
  H   H34       1.0  0.56054  0.84036  0.51758  1.0000
  H   H35       1.0  0.93580  0.66380  0.00241  1.0000
  H   H36       1.0  0.66086  0.56430  0.26221  1.0000
  H   H37       1.0  0.93885  0.16917  0.24400  1.0000
  H   H38       1.0  0.83660  0.43620  0.48008  1.0000
  H   H39       1.0  0.06379  0.32798  0.99845  1.0000
  H   H40       1.0  0.32422  0.43960  0.25007  1.0000
  H   H41       1.0  0.42525  0.75173  0.30270  1.0000
  H   H42       1.0  0.06949  0.75327  0.79695  1.0000
  H   H43       1.0  0.25215  0.92795  0.55382  1.0000
  H   H44       1.0  0.56931  0.75372  0.94923  1.0000
  H   H45       1.0  0.92281  0.74375  0.45053  1.0000
  H   H46       1.0  0.92831  0.23723  0.78356  1.0000
  H   H47       1.0  0.07837  0.25638  0.46157  1.0000
  H   H48       1.0  0.24984  0.07269  0.19918  1.0000
  H   H49       1.0  0.57663  0.71544  0.20451  1.0000
  H   H50       1.0  0.91536  0.78087  0.70681  1.0000
  H   H51       1.0  0.28729  0.08090  0.45697  1.0000
  H   H52       1.0  0.41780  0.78967  0.04606  1.0000
  H   H53       1.0  0.07696  0.71612  0.54153  1.0000
  H   H54       1.0  0.08483  0.21908  0.71752  1.0000
  H   H55       1.0  0.92173  0.27434  0.52874  1.0000
  H   H56       1.0  0.21446  0.91991  0.29633  1.0000
  H   H57       1.0  0.45892  0.66611  0.97991  1.0000
  H   H58       1.0  0.04168  0.83817  0.47758  1.0000
  H   H59       1.0  0.33805  0.96028  0.23412  1.0000
  H   H60       1.0  0.16057  0.54440  0.73305  1.0000
  H   H61       1.0  0.54359  0.84338  0.27969  1.0000
  H   H62       1.0  0.95688  0.66044  0.76401  1.0000
  H   H63       1.0  0.66243  0.54359  0.01573  1.0000
  H   H64       1.0  0.84071  0.95332  0.52394  1.0000
  H   H65       1.0  0.95572  0.15695  0.47539  1.0000
  H   H66       1.0  0.54340  0.34105  0.98847  1.0000
  H   H67       1.0  0.83616  0.45561  0.72767  1.0000
  H   H68       1.0  0.66112  0.04500  0.22348  1.0000
  H   H69       1.0  0.04184  0.33435  0.76302  1.0000
  H   H70       1.0  0.45846  0.15240  0.28541  1.0000
  H   H71       1.0  0.16246  0.04092  0.52209  1.0000
  H   H72       1.0  0.33842  0.45796  0.01985  1.0000
  H   H73       1.0  0.42355  0.63189  0.21209  1.0000
  H   H74       1.0  0.07711  0.87332  0.70736  1.0000
  H   H75       1.0  0.12914  0.57624  0.96982  1.0000
  H   H76       1.0  0.58055  0.87969  0.05588  1.0000
  H   H77       1.0  0.07534  0.36830  0.53054  1.0000
  H   H78       1.0  0.42344  0.11853  0.06258  1.0000
  H   H79       1.0  0.42505  0.57271  0.43327  1.0000
  H   H80       1.0  0.07539  0.93268  0.92737  1.0000
  H   H81       1.0  0.06964  0.57289  0.18828  1.0000
  H   H82       1.0  0.57885  0.93710  0.83073  1.0000
  H   H83       1.0  0.07320  0.42771  0.31067  1.0000
  H   H84       1.0  0.42536  0.06166  0.83709  1.0000
  H   H85       1.0  0.57148  0.52865  0.30304  1.0000
  H   H86       1.0  0.92388  0.96607  0.81684  1.0000
  H   H87       1.0  0.02710  0.42489  0.05078  1.0000
  H   H88       1.0  0.42687  0.97024  0.92944  1.0000
  H   H89       1.0  0.92656  0.47072  0.44464  1.0000
  H   H90       1.0  0.58006  0.03678  0.92036  1.0000
  H   H91       1.0  0.56968  0.58815  0.08054  1.0000
  H   H92       1.0  0.92603  0.90625  0.59478  1.0000
  H   H93       1.0  0.08649  0.42889  0.82971  1.0000
  H   H94       1.0  0.42907  0.91267  0.15736  1.0000
  H   H95       1.0  0.92952  0.41180  0.66770  1.0000
  H   H96       1.0  0.57840  0.09574  0.14536  1.0000
  C   C137      1.0  0.49756  0.50285  0.49921  1.0000
  C   C138      1.0  0.99940  0.99818  0.00094  1.0000
  C   C139      1.0  0.50267  0.00140  0.74805  1.0000
  C   C140      1.0  0.99990  0.49777  0.24830  1.0000
  C  Sn1       1.0  0.18933  0.03334  0.84173  1.0000
  C   C141      1.0  0.18855  0.99006  0.75766  1.0000
  C  Sn2       1.0  0.18767  0.94413  0.83312  1.0000
  C  Sn3       1.0  0.19781  0.94139  0.99603  1.0000
  C   C142      1.0  0.20681  0.98439  0.08001  1.0000
  C  Sn4       1.0  0.19765  0.03035  0.00464  1.0000
  O  Te1       1.0  0.19000  0.07886  0.76390  1.0000
  O  Te2       1.0  0.17676  0.90137  0.74658  1.0000
  O  Te3       1.0  0.19532  0.89556  0.07383  1.0000
  O  Te4       1.0  0.20855  0.07308  0.09109  1.0000
  Mg  Mg1       1.0  0.18030  0.84803  0.90529  1.0000
  Mg  Mg2       1.0  0.20681  0.12671  0.93253  1.0000
  C  Sn5       1.0  0.53734  0.32973  0.64136  1.0000
  C   C143      1.0  0.49439  0.34586  0.71506  1.0000
  C  Sn6       1.0  0.44790  0.33216  0.65640  1.0000
  C  Sn7       1.0  0.44426  0.30168  0.52131  1.0000
  C   C144      1.0  0.48720  0.28556  0.44769  1.0000
  C  Sn8       1.0  0.53371  0.29925  0.50626  1.0000
  O  Te5       1.0  0.58343  0.34387  0.70204  1.0000
  O  Te6       1.0  0.40548  0.34876  0.73207  1.0000
  O  Te7       1.0  0.39812  0.28754  0.46065  1.0000
  O  Te8       1.0  0.57610  0.28266  0.43069  1.0000
  Mg  Mg3       1.0  0.35110  0.31953  0.60494  1.0000
  Mg  Mg4       1.0  0.63050  0.31185  0.55775  1.0000
  C  Sn9       1.0  0.95281  0.03828  0.26680  1.0000
  C   C145      1.0  0.96280  0.00122  0.15731  1.0000
  C  Sn10      1.0  0.94139  0.96007  0.14242  1.0000
  C  Sn11      1.0  0.89904  0.95589  0.23890  1.0000
  C   C146      1.0  0.88906  0.99294  0.34829  1.0000
  C  Sn12      1.0  0.91046  0.03410  0.36328  1.0000
  O  Te9       1.0  0.98477  0.07909  0.27966  1.0000
  O  Te10      1.0  0.95215  0.92348  0.03216  1.0000
  O  Te11      1.0  0.86708  0.91503  0.22595  1.0000
  O  Te12      1.0  0.89971  0.07067  0.47344  1.0000
  Mg  Mg5       1.0  0.89745  0.87493  0.05850  1.0000
  Mg  Mg6       1.0  0.95438  0.11925  0.44714  1.0000
  C  Sn13      1.0  0.80877  0.96411  0.83994  1.0000
  C   C147      1.0  0.81048  0.00695  0.75544  1.0000
  C  Sn14      1.0  0.81359  0.05287  0.83083  1.0000
  C  Sn15      1.0  0.80480  0.05604  0.99411  1.0000
  C   C148      1.0  0.79124  0.01296  0.07853  1.0000
  C  Sn16      1.0  0.79816  0.96702  0.00323  1.0000
  O  Te13      1.0  0.80586  0.91860  0.76216  1.0000
  O  Te14      1.0  0.82539  0.09518  0.74386  1.0000
  O  Te15      1.0  0.80590  0.10134  0.07186  1.0000
  O  Te16      1.0  0.78638  0.92473  0.09011  1.0000
  Mg  Mg7       1.0  0.82500  0.14870  0.90266  1.0000
  Mg  Mg8       1.0  0.78860  0.87145  0.93146  1.0000
  C  Sn17      1.0  0.77906  0.04306  0.37687  1.0000
  C   C149      1.0  0.78367  0.00662  0.26159  1.0000
  C  Sn18      1.0  0.76552  0.96302  0.26896  1.0000
  C  Sn19      1.0  0.73198  0.95570  0.39411  1.0000
  C   C150      1.0  0.72737  0.99213  0.50928  1.0000
  C  Sn20      1.0  0.74552  0.03575  0.50202  1.0000
  O  Te17      1.0  0.80762  0.08637  0.36715  1.0000
  O  Te18      1.0  0.77079  0.92711  0.15237  1.0000
  O  Te19      1.0  0.70341  0.91235  0.40375  1.0000
  O  Te20      1.0  0.74025  0.07164  0.61850  1.0000
  Mg  Mg9       1.0  0.72373  0.87436  0.21684  1.0000
  Mg  Mg10      1.0  0.78727  0.12441  0.55410  1.0000
  C  Sn21      1.0  0.57246  0.95174  0.54327  1.0000
  C   C151      1.0  0.55898  0.99037  0.64297  1.0000
  C  Sn22      1.0  0.55951  0.03955  0.60316  1.0000
  C  Sn23      1.0  0.58405  0.05036  0.46068  1.0000
  C   C152      1.0  0.59751  0.01174  0.36105  1.0000
  C  Sn24      1.0  0.59700  0.96254  0.40078  1.0000
  O  Te21      1.0  0.56151  0.90284  0.58543  1.0000
  O  Te22      1.0  0.54568  0.07754  0.70476  1.0000
  O  Te23      1.0  0.59500  0.09930  0.41858  1.0000
  O  Te24      1.0  0.61081  0.92457  0.29927  1.0000
  Mg  Mg11      1.0  0.56868  0.13820  0.59564  1.0000
  Mg  Mg12      1.0  0.58781  0.86390  0.40823  1.0000
  C  Sn25      1.0  0.96010  0.58992  0.38067  1.0000
  C   C153      1.0  0.99805  0.55731  0.34283  1.0000
  C  Sn26      1.0  0.03555  0.54734  0.45115  1.0000
  C  Sn27      1.0  0.03509  0.57042  0.60045  1.0000
  C   C154      1.0  0.99714  0.60299  0.63824  1.0000
  C  Sn28      1.0  0.95963  0.61299  0.52998  1.0000
  O  Te25      1.0  0.92299  0.59934  0.27057  1.0000
  O  Te26      1.0  0.07312  0.51463  0.41061  1.0000
  O  Te27      1.0  0.07224  0.56097  0.71057  1.0000
  O  Te28      1.0  0.92208  0.64567  0.57046  1.0000
  Mg  Mg13      1.0  0.11545  0.51365  0.60051  1.0000
  Mg  Mg14      1.0  0.87972  0.64666  0.38069  1.0000
  C  Sn29      1.0  0.71700  0.46021  0.87678  1.0000
  C   C155      1.0  0.71653  0.49540  0.75674  1.0000
  C  Sn30      1.0  0.74874  0.53619  0.76168  1.0000
  C  Sn31      1.0  0.78214  0.54192  0.88922  1.0000
  C   C156      1.0  0.78079  0.50648  0.00916  1.0000
  C  Sn32      1.0  0.74859  0.46568  0.00433  1.0000
  O  Te29      1.0  0.68447  0.41972  0.86942  1.0000
  O  Te30      1.0  0.74757  0.57089  0.64032  1.0000
  O  Te31      1.0  0.81468  0.58245  0.89650  1.0000
  O  Te32      1.0  0.74975  0.43099  0.12557  1.0000
  Mg  Mg15      1.0  0.79912  0.61974  0.70312  1.0000
  Mg  Mg16      1.0  0.69824  0.38212  0.06286  1.0000
  C  Sn33      1.0  0.69661  0.93823  0.89074  1.0000
  C   C157      1.0  0.67948  0.97605  0.98773  1.0000
  C  Sn34      1.0  0.66148  0.02348  0.92770  1.0000
  C  Sn35      1.0  0.67080  0.03333  0.76736  1.0000
  C   C158      1.0  0.69796  0.99553  0.67046  1.0000
  C  Sn36      1.0  0.70594  0.94808  0.73040  1.0000
  O  Te33      1.0  0.70431  0.89109  0.95325  1.0000
  O  Te34      1.0  0.64253  0.06043  0.02697  1.0000
  O  Te35      1.0  0.66309  0.08053  0.70490  1.0000
  O  Te36      1.0  0.72304  0.91089  0.63123  1.0000
  Mg  Mg17      1.0  0.63949  0.11893  0.88691  1.0000
  Mg  Mg18      1.0  0.72790  0.85263  0.77113  1.0000
  C  Sn37      1.0  0.46097  0.43696  0.15642  1.0000
  C   C159      1.0  0.49896  0.40419  0.12039  1.0000
  C  Sn38      1.0  0.53606  0.39429  0.23012  1.0000
  C  Sn39      1.0  0.53516  0.41759  0.37902  1.0000
  C   C160      1.0  0.49719  0.45033  0.41500  1.0000
  C  Sn40      1.0  0.46007  0.46027  0.30532  1.0000
  O  Te37      1.0  0.42425  0.44631  0.04492  1.0000
  O  Te38      1.0  0.57367  0.36140  0.19138  1.0000
  O  Te39      1.0  0.57192  0.40821  0.49053  1.0000
  O  Te40      1.0  0.42247  0.49313  0.34400  1.0000
  Mg  Mg19      1.0  0.61536  0.36060  0.38272  1.0000
  Mg  Mg20      1.0  0.38076  0.49393  0.15280  1.0000
  C  Sn41      1.0  0.08960  0.05049  0.26653  1.0000
  C   C161      1.0  0.10108  0.01268  0.37210  1.0000
  C  Sn42      1.0  0.09676  0.96376  0.34082  1.0000
  C  Sn43      1.0  0.07040  0.95238  0.20105  1.0000
  C   C162      1.0  0.05895  0.99017  0.09557  1.0000
  C  Sn44      1.0  0.06325  0.03911  0.12677  1.0000
  O  Te41      1.0  0.10434  0.09914  0.30019  1.0000
  O  Te42      1.0  0.10864  0.92660  0.44815  1.0000
  O  Te43      1.0  0.05567  0.90368  0.16746  1.0000
  O  Te44      1.0  0.05139  0.07626  0.01952  1.0000
  Mg  Mg21      1.0  0.08053  0.86598  0.34993  1.0000
  Mg  Mg22      1.0  0.07950  0.13688  0.11757  1.0000
  C  Sn45      1.0  0.25289  0.45210  0.91963  1.0000
  C   C163      1.0  0.24003  0.48929  0.02673  1.0000
  C  Sn46      1.0  0.24152  0.53912  0.97955  1.0000
  C  Sn47      1.0  0.25243  0.55154  0.82202  1.0000
  C   C164      1.0  0.26346  0.51411  0.71501  1.0000
  C  Sn48      1.0  0.26380  0.46452  0.76209  1.0000
  O  Te45      1.0  0.25300  0.40279  0.96937  1.0000
  O  Te46      1.0  0.22857  0.57565  0.08876  1.0000
  O  Te47      1.0  0.25231  0.60090  0.77234  1.0000
  O  Te48      1.0  0.27492  0.42775  0.65298  1.0000
  Mg  Mg23      1.0  0.23490  0.63773  0.96455  1.0000
  Mg  Mg24      1.0  0.27040  0.36591  0.77704  1.0000
  C  Sn49      1.0  0.03141  0.79371  0.07877  1.0000
  C   C165      1.0  0.99539  0.78203  0.97273  1.0000
  C  Sn50      1.0  0.94767  0.79996  0.99514  1.0000
  C  Sn51      1.0  0.93574  0.83022  0.12621  1.0000
  C   C166      1.0  0.97357  0.84215  0.23215  1.0000
  C  Sn52      1.0  0.02130  0.82423  0.20985  1.0000
  O  Te49      1.0  0.07884  0.77538  0.05406  1.0000
  O  Te50      1.0  0.91044  0.78750  0.88756  1.0000
  O  Te51      1.0  0.88826  0.84855  0.15086  1.0000
  O  Te52      1.0  0.05851  0.83668  0.31732  1.0000
  Mg  Mg25      1.0  0.85176  0.82155  0.97175  1.0000
  Mg  Mg26      1.0  0.11720  0.80268  0.23321  1.0000
  C  Sn53      1.0  0.55337  0.23021  0.12317  1.0000
  C   C167      1.0  0.51635  0.21607  0.01689  1.0000
  C  Sn54      1.0  0.46806  0.23298  0.03498  1.0000
  C  Sn55      1.0  0.45655  0.26471  0.16190  1.0000
  C   C168      1.0  0.49356  0.27885  0.26807  1.0000
  C  Sn56      1.0  0.54186  0.26195  0.25009  1.0000
  O  Te53      1.0  0.60139  0.21286  0.10280  1.0000
  O  Te54      1.0  0.43349  0.21858  0.92726  1.0000
  O  Te55      1.0  0.40848  0.28206  0.18220  1.0000
  O  Te56      1.0  0.57824  0.27659  0.35771  1.0000
  Mg  Mg27      1.0  0.37172  0.25176  0.00469  1.0000
  Mg  Mg28      1.0  0.63820  0.24320  0.28035  1.0000
  C  Sn57      1.0  0.56564  0.16361  0.65527  1.0000
  C   C169      1.0  0.52862  0.15723  0.54196  1.0000
  C  Sn58      1.0  0.48261  0.17949  0.56053  1.0000
  C  Sn59      1.0  0.47341  0.20876  0.69512  1.0000
  C   C170      1.0  0.51041  0.21513  0.80832  1.0000
  C  Sn60      1.0  0.55644  0.19288  0.78986  1.0000
  O  Te57      1.0  0.61136  0.14101  0.63428  1.0000
  O  Te58      1.0  0.44618  0.17256  0.44569  1.0000
  O  Te59      1.0  0.42764  0.23135  0.71604  1.0000
  O  Te60      1.0  0.59286  0.19980  0.90460  1.0000
  Mg  Mg29      1.0  0.38985  0.21096  0.52711  1.0000
  Mg  Mg30      1.0  0.64921  0.16144  0.82326  1.0000
  C  Sn61      1.0  0.03803  0.06377  0.66147  1.0000
  C   C171      1.0  0.99944  0.09500  0.61757  1.0000
  C  Sn62      1.0  0.96051  0.10395  0.72028  1.0000
  C  Sn63      1.0  0.96016  0.08124  0.87004  1.0000
  C   C172      1.0  0.99873  0.05003  0.91388  1.0000
  C  Sn64      1.0  0.03768  0.04105  0.81122  1.0000
  O  Te61      1.0  0.07657  0.05535  0.55691  1.0000
  O  Te62      1.0  0.92234  0.13531  0.67375  1.0000
  O  Te63      1.0  0.92157  0.08968  0.97460  1.0000
  O  Te64      1.0  0.07584  0.00973  0.85770  1.0000
  Mg  Mg31      1.0  0.87802  0.13529  0.85749  1.0000
  Mg  Mg32      1.0  0.12019  0.00974  0.67409  1.0000
  C  Sn65      1.0  0.40414  0.46353  0.63026  1.0000
  C   C173      1.0  0.43704  0.50174  0.59080  1.0000
  C  Sn66      1.0  0.44863  0.53903  0.69895  1.0000
  C  Sn67      1.0  0.42691  0.53809  0.84973  1.0000
  C   C174      1.0  0.39404  0.49989  0.88914  1.0000
  C  Sn68      1.0  0.38242  0.46259  0.78104  1.0000
  O  Te65      1.0  0.39309  0.42663  0.52030  1.0000
  O  Te66      1.0  0.48162  0.57686  0.65679  1.0000
  O  Te67      1.0  0.43799  0.57503  0.95971  1.0000
  O  Te68      1.0  0.34946  0.42477  0.82315  1.0000
  Mg  Mg33      1.0  0.48504  0.61873  0.84717  1.0000
  Mg  Mg34      1.0  0.34603  0.38287  0.63290  1.0000
  C  Sn69      1.0  0.93485  0.53613  0.90690  1.0000
  C   C175      1.0  0.90260  0.49748  0.86494  1.0000
  C  Sn70      1.0  0.89299  0.45878  0.96942  1.0000
  C  Sn71      1.0  0.91424  0.45847  0.11901  1.0000
  C   C176      1.0  0.94646  0.49710  0.16092  1.0000
  C  Sn72      1.0  0.95610  0.53581  0.05649  1.0000
  O  Te69      1.0  0.94391  0.57443  0.80059  1.0000
  O  Te70      1.0  0.86063  0.42054  0.92481  1.0000
  O  Te71      1.0  0.90515  0.42012  0.22534  1.0000
  O  Te72      1.0  0.98843  0.57404  0.10105  1.0000
  Mg  Mg35      1.0  0.85824  0.37636  0.11049  1.0000
  Mg  Mg36      1.0  0.99083  0.61825  0.91550  1.0000
  C  Sn73      1.0  0.39232  0.95848  0.53854  1.0000
  C   C177      1.0  0.38019  0.99668  0.43515  1.0000
  C  Sn74      1.0  0.40060  0.03861  0.42284  1.0000
  C  Sn75      1.0  0.44412  0.04243  0.51574  1.0000
  C   C178      1.0  0.45624  0.00424  0.61903  1.0000
  C  Sn76      1.0  0.43583  0.96230  0.63143  1.0000
  O  Te73      1.0  0.36132  0.91690  0.54892  1.0000
  O  Te74      1.0  0.38770  0.07632  0.31869  1.0000
  O  Te75      1.0  0.47512  0.08405  0.50528  1.0000
  O  Te76      1.0  0.44872  0.92460  0.73549  1.0000
  Mg  Mg37      1.0  0.44180  0.12560  0.34635  1.0000
  Mg  Mg38      1.0  0.39467  0.87529  0.70786  1.0000
  C  Sn77      1.0  0.58149  0.45332  0.78948  1.0000
  C   C179      1.0  0.61306  0.49221  0.83425  1.0000
  C  Sn78      1.0  0.60612  0.53987  0.77467  1.0000
  C  Sn79      1.0  0.56678  0.54886  0.66818  1.0000
  C   C180      1.0  0.53524  0.50999  0.62348  1.0000
  C  Sn80      1.0  0.54216  0.46231  0.68298  1.0000
  O  Te77      1.0  0.58912  0.40597  0.85052  1.0000
  O  Te78      1.0  0.63817  0.57816  0.82112  1.0000
  O  Te79      1.0  0.55918  0.59626  0.60714  1.0000
  O  Te80      1.0  0.51013  0.42404  0.63661  1.0000
  Mg  Mg39      1.0  0.61264  0.63627  0.70578  1.0000
  Mg  Mg40      1.0  0.53561  0.36592  0.75192  1.0000
