data_image0
_chemical_formula_structural       C54N16C58H80C4SnCSn2CSnTe4Mg2SnCSn2CSnTe4Mg2SnCSn2CSnTe4Mg2SnCSn2CSnTe4Mg2SnCSn2CSnTe4Mg2SnCSn2CSnTe4Mg2SnCSn2CSnTe4Mg2SnCSn2CSnTe4Mg2SnCSn2CSnTe4Mg2SnCSn2CSnTe4Mg2SnCSn2CSnTe4Mg2SnCSn2CSnTe4Mg2SnCSn2CSnTe4Mg2SnCSn2CSnTe4Mg2SnCSn2CSnTe4Mg2SnCSn2CSnTe4Mg2
_chemical_formula_sum              "C148 N16 H80 Sn64 Te64 Mg32"
_cell_length_a       23.7554
_cell_length_b       23.7556
_cell_length_c       8.64227
_cell_angle_alpha    89.9576
_cell_angle_beta     90.0525
_cell_angle_gamma    90.7067

_symmetry_space_group_name_H-M    'P1'
_space_group_IT_number       1

loop_
  _space_group_symop_operation_xyz
  'x, y, z'

loop_
  _atom_site_type_symbol
  _atom_site_label
  _atom_site_symmetry_multiplicity
  _atom_site_fract_x
  _atom_site_fract_y
  _atom_site_fract_z
  _atom_site_occupancy
  C   C1        1.0  0.81363  0.98062  0.74709  1.0000
  C   C2        1.0  0.69043  0.52039  0.25550  1.0000
  C   C3        1.0  0.02168  0.31501  0.00048  1.0000
  C   C4        1.0  0.48184  0.18253  0.49423  1.0000
  C   C5        1.0  0.51968  0.31308  0.74924  1.0000
  C   C6        1.0  0.98190  0.69262  0.00773  1.0000
  C   C7        1.0  0.68414  0.01722  0.00019  1.0000
  C   C8        1.0  0.81214  0.48298  0.50015  1.0000
  C   C9        1.0  0.01034  0.81611  0.24797  1.0000
  C   C10       1.0  0.79808  0.03414  0.69197  1.0000
  C   C11       1.0  0.69732  0.46616  0.19199  1.0000
  C   C12       1.0  0.96800  0.30727  0.93312  1.0000
  C   C13       1.0  0.53438  0.20595  0.45094  1.0000
  C   C14       1.0  0.46564  0.29938  0.80662  1.0000
  C   C15       1.0  0.03503  0.70089  0.93787  1.0000
  C   C16       1.0  0.70651  0.96476  0.04357  1.0000
  C   C17       1.0  0.79745  0.53671  0.55552  1.0000
  C   C18       1.0  0.95682  0.80227  0.30887  1.0000
  C   C19       1.0  0.77349  0.04048  0.54743  1.0000
  C   C20       1.0  0.72209  0.45917  0.04784  1.0000
  C   C21       1.0  0.96199  0.28469  0.78600  1.0000
  C   C22       1.0  0.54131  0.23237  0.30876  1.0000
  C   C23       1.0  0.45886  0.27504  0.95145  1.0000
  C   C24       1.0  0.03991  0.72315  0.78994  1.0000
  C   C25       1.0  0.73213  0.95770  0.18671  1.0000
  C   C26       1.0  0.77480  0.54360  0.70215  1.0000
  C   C27       1.0  0.95133  0.77685  0.45297  1.0000
  C   C28       1.0  0.76371  0.99441  0.44710  1.0000
  C   C29       1.0  0.74186  0.50527  0.95923  1.0000
  C   C30       1.0  0.00863  0.26785  0.69696  1.0000
  C   C31       1.0  0.49738  0.23523  0.19889  1.0000
  C   C32       1.0  0.50511  0.26291  0.04816  1.0000
  C   C33       1.0  0.99255  0.73878  0.70146  1.0000
  C   C34       1.0  0.73577  0.00164  0.29667  1.0000
  C   C35       1.0  0.76656  0.49784  0.80473  1.0000
  C   C36       1.0  0.99834  0.76429  0.54672  1.0000
  C   C37       1.0  0.78147  0.94123  0.50074  1.0000
  C   C38       1.0  0.73551  0.55924  0.02529  1.0000
  C   C39       1.0  0.06225  0.27644  0.76448  1.0000
  C   C40       1.0  0.44558  0.20959  0.24066  1.0000
  C   C41       1.0  0.55902  0.27783  0.99103  1.0000
  C   C42       1.0  0.93944  0.72937  0.77128  1.0000
  C   C43       1.0  0.71096  0.05326  0.25464  1.0000
  C   C44       1.0  0.78220  0.44428  0.74959  1.0000
  C   C45       1.0  0.05169  0.77872  0.48488  1.0000
  C   C46       1.0  0.80570  0.93453  0.64552  1.0000
  C   C47       1.0  0.70953  0.56677  0.16725  1.0000
  C   C48       1.0  0.06869  0.29981  0.91065  1.0000
  C   C49       1.0  0.43796  0.18440  0.38387  1.0000
  C   C50       1.0  0.56612  0.30259  0.84691  1.0000
  C   C51       1.0  0.93420  0.70665  0.91875  1.0000
  C   C52       1.0  0.68612  0.06082  0.11124  1.0000
  C   C53       1.0  0.80381  0.43711  0.60182  1.0000
  C   C54       1.0  0.05749  0.80434  0.34140  1.0000
  N   N1        1.0  0.84032  0.97088  0.88745  1.0000
  N   N2        1.0  0.66248  0.53164  0.39327  1.0000
  N   N3        1.0  0.03199  0.34027  0.14319  1.0000
  N   N4        1.0  0.47086  0.15368  0.63142  1.0000
  N   N5        1.0  0.16548  0.52862  0.35595  1.0000
  N   N6        1.0  0.34068  0.96805  0.86069  1.0000
  N   N7        1.0  0.97652  0.16152  0.10914  1.0000
  N   N8        1.0  0.52999  0.33998  0.60931  1.0000
  N   N9        1.0  0.33944  0.46777  0.39381  1.0000
  N   N10       1.0  0.15874  0.02987  0.88475  1.0000
  N   N11       1.0  0.53073  0.83950  0.64072  1.0000
  N   N12       1.0  0.97266  0.66801  0.15190  1.0000
  N   N13       1.0  0.65609  0.02827  0.86249  1.0000
  N   N14       1.0  0.83728  0.47133  0.35764  1.0000
  N   N15       1.0  0.46816  0.65701  0.61302  1.0000
  N   N16       1.0  0.02077  0.84331  0.10793  1.0000
  C   C55       1.0  0.83521  0.00594  0.00183  1.0000
  C   C56       1.0  0.66350  0.49521  0.50482  1.0000
  C   C57       1.0  0.99222  0.34314  0.24547  1.0000
  C   C58       1.0  0.50273  0.16085  0.75209  1.0000
  C   C59       1.0  0.16126  0.48975  0.25101  1.0000
  C   C60       1.0  0.33575  0.00137  0.74248  1.0000
  C   C61       1.0  0.01213  0.16379  0.99557  1.0000
  C   C62       1.0  0.49421  0.33573  0.49614  1.0000
  C   C63       1.0  0.33808  0.50417  0.50537  1.0000
  C   C64       1.0  0.16168  0.99524  0.00062  1.0000
  C   C65       1.0  0.49710  0.83342  0.75819  1.0000
  C   C66       1.0  0.01278  0.66534  0.25342  1.0000
  C   C67       1.0  0.66371  0.99709  0.74110  1.0000
  C   C68       1.0  0.84272  0.51086  0.25484  1.0000
  C   C69       1.0  0.50432  0.66030  0.50084  1.0000
  C   C70       1.0  0.98401  0.84234  0.99689  1.0000
  C   C71       1.0  0.87047  0.00192  0.13836  1.0000
  C   C72       1.0  0.49717  0.12539  0.88810  1.0000
  C   C73       1.0  0.50207  0.86907  0.89370  1.0000
  C   C74       1.0  0.00718  0.63161  0.39266  1.0000
  C   C75       1.0  0.87562  0.50475  0.11490  1.0000
  C   C76       1.0  0.49955  0.62562  0.36350  1.0000
  C   C77       1.0  0.99160  0.87594  0.85798  1.0000
  C   C78       1.0  0.90810  0.95685  0.15605  1.0000
  C   C79       1.0  0.45336  0.08497  0.90204  1.0000
  C   C80       1.0  0.54626  0.90902  0.90838  1.0000
  C   C81       1.0  0.95637  0.60340  0.42956  1.0000
  C   C82       1.0  0.90224  0.45429  0.07300  1.0000
  C   C83       1.0  0.45267  0.58984  0.33714  1.0000
  C   C84       1.0  0.04002  0.91019  0.83755  1.0000
  C   C85       1.0  0.94621  0.95677  0.27673  1.0000
  C   C86       1.0  0.45286  0.04742  0.02438  1.0000
  C   C87       1.0  0.54619  0.94708  0.02923  1.0000
  C   C88       1.0  0.95420  0.56516  0.55052  1.0000
  C   C89       1.0  0.93946  0.45357  0.94950  1.0000
  C   C90       1.0  0.45272  0.55256  0.21434  1.0000
  C   C91       1.0  0.04342  0.94737  0.71456  1.0000
  C   C92       1.0  0.94874  0.00153  0.38412  1.0000
  C   C93       1.0  0.49621  0.04797  0.13650  1.0000
  C   C94       1.0  0.50224  0.94705  0.13925  1.0000
  C   C95       1.0  0.00257  0.55371  0.63943  1.0000
  C   C96       1.0  0.95117  0.50255  0.86220  1.0000
  C   C97       1.0  0.49933  0.54910  0.11371  1.0000
  C   C98       1.0  0.99886  0.95199  0.60724  1.0000
  C   C99       1.0  0.91018  0.04516  0.37033  1.0000
  C   C100      1.0  0.53851  0.08911  0.12575  1.0000
  C   C101      1.0  0.45985  0.90599  0.12876  1.0000
  C   C102      1.0  0.05249  0.58322  0.60639  1.0000
  C   C103      1.0  0.92283  0.55200  0.89978  1.0000
  C   C104      1.0  0.54505  0.58567  0.13688  1.0000
  C   C105      1.0  0.95218  0.91602  0.62296  1.0000
  C   C106      1.0  0.87105  0.04512  0.24930  1.0000
  C   C107      1.0  0.53866  0.12775  0.00392  1.0000
  C   C108      1.0  0.45991  0.86722  0.00741  1.0000
  C   C109      1.0  0.05467  0.62198  0.48536  1.0000
  C   C110      1.0  0.88553  0.55288  0.02393  1.0000
  C   C111      1.0  0.54484  0.62385  0.25945  1.0000
  C   C112      1.0  0.94860  0.87846  0.74680  1.0000
  H   H1        1.0  0.80627  0.07114  0.76286  1.0000
  H   H2        1.0  0.68093  0.42948  0.25352  1.0000
  H   H3        1.0  0.93062  0.32059  0.99497  1.0000
  H   H4        1.0  0.57001  0.20348  0.52952  1.0000
  H   H5        1.0  0.42866  0.30959  0.73843  1.0000
  H   H6        1.0  0.07284  0.68838  0.99931  1.0000
  H   H7        1.0  0.70377  0.92933  0.96424  1.0000
  H   H8        1.0  0.80359  0.57370  0.48312  1.0000
  H   H9        1.0  0.91920  0.81269  0.24355  1.0000
  H   H10       1.0  0.76257  0.08266  0.51023  1.0000
  H   H11       1.0  0.72444  0.41685  0.00086  1.0000
  H   H12       1.0  0.91992  0.28131  0.73732  1.0000
  H   H13       1.0  0.58203  0.25136  0.28216  1.0000
  H   H14       1.0  0.41641  0.26655  0.99273  1.0000
  H   H15       1.0  0.08183  0.72779  0.74118  1.0000
  H   H16       1.0  0.74970  0.91683  0.21386  1.0000
  H   H17       1.0  0.76295  0.58574  0.73750  1.0000
  H   H18       1.0  0.90910  0.76675  0.49359  1.0000
  H   H19       1.0  0.77579  0.90427  0.42803  1.0000
  H   H20       1.0  0.75135  0.59603  0.96381  1.0000
  H   H21       1.0  0.09971  0.26396  0.70181  1.0000
  H   H22       1.0  0.41121  0.20790  0.15759  1.0000
  H   H23       1.0  0.59619  0.26920  0.06010  1.0000
  H   H24       1.0  0.90139  0.74068  0.70928  1.0000
  H   H25       1.0  0.70987  0.08770  0.33723  1.0000
  H   H26       1.0  0.77813  0.40773  0.82472  1.0000
  H   H27       1.0  0.08954  0.77020  0.55115  1.0000
  H   H28       1.0  0.81880  0.89319  0.68479  1.0000
  H   H29       1.0  0.70402  0.60873  0.21487  1.0000
  H   H30       1.0  0.11038  0.30645  0.96021  1.0000
  H   H31       1.0  0.39793  0.16479  0.41465  1.0000
  H   H32       1.0  0.60789  0.31392  0.80473  1.0000
  H   H33       1.0  0.89286  0.69960  0.96990  1.0000
  H   H34       1.0  0.66684  0.10057  0.08059  1.0000
  H   H35       1.0  0.81574  0.39564  0.56095  1.0000
  H   H36       1.0  0.09886  0.81585  0.29667  1.0000
  H   H37       1.0  0.80554  0.04109  0.99857  1.0000
  H   H38       1.0  0.69017  0.45774  0.49965  1.0000
  H   H39       1.0  0.95134  0.32174  0.22947  1.0000
  H   H40       1.0  0.53637  0.19294  0.75571  1.0000
  H   H41       1.0  0.18046  0.44818  0.26410  1.0000
  H   H42       1.0  0.30615  0.03656  0.74115  1.0000
  H   H43       1.0  0.04994  0.19083  0.99824  1.0000
  H   H44       1.0  0.45748  0.30706  0.49982  1.0000
  H   H45       1.0  0.31086  0.54126  0.50098  1.0000
  H   H46       1.0  0.18941  0.95853  0.99906  1.0000
  H   H47       1.0  0.46231  0.80244  0.75867  1.0000
  H   H48       1.0  0.05388  0.68632  0.23692  1.0000
  H   H49       1.0  0.69584  0.96426  0.73647  1.0000
  H   H50       1.0  0.82500  0.55295  0.27090  1.0000
  H   H51       1.0  0.54175  0.68793  0.50652  1.0000
  H   H52       1.0  0.94512  0.81700  0.00384  1.0000
  H   H53       1.0  0.90793  0.92386  0.06892  1.0000
  H   H54       1.0  0.42155  0.08254  0.81163  1.0000
  H   H55       1.0  0.57854  0.91071  0.81918  1.0000
  H   H56       1.0  0.91985  0.61078  0.35669  1.0000
  H   H57       1.0  0.89500  0.41699  0.14371  1.0000
  H   H58       1.0  0.41787  0.59071  0.41869  1.0000
  H   H59       1.0  0.07300  0.90841  0.92472  1.0000
  H   H60       1.0  0.97662  0.92309  0.28514  1.0000
  H   H61       1.0  0.42023  0.01498  0.03033  1.0000
  H   H62       1.0  0.57877  0.97957  0.03554  1.0000
  H   H63       1.0  0.91534  0.54183  0.57311  1.0000
  H   H64       1.0  0.96175  0.41515  0.92211  1.0000
  H   H65       1.0  0.41745  0.52356  0.19840  1.0000
  H   H66       1.0  0.07956  0.97566  0.70469  1.0000
  H   H67       1.0  0.91167  0.08015  0.45127  1.0000
  H   H68       1.0  0.57252  0.08993  0.20979  1.0000
  H   H69       1.0  0.42568  0.90542  0.21220  1.0000
  H   H70       1.0  0.09050  0.57423  0.67153  1.0000
  H   H71       1.0  0.93129  0.59057  0.83579  1.0000
  H   H72       1.0  0.58175  0.58322  0.06242  1.0000
  H   H73       1.0  0.91737  0.91890  0.54195  1.0000
  H   H74       1.0  0.84211  0.08005  0.23688  1.0000
  H   H75       1.0  0.57256  0.15880  0.99479  1.0000
  H   H76       1.0  0.42569  0.83659  0.99652  1.0000
  H   H77       1.0  0.09435  0.64308  0.45746  1.0000
  H   H78       1.0  0.86577  0.59222  0.05661  1.0000
  H   H79       1.0  0.58132  0.65104  0.27917  1.0000
  H   H80       1.0  0.91087  0.85251  0.76147  1.0000
  C   C113      1.0  0.99919  0.00281  0.49609  1.0000
  C   C114      1.0  0.50111  0.49898  0.00123  1.0000
  C   C115      1.0  0.00144  0.50270  0.74943  1.0000
  C   C116      1.0  0.49910  0.99779  0.24921  1.0000
  C  Sn1       1.0  0.05707  0.08834  0.67132  1.0000
  C   C117      1.0  0.01404  0.04977  0.63631  1.0000
  C  Sn2       1.0  0.96118  0.05448  0.70544  1.0000
  C  Sn3       1.0  0.95110  0.09869  0.81169  1.0000
  C   C118      1.0  0.99411  0.13724  0.84663  1.0000
  C  Sn4       1.0  0.04700  0.13255  0.77757  1.0000
  O  Te1       1.0  0.10959  0.08282  0.60084  1.0000
  O  Te2       1.0  0.91882  0.01540  0.66866  1.0000
  O  Te3       1.0  0.89853  0.10418  0.88218  1.0000
  O  Te4       1.0  0.08933  0.17161  0.81428  1.0000
  Mg  Mg1       1.0  0.85431  0.04059  0.79471  1.0000
  Mg  Mg2       1.0  0.15385  0.14647  0.68825  1.0000
  C  Sn5       1.0  0.43846  0.69271  0.99031  1.0000
  C   C119      1.0  0.48741  0.71414  0.05826  1.0000
  C  Sn6       1.0  0.53519  0.72544  0.96775  1.0000
  C  Sn7       1.0  0.53333  0.71568  0.80593  1.0000
  C   C120      1.0  0.48407  0.69454  0.73806  1.0000
  C  Sn8       1.0  0.43660  0.68295  0.82849  1.0000
  O  Te5       1.0  0.39120  0.68172  0.08302  1.0000
  O  Te6       1.0  0.58366  0.74683  0.03831  1.0000
  O  Te7       1.0  0.58031  0.72696  0.71323  1.0000
  O  Te8       1.0  0.38782  0.66185  0.75800  1.0000
  Mg  Mg3       1.0  0.63698  0.75533  0.86302  1.0000
  Mg  Mg4       1.0  0.33480  0.65310  0.93317  1.0000
  C  Sn9       1.0  0.40629  0.44097  0.71261  1.0000
  C   C121      1.0  0.36925  0.48388  0.67276  1.0000
  C  Sn10      1.0  0.37611  0.53775  0.73522  1.0000
  C  Sn11      1.0  0.42095  0.54898  0.83963  1.0000
  C   C122      1.0  0.45797  0.50608  0.87941  1.0000
  C  Sn12      1.0  0.45113  0.45220  0.81702  1.0000
  O  Te9       1.0  0.39864  0.38743  0.64876  1.0000
  O  Te10      1.0  0.33854  0.57996  0.69368  1.0000
  O  Te11      1.0  0.42859  0.60257  0.90348  1.0000
  O  Te12      1.0  0.48869  0.41000  0.85849  1.0000
  Mg  Mg5       1.0  0.36645  0.64612  0.81135  1.0000
  Mg  Mg6       1.0  0.46083  0.34383  0.74084  1.0000
  C  Sn13      1.0  0.45297  0.78981  0.32101  1.0000
  C   C123      1.0  0.49338  0.77545  0.21095  1.0000
  C  Sn14      1.0  0.55043  0.77516  0.25019  1.0000
  C  Sn15      1.0  0.56745  0.78950  0.40265  1.0000
  C   C124      1.0  0.52705  0.80385  0.51261  1.0000
  C  Sn16      1.0  0.46998  0.80415  0.47346  1.0000
  O  Te13      1.0  0.39616  0.78981  0.27922  1.0000
  O  Te14      1.0  0.59006  0.76067  0.13816  1.0000
  O  Te15      1.0  0.62431  0.78949  0.44437  1.0000
  O  Te16      1.0  0.43037  0.81862  0.58540  1.0000
  Mg  Mg7       1.0  0.66243  0.76676  0.25110  1.0000
  Mg  Mg8       1.0  0.35799  0.81252  0.47262  1.0000
  C  Sn17      1.0  0.25765  0.03725  0.13697  1.0000
  C   C125      1.0  0.26181  0.99735  0.25397  1.0000
  C  Sn18      1.0  0.29154  0.94699  0.25247  1.0000
  C  Sn19      1.0  0.33028  0.93629  0.13155  1.0000
  C   C126      1.0  0.33845  0.97618  0.01465  1.0000
  C  Sn20      1.0  0.29639  0.02656  0.01605  1.0000
  O  Te17      1.0  0.22747  0.08731  0.14081  1.0000
  O  Te18      1.0  0.28263  0.90773  0.37068  1.0000
  O  Te19      1.0  0.36046  0.88618  0.12780  1.0000
  O  Te20      1.0  0.30562  0.06554  0.89795  1.0000
  Mg  Mg9       1.0  0.33377  0.84580  0.31475  1.0000
  Mg  Mg10      1.0  0.25453  0.12749  0.95380  1.0000
  C  Sn21      1.0  0.20410  0.95232  0.56225  1.0000
  C   C127      1.0  0.21959  0.99315  0.45329  1.0000
  C  Sn22      1.0  0.21044  0.04989  0.49505  1.0000
  C  Sn23      1.0  0.19792  0.06618  0.64896  1.0000
  C   C128      1.0  0.18245  0.02537  0.75782  1.0000
  C  Sn24      1.0  0.19158  0.96861  0.71615  1.0000
  O  Te21      1.0  0.20120  0.89584  0.51793  1.0000
  O  Te22      1.0  0.22601  0.08994  0.38408  1.0000
  O  Te23      1.0  0.20083  0.12271  0.69321  1.0000
  O  Te24      1.0  0.17603  0.92857  0.82703  1.0000
  Mg  Mg11      1.0  0.22402  0.16163  0.50053  1.0000
  Mg  Mg12      1.0  0.17803  0.85687  0.71074  1.0000
  C  Sn25      1.0  0.54284  0.42807  0.34245  1.0000
  C   C129      1.0  0.50093  0.38833  0.37784  1.0000
  C  Sn26      1.0  0.46009  0.37374  0.26811  1.0000
  C  Sn27      1.0  0.46117  0.39939  0.11987  1.0000
  C   C130      1.0  0.50307  0.43910  0.08453  1.0000
  C  Sn28      1.0  0.54393  0.45372  0.19421  1.0000
  O  Te25      1.0  0.58325  0.44201  0.45393  1.0000
  O  Te26      1.0  0.41860  0.33391  0.30619  1.0000
  O  Te27      1.0  0.42072  0.38541  0.00837  1.0000
  O  Te28      1.0  0.58540  0.49351  0.15618  1.0000
  Mg  Mg13      1.0  0.37275  0.32885  0.11516  1.0000
  Mg  Mg14      1.0  0.63128  0.49859  0.34709  1.0000
  C  Sn29      1.0  0.94469  0.20308  0.47968  1.0000
  C   C131      1.0  0.99415  0.22315  0.54913  1.0000
  C  Sn30      1.0  0.04270  0.23198  0.46088  1.0000
  C  Sn31      1.0  0.04179  0.22055  0.29983  1.0000
  C   C132      1.0  0.99236  0.20051  0.23047  1.0000
  C  Sn32      1.0  0.94379  0.19165  0.31864  1.0000
  O  Te29      1.0  0.89665  0.19456  0.57015  1.0000
  O  Te30      1.0  0.09165  0.25205  0.53291  1.0000
  O  Te31      1.0  0.08989  0.22909  0.20938  1.0000
  O  Te32      1.0  0.89486  0.17161  0.24668  1.0000
  Mg  Mg15      1.0  0.14632  0.25697  0.36052  1.0000
  Mg  Mg16      1.0  0.84015  0.16670  0.41894  1.0000
  C  Sn33      1.0  0.10758  0.94705  0.25146  1.0000
  C   C133      1.0  0.11660  0.98750  0.13635  1.0000
  C  Sn34      1.0  0.08258  0.04158  0.15240  1.0000
  C  Sn35      1.0  0.05125  0.05552  0.28634  1.0000
  C   C134      1.0  0.04226  0.01508  0.40136  1.0000
  C  Sn36      1.0  0.07626  0.96099  0.38540  1.0000
  O  Te33      1.0  0.12966  0.89326  0.23299  1.0000
  O  Te34      1.0  0.09214  0.08130  0.03574  1.0000
  O  Te35      1.0  0.02917  0.10936  0.30472  1.0000
  O  Te36      1.0  0.06673  0.92128  0.50197  1.0000
  Mg  Mg17      1.0  0.05349  0.14892  0.11406  1.0000
  Mg  Mg18      1.0  0.10537  0.85367  0.42381  1.0000
  C  Sn37      1.0  0.40933  0.04942  0.41596  1.0000
  C   C135      1.0  0.45063  0.00956  0.38534  1.0000
  C  Sn38      1.0  0.46164  0.95734  0.45974  1.0000
  C  Sn39      1.0  0.41811  0.94467  0.56693  1.0000
  C   C136      1.0  0.37683  0.98452  0.59749  1.0000
  C  Sn40      1.0  0.36580  0.03676  0.52315  1.0000
  O  Te37      1.0  0.41148  0.10135  0.34023  1.0000
  O  Te38      1.0  0.50340  0.91817  0.42728  1.0000
  O  Te39      1.0  0.41599  0.89269  0.64268  1.0000
  O  Te40      1.0  0.32406  0.07590  0.55555  1.0000
  Mg  Mg19      1.0  0.48236  0.85323  0.55975  1.0000
  Mg  Mg20      1.0  0.34505  0.14084  0.42310  1.0000
  C  Sn41      1.0  0.04858  0.44825  0.48895  1.0000
  C   C137      1.0  0.00553  0.46174  0.59208  1.0000
  C  Sn42      1.0  0.95736  0.42765  0.60270  1.0000
  C  Sn43      1.0  0.95211  0.37903  0.50835  1.0000
  C   C138      1.0  0.99515  0.36556  0.40532  1.0000
  C  Sn44      1.0  0.04334  0.39964  0.39460  1.0000
  O  Te41      1.0  0.09637  0.48294  0.48027  1.0000
  O  Te42      1.0  0.91487  0.44200  0.70663  1.0000
  O  Te43      1.0  0.90427  0.34434  0.51711  1.0000
  O  Te44      1.0  0.08581  0.38530  0.29077  1.0000
  Mg  Mg21      1.0  0.85787  0.38149  0.67639  1.0000
  Mg  Mg22      1.0  0.14284  0.44576  0.32096  1.0000
  C  Sn45      1.0  0.58977  0.94708  0.41806  1.0000
  C   C139      1.0  0.54758  0.98606  0.38770  1.0000
  C  Sn46      1.0  0.53619  0.03868  0.45975  1.0000
  C  Sn47      1.0  0.58025  0.05266  0.56426  1.0000
  C   C140      1.0  0.62242  0.01370  0.59456  1.0000
  C  Sn48      1.0  0.63383  0.96106  0.52257  1.0000
  O  Te45      1.0  0.58799  0.89473  0.34472  1.0000
  O  Te46      1.0  0.49353  0.07694  0.42760  1.0000
  O  Te47      1.0  0.58200  0.10506  0.63762  1.0000
  O  Te48      1.0  0.67647  0.92281  0.55466  1.0000
  Mg  Mg23      1.0  0.51438  0.14293  0.55619  1.0000
  Mg  Mg24      1.0  0.65568  0.85683  0.42608  1.0000
  C  Sn49      1.0  0.12381  0.45034  0.96017  1.0000
  C   C141      1.0  0.13827  0.49310  0.06485  1.0000
  C  Sn50      1.0  0.10561  0.54139  0.07710  1.0000
  C  Sn51      1.0  0.05747  0.54705  0.98284  1.0000
  C   C142      1.0  0.04269  0.50457  0.87826  1.0000
  C  Sn52      1.0  0.07533  0.45627  0.86591  1.0000
  O  Te49      1.0  0.15707  0.40242  0.94987  1.0000
  O  Te50      1.0  0.12126  0.58332  0.18256  1.0000
  O  Te51      1.0  0.02421  0.59502  0.99322  1.0000
  O  Te52      1.0  0.05971  0.41436  0.76055  1.0000
  Mg  Mg25      1.0  0.06244  0.64076  0.15422  1.0000
  Mg  Mg26      1.0  0.11847  0.35689  0.78884  1.0000
  C  Sn53      1.0  0.28320  0.53937  0.18468  1.0000
  C   C143      1.0  0.29485  0.48902  0.26135  1.0000
  C  Sn54      1.0  0.29404  0.43802  0.18097  1.0000
  C  Sn55      1.0  0.28136  0.43733  0.02058  1.0000
  C   C144      1.0  0.27006  0.48739  0.94398  1.0000
  C  Sn56      1.0  0.27051  0.53868  0.02428  1.0000
  O  Te53      1.0  0.28424  0.58986  0.26734  1.0000
  O  Te54      1.0  0.30581  0.38822  0.26014  1.0000
  O  Te55      1.0  0.28065  0.38651  0.93794  1.0000
  O  Te56      1.0  0.25909  0.58819  0.94519  1.0000
  Mg  Mg27      1.0  0.29923  0.33005  0.09697  1.0000
  Mg  Mg28      1.0  0.26536  0.64665  0.10822  1.0000
  C  Sn57      1.0  0.60567  0.44413  0.74445  1.0000
  C   C145      1.0  0.61731  0.48707  0.63815  1.0000
  C  Sn58      1.0  0.59933  0.54188  0.66618  1.0000
  C  Sn59      1.0  0.56912  0.55405  0.80337  1.0000
  C   C146      1.0  0.55751  0.51113  0.90960  1.0000
  C  Sn60      1.0  0.57546  0.45629  0.88165  1.0000
  O  Te57      1.0  0.62406  0.38963  0.71406  1.0000
  O  Te58      1.0  0.61145  0.58411  0.55817  1.0000
  O  Te59      1.0  0.55074  0.60860  0.83370  1.0000
  O  Te60      1.0  0.56336  0.41409  0.98958  1.0000
  Mg  Mg29      1.0  0.57752  0.65177  0.65155  1.0000
  Mg  Mg30      1.0  0.59730  0.34643  0.89636  1.0000
  C  Sn61      1.0  0.19994  0.55888  0.73429  1.0000
  C   C147      1.0  0.21740  0.50928  0.80579  1.0000
  C  Sn62      1.0  0.22753  0.46114  0.71788  1.0000
  C  Sn63      1.0  0.22009  0.46262  0.55508  1.0000
  C   C148      1.0  0.20264  0.51220  0.48366  1.0000
  C  Sn64      1.0  0.19250  0.56036  0.57149  1.0000
  O  Te61      1.0  0.19006  0.60651  0.82445  1.0000
  O  Te62      1.0  0.24494  0.41203  0.79198  1.0000
  O  Te63      1.0  0.22998  0.41494  0.46493  1.0000
  O  Te64      1.0  0.17511  0.60945  0.49747  1.0000
  Mg  Mg31      1.0  0.25311  0.35808  0.61919  1.0000
  Mg  Mg32      1.0  0.16695  0.66343  0.67013  1.0000
