data_image0
_chemical_formula_structural       C54N16C82H96C6Sn2C2HTe2HMgC2Sn2C2HTe2HMgC2Sn2C2HTe2HMgC2Sn2C2HTe2HMgC2Sn2C2HTe2HMgC2Sn2C2HTe2HMgC2Sn2C2HTe2HMgC2Sn2C2HTe2HMgC2Sn2C2HTe2HMgC2Sn2C2HTe2HMgC2Sn2C2HTe2HMgC2Sn2C2HTe2HMgC2Sn2C2HTe2HMgC2Sn2C2HTe2HMgC2Sn2C2HTe2HMgC2Sn2C2HTe2HMgC2Sn2C2HTe2HMgC2Sn2C2HTe2HMgC2Sn2C2HTe2HMgC2Sn2C2HTe2HMg
_chemical_formula_sum              "C220 N16 H136 Sn40 Te40 Mg20"
_cell_length_a       27.0456
_cell_length_b       26.9706
_cell_length_c       8.53838
_cell_angle_alpha    90.0437
_cell_angle_beta     90.3297
_cell_angle_gamma    90.5774

_symmetry_space_group_name_H-M    'P1'
_space_group_IT_number       1

loop_
  _space_group_symop_operation_xyz
  'x, y, z'

loop_
  _atom_site_type_symbol
  _atom_site_label
  _atom_site_symmetry_multiplicity
  _atom_site_fract_x
  _atom_site_fract_y
  _atom_site_fract_z
  _atom_site_occupancy
  C   C1        1.0  0.51784  0.66627  0.74034  1.0000
  C   C2        1.0  0.97878  0.83253  0.24416  1.0000
  C   C3        1.0  0.33495  0.02082  0.99688  1.0000
  C   C4        1.0  0.48043  0.83765  0.50799  1.0000
  C   C5        1.0  0.01589  0.66230  0.00756  1.0000
  C   C6        1.0  0.83573  0.01564  0.75837  1.0000
  C   C7        1.0  0.66592  0.98237  0.99125  1.0000
  C   C8        1.0  0.16370  0.98090  0.76095  1.0000
  C   C9        1.0  0.33478  0.51941  0.25870  1.0000
  C   C10       1.0  0.55945  0.67907  0.64919  1.0000
  C   C11       1.0  0.93659  0.82178  0.15151  1.0000
  C   C12       1.0  0.32119  0.06262  0.90792  1.0000
  C   C13       1.0  0.43808  0.82496  0.59574  1.0000
  C   C14       1.0  0.05743  0.67214  0.10387  1.0000
  C   C15       1.0  0.82431  0.05798  0.84784  1.0000
  C   C16       1.0  0.67827  0.94010  0.90296  1.0000
  C   C17       1.0  0.17699  0.93894  0.84989  1.0000
  C   C18       1.0  0.32984  0.56102  0.35773  1.0000
  C   C19       1.0  0.55412  0.70002  0.50198  1.0000
  C   C20       1.0  0.94056  0.80185  0.00233  1.0000
  C   C21       1.0  0.30071  0.05760  0.75944  1.0000
  C   C22       1.0  0.44198  0.80465  0.74446  1.0000
  C   C23       1.0  0.05247  0.69262  0.25173  1.0000
  C   C24       1.0  0.80392  0.05402  0.99583  1.0000
  C   C25       1.0  0.69849  0.94426  0.75476  1.0000
  C   C26       1.0  0.19835  0.94373  0.99713  1.0000
  C   C27       1.0  0.31043  0.55682  0.50709  1.0000
  C   C28       1.0  0.50703  0.70850  0.43487  1.0000
  C   C29       1.0  0.98707  0.79203  0.93468  1.0000
  C   C30       1.0  0.29392  0.01058  0.68859  1.0000
  C   C31       1.0  0.48847  0.79680  0.81628  1.0000
  C   C32       1.0  0.00560  0.70405  0.31420  1.0000
  C   C33       1.0  0.79483  0.00737  0.06597  1.0000
  C   C34       1.0  0.70659  0.99098  0.68391  1.0000
  C   C35       1.0  0.20642  0.99069  0.06692  1.0000
  C   C36       1.0  0.29444  0.51066  0.56776  1.0000
  C   C37       1.0  0.46563  0.69506  0.52609  1.0000
  C   C38       1.0  0.02909  0.80327  0.02772  1.0000
  C   C39       1.0  0.30814  0.96897  0.77793  1.0000
  C   C40       1.0  0.53064  0.80994  0.72818  1.0000
  C   C41       1.0  0.96415  0.69321  0.21812  1.0000
  C   C42       1.0  0.80698  0.96513  0.97665  1.0000
  C   C43       1.0  0.69325  0.03313  0.77174  1.0000
  C   C44       1.0  0.19214  0.03246  0.97843  1.0000
  C   C45       1.0  0.30015  0.46907  0.46875  1.0000
  C   C46       1.0  0.47068  0.67445  0.67394  1.0000
  C   C47       1.0  0.02532  0.82289  0.17714  1.0000
  C   C48       1.0  0.32787  0.97370  0.92757  1.0000
  C   C49       1.0  0.52694  0.82958  0.57873  1.0000
  C   C50       1.0  0.96891  0.67295  0.06977  1.0000
  C   C51       1.0  0.82663  0.96887  0.82740  1.0000
  C   C52       1.0  0.67367  0.02916  0.92099  1.0000
  C   C53       1.0  0.17156  0.02793  0.82989  1.0000
  C   C54       1.0  0.31986  0.47301  0.31981  1.0000
  N   N1        1.0  0.52616  0.64310  0.88326  1.0000
  N   N2        1.0  0.97113  0.85499  0.38882  1.0000
  N   N3        1.0  0.35816  0.02948  0.14030  1.0000
  N   N4        1.0  0.14244  0.47445  0.63774  1.0000
  N   N5        1.0  0.47295  0.86053  0.36391  1.0000
  N   N6        1.0  0.02452  0.63924  0.86491  1.0000
  N   N7        1.0  0.63904  0.47593  0.11435  1.0000
  N   N8        1.0  0.85840  0.02386  0.61477  1.0000
  N   N9        1.0  0.02664  0.14132  0.38923  1.0000
  N   N10       1.0  0.47424  0.35795  0.88876  1.0000
  N   N11       1.0  0.85884  0.52390  0.63297  1.0000
  N   N12       1.0  0.64347  0.97424  0.13516  1.0000
  N   N13       1.0  0.97493  0.35648  0.86412  1.0000
  N   N14       1.0  0.53217  0.14610  0.36099  1.0000
  N   N15       1.0  0.14057  0.97247  0.61742  1.0000
  N   N16       1.0  0.35731  0.52768  0.11480  1.0000
  C   C55       1.0  0.03698  0.75231  0.72158  1.0000
  C   C56       1.0  0.95528  0.74469  0.52603  1.0000
  C   C57       1.0  0.75025  0.54171  0.77207  1.0000
  C   C58       1.0  0.74781  0.46104  0.97341  1.0000
  C   C59       1.0  0.99161  0.77046  0.77740  1.0000
  C   C60       1.0  0.00060  0.72620  0.47059  1.0000
  C   C61       1.0  0.72717  0.49759  0.71941  1.0000
  C   C62       1.0  0.77094  0.50510  0.02612  1.0000
  C   C63       1.0  0.95105  0.76616  0.67329  1.0000
  C   C64       1.0  0.04120  0.73077  0.57451  1.0000
  C   C65       1.0  0.72632  0.45756  0.82568  1.0000
  C   C66       1.0  0.77184  0.54517  0.91980  1.0000
  C   C67       1.0  0.49264  0.64389  0.99140  1.0000
  C   C68       1.0  0.00617  0.85704  0.49319  1.0000
  C   C69       1.0  0.35894  0.99527  0.24684  1.0000
  C   C70       1.0  0.14111  0.50863  0.74480  1.0000
  C   C71       1.0  0.50838  0.86270  0.26219  1.0000
  C   C72       1.0  0.99117  0.63911  0.75504  1.0000
  C   C73       1.0  0.63974  0.50960  0.00594  1.0000
  C   C74       1.0  0.86009  0.98910  0.51003  1.0000
  C   C75       1.0  0.99153  0.13873  0.49205  1.0000
  C   C76       1.0  0.50770  0.35987  0.99816  1.0000
  C   C77       1.0  0.85833  0.48981  0.73992  1.0000
  C   C78       1.0  0.64176  0.00928  0.23879  1.0000
  C   C79       1.0  0.00776  0.35603  0.75390  1.0000
  C   C80       1.0  0.49604  0.13931  0.26246  1.0000
  C   C81       1.0  0.14075  0.00641  0.50984  1.0000
  C   C82       1.0  0.35812  0.49354  0.00754  1.0000
  C   C83       1.0  0.38924  0.99968  0.38678  1.0000
  C   C84       1.0  0.50469  0.89206  0.12078  1.0000
  C   C85       1.0  0.60908  0.50513  0.86690  1.0000
  C   C86       1.0  0.88922  0.99425  0.36901  1.0000
  C   C87       1.0  0.88825  0.49431  0.88069  1.0000
  C   C88       1.0  0.61244  0.00456  0.37941  1.0000
  C   C89       1.0  0.00259  0.38593  0.61407  1.0000
  C   C90       1.0  0.50090  0.11115  0.11911  1.0000
  C   C91       1.0  0.11101  0.00169  0.36874  1.0000
  C   C92       1.0  0.39657  0.95763  0.48043  1.0000
  C   C93       1.0  0.54638  0.89851  0.02544  1.0000
  C   C94       1.0  0.60589  0.54506  0.76237  1.0000
  C   C95       1.0  0.89498  0.95315  0.27025  1.0000
  C   C96       1.0  0.89300  0.45374  0.98215  1.0000
  C   C97       1.0  0.60497  0.04662  0.47270  1.0000
  C   C98       1.0  0.04224  0.38997  0.50937  1.0000
  C   C99       1.0  0.45831  0.10205  0.02820  1.0000
  C   C100      1.0  0.10649  0.04220  0.26686  1.0000
  C   C101      1.0  0.43086  0.95839  0.60277  1.0000
  C   C102      1.0  0.54547  0.93105  0.89862  1.0000
  C   C103      1.0  0.57202  0.54411  0.63858  1.0000
  C   C104      1.0  0.92789  0.95479  0.14529  1.0000
  C   C105      1.0  0.92661  0.45519  0.10669  1.0000
  C   C106      1.0  0.57199  0.04523  0.59717  1.0000
  C   C107      1.0  0.04102  0.42352  0.38524  1.0000
  C   C108      1.0  0.45930  0.06975  0.90129  1.0000
  C   C109      1.0  0.07288  0.04099  0.14235  1.0000
  C   C110      1.0  0.45800  0.00152  0.63602  1.0000
  C   C111      1.0  0.50262  0.95745  0.86300  1.0000
  C   C112      1.0  0.54143  0.50276  0.61462  1.0000
  C   C113      1.0  0.95535  0.99783  0.11443  1.0000
  C   C114      1.0  0.95577  0.49743  0.13362  1.0000
  C   C115      1.0  0.54623  0.00157  0.63326  1.0000
  C   C116      1.0  0.99966  0.45325  0.36116  1.0000
  C   C117      1.0  0.50301  0.04555  0.86195  1.0000
  C   C118      1.0  0.04377  0.99872  0.11479  1.0000
  C   C119      1.0  0.44882  0.04460  0.54720  1.0000
  C   C120      1.0  0.46013  0.94940  0.95515  1.0000
  C   C121      1.0  0.54601  0.46175  0.71630  1.0000
  C   C122      1.0  0.94783  0.03996  0.20930  1.0000
  C   C123      1.0  0.94938  0.53901  0.03560  1.0000
  C   C124      1.0  0.55501  0.95878  0.54294  1.0000
  C   C125      1.0  0.95866  0.44730  0.46145  1.0000
  C   C126      1.0  0.54625  0.05619  0.94895  1.0000
  C   C127      1.0  0.05026  0.95701  0.21227  1.0000
  C   C128      1.0  0.41507  0.04379  0.42477  1.0000
  C   C129      1.0  0.46099  0.91740  0.08165  1.0000
  C   C130      1.0  0.57903  0.46285  0.84047  1.0000
  C   C131      1.0  0.91539  0.03836  0.33415  1.0000
  C   C132      1.0  0.91613  0.53772  0.91196  1.0000
  C   C133      1.0  0.58754  0.96010  0.41830  1.0000
  C   C134      1.0  0.96001  0.41447  0.58565  1.0000
  C   C135      1.0  0.54553  0.08878  0.07441  1.0000
  C   C136      1.0  0.08303  0.95836  0.33712  1.0000
  H   H1        1.0  0.59601  0.67250  0.69848  1.0000
  H   H2        1.0  0.90051  0.82962  0.20106  1.0000
  H   H3        1.0  0.32672  0.09908  0.96030  1.0000
  H   H4        1.0  0.40208  0.83134  0.54222  1.0000
  H   H5        1.0  0.09368  0.66283  0.05837  1.0000
  H   H6        1.0  0.83181  0.09412  0.79614  1.0000
  H   H7        1.0  0.67159  0.90398  0.95576  1.0000
  H   H8        1.0  0.17031  0.90261  0.79804  1.0000
  H   H9        1.0  0.34206  0.59684  0.31302  1.0000
  H   H10       1.0  0.58714  0.71049  0.43754  1.0000
  H   H11       1.0  0.90684  0.79360  0.93705  1.0000
  H   H12       1.0  0.28930  0.09072  0.69700  1.0000
  H   H13       1.0  0.40837  0.79428  0.80620  1.0000
  H   H14       1.0  0.08571  0.69987  0.32041  1.0000
  H   H15       1.0  0.79444  0.08778  0.05797  1.0000
  H   H16       1.0  0.70878  0.91064  0.69322  1.0000
  H   H17       1.0  0.20947  0.91041  0.05907  1.0000
  H   H18       1.0  0.30789  0.59006  0.57850  1.0000
  H   H19       1.0  0.42866  0.69952  0.47798  1.0000
  H   H20       1.0  0.06579  0.79736  0.98067  1.0000
  H   H21       1.0  0.30484  0.93213  0.72703  1.0000
  H   H22       1.0  0.56718  0.80566  0.77952  1.0000
  H   H23       1.0  0.92718  0.69978  0.26217  1.0000
  H   H24       1.0  0.80190  0.92845  0.02703  1.0000
  H   H25       1.0  0.69732  0.06977  0.72023  1.0000
  H   H26       1.0  0.19608  0.06925  0.02925  1.0000
  H   H27       1.0  0.28889  0.43254  0.50935  1.0000
  H   H28       1.0  0.43785  0.66273  0.73758  1.0000
  H   H29       1.0  0.05896  0.83213  0.24167  1.0000
  H   H30       1.0  0.33950  0.94065  0.99022  1.0000
  H   H31       1.0  0.56054  0.84036  0.51758  1.0000
  H   H32       1.0  0.93580  0.66380  0.00241  1.0000
  H   H33       1.0  0.83649  0.93517  0.76529  1.0000
  H   H34       1.0  0.66280  0.06266  0.98222  1.0000
  H   H35       1.0  0.15969  0.06109  0.76832  1.0000
  H   H36       1.0  0.32422  0.43960  0.25007  1.0000
  H   H37       1.0  0.06949  0.75327  0.79695  1.0000
  H   H38       1.0  0.92281  0.74375  0.45053  1.0000
  H   H39       1.0  0.75378  0.57291  0.69230  1.0000
  H   H40       1.0  0.74449  0.42968  0.05262  1.0000
  H   H41       1.0  0.91536  0.78087  0.70681  1.0000
  H   H42       1.0  0.07696  0.71612  0.54153  1.0000
  H   H43       1.0  0.70687  0.42352  0.79392  1.0000
  H   H44       1.0  0.79142  0.57918  0.95129  1.0000
  H   H45       1.0  0.45892  0.66611  0.97991  1.0000
  H   H46       1.0  0.04168  0.83817  0.47758  1.0000
  H   H47       1.0  0.33805  0.96028  0.23412  1.0000
  H   H48       1.0  0.16057  0.54440  0.73305  1.0000
  H   H49       1.0  0.54359  0.84338  0.27969  1.0000
  H   H50       1.0  0.95688  0.66044  0.76401  1.0000
  H   H51       1.0  0.66243  0.54359  0.01573  1.0000
  H   H52       1.0  0.84071  0.95332  0.52394  1.0000
  H   H53       1.0  0.95572  0.15695  0.47539  1.0000
  H   H54       1.0  0.54340  0.34105  0.98847  1.0000
  H   H55       1.0  0.83616  0.45561  0.72767  1.0000
  H   H56       1.0  0.66112  0.04500  0.22348  1.0000
  H   H57       1.0  0.04184  0.33435  0.76302  1.0000
  H   H58       1.0  0.45846  0.15240  0.28541  1.0000
  H   H59       1.0  0.16246  0.04092  0.52209  1.0000
  H   H60       1.0  0.33842  0.45796  0.01985  1.0000
  H   H61       1.0  0.37717  0.92325  0.45147  1.0000
  H   H62       1.0  0.58055  0.87969  0.05588  1.0000
  H   H63       1.0  0.62850  0.57807  0.78307  1.0000
  H   H64       1.0  0.87528  0.91879  0.29654  1.0000
  H   H65       1.0  0.87182  0.41997  0.95865  1.0000
  H   H66       1.0  0.62313  0.08143  0.44188  1.0000
  H   H67       1.0  0.07534  0.36830  0.53054  1.0000
  H   H68       1.0  0.42344  0.11853  0.06258  1.0000
  H   H69       1.0  0.12801  0.07578  0.28993  1.0000
  H   H70       1.0  0.43776  0.92469  0.66875  1.0000
  H   H71       1.0  0.57885  0.93710  0.83073  1.0000
  H   H72       1.0  0.56824  0.57640  0.56370  1.0000
  H   H73       1.0  0.93357  0.92169  0.07541  1.0000
  H   H74       1.0  0.93145  0.42263  0.17971  1.0000
  H   H75       1.0  0.56485  0.07883  0.66311  1.0000
  H   H76       1.0  0.07320  0.42771  0.31067  1.0000
  H   H77       1.0  0.42536  0.06166  0.83709  1.0000
  H   H78       1.0  0.06823  0.07374  0.06992  1.0000
  H   H79       1.0  0.46983  0.07833  0.57221  1.0000
  H   H80       1.0  0.42687  0.97024  0.92944  1.0000
  H   H81       1.0  0.52160  0.42983  0.70060  1.0000
  H   H82       1.0  0.96945  0.07344  0.18760  1.0000
  H   H83       1.0  0.97251  0.57169  0.05431  1.0000
  H   H84       1.0  0.53439  0.92492  0.56803  1.0000
  H   H85       1.0  0.92656  0.47072  0.44464  1.0000
  H   H86       1.0  0.58006  0.03678  0.92036  1.0000
  H   H87       1.0  0.02745  0.92414  0.19255  1.0000
  H   H88       1.0  0.40933  0.07629  0.35192  1.0000
  H   H89       1.0  0.42907  0.91267  0.15736  1.0000
  H   H90       1.0  0.58110  0.43248  0.92397  1.0000
  H   H91       1.0  0.91116  0.07000  0.41179  1.0000
  H   H92       1.0  0.91227  0.56891  0.83231  1.0000
  H   H93       1.0  0.59304  0.92790  0.34383  1.0000
  H   H94       1.0  0.92952  0.41180  0.66770  1.0000
  H   H95       1.0  0.57840  0.09574  0.14536  1.0000
  H   H96       1.0  0.08634  0.92719  0.41703  1.0000
  C   C137      1.0  0.49756  0.50285  0.49921  1.0000
  C   C138      1.0  0.99940  0.99818  0.00094  1.0000
  C   C139      1.0  0.50267  0.00140  0.74805  1.0000
  C   C140      1.0  0.99990  0.49777  0.24830  1.0000
  C   C141      1.0  0.46895  0.18419  0.60239  1.0000
  C   C142      1.0  0.51123  0.17207  0.51782  1.0000
  C  Sn1       1.0  0.55784  0.17475  0.58896  1.0000
  C  Sn2       1.0  0.56206  0.18985  0.74774  1.0000
  C   C143      1.0  0.51953  0.20186  0.83137  1.0000
  C   C144      1.0  0.47308  0.19906  0.75902  1.0000
  H   H97       1.0  0.43300  0.18200  0.54645  1.0000
  O  Te1       1.0  0.59971  0.16253  0.50275  1.0000
  O  Te2       1.0  0.60818  0.19283  0.82174  1.0000
  H   H98       1.0  0.44034  0.20841  0.82456  1.0000
  Mg  Mg1       1.0  0.65440  0.17240  0.65524  1.0000
  C   C145      1.0  0.23570  0.94921  0.36537  1.0000
  C   C146      1.0  0.22722  0.98528  0.25120  1.0000
  C  Sn3       1.0  0.23489  0.03367  0.27257  1.0000
  C  Sn4       1.0  0.26159  0.04606  0.41091  1.0000
  C   C147      1.0  0.26992  0.00969  0.52437  1.0000
  C   C148      1.0  0.26206  0.96139  0.50182  1.0000
  H   H99       1.0  0.22187  0.91183  0.34789  1.0000
  O  Te3       1.0  0.22607  0.06926  0.15735  1.0000
  O  Te4       1.0  0.27973  0.09413  0.43523  1.0000
  H   H100      1.0  0.26866  0.93346  0.59019  1.0000
  Mg  Mg2       1.0  0.25823  0.12967  0.24419  1.0000
  C   C149      1.0  0.81136  0.46023  0.30462  1.0000
  C   C150      1.0  0.79287  0.49772  0.20849  1.0000
  C  Sn5       1.0  0.79785  0.54740  0.25288  1.0000
  C  Sn6       1.0  0.82182  0.55966  0.39621  1.0000
  C   C151      1.0  0.84022  0.52188  0.49150  1.0000
  C   C152      1.0  0.83502  0.47229  0.44598  1.0000
  H   H101      1.0  0.80736  0.42186  0.26937  1.0000
  O  Te5       1.0  0.77915  0.58439  0.15547  1.0000
  O  Te6       1.0  0.82732  0.60901  0.44338  1.0000
  H   H102      1.0  0.84937  0.44327  0.52039  1.0000
  Mg  Mg3       1.0  0.79565  0.64621  0.27064  1.0000
  C   C153      1.0  0.04154  0.30363  0.17727  1.0000
  C   C154      1.0  0.00594  0.29618  0.29311  1.0000
  C  Sn7       1.0  0.95631  0.30656  0.26255  1.0000
  C  Sn8       1.0  0.94216  0.32472  0.11312  1.0000
  C   C155      1.0  0.97987  0.33227  0.99798  1.0000
  C   C156      1.0  0.02762  0.32152  0.02983  1.0000
  H   H103      1.0  0.07989  0.29549  0.20187  1.0000
  O  Te7       1.0  0.92122  0.29893  0.37963  1.0000
  O  Te8       1.0  0.89281  0.33537  0.07941  1.0000
  H   H104      1.0  0.05698  0.32752  0.94008  1.0000
  Mg  Mg4       1.0  0.85860  0.31890  0.27734  1.0000
  C   C157      1.0  0.55700  0.24558  0.10509  1.0000
  C   C158      1.0  0.52073  0.22650  0.00389  1.0000
  C  Sn9       1.0  0.47069  0.23126  0.04006  1.0000
  C  Sn10      1.0  0.45681  0.25560  0.18022  1.0000
  C   C159      1.0  0.49337  0.27459  0.28064  1.0000
  C   C160      1.0  0.54334  0.26961  0.24333  1.0000
  H   H105      1.0  0.59566  0.24175  0.07619  1.0000
  O  Te9       1.0  0.43675  0.21222  0.93767  1.0000
  O  Te10      1.0  0.40706  0.26089  0.21920  1.0000
  H   H106      1.0  0.57141  0.28441  0.32166  1.0000
  Mg  Mg5       1.0  0.37197  0.22839  0.04210  1.0000
  C   C161      1.0  0.54566  0.55713  0.24916  1.0000
  C   C162      1.0  0.51102  0.54984  0.36796  1.0000
  C  Sn11      1.0  0.46626  0.57525  0.36496  1.0000
  C  Sn12      1.0  0.45610  0.60854  0.24054  1.0000
  C   C163      1.0  0.49098  0.61554  0.12219  1.0000
  C   C164      1.0  0.53566  0.58994  0.12636  1.0000
  H   H107      1.0  0.58022  0.53730  0.25233  1.0000
  O  Te11      1.0  0.43207  0.56755  0.48463  1.0000
  O  Te12      1.0  0.41165  0.63440  0.23463  1.0000
  H   H108      1.0  0.56246  0.59556  0.03431  1.0000
  Mg  Mg6       1.0  0.37677  0.61140  0.42488  1.0000
  C   C165      1.0  0.95092  0.93973  0.75868  1.0000
  C   C166      1.0  0.98694  0.94976  0.87265  1.0000
  C  Sn13      1.0  0.03330  0.92757  0.86395  1.0000
  C  Sn14      1.0  0.04369  0.89476  0.73867  1.0000
  C   C167      1.0  0.00741  0.88500  0.62518  1.0000
  C   C168      1.0  0.96113  0.90739  0.63504  1.0000
  H   H109      1.0  0.91512  0.95707  0.76624  1.0000
  O  Te13      1.0  0.06887  0.93799  0.97884  1.0000
  O  Te14      1.0  0.08972  0.87210  0.72712  1.0000
  H   H110      1.0  0.93326  0.89964  0.54672  1.0000
  Mg  Mg7       1.0  0.12608  0.89800  0.91225  1.0000
  C   C169      1.0  0.74838  0.94981  0.31098  1.0000
  C   C170      1.0  0.76691  0.99151  0.23299  1.0000
  C  Sn15      1.0  0.75880  0.03749  0.30837  1.0000
  C  Sn16      1.0  0.74186  0.04169  0.46473  1.0000
  C   C171      1.0  0.73347  0.99974  0.54177  1.0000
  C   C172      1.0  0.73168  0.95391  0.46523  1.0000
  H   H111      1.0  0.74702  0.91435  0.25179  1.0000
  O  Te15      1.0  0.77741  0.07878  0.22872  1.0000
  O  Te16      1.0  0.74340  0.08719  0.54286  1.0000
  H   H112      1.0  0.71736  0.92163  0.52567  1.0000
  Mg  Mg8       1.0  0.77194  0.13275  0.38490  1.0000
  C   C173      1.0  0.43724  0.32697  0.60352  1.0000
  C   C174      1.0  0.47223  0.33178  0.72376  1.0000
  C  Sn17      1.0  0.52151  0.31926  0.69767  1.0000
  C  Sn18      1.0  0.53590  0.30162  0.54830  1.0000
  C   C175      1.0  0.50062  0.29698  0.42874  1.0000
  C   C176      1.0  0.45141  0.30960  0.45614  1.0000
  H   H113      1.0  0.39917  0.33676  0.62468  1.0000
  O  Te17      1.0  0.55599  0.32428  0.81912  1.0000
  O  Te18      1.0  0.58491  0.28886  0.51901  1.0000
  H   H114      1.0  0.42433  0.30590  0.36299  1.0000
  Mg  Mg9       1.0  0.61832  0.30211  0.72192  1.0000
  C   C177      1.0  0.95174  0.25711  0.60280  1.0000
  C   C178      1.0  0.98870  0.26993  0.49609  1.0000
  C  Sn19      1.0  0.03788  0.25755  0.52619  1.0000
  C  Sn20      1.0  0.05017  0.23184  0.66578  1.0000
  C   C179      1.0  0.01292  0.21915  0.77174  1.0000
  C   C180      1.0  0.96383  0.23174  0.74048  1.0000
  H   H115      1.0  0.91375  0.26683  0.57859  1.0000
  O  Te19      1.0  0.07435  0.27065  0.41835  1.0000
  O  Te20      1.0  0.09903  0.21899  0.69875  1.0000
  H   H116      1.0  0.93521  0.22179  0.82308  1.0000
  Mg  Mg10      1.0  0.13562  0.24498  0.51564  1.0000
  C   C181      1.0  0.95008  0.08057  0.83754  1.0000
  C   C182      1.0  0.98716  0.04724  0.87891  1.0000
  C  Sn21      1.0  0.03194  0.04719  0.79812  1.0000
  C  Sn22      1.0  0.03964  0.08119  0.67370  1.0000
  C   C183      1.0  0.00232  0.11441  0.63328  1.0000
  C   C184      1.0  0.95765  0.11413  0.71487  1.0000
  H   H117      1.0  0.91553  0.08038  0.90071  1.0000
  O  Te21      1.0  0.06858  0.01363  0.84094  1.0000
  O  Te22      1.0  0.08404  0.08196  0.59104  1.0000
  H   H118      1.0  0.92897  0.13997  0.68287  1.0000
  Mg  Mg11      1.0  0.12278  0.02898  0.69311  1.0000
  C   C185      1.0  0.18597  0.43859  0.27828  1.0000
  C   C186      1.0  0.19890  0.48139  0.19527  1.0000
  C  Sn23      1.0  0.19695  0.52781  0.26757  1.0000
  C  Sn24      1.0  0.18176  0.53134  0.42594  1.0000
  C   C187      1.0  0.16892  0.48830  0.50800  1.0000
  C   C188      1.0  0.17100  0.44203  0.43450  1.0000
  H   H119      1.0  0.18760  0.40279  0.22145  1.0000
  O  Te23      1.0  0.20998  0.57020  0.18292  1.0000
  O  Te24      1.0  0.17949  0.57726  0.50107  1.0000
  H   H120      1.0  0.16101  0.40890  0.49883  1.0000
  Mg  Mg12      1.0  0.20089  0.62437  0.33653  1.0000
  C   C189      1.0  0.95041  0.57982  0.40994  1.0000
  C   C190      1.0  0.98972  0.55062  0.36015  1.0000
  C  Sn25      1.0  0.03392  0.54993  0.44559  1.0000
  C  Sn26      1.0  0.03874  0.57905  0.58339  1.0000
  C   C191      1.0  0.99919  0.60812  0.63227  1.0000
  C   C192      1.0  0.95513  0.60855  0.54588  1.0000
  H   H121      1.0  0.91631  0.58013  0.34315  1.0000
  O  Te25      1.0  0.07283  0.52055  0.39416  1.0000
  O  Te26      1.0  0.08250  0.57904  0.67102  1.0000
  H   H122      1.0  0.92469  0.63114  0.58451  1.0000
  Mg  Mg13      1.0  0.12507  0.53296  0.55334  1.0000
  C   C193      1.0  0.96478  0.18167  0.14711  1.0000
  C   C194      1.0  0.00618  0.16415  0.22772  1.0000
  C  Sn27      1.0  0.05318  0.16845  0.16175  1.0000
  C  Sn28      1.0  0.05872  0.19072  0.01230  1.0000
  C   C195      1.0  0.01890  0.20842  0.93265  1.0000
  C   C196      1.0  0.97204  0.20392  0.99973  1.0000
  H   H123      1.0  0.92852  0.17821  0.19904  1.0000
  O  Te27      1.0  0.09415  0.15074  0.24386  1.0000
  O  Te28      1.0  0.10709  0.19576  0.94367  1.0000
  H   H124      1.0  0.93999  0.21751  0.93734  1.0000
  Mg  Mg14      1.0  0.14989  0.16569  0.10146  1.0000
  C   C197      1.0  0.25238  0.45237  0.81925  1.0000
  C   C198      1.0  0.26612  0.49459  0.73464  1.0000
  C  Sn29      1.0  0.26270  0.54156  0.80261  1.0000
  C  Sn30      1.0  0.24519  0.54622  0.95821  1.0000
  C   C199      1.0  0.22975  0.50349  0.04191  1.0000
  C   C200      1.0  0.23513  0.45693  0.97274  1.0000
  H   H125      1.0  0.25516  0.41614  0.76577  1.0000
  O  Te29      1.0  0.27656  0.58337  0.71640  1.0000
  O  Te30      1.0  0.23960  0.59246  0.02901  1.0000
  H   H126      1.0  0.22270  0.42398  0.03832  1.0000
  Mg  Mg15      1.0  0.26476  0.63867  0.86386  1.0000
  C   C201      1.0  0.54576  0.41781  0.34848  1.0000
  C   C202      1.0  0.50954  0.45284  0.38149  1.0000
  C  Sn31      1.0  0.46601  0.45418  0.29278  1.0000
  C  Sn32      1.0  0.45870  0.41977  0.16883  1.0000
  C   C203      1.0  0.49514  0.38484  0.13681  1.0000
  C   C204      1.0  0.53857  0.38384  0.22629  1.0000
  H   H127      1.0  0.57935  0.41701  0.41775  1.0000
  O  Te31      1.0  0.43021  0.48943  0.32729  1.0000
  O  Te32      1.0  0.41552  0.42028  0.07836  1.0000
  H   H128      1.0  0.56659  0.35669  0.20077  1.0000
  Mg  Mg16      1.0  0.37759  0.47537  0.17071  1.0000
  C   C205      1.0  0.69106  0.43807  0.46206  1.0000
  C   C206      1.0  0.70667  0.48066  0.54230  1.0000
  C  Sn33      1.0  0.69699  0.52760  0.48086  1.0000
  C  Sn34      1.0  0.67119  0.53184  0.33640  1.0000
  C   C207      1.0  0.65570  0.48901  0.25709  1.0000
  C   C208      1.0  0.66560  0.44223  0.31961  1.0000
  H   H129      1.0  0.69869  0.40187  0.51046  1.0000
  O  Te33      1.0  0.71286  0.56977  0.56252  1.0000
  O  Te34      1.0  0.66101  0.57829  0.27236  1.0000
  H   H130      1.0  0.65348  0.40926  0.25751  1.0000
  Mg  Mg17      1.0  0.69021  0.62485  0.42752  1.0000
  C   C209      1.0  0.05696  0.45211  0.99831  1.0000
  C   C210      1.0  0.04759  0.48601  0.11876  1.0000
  C  Sn35      1.0  0.07264  0.53156  0.11865  1.0000
  C  Sn36      1.0  0.10765  0.54330  0.99550  1.0000
  C   C211      1.0  0.11493  0.50888  0.87549  1.0000
  C   C212      1.0  0.08968  0.46340  0.87677  1.0000
  H   H131      1.0  0.03741  0.41692  0.99925  1.0000
  O  Te35      1.0  0.06467  0.56526  0.23992  1.0000
  O  Te36      1.0  0.13316  0.58856  0.99248  1.0000
  H   H132      1.0  0.09552  0.43697  0.78345  1.0000
  Mg  Mg18      1.0  0.10807  0.62206  0.18402  1.0000
  C   C213      1.0  0.39460  0.45390  0.72252  1.0000
  C   C214      1.0  0.38829  0.48782  0.84442  1.0000
  C  Sn37      1.0  0.41410  0.53295  0.84430  1.0000
  C  Sn38      1.0  0.44679  0.54425  0.71965  1.0000
  C   C215      1.0  0.45281  0.51008  0.59818  1.0000
  C   C216      1.0  0.42682  0.46502  0.59949  1.0000
  H   H133      1.0  0.37447  0.41904  0.72347  1.0000
  O  Te37      1.0  0.40738  0.56641  0.96705  1.0000
  O  Te38      1.0  0.47303  0.58910  0.71658  1.0000
  H   H134      1.0  0.43169  0.43878  0.50504  1.0000
  Mg  Mg19      1.0  0.45140  0.62265  0.91045  1.0000
  C   C217      1.0  0.44960  0.75870  0.19720  1.0000
  C   C218      1.0  0.48889  0.73245  0.26283  1.0000
  C  Sn39      1.0  0.53354  0.72851  0.18252  1.0000
  C  Sn40      1.0  0.53885  0.75132  0.03380  1.0000
  C   C219      1.0  0.50116  0.77779  0.96920  1.0000
  C   C220      1.0  0.45482  0.78122  0.05055  1.0000
  H   H135      1.0  0.41516  0.76158  0.26017  1.0000
  O  Te39      1.0  0.57241  0.70214  0.24975  1.0000
  O  Te40      1.0  0.58490  0.74824  0.95103  1.0000
  H   H136      1.0  0.42623  0.80183  0.99975  1.0000
  Mg  Mg20      1.0  0.62540  0.70801  0.09146  1.0000
