data_image0
_chemical_formula_structural       C60N16C52H80C6Sn2C2HTe2HMgC2Sn2C2HTe2HMgC2Sn2C2HTe2HMgC2Sn2C2HTe2HMgC2Sn2C2HTe2HMgC2Sn2C2HTe2HMgC2Sn2C2HTe2HMgC2Sn2C2HTe2HMgC2Sn2C2HTe2HMgC2Sn2C2HTe2HMgC2Sn2C2HTe2HMgC2Sn2C2HTe2HMgC2Sn2C2HTe2HMgC2Sn2C2HTe2HMgC2Sn2C2HTe2HMgC2Sn2C2HTe2HMg
_chemical_formula_sum              "C180 N16 H112 Sn32 Te32 Mg16"
_cell_length_a       23.7554
_cell_length_b       23.7556
_cell_length_c       8.64227
_cell_angle_alpha    89.9576
_cell_angle_beta     90.0525
_cell_angle_gamma    90.7067

_symmetry_space_group_name_H-M    'P1'
_space_group_IT_number       1

loop_
  _space_group_symop_operation_xyz
  'x, y, z'

loop_
  _atom_site_type_symbol
  _atom_site_label
  _atom_site_symmetry_multiplicity
  _atom_site_fract_x
  _atom_site_fract_y
  _atom_site_fract_z
  _atom_site_occupancy
  C   C1        1.0  0.81363  0.98062  0.74709  1.0000
  C   C2        1.0  0.48184  0.18253  0.49423  1.0000
  C   C3        1.0  0.19090  0.51711  0.49813  1.0000
  C   C4        1.0  0.31282  0.97906  0.99852  1.0000
  C   C5        1.0  0.51968  0.31308  0.74924  1.0000
  C   C6        1.0  0.31157  0.47867  0.25572  1.0000
  C   C7        1.0  0.18609  0.01822  0.74657  1.0000
  C   C8        1.0  0.68414  0.01722  0.00019  1.0000
  C   C9        1.0  0.81214  0.48298  0.50015  1.0000
  C   C10       1.0  0.47903  0.68420  0.75277  1.0000
  C   C11       1.0  0.79808  0.03414  0.69197  1.0000
  C   C12       1.0  0.53438  0.20595  0.45094  1.0000
  C   C13       1.0  0.20549  0.46334  0.55375  1.0000
  C   C14       1.0  0.29308  0.03211  0.04566  1.0000
  C   C15       1.0  0.46564  0.29938  0.80662  1.0000
  C   C16       1.0  0.30335  0.53302  0.19436  1.0000
  C   C17       1.0  0.20024  0.96400  0.69364  1.0000
  C   C18       1.0  0.70651  0.96476  0.04357  1.0000
  C   C19       1.0  0.79745  0.53671  0.55552  1.0000
  C   C20       1.0  0.53264  0.70200  0.80499  1.0000
  C   C21       1.0  0.77349  0.04048  0.54743  1.0000
  C   C22       1.0  0.54131  0.23237  0.30876  1.0000
  C   C23       1.0  0.22791  0.45642  0.70075  1.0000
  C   C24       1.0  0.26777  0.03879  0.18896  1.0000
  C   C25       1.0  0.45886  0.27504  0.95145  1.0000
  C   C26       1.0  0.27907  0.54034  0.04967  1.0000
  C   C27       1.0  0.22470  0.95652  0.54938  1.0000
  C   C28       1.0  0.73213  0.95770  0.18671  1.0000
  C   C29       1.0  0.77480  0.54360  0.70215  1.0000
  C   C30       1.0  0.53948  0.72625  0.94983  1.0000
  C   C31       1.0  0.76371  0.99441  0.44710  1.0000
  C   C32       1.0  0.49738  0.23523  0.19889  1.0000
  C   C33       1.0  0.23625  0.50206  0.80353  1.0000
  C   C34       1.0  0.26195  0.99402  0.29581  1.0000
  C   C35       1.0  0.50511  0.26291  0.04816  1.0000
  C   C36       1.0  0.26111  0.49432  0.95795  1.0000
  C   C37       1.0  0.23570  0.00203  0.44797  1.0000
  C   C38       1.0  0.73577  0.00164  0.29667  1.0000
  C   C39       1.0  0.76656  0.49784  0.80473  1.0000
  C   C40       1.0  0.49421  0.73310  0.05401  1.0000
  C   C41       1.0  0.78147  0.94123  0.50074  1.0000
  C   C42       1.0  0.44558  0.20959  0.24066  1.0000
  C   C43       1.0  0.22054  0.55562  0.74815  1.0000
  C   C44       1.0  0.28301  0.94134  0.24876  1.0000
  C   C45       1.0  0.55902  0.27783  0.99103  1.0000
  C   C46       1.0  0.26932  0.44009  0.02117  1.0000
  C   C47       1.0  0.22045  0.05601  0.50106  1.0000
  C   C48       1.0  0.71096  0.05326  0.25464  1.0000
  C   C49       1.0  0.78220  0.44428  0.74959  1.0000
  C   C50       1.0  0.44080  0.71391  0.00184  1.0000
  C   C51       1.0  0.80570  0.93453  0.64552  1.0000
  C   C52       1.0  0.43796  0.18440  0.38387  1.0000
  C   C53       1.0  0.19909  0.56297  0.60012  1.0000
  C   C54       1.0  0.30783  0.93421  0.10524  1.0000
  C   C55       1.0  0.56612  0.30259  0.84691  1.0000
  C   C56       1.0  0.29449  0.43232  0.16429  1.0000
  C   C57       1.0  0.19640  0.06384  0.64520  1.0000
  C   C58       1.0  0.68612  0.06082  0.11124  1.0000
  C   C59       1.0  0.80381  0.43711  0.60182  1.0000
  C   C60       1.0  0.43346  0.69043  0.85607  1.0000
  N   N1        1.0  0.84032  0.97088  0.88745  1.0000
  N   N2        1.0  0.66248  0.53164  0.39327  1.0000
  N   N3        1.0  0.03199  0.34027  0.14319  1.0000
  N   N4        1.0  0.47086  0.15368  0.63142  1.0000
  N   N5        1.0  0.16548  0.52862  0.35595  1.0000
  N   N6        1.0  0.34068  0.96805  0.86069  1.0000
  N   N7        1.0  0.97652  0.16152  0.10914  1.0000
  N   N8        1.0  0.52999  0.33998  0.60931  1.0000
  N   N9        1.0  0.33944  0.46777  0.39381  1.0000
  N   N10       1.0  0.15874  0.02987  0.88475  1.0000
  N   N11       1.0  0.53073  0.83950  0.64072  1.0000
  N   N12       1.0  0.97266  0.66801  0.15190  1.0000
  N   N13       1.0  0.65609  0.02827  0.86249  1.0000
  N   N14       1.0  0.83728  0.47133  0.35764  1.0000
  N   N15       1.0  0.46816  0.65701  0.61302  1.0000
  N   N16       1.0  0.02077  0.84331  0.10793  1.0000
  C   C61       1.0  0.83521  0.00594  0.00183  1.0000
  C   C62       1.0  0.66350  0.49521  0.50482  1.0000
  C   C63       1.0  0.99222  0.34314  0.24547  1.0000
  C   C64       1.0  0.50273  0.16085  0.75209  1.0000
  C   C65       1.0  0.16126  0.48975  0.25101  1.0000
  C   C66       1.0  0.33575  0.00137  0.74248  1.0000
  C   C67       1.0  0.01213  0.16379  0.99557  1.0000
  C   C68       1.0  0.49421  0.33573  0.49614  1.0000
  C   C69       1.0  0.33808  0.50417  0.50537  1.0000
  C   C70       1.0  0.16168  0.99524  0.00062  1.0000
  C   C71       1.0  0.49710  0.83342  0.75819  1.0000
  C   C72       1.0  0.01278  0.66534  0.25342  1.0000
  C   C73       1.0  0.66371  0.99709  0.74110  1.0000
  C   C74       1.0  0.84272  0.51086  0.25484  1.0000
  C   C75       1.0  0.50432  0.66030  0.50084  1.0000
  C   C76       1.0  0.98401  0.84234  0.99689  1.0000
  C   C77       1.0  0.62865  0.50030  0.64160  1.0000
  C   C78       1.0  0.12809  0.49658  0.11173  1.0000
  C   C79       1.0  0.49938  0.37082  0.35962  1.0000
  C   C80       1.0  0.37364  0.49923  0.64083  1.0000
  C   C81       1.0  0.50207  0.86907  0.89370  1.0000
  C   C82       1.0  0.49955  0.62562  0.36350  1.0000
  C   C83       1.0  0.59507  0.54784  0.66890  1.0000
  C   C84       1.0  0.10142  0.54751  0.07426  1.0000
  C   C85       1.0  0.54630  0.40696  0.33831  1.0000
  C   C86       1.0  0.40870  0.45238  0.66293  1.0000
  C   C87       1.0  0.54626  0.90902  0.90838  1.0000
  C   C88       1.0  0.45267  0.58984  0.33714  1.0000
  C   C89       1.0  0.55766  0.54805  0.79161  1.0000
  C   C90       1.0  0.06379  0.54965  0.95195  1.0000
  C   C91       1.0  0.54747  0.44458  0.21629  1.0000
  C   C92       1.0  0.44652  0.45162  0.78466  1.0000
  C   C93       1.0  0.54619  0.94708  0.02923  1.0000
  C   C94       1.0  0.45272  0.55256  0.21434  1.0000
  C   C95       1.0  0.55182  0.50098  0.89052  1.0000
  C   C96       1.0  0.05167  0.50151  0.86184  1.0000
  C   C97       1.0  0.50181  0.44832  0.11230  1.0000
  C   C98       1.0  0.45111  0.49742  0.88809  1.0000
  C   C99       1.0  0.50224  0.94705  0.13925  1.0000
  C   C100      1.0  0.49933  0.54910  0.11371  1.0000
  C   C101      1.0  0.58632  0.45458  0.86610  1.0000
  C   C102      1.0  0.08015  0.45174  0.89455  1.0000
  C   C103      1.0  0.45600  0.41144  0.13080  1.0000
  C   C104      1.0  0.41521  0.54298  0.86878  1.0000
  C   C105      1.0  0.45985  0.90599  0.12876  1.0000
  C   C106      1.0  0.54505  0.58567  0.13688  1.0000
  C   C107      1.0  0.62460  0.45454  0.74381  1.0000
  C   C108      1.0  0.11807  0.44945  0.01725  1.0000
  C   C109      1.0  0.45520  0.37253  0.25196  1.0000
  C   C110      1.0  0.37666  0.54374  0.74715  1.0000
  C   C111      1.0  0.45991  0.86722  0.00741  1.0000
  C   C112      1.0  0.54484  0.62385  0.25945  1.0000
  H   H1        1.0  0.80627  0.07114  0.76286  1.0000
  H   H2        1.0  0.57001  0.20348  0.52952  1.0000
  H   H3        1.0  0.19945  0.42636  0.48114  1.0000
  H   H4        1.0  0.29793  0.06842  0.96995  1.0000
  H   H5        1.0  0.42866  0.30959  0.73843  1.0000
  H   H6        1.0  0.31838  0.56955  0.25885  1.0000
  H   H7        1.0  0.19076  0.92734  0.76487  1.0000
  H   H8        1.0  0.70377  0.92933  0.96424  1.0000
  H   H9        1.0  0.80359  0.57370  0.48312  1.0000
  H   H10       1.0  0.56942  0.69652  0.73180  1.0000
  H   H11       1.0  0.76257  0.08266  0.51023  1.0000
  H   H12       1.0  0.58203  0.25136  0.28216  1.0000
  H   H13       1.0  0.23933  0.41423  0.73670  1.0000
  H   H14       1.0  0.25240  0.08022  0.21915  1.0000
  H   H15       1.0  0.41641  0.26655  0.99273  1.0000
  H   H16       1.0  0.27553  0.58296  0.00521  1.0000
  H   H17       1.0  0.23439  0.91395  0.51295  1.0000
  H   H18       1.0  0.74970  0.91683  0.21386  1.0000
  H   H19       1.0  0.76295  0.58574  0.73750  1.0000
  H   H20       1.0  0.58157  0.73988  0.98317  1.0000
  H   H21       1.0  0.77579  0.90427  0.42803  1.0000
  H   H22       1.0  0.41121  0.20790  0.15759  1.0000
  H   H23       1.0  0.22443  0.59212  0.82341  1.0000
  H   H24       1.0  0.28097  0.90557  0.32705  1.0000
  H   H25       1.0  0.59619  0.26920  0.06010  1.0000
  H   H26       1.0  0.25559  0.40315  0.95668  1.0000
  H   H27       1.0  0.22763  0.09269  0.42817  1.0000
  H   H28       1.0  0.70987  0.08770  0.33723  1.0000
  H   H29       1.0  0.77813  0.40773  0.82472  1.0000
  H   H30       1.0  0.40423  0.71701  0.07675  1.0000
  H   H31       1.0  0.81880  0.89319  0.68479  1.0000
  H   H32       1.0  0.39793  0.16479  0.41465  1.0000
  H   H33       1.0  0.18746  0.60461  0.55926  1.0000
  H   H34       1.0  0.32481  0.89381  0.07078  1.0000
  H   H35       1.0  0.60789  0.31392  0.80473  1.0000
  H   H36       1.0  0.30114  0.39022  0.20996  1.0000
  H   H37       1.0  0.18484  0.10559  0.68466  1.0000
  H   H38       1.0  0.66684  0.10057  0.08059  1.0000
  H   H39       1.0  0.81574  0.39564  0.56095  1.0000
  H   H40       1.0  0.39220  0.67580  0.81704  1.0000
  H   H41       1.0  0.80554  0.04109  0.99857  1.0000
  H   H42       1.0  0.69017  0.45774  0.49965  1.0000
  H   H43       1.0  0.95134  0.32174  0.22947  1.0000
  H   H44       1.0  0.53637  0.19294  0.75571  1.0000
  H   H45       1.0  0.18046  0.44818  0.26410  1.0000
  H   H46       1.0  0.30615  0.03656  0.74115  1.0000
  H   H47       1.0  0.04994  0.19083  0.99824  1.0000
  H   H48       1.0  0.45748  0.30706  0.49982  1.0000
  H   H49       1.0  0.31086  0.54126  0.50098  1.0000
  H   H50       1.0  0.18941  0.95853  0.99906  1.0000
  H   H51       1.0  0.46231  0.80244  0.75867  1.0000
  H   H52       1.0  0.05388  0.68632  0.23692  1.0000
  H   H53       1.0  0.69584  0.96426  0.73647  1.0000
  H   H54       1.0  0.82500  0.55295  0.27090  1.0000
  H   H55       1.0  0.54175  0.68793  0.50652  1.0000
  H   H56       1.0  0.94512  0.81700  0.00384  1.0000
  H   H57       1.0  0.59764  0.58292  0.58811  1.0000
  H   H58       1.0  0.10958  0.58405  0.14700  1.0000
  H   H59       1.0  0.58001  0.40604  0.42347  1.0000
  H   H60       1.0  0.40659  0.41834  0.57891  1.0000
  H   H61       1.0  0.57854  0.91071  0.81918  1.0000
  H   H62       1.0  0.41787  0.59071  0.41869  1.0000
  H   H63       1.0  0.53051  0.58402  0.80854  1.0000
  H   H64       1.0  0.04188  0.58858  0.92756  1.0000
  H   H65       1.0  0.58283  0.47371  0.20392  1.0000
  H   H66       1.0  0.47497  0.41643  0.79712  1.0000
  H   H67       1.0  0.57877  0.97957  0.03554  1.0000
  H   H68       1.0  0.41745  0.52356  0.19840  1.0000
  H   H69       1.0  0.58199  0.41750  0.93898  1.0000
  H   H70       1.0  0.07141  0.41412  0.82687  1.0000
  H   H71       1.0  0.41997  0.41405  0.05376  1.0000
  H   H72       1.0  0.41862  0.57889  0.94590  1.0000
  H   H73       1.0  0.42568  0.90542  0.21220  1.0000
  H   H74       1.0  0.58175  0.58322  0.06242  1.0000
  H   H75       1.0  0.64994  0.41752  0.72176  1.0000
  H   H76       1.0  0.13826  0.40984  0.04503  1.0000
  H   H77       1.0  0.41896  0.34463  0.26752  1.0000
  H   H78       1.0  0.35007  0.58021  0.73033  1.0000
  H   H79       1.0  0.42569  0.83659  0.99652  1.0000
  H   H80       1.0  0.58132  0.65104  0.27917  1.0000
  C   C113      1.0  0.99919  0.00281  0.49609  1.0000
  C   C114      1.0  0.50111  0.49898  0.00123  1.0000
  C   C115      1.0  0.00144  0.50270  0.74943  1.0000
  C   C116      1.0  0.49910  0.99779  0.24921  1.0000
  C   C117      1.0  0.05965  0.05618  0.24336  1.0000
  C   C118      1.0  0.04876  0.01568  0.35715  1.0000
  C  Sn1       1.0  0.09335  0.96697  0.36478  1.0000
  C  Sn2       1.0  0.13730  0.95879  0.25636  1.0000
  C   C119      1.0  0.14789  0.99958  0.14302  1.0000
  C   C120      1.0  0.10301  0.04816  0.13640  1.0000
  H   H81       1.0  0.03449  0.09379  0.23827  1.0000
  O  Te1       1.0  0.08189  0.92691  0.47918  1.0000
  O  Te2       1.0  0.17020  0.91050  0.26139  1.0000
  H   H82       1.0  0.11147  0.07953  0.04835  1.0000
  Mg  Mg1       1.0  0.13833  0.86804  0.43874  1.0000
  C   C121      1.0  0.37611  0.04433  0.45709  1.0000
  C   C122      1.0  0.36735  0.00465  0.57435  1.0000
  C  Sn3       1.0  0.41495  0.95825  0.58736  1.0000
  C  Sn4       1.0  0.45979  0.95157  0.48085  1.0000
  C   C123      1.0  0.46822  0.99152  0.36401  1.0000
  C   C124      1.0  0.42034  0.03779  0.35203  1.0000
  H   H83       1.0  0.34862  0.08015  0.44785  1.0000
  O  Te3       1.0  0.40559  0.91899  0.70517  1.0000
  O  Te4       1.0  0.49568  0.90560  0.49123  1.0000
  H   H84       1.0  0.42715  0.06852  0.26128  1.0000
  Mg  Mg2       1.0  0.46584  0.86342  0.67168  1.0000
  C   C125      1.0  0.05434  0.22570  0.40994  1.0000
  C   C126      1.0  0.01329  0.24356  0.51407  1.0000
  C  Sn5       1.0  0.95655  0.23066  0.48780  1.0000
  C  Sn6       1.0  0.94073  0.19929  0.35472  1.0000
  C   C127      1.0  0.98211  0.18158  0.25129  1.0000
  C   C128      1.0  0.03877  0.19473  0.27868  1.0000
  H   H85       1.0  0.09818  0.23585  0.43116  1.0000
  O  Te5       1.0  0.91608  0.24885  0.59299  1.0000
  O  Te6       1.0  0.88432  0.18580  0.32568  1.0000
  H   H86       1.0  0.07054  0.18087  0.19808  1.0000
  Mg  Mg3       1.0  0.84465  0.22003  0.50297  1.0000
  C   C129      1.0  0.93941  0.94904  0.24378  1.0000
  C   C130      1.0  0.95017  0.99012  0.35598  1.0000
  C  Sn7       1.0  0.90458  0.03813  0.36378  1.0000
  C  Sn8       1.0  0.85973  0.04501  0.25715  1.0000
  C   C131      1.0  0.84928  0.00365  0.14540  1.0000
  C   C132      1.0  0.89518  0.95578  0.13859  1.0000
  H   H87       1.0  0.96535  0.91199  0.23855  1.0000
  O  Te7       1.0  0.91592  0.07877  0.47657  1.0000
  O  Te8       1.0  0.82582  0.09257  0.26239  1.0000
  H   H88       1.0  0.88681  0.92396  0.05177  1.0000
  Mg  Mg4       1.0  0.85793  0.13626  0.43714  1.0000
  C   C133      1.0  0.07523  0.29219  0.87743  1.0000
  C   C134      1.0  0.03466  0.31569  0.97402  1.0000
  C  Sn9       1.0  0.97775  0.31307  0.93336  1.0000
  C  Sn10      1.0  0.96128  0.28638  0.79335  1.0000
  C   C135      1.0  0.00220  0.26297  0.69757  1.0000
  C   C136      1.0  0.05903  0.26584  0.73934  1.0000
  H   H89       1.0  0.11920  0.29439  0.90978  1.0000
  O  Te9       1.0  0.93744  0.33705  0.03118  1.0000
  O  Te10      1.0  0.90470  0.28315  0.74994  1.0000
  H   H90       1.0  0.09043  0.24761  0.66458  1.0000
  Mg  Mg5       1.0  0.86585  0.32172  0.92173  1.0000
  C   C137      1.0  0.71669  0.45264  0.08447  1.0000
  C   C138      1.0  0.73481  0.49289  0.97723  1.0000
  C  Sn11      1.0  0.73257  0.55033  0.01426  1.0000
  C  Sn12      1.0  0.71246  0.56715  0.16148  1.0000
  C   C139      1.0  0.69479  0.52629  0.26800  1.0000
  C   C140      1.0  0.69688  0.46919  0.22973  1.0000
  H   H91       1.0  0.71833  0.40846  0.05490  1.0000
  O  Te11      1.0  0.75081  0.58999  0.90573  1.0000
  O  Te12      1.0  0.71011  0.62401  0.20153  1.0000
  H   H92       1.0  0.68313  0.43783  0.31282  1.0000
  Mg  Mg6       1.0  0.73921  0.66263  0.01435  1.0000
  C   C141      1.0  0.06169  0.61567  0.51996  1.0000
  C   C142      1.0  0.02040  0.62907  0.41117  1.0000
  C  Sn13      1.0  0.96646  0.60532  0.42236  1.0000
  C  Sn14      1.0  0.95373  0.56749  0.54490  1.0000
  C   C143      1.0  0.99532  0.55438  0.65322  1.0000
  C   C144      1.0  0.04917  0.57837  0.64090  1.0000
  H   H93       1.0  0.10334  0.63425  0.51049  1.0000
  O  Te13      1.0  0.92571  0.61915  0.31265  1.0000
  O  Te14      1.0  0.90015  0.54317  0.55886  1.0000
  H   H94       1.0  0.08111  0.56801  0.72521  1.0000
  Mg  Mg7       1.0  0.85885  0.57513  0.38083  1.0000
  C   C145      1.0  0.45156  0.77341  0.34741  1.0000
  C   C146      1.0  0.49026  0.76385  0.22891  1.0000
  C  Sn15      1.0  0.54714  0.77743  0.24993  1.0000
  C  Sn16      1.0  0.56550  0.80101  0.39237  1.0000
  C   C147      1.0  0.52646  0.81037  0.51025  1.0000
  C   C148      1.0  0.46963  0.79664  0.48796  1.0000
  H   H95       1.0  0.40760  0.76276  0.33022  1.0000
  O  Te15      1.0  0.58525  0.76762  0.13031  1.0000
  O  Te16      1.0  0.62211  0.81496  0.41649  1.0000
  H   H96       1.0  0.43968  0.80402  0.57977  1.0000
  Mg  Mg8       1.0  0.65798  0.79367  0.21862  1.0000
  C   C149      1.0  0.55459  0.05123  0.50979  1.0000
  C   C150      1.0  0.55142  0.01590  0.38079  1.0000
  C  Sn17      1.0  0.60006  0.97034  0.36724  1.0000
  C  Sn18      1.0  0.64021  0.96006  0.48524  1.0000
  C   C151      1.0  0.64302  0.99563  0.61390  1.0000
  C   C152      1.0  0.59417  0.04111  0.62626  1.0000
  H   H97       1.0  0.52632  0.08640  0.51941  1.0000
  O  Te17      1.0  0.59634  0.93546  0.23756  1.0000
  O  Te18      1.0  0.67699  0.91481  0.47466  1.0000
  H   H98       1.0  0.59660  0.06844  0.72621  1.0000
  Mg  Mg9       1.0  0.65564  0.87921  0.27566  1.0000
  C   C153      1.0  0.05195  0.10295  0.64105  1.0000
  C   C154      1.0  0.01238  0.06018  0.61258  1.0000
  C  Sn19      1.0  0.96511  0.05413  0.70748  1.0000
  C  Sn20      1.0  0.95741  0.09167  0.83310  1.0000
  C   C155      1.0  0.99722  0.13435  0.86055  1.0000
  C   C156      1.0  0.04438  0.14001  0.76489  1.0000
  H   H99       1.0  0.08843  0.10736  0.56699  1.0000
  O  Te19      1.0  0.92600  0.01116  0.67744  1.0000
  O  Te20      1.0  0.91054  0.08659  0.92973  1.0000
  H   H100      1.0  0.07499  0.17316  0.78690  1.0000
  Mg  Mg10      1.0  0.86897  0.02131  0.84180  1.0000
  C   C157      1.0  0.89408  0.56065  0.99408  1.0000
  C   C158      1.0  0.87456  0.51666  0.08755  1.0000
  C  Sn21      1.0  0.89637  0.46271  0.06956  1.0000
  C  Sn22      1.0  0.93850  0.45275  0.95581  1.0000
  C   C159      1.0  0.95744  0.49731  0.86295  1.0000
  C   C160      1.0  0.93532  0.55113  0.88190  1.0000
  H   H101      1.0  0.87666  0.60256  0.00879  1.0000
  O  Te21      1.0  0.87672  0.41897  0.16389  1.0000
  O  Te22      1.0  0.96103  0.39925  0.93541  1.0000
  H   H102      1.0  0.95021  0.58539  0.80957  1.0000
  Mg  Mg11      1.0  0.92035  0.35348  0.09201  1.0000
  C   C161      1.0  0.54622  0.10050  0.10421  1.0000
  C   C162      1.0  0.50585  0.05942  0.14152  1.0000
  C  Sn23      1.0  0.45964  0.05003  0.04440  1.0000
  C  Sn24      1.0  0.45418  0.08217  0.90744  1.0000
  C   C163      1.0  0.49482  0.12314  0.87108  1.0000
  C   C164      1.0  0.54088  0.13219  0.96911  1.0000
  H   H103      1.0  0.58188  0.10749  0.18000  1.0000
  O  Te23      1.0  0.41969  0.00884  0.08345  1.0000
  O  Te24      1.0  0.40842  0.07364  0.80829  1.0000
  H   H104      1.0  0.57215  0.16398  0.94014  1.0000
  Mg  Mg12      1.0  0.36506  0.01261  0.91141  1.0000
  C   C165      1.0  0.05738  0.43470  0.51625  1.0000
  C   C166      1.0  0.01362  0.45319  0.61069  1.0000
  C  Sn25      1.0  0.95964  0.42980  0.59575  1.0000
  C  Sn26      1.0  0.94941  0.38711  0.48412  1.0000
  C   C167      1.0  0.99348  0.36888  0.39028  1.0000
  C   C168      1.0  0.04733  0.39258  0.40616  1.0000
  H   H105      1.0  0.09906  0.45301  0.52859  1.0000
  O  Te25      1.0  0.91640  0.44878  0.69099  1.0000
  O  Te26      1.0  0.89586  0.36300  0.46679  1.0000
  H   H106      1.0  0.08121  0.37823  0.33310  1.0000
  Mg  Mg13      1.0  0.85063  0.40296  0.62353  1.0000
  C   C169      1.0  0.94146  0.88549  0.71348  1.0000
  C   C170      1.0  0.98162  0.87290  0.82615  1.0000
  C  Sn27      1.0  0.03254  0.90289  0.83180  1.0000
  C  Sn28      1.0  0.04332  0.94629  0.72251  1.0000
  C   C171      1.0  0.00285  0.95860  0.61032  1.0000
  C   C172      1.0  0.95205  0.92831  0.60567  1.0000
  H   H107      1.0  0.90213  0.86208  0.70993  1.0000
  O  Te27      1.0  0.07222  0.88975  0.94510  1.0000
  O  Te28      1.0  0.09385  0.97695  0.72557  1.0000
  H   H108      1.0  0.92094  0.93809  0.51849  1.0000
  Mg  Mg14      1.0  0.13477  0.94338  0.90202  1.0000
  C   C173      1.0  0.92735  0.71390  0.88531  1.0000
  C   C174      1.0  0.96885  0.69197  0.98208  1.0000
  C  Sn29      1.0  0.02554  0.69568  0.93990  1.0000
  C  Sn30      1.0  0.04084  0.72185  0.79818  1.0000
  C   C175      1.0  0.99901  0.74370  0.70223  1.0000
  C   C176      1.0  0.94241  0.73975  0.74553  1.0000
  H   H109      1.0  0.88356  0.71088  0.91884  1.0000
  O  Te29      1.0  0.06612  0.67379  0.03791  1.0000
  O  Te30      1.0  0.09718  0.72614  0.75323  1.0000
  H   H110      1.0  0.91029  0.75676  0.67064  1.0000
  Mg  Mg15      1.0  0.13759  0.68958  0.92597  1.0000
  C   C177      1.0  0.94754  0.79474  0.33735  1.0000
  C   C178      1.0  0.99578  0.81635  0.26508  1.0000
  C  Sn31      1.0  0.04873  0.80888  0.33200  1.0000
  C  Sn32      1.0  0.05334  0.77921  0.47390  1.0000
  C   C179      1.0  0.00483  0.75772  0.54522  1.0000
  C   C180      1.0  0.95205  0.76544  0.47727  1.0000
  H   H111      1.0  0.90671  0.80069  0.28474  1.0000
  O  Te31      1.0  0.09649  0.83076  0.25828  1.0000
  O  Te32      1.0  0.10573  0.77112  0.54329  1.0000
  H   H112      1.0  0.91472  0.74868  0.53320  1.0000
  Mg  Mg16      1.0  0.15854  0.80886  0.39833  1.0000
