data_image0
_chemical_formula_structural       H12C18N16C2Sn2C2HTe2HMgC2Sn2C2HTe2HMgC2Sn2C2HTe2HMgC2Sn2C2HTe2HMgC2Sn2C2HTe2HMgC2Sn2C2HTe2HMgC2Sn2C2HTe2HMgC2Sn2C2HTe2HMgC2Sn2C2HTe2HMgC2Sn2C2HTe2HMgC2Sn2C2HTe2HMgC2Sn2C2HTe2HMgC2Sn2C2HTe2HMgC2Sn2C2HTe2HMgC2Sn2C2HTe2HMgC2Sn2C2HTe2HMgC2Sn2C2HTe2HMgC2Sn2C2HTe2HMgC2Sn2C2HTe2HMgC2Sn2C2HTe2HMgC2Sn2C2HTe2HMgC2Sn2C2HTe2HMgC2Sn2C2HTe2HMgC2Sn2C2HTe2HMg
_chemical_formula_sum              "H60 C114 N16 Sn48 Te48 Mg24"
_cell_length_a       17.9626
_cell_length_b       41.0204
_cell_length_c       42.0538
_cell_angle_alpha    118.806
_cell_angle_beta     89.676
_cell_angle_gamma    90.3793

_symmetry_space_group_name_H-M    'P1'
_space_group_IT_number       1

loop_
  _space_group_symop_operation_xyz
  'x, y, z'

loop_
  _atom_site_type_symbol
  _atom_site_label
  _atom_site_symmetry_multiplicity
  _atom_site_fract_x
  _atom_site_fract_y
  _atom_site_fract_z
  _atom_site_occupancy
  H   H1        1.0  0.45501  0.65350  0.14157  1.0000
  H   H2        1.0  0.45773  0.34288  0.86144  1.0000
  H   H3        1.0  0.80933  0.85239  0.36903  1.0000
  H   H4        1.0  0.79521  0.14846  0.61921  1.0000
  H   H5        1.0  0.20717  0.89043  0.34228  1.0000
  H   H6        1.0  0.21722  0.09862  0.65545  1.0000
  H   H7        1.0  0.42680  0.50216  0.84966  1.0000
  H   H8        1.0  0.45185  0.51055  0.15837  1.0000
  H   H9        1.0  0.71030  0.56429  0.63107  1.0000
  H   H10       1.0  0.71696  0.43072  0.36395  1.0000
  H   H11       1.0  0.15736  0.55166  0.66252  1.0000
  H   H12       1.0  0.15613  0.46203  0.34343  1.0000
  C   C1        1.0  0.55520  0.48271  0.00005  1.0000
  C   C2        1.0  0.55209  0.51569  0.99892  1.0000
  C   C3        1.0  0.50801  0.66901  0.14876  1.0000
  C   C4        1.0  0.51192  0.32917  0.85160  1.0000
  C   C5        1.0  0.76907  0.87116  0.36659  1.0000
  C   C6        1.0  0.76298  0.13052  0.62705  1.0000
  C   C7        1.0  0.24901  0.88439  0.35775  1.0000
  C   C8        1.0  0.25244  0.11018  0.64177  1.0000
  C   C9        1.0  0.47625  0.51632  0.84646  1.0000
  C   C10       1.0  0.48908  0.48860  0.15678  1.0000
  C   C11       1.0  0.70703  0.53956  0.63486  1.0000
  C   C12       1.0  0.71406  0.45610  0.36128  1.0000
  C   C13       1.0  0.20492  0.53430  0.64717  1.0000
  C   C14       1.0  0.20844  0.47406  0.35804  1.0000
  C   C15       1.0  0.04677  0.99942  0.50007  1.0000
  C   C16       1.0  0.97068  0.99967  0.49962  1.0000
  C   C17       1.0  0.00801  0.50044  0.50098  1.0000
  C   C18       1.0  0.93174  0.49944  0.49977  1.0000
  N   N1        1.0  0.56724  0.65544  0.12927  1.0000
  N   N2        1.0  0.57310  0.34462  0.86840  1.0000
  N   N3        1.0  0.77409  0.90707  0.38446  1.0000
  N   N4        1.0  0.77525  0.09534  0.61423  1.0000
  N   N5        1.0  0.24547  0.89651  0.39238  1.0000
  N   N6        1.0  0.24325  0.10293  0.60851  1.0000
  N   N7        1.0  0.53073  0.52799  0.86942  1.0000
  N   N8        1.0  0.53262  0.46964  0.12937  1.0000
  N   N9        1.0  0.74689  0.51029  0.61584  1.0000
  N   N10       1.0  0.75507  0.48496  0.38058  1.0000
  N   N11       1.0  0.20605  0.51355  0.61231  1.0000
  N   N12       1.0  0.21383  0.49029  0.39299  1.0000
  N   N13       1.0  0.46911  0.54218  0.72521  1.0000
  N   N14       1.0  0.47275  0.46134  0.27730  1.0000
  N   N15       1.0  0.50895  0.80484  0.28228  1.0000
  N   N16       1.0  0.50788  0.19504  0.71677  1.0000
  C   C19       1.0  0.21111  0.06270  0.53855  1.0000
  C   C20       1.0  0.20453  0.07873  0.57624  1.0000
  C  Sn1       1.0  0.14828  0.06707  0.59161  1.0000
  C  Sn2       1.0  0.09776  0.03881  0.56875  1.0000
  C   C21       1.0  0.10483  0.02293  0.53107  1.0000
  C   C22       1.0  0.16132  0.03482  0.51598  1.0000
  H   H13       1.0  0.25483  0.07188  0.52687  1.0000
  O  Te1       1.0  0.14249  0.08339  0.62931  1.0000
  O  Te2       1.0  0.04103  0.02662  0.58339  1.0000
  H   H14       1.0  0.16642  0.02238  0.48680  1.0000
  Mg  Mg1       1.0  0.05590  0.05738  0.63637  1.0000
  C   C23       1.0  0.16387  0.94611  0.47579  1.0000
  C   C24       1.0  0.10953  0.96890  0.47315  1.0000
  C  Sn3       1.0  0.09237  0.96590  0.43948  1.0000
  C  Sn4       1.0  0.13041  0.93957  0.40791  1.0000
  C   C25       1.0  0.18465  0.91688  0.41084  1.0000
  C   C26       1.0  0.20140  0.92012  0.44467  1.0000
  H   H15       1.0  0.17681  0.94859  0.50196  1.0000
  O  Te3       1.0  0.03794  0.98890  0.43732  1.0000
  O  Te4       1.0  0.11433  0.93599  0.37392  1.0000
  H   H16       1.0  0.24344  0.90245  0.44671  1.0000
  Mg  Mg2       1.0  0.03573  0.97358  0.38489  1.0000
  C   C27       1.0  0.84096  0.02660  0.56474  1.0000
  C   C28       1.0  0.84545  0.06525  0.58602  1.0000
  C  Sn5       1.0  0.89766  0.08551  0.57781  1.0000
  C  Sn6       1.0  0.94618  0.06665  0.54771  1.0000
  C   C29       1.0  0.94120  0.02798  0.52657  1.0000
  C   C30       1.0  0.88878  0.00798  0.53504  1.0000
  H   H17       1.0  0.80037  0.01113  0.57128  1.0000
  O  Te5       1.0  0.90141  0.12412  0.59937  1.0000
  O  Te6       1.0  0.99885  0.08622  0.53888  1.0000
  H   H18       1.0  0.88528  0.97806  0.51854  1.0000
  Mg  Mg3       1.0  0.98250  0.13852  0.57643  1.0000
  C   C31       1.0  0.90370  0.91222  0.42730  1.0000
  C   C32       1.0  0.84068  0.92153  0.41409  1.0000
  C  Sn7       1.0  0.82122  0.95879  0.42741  1.0000
  C  Sn8       1.0  0.86578  0.98720  0.45445  1.0000
  C   C33       1.0  0.92874  0.97760  0.46748  1.0000
  C   C34       1.0  0.94770  0.94023  0.45396  1.0000
  H   H19       1.0  0.91839  0.88330  0.41683  1.0000
  O  Te7       1.0  0.75807  0.96759  0.41392  1.0000
  O  Te8       1.0  0.84762  0.02466  0.46823  1.0000
  H   H20       1.0  0.99652  0.93303  0.46418  1.0000
  Mg  Mg4       1.0  0.75621  0.02266  0.44125  1.0000
  C   C35       1.0  0.13006  0.52725  0.47638  1.0000
  C   C36       1.0  0.06763  0.50536  0.47313  1.0000
  C  Sn9       1.0  0.05108  0.47414  0.43996  1.0000
  C  Sn10      1.0  0.09803  0.46472  0.40954  1.0000
  C   C37       1.0  0.16039  0.48679  0.41308  1.0000
  C   C38       1.0  0.17641  0.51798  0.44639  1.0000
  H   H21       1.0  0.14248  0.55138  0.50215  1.0000
  O  Te9       1.0  0.98847  0.45257  0.43719  1.0000
  O  Te10      1.0  0.08281  0.43366  0.37608  1.0000
  H   H22       1.0  0.22477  0.53491  0.44890  1.0000
  Mg  Mg5       1.0  0.99101  0.41294  0.38585  1.0000
  C   C39       1.0  0.15188  0.47687  0.54314  1.0000
  C   C40       1.0  0.15470  0.50482  0.57934  1.0000
  C  Sn11      1.0  0.10173  0.53317  0.59290  1.0000
  C  Sn12      1.0  0.04494  0.53346  0.56972  1.0000
  C   C41       1.0  0.04258  0.50535  0.53355  1.0000
  C   C42       1.0  0.09588  0.47712  0.52026  1.0000
  H   H23       1.0  0.19309  0.45502  0.53286  1.0000
  O  Te11      1.0  0.10537  0.56089  0.62913  1.0000
  O  Te12      1.0  0.99129  0.56145  0.58257  1.0000
  H   H24       1.0  0.09366  0.45547  0.49224  1.0000
  Mg  Mg6       1.0  0.01966  0.59312  0.63399  1.0000
  C   C43       1.0  0.80781  0.46815  0.45178  1.0000
  C   C44       1.0  0.87490  0.48754  0.46431  1.0000
  C  Sn13      1.0  0.90334  0.50881  0.44919  1.0000
  C  Sn14      1.0  0.86375  0.51067  0.42101  1.0000
  C   C45       1.0  0.79665  0.49119  0.40868  1.0000
  C   C46       1.0  0.76871  0.46998  0.42400  1.0000
  H   H25       1.0  0.78617  0.45176  0.46364  1.0000
  O  Te13      1.0  0.97046  0.52799  0.46203  1.0000
  O  Te14      1.0  0.89089  0.53173  0.40543  1.0000
  H   H26       1.0  0.71674  0.45499  0.41430  1.0000
  Mg  Mg7       1.0  0.98474  0.55293  0.43214  1.0000
  C   C47       1.0  0.80380  0.52852  0.54570  1.0000
  C   C48       1.0  0.87116  0.50953  0.53359  1.0000
  C  Sn15      1.0  0.89741  0.48747  0.54807  1.0000
  C  Sn16      1.0  0.85532  0.48440  0.57516  1.0000
  C   C49       1.0  0.78798  0.50348  0.58708  1.0000
  C   C50       1.0  0.76224  0.52549  0.57242  1.0000
  H   H27       1.0  0.78386  0.54553  0.53435  1.0000
  O  Te15      1.0  0.96483  0.46870  0.53566  1.0000
  O  Te16      1.0  0.88024  0.46253  0.59008  1.0000
  H   H28       1.0  0.71006  0.54017  0.58179  1.0000
  Mg  Mg8       1.0  0.97550  0.44232  0.56433  1.0000
  C   C51       1.0  0.52158  0.40749  0.95504  1.0000
  C   C52       1.0  0.56956  0.43810  0.96715  1.0000
  C  Sn17      1.0  0.62608  0.43878  0.94452  1.0000
  C  Sn18      1.0  0.63458  0.40821  0.90911  1.0000
  C   C53       1.0  0.58626  0.37773  0.89724  1.0000
  C   C54       1.0  0.52991  0.37734  0.92012  1.0000
  H   H29       1.0  0.47795  0.40719  0.97273  1.0000
  O  Te17      1.0  0.67355  0.46957  0.95705  1.0000
  O  Te18      1.0  0.69058  0.40817  0.88593  1.0000
  H   H30       1.0  0.49274  0.35364  0.91073  1.0000
  Mg  Mg9       1.0  0.72629  0.45650  0.91538  1.0000
  C   C55       1.0  0.49676  0.58970  0.04449  1.0000
  C   C56       1.0  0.54720  0.56025  0.03189  1.0000
  C  Sn19      1.0  0.60670  0.56132  0.05363  1.0000
  C  Sn20      1.0  0.61572  0.59248  0.08863  1.0000
  C   C57       1.0  0.56493  0.62179  0.10100  1.0000
  C   C58       1.0  0.50560  0.62044  0.07901  1.0000
  H   H31       1.0  0.45084  0.58865  0.02749  1.0000
  O  Te19      1.0  0.65660  0.53167  0.04061  1.0000
  O  Te20      1.0  0.67468  0.59426  0.11092  1.0000
  H   H32       1.0  0.46654  0.64323  0.08879  1.0000
  Mg  Mg10      1.0  0.72807  0.54698  0.08108  1.0000
  C   C59       1.0  0.48349  0.49170  0.91024  1.0000
  C   C60       1.0  0.51622  0.51726  0.90134  1.0000
  C  Sn21      1.0  0.56764  0.54339  0.92477  1.0000
  C  Sn22      1.0  0.58654  0.54385  0.95770  1.0000
  C   C61       1.0  0.55353  0.51815  0.96635  1.0000
  C   C62       1.0  0.50213  0.49213  0.94271  1.0000
  H   H33       1.0  0.44375  0.47156  0.89194  1.0000
  O  Te21      1.0  0.59979  0.56873  0.91546  1.0000
  O  Te22      1.0  0.63778  0.56965  0.98161  1.0000
  H   H34       1.0  0.47683  0.47233  0.94960  1.0000
  Mg  Mg11      1.0  0.66659  0.59853  0.95691  1.0000
  C   C63       1.0  0.60291  0.45376  0.04686  1.0000
  C   C64       1.0  0.55778  0.47239  0.03390  1.0000
  C  Sn23      1.0  0.49971  0.49494  0.05527  1.0000
  C  Sn24      1.0  0.48673  0.49885  0.09025  1.0000
  C   C65       1.0  0.53222  0.48012  0.10298  1.0000
  C   C66       1.0  0.59016  0.45762  0.08137  1.0000
  H   H35       1.0  0.64777  0.43637  0.03015  1.0000
  O  Te23      1.0  0.45514  0.51334  0.04190  1.0000
  O  Te24      1.0  0.42909  0.52122  0.11218  1.0000
  H   H36       1.0  0.62512  0.44321  0.09142  1.0000
  Mg  Mg12      1.0  0.38349  0.54065  0.08194  1.0000
  C   C67       1.0  0.57791  0.73863  0.19795  1.0000
  C   C68       1.0  0.52645  0.70937  0.18509  1.0000
  C  Sn25      1.0  0.46101  0.71259  0.20449  1.0000
  C  Sn26      1.0  0.44697  0.74575  0.23735  1.0000
  C   C69       1.0  0.49877  0.77488  0.24997  1.0000
  C   C70       1.0  0.56408  0.77136  0.23035  1.0000
  H   H37       1.0  0.62843  0.73592  0.18276  1.0000
  O  Te25      1.0  0.41021  0.68308  0.19126  1.0000
  O  Te26      1.0  0.38200  0.74971  0.25727  1.0000
  H   H38       1.0  0.60389  0.79403  0.24030  1.0000
  Mg  Mg13      1.0  0.32973  0.70174  0.22811  1.0000
  C   C71       1.0  0.44763  0.25701  0.77156  1.0000
  C   C72       1.0  0.50643  0.23339  0.75248  1.0000
  C  Sn27      1.0  0.57718  0.23941  0.76800  1.0000
  C  Sn28      1.0  0.58912  0.26966  0.80328  1.0000
  C   C73       1.0  0.52992  0.29312  0.82216  1.0000
  C   C74       1.0  0.45935  0.28685  0.80637  1.0000
  H   H39       1.0  0.39302  0.25215  0.75936  1.0000
  O  Te27      1.0  0.63531  0.21555  0.74855  1.0000
  O  Te28      1.0  0.65927  0.27631  0.81944  1.0000
  H   H40       1.0  0.41383  0.30513  0.82116  1.0000
  Mg  Mg14      1.0  0.72085  0.23607  0.78210  1.0000
  C   C75       1.0  0.63283  0.87653  0.33426  1.0000
  C   C76       1.0  0.69040  0.85988  0.34344  1.0000
  C  Sn29      1.0  0.69229  0.82126  0.32895  1.0000
  C  Sn30      1.0  0.63544  0.79898  0.30483  1.0000
  C   C77       1.0  0.57811  0.81591  0.29580  1.0000
  C   C78       1.0  0.57674  0.85458  0.31046  1.0000
  H   H41       1.0  0.63178  0.90645  0.34559  1.0000
  O  Te29      1.0  0.75020  0.80507  0.33841  1.0000
  O  Te30      1.0  0.63599  0.76032  0.28995  1.0000
  H   H42       1.0  0.53219  0.86746  0.30334  1.0000
  Mg  Mg15      1.0  0.72660  0.75125  0.31108  1.0000
  C   C79       1.0  0.65915  0.20425  0.68676  1.0000
  C   C80       1.0  0.60007  0.18677  0.69443  1.0000
  C  Sn31      1.0  0.60112  0.14838  0.68155  1.0000
  C  Sn32      1.0  0.66255  0.12717  0.66061  1.0000
  C   C81       1.0  0.72141  0.14492  0.65311  1.0000
  C   C82       1.0  0.71977  0.18335  0.66613  1.0000
  H   H43       1.0  0.65792  0.23399  0.69685  1.0000
  O  Te31      1.0  0.54162  0.13137  0.68945  1.0000
  O  Te32      1.0  0.66504  0.08876  0.64741  1.0000
  H   H44       1.0  0.76555  0.19687  0.66021  1.0000
  Mg  Mg16      1.0  0.57063  0.07828  0.66538  1.0000
  C   C83       1.0  0.38845  0.85026  0.35594  1.0000
  C   C84       1.0  0.32854  0.86199  0.34297  1.0000
  C  Sn33      1.0  0.32442  0.85206  0.30624  1.0000
  C  Sn34      1.0  0.38140  0.82997  0.28211  1.0000
  C   C85       1.0  0.44107  0.81835  0.29534  1.0000
  C   C86       1.0  0.44466  0.82846  0.33215  1.0000
  H   H45       1.0  0.39121  0.85805  0.38441  1.0000
  O  Te33      1.0  0.26419  0.86403  0.29375  1.0000
  O  Te34      1.0  0.37865  0.81963  0.24526  1.0000
  H   H46       1.0  0.49102  0.81935  0.34217  1.0000
  Mg  Mg17      1.0  0.28532  0.84277  0.24121  1.0000
  C   C87       1.0  0.38467  0.16143  0.71844  1.0000
  C   C88       1.0  0.44526  0.17255  0.70490  1.0000
  C  Sn35      1.0  0.44594  0.16525  0.66884  1.0000
  C  Sn36      1.0  0.38474  0.14648  0.64597  1.0000
  C   C89       1.0  0.32437  0.13550  0.65978  1.0000
  C   C90       1.0  0.32428  0.14293  0.69591  1.0000
  H   H47       1.0  0.38458  0.16720  0.74639  1.0000
  O  Te35      1.0  0.50693  0.17654  0.65575  1.0000
  O  Te36      1.0  0.38397  0.13885  0.60983  1.0000
  H   H48       1.0  0.27734  0.13434  0.70638  1.0000
  Mg  Mg18      1.0  0.47998  0.15978  0.60455  1.0000
  C   C91       1.0  0.54081  0.55046  0.78810  1.0000
  C   C92       1.0  0.48987  0.53742  0.75953  1.0000
  C  Sn37      1.0  0.42764  0.51681  0.75954  1.0000
  C  Sn38      1.0  0.41634  0.50917  0.78873  1.0000
  C   C93       1.0  0.46760  0.52236  0.81719  1.0000
  C   C94       1.0  0.52969  0.54295  0.81690  1.0000
  H   H49       1.0  0.58883  0.56641  0.78789  1.0000
  O  Te37      1.0  0.37731  0.50398  0.73078  1.0000
  O  Te38      1.0  0.35460  0.48865  0.78943  1.0000
  H   H50       1.0  0.56910  0.55306  0.83903  1.0000
  Mg  Mg19      1.0  0.30170  0.47718  0.74401  1.0000
  C   C95       1.0  0.42309  0.50011  0.24113  1.0000
  C   C96       1.0  0.46082  0.47379  0.24697  1.0000
  C  Sn39      1.0  0.51576  0.45160  0.22264  1.0000
  C  Sn40      1.0  0.53312  0.45592  0.19191  1.0000
  C   C97       1.0  0.49509  0.48235  0.18633  1.0000
  C   C98       1.0  0.44020  0.50440  0.21084  1.0000
  H   H51       1.0  0.38065  0.51718  0.26011  1.0000
  O  Te39      1.0  0.55290  0.42543  0.22887  1.0000
  O  Te40      1.0  0.58780  0.43413  0.16717  1.0000
  H   H52       1.0  0.41103  0.52479  0.20633  1.0000
  Mg  Mg20      1.0  0.62299  0.40226  0.18740  1.0000
  C   C99       1.0  0.63964  0.51133  0.67934  1.0000
  C   C100      1.0  0.65043  0.53340  0.66270  1.0000
  C  Sn41      1.0  0.60308  0.56327  0.67068  1.0000
  C  Sn42      1.0  0.54390  0.57114  0.69580  1.0000
  C   C101      1.0  0.53362  0.54892  0.71232  1.0000
  C   C102      1.0  0.58130  0.51908  0.70413  1.0000
  H   H53       1.0  0.67656  0.48826  0.67303  1.0000
  O  Te41      1.0  0.61463  0.58503  0.65380  1.0000
  O  Te42      1.0  0.49578  0.60084  0.70427  1.0000
  H   H54       1.0  0.57297  0.50202  0.71704  1.0000
  Mg  Mg21      1.0  0.53422  0.62243  0.67421  1.0000
  C   C103      1.0  0.55533  0.42293  0.30540  1.0000
  C   C104      1.0  0.53682  0.45083  0.29685  1.0000
  C  Sn43      1.0  0.58427  0.48129  0.30659  1.0000
  C  Sn44      1.0  0.65147  0.48378  0.32522  1.0000
  C   C105      1.0  0.66950  0.45570  0.33363  1.0000
  C   C106      1.0  0.62161  0.42535  0.32376  1.0000
  H   H55       1.0  0.51830  0.39943  0.29775  1.0000
  O  Te43      1.0  0.56491  0.50893  0.29785  1.0000
  O  Te44      1.0  0.69991  0.51391  0.33526  1.0000
  H   H56       1.0  0.63598  0.40374  0.33037  1.0000
  Mg  Mg22      1.0  0.64909  0.54455  0.31731  1.0000
  C   C107      1.0  0.28321  0.56177  0.71499  1.0000
  C   C108      1.0  0.27081  0.54270  0.67757  1.0000
  C  Sn45      1.0  0.32569  0.51947  0.65403  1.0000
  C  Sn46      1.0  0.39419  0.51530  0.66830  1.0000
  C   C109      1.0  0.40603  0.53447  0.70578  1.0000
  C   C110      1.0  0.35075  0.55766  0.72908  1.0000
  H   H57       1.0  0.24043  0.57969  0.73302  1.0000
  O  Te45      1.0  0.31240  0.50063  0.61672  1.0000
  O  Te46      1.0  0.44998  0.49225  0.64539  1.0000
  H   H58       1.0  0.36034  0.57240  0.75805  1.0000
  Mg  Mg23      1.0  0.40557  0.47243  0.59652  1.0000
  C   C111      1.0  0.36348  0.48707  0.35426  1.0000
  C   C112      1.0  0.29059  0.47699  0.34175  1.0000
  C  Sn47      1.0  0.27582  0.45873  0.30454  1.0000
  C  Sn48      1.0  0.33525  0.45043  0.27947  1.0000
  C   C113      1.0  0.40798  0.46060  0.29226  1.0000
  C   C114      1.0  0.42212  0.47887  0.32955  1.0000
  H   H59       1.0  0.37444  0.50119  0.38311  1.0000
  O  Te47      1.0  0.20267  0.44888  0.29250  1.0000
  O  Te48      1.0  0.32206  0.43219  0.24214  1.0000
  H   H60       1.0  0.47857  0.48665  0.33923  1.0000
  Mg  Mg24      1.0  0.21286  0.42443  0.23901  1.0000
