data_image0
_chemical_formula_structural       H24C24N8SnCSn2CSnTe4Mg2SnCSn2CSnTe4Mg2SnCSn2CSnTe4Mg2SnCSn2CSnTe4Mg2SnCSn2CSnTe4Mg2SnCSn2CSnTe4Mg2SnCSn2CSnTe4Mg2SnCSn2CSnTe4Mg2SnCSn2CSnTe4Mg2SnCSn2CSnTe4Mg2SnCSn2CSnTe4Mg2SnCSn2CSnTe4Mg2
_chemical_formula_sum              "H24 C48 N8 Sn48 Te48 Mg24"
_cell_length_a       23.688
_cell_length_b       23.1016
_cell_length_c       11.0486
_cell_angle_alpha    85.9339
_cell_angle_beta     91.6041
_cell_angle_gamma    120.073

_symmetry_space_group_name_H-M    'P1'
_space_group_IT_number       1

loop_
  _space_group_symop_operation_xyz
  'x, y, z'

loop_
  _atom_site_type_symbol
  _atom_site_label
  _atom_site_symmetry_multiplicity
  _atom_site_fract_x
  _atom_site_fract_y
  _atom_site_fract_z
  _atom_site_occupancy
  H   H1        1.0  0.20003  0.54286  0.06904  1.0000
  H   H2        1.0  0.20344  0.27673  0.19733  1.0000
  H   H3        1.0  0.20601  0.20967  0.28194  1.0000
  H   H4        1.0  0.20595  0.27466  0.35668  1.0000
  H   H5        1.0  0.99487  0.00063  0.31561  1.0000
  H   H6        1.0  0.92241  0.00339  0.28401  1.0000
  H   H7        1.0  0.95135  0.00958  0.43367  1.0000
  H   H8        1.0  0.00552  0.29688  0.32672  1.0000
  H   H9        1.0  0.92800  0.22222  0.32950  1.0000
  H   H10       1.0  0.96819  0.26135  0.19022  1.0000
  H   H11       1.0  0.67069  0.01777  0.40215  1.0000
  H   H12       1.0  0.20664  0.95343  0.38906  1.0000
  H   H13       1.0  0.20283  0.54139  0.57797  1.0000
  H   H14       1.0  0.20633  0.28079  0.71596  1.0000
  H   H15       1.0  0.20544  0.20478  0.75991  1.0000
  H   H16       1.0  0.20595  0.25632  0.87065  1.0000
  H   H17       1.0  0.96645  0.00633  0.93241  1.0000
  H   H18       1.0  0.99275  0.99740  0.79056  1.0000
  H   H19       1.0  0.91895  0.99923  0.80252  1.0000
  H   H20       1.0  0.93091  0.22207  0.81166  1.0000
  H   H21       1.0  0.96143  0.24373  0.66185  1.0000
  H   H22       1.0  0.00712  0.29601  0.77849  1.0000
  H   H23       1.0  0.67172  0.01643  0.89939  1.0000
  H   H24       1.0  0.22175  0.96388  0.89801  1.0000
  C   C1        1.0  0.21709  0.52635  0.15091  1.0000
  C   C2        1.0  0.07812  0.24083  0.27704  1.0000
  C   C3        1.0  0.11169  0.20464  0.28668  1.0000
  C   C4        1.0  0.07553  0.13385  0.30530  1.0000
  C   C5        1.0  0.00669  0.10009  0.31788  1.0000
  C   C6        1.0  0.97441  0.13766  0.31241  1.0000
  C   C7        1.0  0.00980  0.20814  0.29223  1.0000
  C   C8        1.0  0.18553  0.24285  0.27969  1.0000
  C   C9        1.0  0.96700  0.02453  0.33809  1.0000
  C   C10       1.0  0.97586  0.24900  0.28499  1.0000
  C   C11       1.0  0.69325  0.01531  0.31833  1.0000
  C   C12       1.0  0.20929  0.98187  0.30310  1.0000
  C   C13       1.0  0.21841  0.52395  0.66074  1.0000
  C   C14       1.0  0.07943  0.23699  0.76947  1.0000
  C   C15       1.0  0.11260  0.20046  0.78409  1.0000
  C   C16       1.0  0.07603  0.12990  0.80210  1.0000
  C   C17       1.0  0.00725  0.09628  0.81257  1.0000
  C   C18       1.0  0.97508  0.13389  0.80315  1.0000
  C   C19       1.0  0.01075  0.20414  0.77827  1.0000
  C   C20       1.0  0.18633  0.23719  0.78152  1.0000
  C   C21       1.0  0.96916  0.02087  0.83479  1.0000
  C   C22       1.0  0.97574  0.24361  0.75758  1.0000
  C   C23       1.0  0.69495  0.01689  0.81412  1.0000
  C   C24       1.0  0.21617  0.98423  0.80834  1.0000
  N   N1        1.0  0.38540  0.84978  0.17615  1.0000
  N   N2        1.0  0.24086  0.98284  0.20852  1.0000
  N   N3        1.0  0.26529  0.56766  0.21467  1.0000
  N   N4        1.0  0.66008  0.99054  0.22174  1.0000
  N   N5        1.0  0.38756  0.84711  0.68368  1.0000
  N   N6        1.0  0.24140  0.97896  0.71018  1.0000
  N   N7        1.0  0.26480  0.56473  0.72811  1.0000
  N   N8        1.0  0.66231  0.99522  0.71568  1.0000
  C  Sn1       1.0  0.31637  0.94938  0.08339  1.0000
  C   C25       1.0  0.26994  0.93664  0.17216  1.0000
  C  Sn2       1.0  0.26558  0.89863  0.27929  1.0000
  C  Sn3       1.0  0.30854  0.87286  0.29814  1.0000
  C   C26       1.0  0.35494  0.88561  0.20942  1.0000
  C  Sn4       1.0  0.35933  0.92361  0.10224  1.0000
  O  Te1       1.0  0.31516  0.95118  0.97698  1.0000
  O  Te2       1.0  0.21875  0.88654  0.36670  1.0000
  O  Te3       1.0  0.30501  0.83471  0.40466  1.0000
  O  Te4       1.0  0.40613  0.93572  0.01488  1.0000
  Mg  Mg1       1.0  0.23309  0.83187  0.49674  1.0000
  Mg  Mg2       1.0  0.38716  0.95408  0.88484  1.0000
  C  Sn5       1.0  0.26532  0.68488  0.11825  1.0000
  C   C27       1.0  0.29255  0.64457  0.15065  1.0000
  C  Sn6       1.0  0.35321  0.67157  0.20720  1.0000
  C  Sn7       1.0  0.38736  0.74029  0.23196  1.0000
  C   C28       1.0  0.36013  0.78056  0.19959  1.0000
  C  Sn8       1.0  0.29947  0.75360  0.14301  1.0000
  O  Te5       1.0  0.20460  0.65682  0.06180  1.0000
  O  Te6       1.0  0.37945  0.63029  0.23871  1.0000
  O  Te7       1.0  0.44812  0.76833  0.28845  1.0000
  O  Te8       1.0  0.27323  0.79485  0.11153  1.0000
  Mg  Mg3       1.0  0.46360  0.69175  0.31402  1.0000
  Mg  Mg4       1.0  0.18908  0.73343  0.03627  1.0000
  C  Sn9       1.0  0.54842  0.97375  0.10720  1.0000
  C   C29       1.0  0.58419  0.97479  0.21059  1.0000
  C  Sn10      1.0  0.55480  0.92656  0.30678  1.0000
  C  Sn11      1.0  0.48828  0.87622  0.29944  1.0000
  C   C30       1.0  0.45255  0.87520  0.19609  1.0000
  C  Sn12      1.0  0.48190  0.92341  0.09986  1.0000
  O  Te9       1.0  0.09009  0.02246  0.01213  1.0000
  O  Te10      1.0  0.59156  0.92864  0.40923  1.0000
  O  Te11      1.0  0.45792  0.82750  0.39463  1.0000
  O  Te12      1.0  0.44049  0.88502  0.99746  1.0000
  Mg  Mg5       1.0  0.52838  0.85132  0.51505  1.0000
  Mg  Mg6       1.0  0.50362  0.96229  0.89156  1.0000
  C  Sn13      1.0  0.15537  0.37710  0.34219  1.0000
  C   C31       1.0  0.10948  0.32574  0.27357  1.0000
  C  Sn14      1.0  0.10380  0.33760  0.14931  1.0000
  C  Sn15      1.0  0.14488  0.40212  0.09242  1.0000
  C   C32       1.0  0.19074  0.45343  0.16102  1.0000
  C  Sn16      1.0  0.19644  0.44162  0.28530  1.0000
  O  Te13      1.0  0.16019  0.36411  0.46630  1.0000
  O  Te14      1.0  0.05755  0.28546  0.08260  1.0000
  O  Te15      1.0  0.13533  0.37875  0.96822  1.0000
  O  Te16      1.0  0.24267  0.49371  0.35199  1.0000
  Mg  Mg7       1.0  0.06486  0.29153  0.91608  1.0000
  Mg  Mg8       1.0  0.23073  0.45136  0.51850  1.0000
  C  Sn17      1.0  0.81713  0.10323  0.41087  1.0000
  C   C33       1.0  0.77295  0.06491  0.32321  1.0000
  C  Sn18      1.0  0.79235  0.03853  0.23374  1.0000
  C  Sn19      1.0  0.85725  0.05066  0.23189  1.0000
  C   C34       1.0  0.90139  0.08894  0.31952  1.0000
  C  Sn20      1.0  0.88203  0.11535  0.40901  1.0000
  O  Te17      1.0  0.79667  0.12910  0.49947  1.0000
  O  Te18      1.0  0.74732  0.00040  0.14704  1.0000
  O  Te19      1.0  0.87769  0.02475  0.14318  1.0000
  O  Te20      1.0  0.92702  0.15345  0.49569  1.0000
  Mg  Mg9       1.0  0.28714  0.97589  0.04472  1.0000
  Mg  Mg10      1.0  0.87595  0.17796  0.59808  1.0000
  C  Sn21      1.0  0.19224  0.09046  0.21296  1.0000
  C   C35       1.0  0.19068  0.04309  0.30089  1.0000
  C  Sn22      1.0  0.14235  0.01513  0.39103  1.0000
  C  Sn23      1.0  0.09455  0.03488  0.39330  1.0000
  C   C36       1.0  0.09612  0.08221  0.30540  1.0000
  C  Sn24      1.0  0.14444  0.11021  0.21523  1.0000
  O  Te21      1.0  0.24100  0.11775  0.12369  1.0000
  O  Te22      1.0  0.63050  0.96789  0.47799  1.0000
  O  Te23      1.0  0.04577  0.00754  0.48268  1.0000
  O  Te24      1.0  0.14500  0.15741  0.12830  1.0000
  Mg  Mg11      1.0  0.55420  0.94500  0.58126  1.0000
  Mg  Mg12      1.0  0.22124  0.18031  0.02496  1.0000
  C  Sn25      1.0  0.30223  0.91138  0.82824  1.0000
  C   C37       1.0  0.29174  0.95130  0.73993  1.0000
  C  Sn26      1.0  0.30604  0.95142  0.61808  1.0000
  C  Sn27      1.0  0.33131  0.91075  0.58376  1.0000
  C   C38       1.0  0.34177  0.87085  0.67204  1.0000
  C  Sn28      1.0  0.32750  0.87071  0.79392  1.0000
  O  Te25      1.0  0.28758  0.91204  0.94952  1.0000
  O  Te26      1.0  0.80646  0.99178  0.53143  1.0000
  O  Te27      1.0  0.34595  0.91012  0.46236  1.0000
  O  Te28      1.0  0.33835  0.83038  0.88054  1.0000
  Mg  Mg13      1.0  0.32270  0.97365  0.37776  1.0000
  Mg  Mg14      1.0  0.31550  0.88476  0.03421  1.0000
  C  Sn29      1.0  0.26192  0.68219  0.64284  1.0000
  C   C39       1.0  0.28969  0.64144  0.66360  1.0000
  C  Sn30      1.0  0.35336  0.66818  0.70675  1.0000
  C  Sn31      1.0  0.39003  0.73708  0.72970  1.0000
  C   C40       1.0  0.36226  0.77778  0.70896  1.0000
  C  Sn32      1.0  0.29859  0.75109  0.66579  1.0000
  O  Te29      1.0  0.19819  0.65438  0.59969  1.0000
  O  Te30      1.0  0.38008  0.62645  0.72677  1.0000
  O  Te31      1.0  0.45381  0.76486  0.77288  1.0000
  O  Te32      1.0  0.27186  0.79277  0.64579  1.0000
  Mg  Mg15      1.0  0.46877  0.68770  0.78608  1.0000
  Mg  Mg16      1.0  0.18318  0.73157  0.58655  1.0000
  C  Sn33      1.0  0.05812  0.98036  0.61972  1.0000
  C   C41       1.0  0.09696  0.97655  0.71397  1.0000
  C  Sn34      1.0  0.55995  0.92211  0.79999  1.0000
  C  Sn35      1.0  0.49406  0.87036  0.79158  1.0000
  C   C42       1.0  0.45526  0.87418  0.69737  1.0000
  C  Sn36      1.0  0.48093  0.92862  0.61131  1.0000
  O  Te33      1.0  0.08485  0.03525  0.53473  1.0000
  O  Te34      1.0  0.59972  0.91942  0.89342  1.0000
  O  Te35      1.0  0.46735  0.81545  0.87668  1.0000
  O  Te36      1.0  0.44120  0.93131  0.51791  1.0000
  Mg  Mg17      1.0  0.54100  0.83442  0.98722  1.0000
  Mg  Mg18      1.0  0.01118  0.01627  0.42403  1.0000
  C  Sn37      1.0  0.20369  0.40827  0.79926  1.0000
  C   C43       1.0  0.19988  0.44397  0.69485  1.0000
  C  Sn38      1.0  0.14845  0.41303  0.61393  1.0000
  C  Sn39      1.0  0.09978  0.34499  0.63791  1.0000
  C   C44       1.0  0.10360  0.30933  0.74228  1.0000
  C  Sn40      1.0  0.15503  0.34023  0.82324  1.0000
  O  Te37      1.0  0.25554  0.44021  0.87889  1.0000
  O  Te38      1.0  0.14569  0.44974  0.51013  1.0000
  O  Te39      1.0  0.04791  0.31306  0.55817  1.0000
  O  Te40      1.0  0.15779  0.30356  0.92699  1.0000
  Mg  Mg19      1.0  0.06549  0.38412  0.42910  1.0000
  Mg  Mg20      1.0  0.24264  0.40546  0.00811  1.0000
  C  Sn41      1.0  0.85100  0.06995  0.69366  1.0000
  C   C45       1.0  0.89606  0.10730  0.78103  1.0000
  C  Sn42      1.0  0.87506  0.10821  0.89741  1.0000
  C  Sn43      1.0  0.80763  0.07098  0.92712  1.0000
  C   C46       1.0  0.76261  0.03365  0.83979  1.0000
  C  Sn44      1.0  0.78356  0.03272  0.72337  1.0000
  O  Te41      1.0  0.87309  0.06977  0.57789  1.0000
  O  Te42      1.0  0.92103  0.14594  0.98322  1.0000
  O  Te43      1.0  0.79026  0.10752  0.04300  1.0000
  O  Te44      1.0  0.73764  0.99501  0.63760  1.0000
  Mg  Mg21      1.0  0.87165  0.16657  0.12861  1.0000
  Mg  Mg22      1.0  0.79166  0.01064  0.49221  1.0000
  C  Sn45      1.0  0.13506  0.06827  0.68192  1.0000
  C   C47       1.0  0.10177  0.07460  0.77792  1.0000
  C  Sn46      1.0  0.11163  0.05741  0.89722  1.0000
  C  Sn47      1.0  0.15572  0.03342  0.92108  1.0000
  C   C48       1.0  0.18900  0.02711  0.82513  1.0000
  C  Sn48      1.0  0.17916  0.04428  0.70579  1.0000
  O  Te45      1.0  0.12445  0.08576  0.56337  1.0000
  O  Te46      1.0  0.07776  0.06415  0.99168  1.0000
  O  Te47      1.0  0.17101  0.05225  0.03976  1.0000
  O  Te48      1.0  0.21300  0.03756  0.61136  1.0000
  Mg  Mg23      1.0  0.11345  0.07022  0.13776  1.0000
  Mg  Mg24      1.0  0.18208  0.06783  0.46526  1.0000
