data_image0
_chemical_formula_structural       H54C72N6SnCSn2CSnTe4Mg2SnCSn2CSnTe4Mg2SnCSn2CSnTe4Mg2SnCSn2CSnTe4Mg2SnCSn2CSnTe4Mg2SnCSn2CSnTe4Mg2
_chemical_formula_sum              "H54 C84 N6 Sn24 Te24 Mg12"
_cell_length_a       25.5097
_cell_length_b       25.6743
_cell_length_c       8.61582
_cell_angle_alpha    97.9046
_cell_angle_beta     84.7758
_cell_angle_gamma    118.604

_symmetry_space_group_name_H-M    'P1'
_space_group_IT_number       1

loop_
  _space_group_symop_operation_xyz
  'x, y, z'

loop_
  _atom_site_type_symbol
  _atom_site_label
  _atom_site_symmetry_multiplicity
  _atom_site_fract_x
  _atom_site_fract_y
  _atom_site_fract_z
  _atom_site_occupancy
  H   H1        1.0  0.20506  0.48483  0.16043  1.0000
  H   H2        1.0  0.36370  0.65018  0.10404  1.0000
  H   H3        1.0  0.19193  0.64455  0.14381  1.0000
  H   H4        1.0  0.11270  0.44455  0.05856  1.0000
  H   H5        1.0  0.00529  0.38927  0.12447  1.0000
  H   H6        1.0  0.01335  0.54722  0.39093  1.0000
  H   H7        1.0  0.12234  0.60241  0.32941  1.0000
  H   H8        1.0  0.26657  0.45579  0.44893  1.0000
  H   H9        1.0  0.32299  0.40155  0.48564  1.0000
  H   H10       1.0  0.24210  0.72912  0.28235  1.0000
  H   H11       1.0  0.29411  0.83879  0.32094  1.0000
  H   H12       1.0  0.44054  0.84124  0.02683  1.0000
  H   H13       1.0  0.46354  0.48474  0.36092  1.0000
  H   H14       1.0  0.53822  0.46861  0.46887  1.0000
  H   H15       1.0  0.58338  0.40457  0.50051  1.0000
  H   H16       1.0  0.47333  0.27592  0.13847  1.0000
  H   H17       1.0  0.42485  0.33808  0.11369  1.0000
  H   H18       1.0  0.43748  0.19556  0.50326  1.0000
  H   H19       1.0  0.43111  0.16720  0.30516  1.0000
  H   H20       1.0  0.43814  0.23944  0.36246  1.0000
  H   H21       1.0  0.64480  0.15952  0.30134  1.0000
  H   H22       1.0  0.61250  0.15486  0.49182  1.0000
  H   H23       1.0  0.68441  0.21516  0.45130  1.0000
  H   H24       1.0  0.63144  0.39021  0.19730  1.0000
  H   H25       1.0  0.66513  0.41709  0.86216  1.0000
  H   H26       1.0  0.62955  0.38776  0.68089  1.0000
  H   H27       1.0  0.56126  0.11538  0.18359  1.0000
  H   H28       1.0  0.50017  0.00550  0.16072  1.0000
  H   H29       1.0  0.38542  0.02356  0.05495  1.0000
  H   H30       1.0  0.44864  0.13227  0.08326  1.0000
  H   H31       1.0  0.36851  0.92144  0.42282  1.0000
  H   H32       1.0  0.91411  0.37304  0.11002  1.0000
  H   H33       1.0  0.20060  0.48323  0.61964  1.0000
  H   H34       1.0  0.35966  0.65169  0.59776  1.0000
  H   H35       1.0  0.18760  0.64534  0.65797  1.0000
  H   H36       1.0  0.43918  0.54963  0.80245  1.0000
  H   H37       1.0  0.38345  0.60265  0.76736  1.0000
  H   H38       1.0  0.38726  0.73030  0.98434  1.0000
  H   H39       1.0  0.46407  0.48800  0.85233  1.0000
  H   H40       1.0  0.43373  0.19296  0.00079  1.0000
  H   H41       1.0  0.42795  0.16838  0.80061  1.0000
  H   H42       1.0  0.43425  0.23975  0.86880  1.0000
  H   H43       1.0  0.63979  0.15919  0.80849  1.0000
  H   H44       1.0  0.61027  0.15802  0.00122  1.0000
  H   H45       1.0  0.68186  0.21679  0.95190  1.0000
  H   H46       1.0  0.69607  0.38506  0.71372  1.0000
  H   H47       1.0  0.69732  0.38311  0.20663  1.0000
  H   H48       1.0  0.67293  0.41608  0.37003  1.0000
  H   H49       1.0  0.55789  0.11636  0.68918  1.0000
  H   H50       1.0  0.49652  0.00673  0.66645  1.0000
  H   H51       1.0  0.38750  0.02163  0.54534  1.0000
  H   H52       1.0  0.45020  0.13049  0.57452  1.0000
  H   H53       1.0  0.36532  0.92360  0.93342  1.0000
  H   H54       1.0  0.91050  0.36464  0.63046  1.0000
  C   C1        1.0  0.22573  0.53177  0.14272  1.0000
  C   C2        1.0  0.28805  0.56324  0.12217  1.0000
  C   C3        1.0  0.31529  0.62502  0.11435  1.0000
  C   C4        1.0  0.28145  0.65542  0.12565  1.0000
  C   C5        1.0  0.21906  0.62223  0.14125  1.0000
  C   C6        1.0  0.19055  0.56068  0.15352  1.0000
  C   C7        1.0  0.31121  0.72115  0.13354  1.0000
  C   C8        1.0  0.12558  0.52800  0.18657  1.0000
  C   C9        1.0  0.09123  0.46728  0.13213  1.0000
  C   C10       1.0  0.03029  0.43629  0.16755  1.0000
  C   C11       1.0  0.00107  0.46525  0.25871  1.0000
  C   C12       1.0  0.03553  0.52565  0.31565  1.0000
  C   C13       1.0  0.09634  0.55635  0.27959  1.0000
  C   C14       1.0  0.28526  0.75342  0.22402  1.0000
  C   C15       1.0  0.31506  0.81537  0.24812  1.0000
  C   C16       1.0  0.37273  0.84770  0.18218  1.0000
  C   C17       1.0  0.39727  0.81586  0.08350  1.0000
  C   C18       1.0  0.36733  0.75388  0.06080  1.0000
  C   C19       1.0  0.45095  0.44542  0.27398  1.0000
  C   C20       1.0  0.47785  0.40755  0.28997  1.0000
  C   C21       1.0  0.52360  0.42608  0.39666  1.0000
  C   C22       1.0  0.54936  0.39014  0.41386  1.0000
  C   C23       1.0  0.53060  0.33447  0.32425  1.0000
  C   C24       1.0  0.48600  0.31718  0.21459  1.0000
  C   C25       1.0  0.45936  0.35215  0.19868  1.0000
  C   C26       1.0  0.55731  0.29529  0.34248  1.0000
  C   C27       1.0  0.52081  0.23475  0.36892  1.0000
  C   C28       1.0  0.54775  0.19823  0.37920  1.0000
  C   C29       1.0  0.61075  0.22322  0.37539  1.0000
  C   C30       1.0  0.64687  0.28347  0.34721  1.0000
  C   C31       1.0  0.62008  0.31900  0.32550  1.0000
  C   C32       1.0  0.45356  0.20827  0.38488  1.0000
  C   C33       1.0  0.51039  0.13227  0.37910  1.0000
  C   C34       1.0  0.63959  0.18624  0.40664  1.0000
  C   C35       1.0  0.65746  0.38041  0.27213  1.0000
  C   C36       1.0  0.52403  0.09498  0.26565  1.0000
  C   C37       1.0  0.48970  0.03353  0.25058  1.0000
  C   C38       1.0  0.43879  0.00589  0.34816  1.0000
  C   C39       1.0  0.42522  0.04217  0.46413  1.0000
  C   C40       1.0  0.46055  0.10408  0.47950  1.0000
  C   C41       1.0  0.40116  0.94119  0.32765  1.0000
  C   C42       1.0  0.90175  0.39183  0.22108  1.0000
  C   C43       1.0  0.22171  0.53122  0.61492  1.0000
  C   C44       1.0  0.28430  0.56375  0.60245  1.0000
  C   C45       1.0  0.31121  0.62602  0.60508  1.0000
  C   C46       1.0  0.27704  0.65623  0.62508  1.0000
  C   C47       1.0  0.21476  0.62269  0.64189  1.0000
  C   C48       1.0  0.18660  0.56034  0.63873  1.0000
  C   C49       1.0  0.32046  0.53304  0.60722  1.0000
  C   C50       1.0  0.30397  0.47602  0.52752  1.0000
  C   C51       1.0  0.33536  0.44561  0.54703  1.0000
  C   C52       1.0  0.38389  0.47039  0.64819  1.0000
  C   C53       1.0  0.40190  0.52857  0.72352  1.0000
  C   C54       1.0  0.37067  0.55896  0.70279  1.0000
  C   C55       1.0  0.44835  0.44721  0.76981  1.0000
  C   C56       1.0  0.55356  0.29560  0.83888  1.0000
  C   C57       1.0  0.51739  0.23536  0.86869  1.0000
  C   C58       1.0  0.54473  0.19948  0.88267  1.0000
  C   C59       1.0  0.60768  0.22453  0.87841  1.0000
  C   C60       1.0  0.64361  0.28452  0.84728  1.0000
  C   C61       1.0  0.61648  0.31946  0.82287  1.0000
  C   C62       1.0  0.45004  0.20821  0.88481  1.0000
  C   C63       1.0  0.50758  0.13364  0.88526  1.0000
  C   C64       1.0  0.63641  0.18774  0.91183  1.0000
  C   C65       1.0  0.65378  0.38052  0.76723  1.0000
  C   C66       1.0  0.52080  0.09614  0.77167  1.0000
  C   C67       1.0  0.48629  0.03469  0.75722  1.0000
  C   C68       1.0  0.43571  0.00736  0.85603  1.0000
  C   C69       1.0  0.42285  0.04389  0.97289  1.0000
  C   C70       1.0  0.45840  0.10573  0.98753  1.0000
  C   C71       1.0  0.39765  0.94275  0.83719  1.0000
  C   C72       1.0  0.89897  0.38846  0.73250  1.0000
  N   N1        1.0  0.94041  0.43805  0.30444  1.0000
  N   N2        1.0  0.41374  0.43238  0.16440  1.0000
  N   N3        1.0  0.40799  0.90981  0.20416  1.0000
  N   N4        1.0  0.93807  0.43709  0.80739  1.0000
  N   N5        1.0  0.40946  0.43368  0.66424  1.0000
  N   N6        1.0  0.40369  0.91087  0.71370  1.0000
  C  Sn1       1.0  0.27784  0.76726  0.72799  1.0000
  C   C73       1.0  0.29459  0.72985  0.62739  1.0000
  C  Sn2       1.0  0.35254  0.75200  0.56273  1.0000
  C  Sn3       1.0  0.39464  0.81281  0.59947  1.0000
  C   C74       1.0  0.37789  0.85018  0.70003  1.0000
  C  Sn4       1.0  0.31995  0.82807  0.76473  1.0000
  O  Te1       1.0  0.21966  0.74416  0.79129  1.0000
  O  Te2       1.0  0.36823  0.71374  0.46242  1.0000
  O  Te3       1.0  0.45285  0.83589  0.53606  1.0000
  O  Te4       1.0  0.30425  0.86629  0.86501  1.0000
  Mg  Mg1       1.0  0.45288  0.76615  0.40558  1.0000
  Mg  Mg2       1.0  0.21963  0.81393  0.92197  1.0000
  C  Sn5       1.0  0.39738  0.56249  0.16733  1.0000
  C   C75       1.0  0.34253  0.54120  0.09711  1.0000
  C  Sn6       1.0  0.30641  0.47999  0.05954  1.0000
  C  Sn7       1.0  0.32547  0.43921  0.09295  1.0000
  C   C76       1.0  0.38028  0.46051  0.16315  1.0000
  C  Sn8       1.0  0.41644  0.52171  0.20074  1.0000
  O  Te5       1.0  0.43277  0.62387  0.20388  1.0000
  O  Te6       1.0  0.24072  0.50066  0.98934  1.0000
  O  Te7       1.0  0.29002  0.37779  0.05633  1.0000
  O  Te8       1.0  0.47104  0.54194  0.27092  1.0000
  Mg  Mg3       1.0  0.20827  0.41291  0.96176  1.0000
  Mg  Mg4       1.0  0.50351  0.62967  0.29863  1.0000
  C  Sn9       1.0  0.06716  0.47175  0.56275  1.0000
  C   C77       1.0  0.11083  0.52482  0.63797  1.0000
  C  Sn10      1.0  0.09994  0.54585  0.78924  1.0000
  C  Sn11      1.0  0.04425  0.51312  0.86701  1.0000
  C   C78       1.0  0.00062  0.46008  0.79181  1.0000
  C  Sn12      1.0  0.01147  0.43902  0.64051  1.0000
  O  Te9       1.0  0.07901  0.45157  0.41151  1.0000
  O  Te10      1.0  0.14429  0.59904  0.86203  1.0000
  O  Te11      1.0  0.04347  0.49245  0.01836  1.0000
  O  Te12      1.0  0.96716  0.38587  0.56775  1.0000
  Mg  Mg5       1.0  0.11801  0.56730  0.06858  1.0000
  Mg  Mg6       1.0  0.00445  0.37665  0.36124  1.0000
  C  Sn13      1.0  0.75297  0.27429  0.23921  1.0000
  C   C79       1.0  0.72134  0.29602  0.34518  1.0000
  C  Sn14      1.0  0.74809  0.35600  0.40647  1.0000
  C  Sn15      1.0  0.80768  0.39507  0.36082  1.0000
  C   C80       1.0  0.83928  0.37334  0.25489  1.0000
  C  Sn16      1.0  0.81257  0.31336  0.19355  1.0000
  O  Te13      1.0  0.72534  0.21417  0.17941  1.0000
  O  Te14      1.0  0.71558  0.37669  0.51228  1.0000
  O  Te15      1.0  0.83530  0.45523  0.42072  1.0000
  O  Te16      1.0  0.84504  0.29267  0.08778  1.0000
  Mg  Mg7       1.0  0.77265  0.46227  0.56130  1.0000
  Mg  Mg8       1.0  0.78800  0.20711  0.03863  1.0000
  C  Sn17      1.0  0.44472  0.33334  0.72831  1.0000
  C   C81       1.0  0.45891  0.38967  0.80662  1.0000
  C  Sn18      1.0  0.51266  0.42316  0.88465  1.0000
  C  Sn19      1.0  0.55310  0.39986  0.88434  1.0000
  C   C82       1.0  0.53891  0.34357  0.80605  1.0000
  C  Sn20      1.0  0.48516  0.31005  0.72800  1.0000
  O  Te17      1.0  0.39074  0.30065  0.65107  1.0000
  O  Te18      1.0  0.52584  0.47936  0.96216  1.0000
  O  Te19      1.0  0.60711  0.43261  0.96168  1.0000
  O  Te20      1.0  0.47198  0.25388  0.65051  1.0000
  Mg  Mg9       1.0  0.61603  0.46601  0.05051  1.0000
  Mg  Mg10      1.0  0.39287  0.22631  0.56206  1.0000
  C  Sn21      1.0  0.78136  0.30428  0.66345  1.0000
  C   C83       1.0  0.82598  0.35873  0.72998  1.0000
  C  Sn22      1.0  0.81369  0.38816  0.86555  1.0000
  C  Sn23      1.0  0.75559  0.36263  0.93618  1.0000
  C   C84       1.0  0.71101  0.30821  0.86968  1.0000
  C  Sn24      1.0  0.72327  0.27875  0.73408  1.0000
  O  Te21      1.0  0.79466  0.27564  0.52790  1.0000
  O  Te22      1.0  0.85902  0.44256  0.92987  1.0000
  O  Te23      1.0  0.75337  0.35043  0.07184  1.0000
  O  Te24      1.0  0.67798  0.22438  0.66979  1.0000
  Mg  Mg11      1.0  0.83006  0.42359  0.11542  1.0000
  Mg  Mg12      1.0  0.71794  0.20240  0.48430  1.0000
