data_image0
_chemical_formula_structural       H60C90N16C2Sn2C2HTe2HMgC2Sn2C2HTe2HMgC2Sn2C2HTe2HMgC2Sn2C2HTe2HMgC2Sn2C2HTe2HMgC2Sn2C2HTe2HMgC2Sn2C2HTe2HMgC2Sn2C2HTe2HMgC2Sn2C2HTe2HMgC2Sn2C2HTe2HMgC2Sn2C2HTe2HMgC2Sn2C2HTe2HMg
_chemical_formula_sum              "H84 C138 N16 Sn24 Te24 Mg12"
_cell_length_a       17.9626
_cell_length_b       41.0204
_cell_length_c       42.0538
_cell_angle_alpha    118.806
_cell_angle_beta     89.676
_cell_angle_gamma    90.3793

_symmetry_space_group_name_H-M    'P1'
_space_group_IT_number       1

loop_
  _space_group_symop_operation_xyz
  'x, y, z'

loop_
  _atom_site_type_symbol
  _atom_site_label
  _atom_site_symmetry_multiplicity
  _atom_site_fract_x
  _atom_site_fract_y
  _atom_site_fract_z
  _atom_site_occupancy
  H   H1        1.0  0.04288  0.97701  0.42597  1.0000
  H   H2        1.0  0.12810  0.93315  0.37875  1.0000
  H   H3        1.0  0.24062  0.91442  0.45843  1.0000
  H   H4        1.0  0.15610  0.95978  0.50652  1.0000
  H   H5        1.0  0.11821  0.54640  0.50642  1.0000
  H   H6        1.0  0.20652  0.54156  0.45847  1.0000
  H   H7        1.0  0.09640  0.44150  0.38076  1.0000
  H   H8        1.0  0.00723  0.44684  0.42817  1.0000
  H   H9        1.0  0.81017  0.45742  0.47215  1.0000
  H   H10       1.0  0.73189  0.44992  0.42122  1.0000
  H   H11       1.0  0.87437  0.52537  0.40510  1.0000
  H   H12       1.0  0.95337  0.53300  0.45650  1.0000
  H   H13       1.0  0.46105  0.47403  0.94026  1.0000
  H   H14       1.0  0.45704  0.51925  0.05591  1.0000
  H   H15       1.0  0.44975  0.47836  0.88421  1.0000
  H   H16       1.0  0.44274  0.51399  0.11128  1.0000
  H   H17       1.0  0.61499  0.56529  0.92326  1.0000
  H   H18       1.0  0.62451  0.43652  0.07767  1.0000
  H   H19       1.0  0.62436  0.56193  0.98082  1.0000
  H   H20       1.0  0.63636  0.44045  0.02043  1.0000
  H   H21       1.0  0.39260  0.24101  0.74811  1.0000
  H   H22       1.0  0.39673  0.17318  0.74628  1.0000
  H   H23       1.0  0.39497  0.29863  0.80729  1.0000
  H   H24       1.0  0.62541  0.28077  0.82069  1.0000
  H   H25       1.0  0.62291  0.22175  0.76210  1.0000
  H   H26       1.0  0.28589  0.13579  0.71332  1.0000
  H   H27       1.0  0.45501  0.65350  0.14157  1.0000
  H   H28       1.0  0.45773  0.34288  0.86144  1.0000
  H   H29       1.0  0.80933  0.85239  0.36903  1.0000
  H   H30       1.0  0.79521  0.14846  0.61921  1.0000
  H   H31       1.0  0.20717  0.89043  0.34228  1.0000
  H   H32       1.0  0.21722  0.09862  0.65545  1.0000
  H   H33       1.0  0.36806  0.50431  0.74152  1.0000
  H   H34       1.0  0.38866  0.50929  0.26687  1.0000
  H   H35       1.0  0.58568  0.49500  0.70479  1.0000
  H   H36       1.0  0.59146  0.50723  0.29820  1.0000
  H   H37       1.0  0.33597  0.43705  0.24893  1.0000
  H   H38       1.0  0.37173  0.49329  0.79438  1.0000
  H   H39       1.0  0.39687  0.52099  0.21442  1.0000
  H   H40       1.0  0.57979  0.55225  0.82790  1.0000
  H   H41       1.0  0.57365  0.44131  0.16873  1.0000
  H   H42       1.0  0.57589  0.56433  0.77516  1.0000
  H   H43       1.0  0.56630  0.42962  0.22173  1.0000
  H   H44       1.0  0.22082  0.44258  0.28409  1.0000
  H   H45       1.0  0.34323  0.49995  0.38375  1.0000
  H   H46       1.0  0.45897  0.49469  0.34873  1.0000
  H   H47       1.0  0.49804  0.59244  0.70503  1.0000
  H   H48       1.0  0.50122  0.40728  0.29275  1.0000
  H   H49       1.0  0.60329  0.59162  0.66578  1.0000
  H   H50       1.0  0.60797  0.40472  0.32907  1.0000
  H   H51       1.0  0.68869  0.49280  0.66342  1.0000
  H   H52       1.0  0.69616  0.50597  0.33672  1.0000
  H   H53       1.0  0.42680  0.50216  0.84966  1.0000
  H   H54       1.0  0.45185  0.51055  0.15837  1.0000
  H   H55       1.0  0.71030  0.56429  0.63107  1.0000
  H   H56       1.0  0.71696  0.43072  0.36395  1.0000
  H   H57       1.0  0.15736  0.55166  0.66252  1.0000
  H   H58       1.0  0.15613  0.46203  0.34343  1.0000
  H   H59       1.0  0.35854  0.13686  0.61636  1.0000
  H   H60       1.0  0.47079  0.17415  0.64929  1.0000
  C   C1        1.0  0.09281  0.97147  0.46971  1.0000
  C   C2        1.0  0.08584  0.96320  0.43321  1.0000
  C   C3        1.0  0.13391  0.93825  0.40652  1.0000
  C   C4        1.0  0.19063  0.92037  0.41544  1.0000
  C   C5        1.0  0.19658  0.92824  0.45186  1.0000
  C   C6        1.0  0.14929  0.95345  0.47843  1.0000
  C   C7        1.0  0.05577  0.49715  0.47061  1.0000
  C   C8        1.0  0.88871  0.49521  0.46792  1.0000
  C   C9        1.0  0.11257  0.52385  0.47872  1.0000
  C   C10       1.0  0.16190  0.52136  0.45220  1.0000
  C   C11       1.0  0.15685  0.49194  0.41630  1.0000
  C   C12       1.0  0.09995  0.46515  0.40796  1.0000
  C   C13       1.0  0.05033  0.46786  0.43475  1.0000
  C   C14       1.0  0.82549  0.47177  0.45703  1.0000
  C   C15       1.0  0.78167  0.46721  0.42802  1.0000
  C   C16       1.0  0.79928  0.48618  0.40849  1.0000
  C   C17       1.0  0.86173  0.51006  0.41959  1.0000
  C   C18       1.0  0.90569  0.51432  0.44850  1.0000
  C   C19       1.0  0.55520  0.48271  0.00005  1.0000
  C   C20       1.0  0.55209  0.51569  0.99892  1.0000
  C   C21       1.0  0.54406  0.51748  0.96476  1.0000
  C   C22       1.0  0.54872  0.48087  0.03429  1.0000
  C   C23       1.0  0.49456  0.49433  0.93687  1.0000
  C   C24       1.0  0.49430  0.50130  0.06071  1.0000
  C   C25       1.0  0.48800  0.49692  0.90522  1.0000
  C   C26       1.0  0.48672  0.49841  0.09216  1.0000
  C   C27       1.0  0.53129  0.52287  0.89999  1.0000
  C   C28       1.0  0.53439  0.47517  0.09895  1.0000
  C   C29       1.0  0.58112  0.54575  0.92768  1.0000
  C   C30       1.0  0.58836  0.45457  0.07245  1.0000
  C   C31       1.0  0.58635  0.54361  0.95955  1.0000
  C   C32       1.0  0.59489  0.45702  0.04069  1.0000
  C   C33       1.0  0.50791  0.22747  0.75067  1.0000
  C   C34       1.0  0.44329  0.24930  0.76412  1.0000
  C   C35       1.0  0.44100  0.17584  0.69978  1.0000
  C   C36       1.0  0.38806  0.16542  0.71794  1.0000
  C   C37       1.0  0.44498  0.28174  0.79738  1.0000
  C   C38       1.0  0.51072  0.29397  0.81799  1.0000
  C   C39       1.0  0.57476  0.27166  0.80459  1.0000
  C   C40       1.0  0.57337  0.23888  0.77188  1.0000
  C   C41       1.0  0.32590  0.14446  0.69927  1.0000
  C   C42       1.0  0.31500  0.13374  0.66240  1.0000
  C   C43       1.0  0.42972  0.16578  0.66308  1.0000
  C   C44       1.0  0.50801  0.66901  0.14876  1.0000
  C   C45       1.0  0.51192  0.32917  0.85160  1.0000
  C   C46       1.0  0.76907  0.87116  0.36659  1.0000
  C   C47       1.0  0.76298  0.13052  0.62705  1.0000
  C   C48       1.0  0.24901  0.88439  0.35775  1.0000
  C   C49       1.0  0.25244  0.11018  0.64177  1.0000
  C   C50       1.0  0.47151  0.53516  0.75479  1.0000
  C   C51       1.0  0.47657  0.46845  0.24766  1.0000
  C   C52       1.0  0.41402  0.51508  0.76058  1.0000
  C   C53       1.0  0.42878  0.49425  0.24530  1.0000
  C   C54       1.0  0.59017  0.51604  0.69617  1.0000
  C   C55       1.0  0.59574  0.48487  0.30502  1.0000
  C   C56       1.0  0.53491  0.54358  0.70687  1.0000
  C   C57       1.0  0.53916  0.45770  0.29379  1.0000
  C   C58       1.0  0.40540  0.46503  0.29647  1.0000
  C   C59       1.0  0.33750  0.45082  0.27841  1.0000
  C   C60       1.0  0.41649  0.50894  0.79030  1.0000
  C   C61       1.0  0.43374  0.50072  0.21577  1.0000
  C   C62       1.0  0.47616  0.52217  0.81498  1.0000
  C   C63       1.0  0.48587  0.48176  0.18770  1.0000
  C   C64       1.0  0.53400  0.54183  0.80865  1.0000
  C   C65       1.0  0.53373  0.45610  0.19050  1.0000
  C   C66       1.0  0.53179  0.54846  0.77933  1.0000
  C   C67       1.0  0.52953  0.44962  0.21991  1.0000
  C   C68       1.0  0.27298  0.45404  0.29834  1.0000
  C   C69       1.0  0.27452  0.47132  0.33650  1.0000
  C   C70       1.0  0.34276  0.48599  0.35424  1.0000
  C   C71       1.0  0.40687  0.48304  0.33472  1.0000
  C   C72       1.0  0.54077  0.57117  0.69633  1.0000
  C   C73       1.0  0.54473  0.42840  0.30194  1.0000
  C   C74       1.0  0.59930  0.57039  0.67422  1.0000
  C   C75       1.0  0.60420  0.42727  0.32245  1.0000
  C   C76       1.0  0.65231  0.54166  0.66148  1.0000
  C   C77       1.0  0.65847  0.45567  0.33590  1.0000
  C   C78       1.0  0.64755  0.51492  0.67336  1.0000
  C   C79       1.0  0.65404  0.48412  0.32626  1.0000
  C   C80       1.0  0.47625  0.51632  0.84646  1.0000
  C   C81       1.0  0.48908  0.48860  0.15678  1.0000
  C   C82       1.0  0.70703  0.53956  0.63486  1.0000
  C   C83       1.0  0.71406  0.45610  0.36128  1.0000
  C   C84       1.0  0.20492  0.53430  0.64717  1.0000
  C   C85       1.0  0.20844  0.47406  0.35804  1.0000
  C   C86       1.0  0.36784  0.14516  0.64478  1.0000
  C   C87       1.0  0.04677  0.99942  0.50007  1.0000
  C   C88       1.0  0.97068  0.99967  0.49962  1.0000
  C   C89       1.0  0.00801  0.50044  0.50098  1.0000
  C   C90       1.0  0.93174  0.49944  0.49977  1.0000
  N   N1        1.0  0.56724  0.65544  0.12927  1.0000
  N   N2        1.0  0.57310  0.34462  0.86840  1.0000
  N   N3        1.0  0.77409  0.90707  0.38446  1.0000
  N   N4        1.0  0.77525  0.09534  0.61423  1.0000
  N   N5        1.0  0.24547  0.89651  0.39238  1.0000
  N   N6        1.0  0.24325  0.10293  0.60851  1.0000
  N   N7        1.0  0.53073  0.52799  0.86942  1.0000
  N   N8        1.0  0.53262  0.46964  0.12937  1.0000
  N   N9        1.0  0.74689  0.51029  0.61584  1.0000
  N   N10       1.0  0.75507  0.48496  0.38058  1.0000
  N   N11       1.0  0.20605  0.51355  0.61231  1.0000
  N   N12       1.0  0.21383  0.49029  0.39299  1.0000
  N   N13       1.0  0.46911  0.54218  0.72521  1.0000
  N   N14       1.0  0.47275  0.46134  0.27730  1.0000
  N   N15       1.0  0.50895  0.80484  0.28228  1.0000
  N   N16       1.0  0.50788  0.19504  0.71677  1.0000
  C   C91       1.0  0.12846  0.47622  0.52802  1.0000
  C   C92       1.0  0.06526  0.49687  0.53016  1.0000
  C  Sn1       1.0  0.04498  0.52747  0.56310  1.0000
  C  Sn2       1.0  0.08891  0.53751  0.59444  1.0000
  C   C93       1.0  0.15208  0.51669  0.59201  1.0000
  C   C94       1.0  0.17185  0.48612  0.55891  1.0000
  H   H61       1.0  0.14379  0.45257  0.50241  1.0000
  O  Te1       1.0  0.98164  0.54779  0.56477  1.0000
  O  Te2       1.0  0.06993  0.56798  0.62770  1.0000
  H   H62       1.0  0.22082  0.47015  0.55726  1.0000
  Mg  Mg1       1.0  0.97858  0.58700  0.61627  1.0000
  C   C95       1.0  0.65165  0.79673  0.30673  1.0000
  C   C96       1.0  0.58842  0.81384  0.30238  1.0000
  C  Sn3       1.0  0.58585  0.85252  0.31744  1.0000
  C  Sn4       1.0  0.64781  0.87438  0.33720  1.0000
  C   C97       1.0  0.71083  0.85699  0.34138  1.0000
  C   C98       1.0  0.71280  0.81828  0.32621  1.0000
  H   H63       1.0  0.65320  0.76677  0.29497  1.0000
  O  Te3       1.0  0.52223  0.86916  0.31284  1.0000
  O  Te4       1.0  0.64674  0.91308  0.35253  1.0000
  H   H64       1.0  0.76178  0.80503  0.32956  1.0000
  Mg  Mg2       1.0  0.54739  0.92287  0.33885  1.0000
  C   C99       1.0  0.28321  0.56177  0.71499  1.0000
  C   C100      1.0  0.27081  0.54270  0.67757  1.0000
  C  Sn5       1.0  0.32569  0.51947  0.65403  1.0000
  C  Sn6       1.0  0.39419  0.51530  0.66830  1.0000
  C   C101      1.0  0.40603  0.53447  0.70578  1.0000
  C   C102      1.0  0.35075  0.55766  0.72908  1.0000
  H   H65       1.0  0.24043  0.57969  0.73302  1.0000
  O  Te5       1.0  0.31240  0.50063  0.61672  1.0000
  O  Te6       1.0  0.44998  0.49225  0.64539  1.0000
  H   H66       1.0  0.36034  0.57240  0.75805  1.0000
  Mg  Mg3       1.0  0.40557  0.47243  0.59652  1.0000
  C   C103      1.0  0.65915  0.20425  0.68676  1.0000
  C   C104      1.0  0.60007  0.18677  0.69443  1.0000
  C  Sn7       1.0  0.60112  0.14838  0.68155  1.0000
  C  Sn8       1.0  0.66255  0.12717  0.66061  1.0000
  C   C105      1.0  0.72141  0.14492  0.65311  1.0000
  C   C106      1.0  0.71977  0.18335  0.66613  1.0000
  H   H67       1.0  0.65792  0.23399  0.69685  1.0000
  O  Te7       1.0  0.54162  0.13137  0.68945  1.0000
  O  Te8       1.0  0.66504  0.08876  0.64741  1.0000
  H   H68       1.0  0.76555  0.19687  0.66021  1.0000
  Mg  Mg4       1.0  0.57063  0.07828  0.66538  1.0000
  C   C107      1.0  0.84096  0.02660  0.56474  1.0000
  C   C108      1.0  0.84545  0.06525  0.58602  1.0000
  C  Sn9       1.0  0.89766  0.08551  0.57781  1.0000
  C  Sn10      1.0  0.94618  0.06665  0.54771  1.0000
  C   C109      1.0  0.94120  0.02798  0.52657  1.0000
  C   C110      1.0  0.88878  0.00798  0.53504  1.0000
  H   H69       1.0  0.80037  0.01113  0.57128  1.0000
  O  Te9       1.0  0.90141  0.12412  0.59937  1.0000
  O  Te10      1.0  0.99885  0.08622  0.53888  1.0000
  H   H70       1.0  0.88528  0.97806  0.51854  1.0000
  Mg  Mg5       1.0  0.98250  0.13852  0.57643  1.0000
  C   C111      1.0  0.57958  0.75562  0.21649  1.0000
  C   C112      1.0  0.52248  0.77139  0.24207  1.0000
  C  Sn11      1.0  0.45619  0.75180  0.23811  1.0000
  C  Sn12      1.0  0.44706  0.71575  0.20796  1.0000
  C   C113      1.0  0.50454  0.70021  0.18254  1.0000
  C   C114      1.0  0.57063  0.72006  0.18676  1.0000
  H   H71       1.0  0.63073  0.77097  0.21977  1.0000
  O  Te11      1.0  0.39970  0.76797  0.26391  1.0000
  O  Te12      1.0  0.38140  0.69555  0.20335  1.0000
  H   H72       1.0  0.61485  0.70783  0.16696  1.0000
  Mg  Mg6       1.0  0.32049  0.72946  0.24577  1.0000
  C   C115      1.0  0.62282  0.58435  0.08482  1.0000
  C   C116      1.0  0.58149  0.61645  0.09407  1.0000
  C  Sn13      1.0  0.52317  0.61573  0.07189  1.0000
  C  Sn14      1.0  0.50604  0.58221  0.03988  1.0000
  C   C117      1.0  0.54769  0.55023  0.03088  1.0000
  C   C118      1.0  0.60594  0.55126  0.05326  1.0000
  H   H73       1.0  0.66786  0.58514  0.10214  1.0000
  O  Te13      1.0  0.48246  0.64807  0.08153  1.0000
  O  Te14      1.0  0.44803  0.58070  0.01724  1.0000
  H   H74       1.0  0.63789  0.52639  0.04610  1.0000
  Mg  Mg7       1.0  0.40865  0.63207  0.04191  1.0000
  C   C119      1.0  0.90370  0.91222  0.42730  1.0000
  C   C120      1.0  0.84068  0.92153  0.41409  1.0000
  C  Sn15      1.0  0.82122  0.95879  0.42741  1.0000
  C  Sn16      1.0  0.86578  0.98720  0.45445  1.0000
  C   C121      1.0  0.92874  0.97760  0.46748  1.0000
  C   C122      1.0  0.94770  0.94023  0.45396  1.0000
  H   H75       1.0  0.91839  0.88330  0.41683  1.0000
  O  Te15      1.0  0.75807  0.96759  0.41392  1.0000
  O  Te16      1.0  0.84762  0.02466  0.46823  1.0000
  H   H76       1.0  0.99652  0.93303  0.46418  1.0000
  Mg  Mg8       1.0  0.75621  0.02266  0.44125  1.0000
  C   C123      1.0  0.86925  0.47996  0.57022  1.0000
  C   C124      1.0  0.80826  0.50333  0.58604  1.0000
  C  Sn17      1.0  0.78274  0.52590  0.57199  1.0000
  C  Sn18      1.0  0.81907  0.52499  0.54153  1.0000
  C   C125      1.0  0.88001  0.50150  0.52588  1.0000
  C   C126      1.0  0.90510  0.47904  0.54016  1.0000
  H   H77       1.0  0.88864  0.46257  0.58125  1.0000
  O  Te17      1.0  0.72174  0.54909  0.58814  1.0000
  O  Te18      1.0  0.79470  0.54725  0.52694  1.0000
  H   H78       1.0  0.95229  0.46094  0.52789  1.0000
  Mg  Mg9       1.0  0.70929  0.57424  0.55843  1.0000
  C   C127      1.0  0.18339  0.05037  0.52433  1.0000
  C   C128      1.0  0.12510  0.02931  0.52738  1.0000
  C  Sn19      1.0  0.10259  0.03487  0.56149  1.0000
  C  Sn20      1.0  0.13922  0.06205  0.59307  1.0000
  C   C129      1.0  0.19744  0.08300  0.58973  1.0000
  C   C130      1.0  0.21953  0.07719  0.55546  1.0000
  H   H79       1.0  0.20046  0.04590  0.49782  1.0000
  O  Te19      1.0  0.04427  0.01358  0.56405  1.0000
  O  Te20      1.0  0.11783  0.06819  0.62750  1.0000
  H   H80       1.0  0.26463  0.09352  0.55311  1.0000
  Mg  Mg10      1.0  0.03536  0.03219  0.61698  1.0000
  C   C131      1.0  0.38845  0.85026  0.35594  1.0000
  C   C132      1.0  0.32854  0.86199  0.34297  1.0000
  C  Sn21      1.0  0.32442  0.85206  0.30624  1.0000
  C  Sn22      1.0  0.38140  0.82997  0.28211  1.0000
  C   C133      1.0  0.44107  0.81835  0.29534  1.0000
  C   C134      1.0  0.44466  0.82846  0.33215  1.0000
  H   H81       1.0  0.39121  0.85805  0.38441  1.0000
  O  Te21      1.0  0.26419  0.86403  0.29375  1.0000
  O  Te22      1.0  0.37865  0.81963  0.24526  1.0000
  H   H82       1.0  0.49102  0.81935  0.34217  1.0000
  Mg  Mg11      1.0  0.28532  0.84277  0.24121  1.0000
  C   C135      1.0  0.52158  0.40749  0.95504  1.0000
  C   C136      1.0  0.56956  0.43810  0.96715  1.0000
  C  Sn23      1.0  0.62608  0.43878  0.94452  1.0000
  C  Sn24      1.0  0.63458  0.40821  0.90911  1.0000
  C   C137      1.0  0.58626  0.37773  0.89724  1.0000
  C   C138      1.0  0.52991  0.37734  0.92012  1.0000
  H   H83       1.0  0.47795  0.40719  0.97273  1.0000
  O  Te23      1.0  0.67355  0.46957  0.95705  1.0000
  O  Te24      1.0  0.69058  0.40817  0.88593  1.0000
  H   H84       1.0  0.49274  0.35364  0.91073  1.0000
  Mg  Mg12      1.0  0.72629  0.45650  0.91538  1.0000
