data_image0
_chemical_formula_structural       H48C60N8C2Sn2C2HTe2HMgC2Sn2C2HTe2HMgC2Sn2C2HTe2HMgC2Sn2C2HTe2HMgC2Sn2C2HTe2HMgC2Sn2C2HTe2HMg
_chemical_formula_sum              "H60 C84 N8 Sn12 Te12 Mg6"
_cell_length_a       23.688
_cell_length_b       23.1016
_cell_length_c       11.0486
_cell_angle_alpha    85.9339
_cell_angle_beta     91.6041
_cell_angle_gamma    120.073

_symmetry_space_group_name_H-M    'P1'
_space_group_IT_number       1

loop_
  _space_group_symop_operation_xyz
  'x, y, z'

loop_
  _atom_site_type_symbol
  _atom_site_label
  _atom_site_symmetry_multiplicity
  _atom_site_fract_x
  _atom_site_fract_y
  _atom_site_fract_z
  _atom_site_occupancy
  H   H1        1.0  0.29308  0.81962  0.34318  1.0000
  H   H2        1.0  0.22891  0.87562  0.36394  1.0000
  H   H3        1.0  0.32656  0.00685  0.04947  1.0000
  H   H4        1.0  0.39166  0.95070  0.02943  1.0000
  H   H5        1.0  0.45112  0.85499  0.37958  1.0000
  H   H6        1.0  0.57115  0.91514  0.40465  1.0000
  H   H7        1.0  0.59486  0.99314  0.03248  1.0000
  H   H8        1.0  0.47484  0.93055  0.00668  1.0000
  H   H9        1.0  0.20003  0.54286  0.06904  1.0000
  H   H10       1.0  0.12782  0.42864  0.01746  1.0000
  H   H11       1.0  0.06928  0.30624  0.07075  1.0000
  H   H12       1.0  0.16773  0.34054  0.41352  1.0000
  H   H13       1.0  0.22928  0.46326  0.35703  1.0000
  H   H14       1.0  0.20344  0.27673  0.19733  1.0000
  H   H15       1.0  0.20601  0.20967  0.28194  1.0000
  H   H16       1.0  0.20595  0.27466  0.35668  1.0000
  H   H17       1.0  0.99487  0.00063  0.31561  1.0000
  H   H18       1.0  0.92241  0.00339  0.28401  1.0000
  H   H19       1.0  0.95135  0.00958  0.43367  1.0000
  H   H20       1.0  0.00552  0.29688  0.32672  1.0000
  H   H21       1.0  0.92800  0.22222  0.32950  1.0000
  H   H22       1.0  0.96819  0.26135  0.19022  1.0000
  H   H23       1.0  0.89681  0.13478  0.49548  1.0000
  H   H24       1.0  0.77653  0.08305  0.49687  1.0000
  H   H25       1.0  0.76820  0.00993  0.14577  1.0000
  H   H26       1.0  0.88871  0.06137  0.14465  1.0000
  H   H27       1.0  0.67069  0.01777  0.40215  1.0000
  H   H28       1.0  0.20664  0.95343  0.38906  1.0000
  H   H29       1.0  0.44557  0.77183  0.70826  1.0000
  H   H30       1.0  0.38958  0.64860  0.73338  1.0000
  H   H31       1.0  0.20487  0.63805  0.67345  1.0000
  H   H32       1.0  0.25957  0.76169  0.65901  1.0000
  H   H33       1.0  0.20283  0.54139  0.57797  1.0000
  H   H34       1.0  0.20633  0.28079  0.71596  1.0000
  H   H35       1.0  0.20544  0.20478  0.75991  1.0000
  H   H36       1.0  0.20595  0.25632  0.87065  1.0000
  H   H37       1.0  0.96645  0.00633  0.93241  1.0000
  H   H38       1.0  0.99275  0.99740  0.79056  1.0000
  H   H39       1.0  0.91895  0.99923  0.80252  1.0000
  H   H40       1.0  0.93091  0.22207  0.81166  1.0000
  H   H41       1.0  0.96143  0.24373  0.66185  1.0000
  H   H42       1.0  0.00712  0.29601  0.77849  1.0000
  H   H43       1.0  0.90029  0.13815  0.98406  1.0000
  H   H44       1.0  0.78010  0.08854  0.98812  1.0000
  H   H45       1.0  0.76636  0.00347  0.64767  1.0000
  H   H46       1.0  0.88688  0.05273  0.64348  1.0000
  H   H47       1.0  0.67172  0.01643  0.89939  1.0000
  H   H48       1.0  0.22175  0.96388  0.89801  1.0000
  C   C1        1.0  0.34756  0.88177  0.18605  1.0000
  C   C2        1.0  0.45484  0.88951  0.19218  1.0000
  C   C3        1.0  0.30080  0.86115  0.27948  1.0000
  C   C4        1.0  0.26456  0.89288  0.29056  1.0000
  C   C5        1.0  0.27404  0.94677  0.20821  1.0000
  C   C6        1.0  0.32034  0.96637  0.11442  1.0000
  C   C7        1.0  0.35680  0.93490  0.10358  1.0000
  C   C8        1.0  0.48285  0.88657  0.30442  1.0000
  C   C9        1.0  0.55045  0.92065  0.31840  1.0000
  C   C10       1.0  0.59191  0.95955  0.21998  1.0000
  C   C11       1.0  0.56314  0.96346  0.10875  1.0000
  C   C12       1.0  0.49572  0.92888  0.09479  1.0000
  C   C13       1.0  0.21709  0.52635  0.15091  1.0000
  C   C14       1.0  0.18284  0.45426  0.18365  1.0000
  C   C15       1.0  0.13686  0.40932  0.10416  1.0000
  C   C16       1.0  0.10385  0.34047  0.13421  1.0000
  C   C17       1.0  0.11466  0.31449  0.24574  1.0000
  C   C18       1.0  0.15995  0.35975  0.32571  1.0000
  C   C19       1.0  0.19396  0.42831  0.29529  1.0000
  C   C20       1.0  0.07812  0.24083  0.27704  1.0000
  C   C21       1.0  0.11169  0.20464  0.28668  1.0000
  C   C22       1.0  0.07553  0.13385  0.30530  1.0000
  C   C23       1.0  0.00669  0.10009  0.31788  1.0000
  C   C24       1.0  0.97441  0.13766  0.31241  1.0000
  C   C25       1.0  0.00980  0.20814  0.29223  1.0000
  C   C26       1.0  0.18553  0.24285  0.27969  1.0000
  C   C27       1.0  0.96700  0.02453  0.33809  1.0000
  C   C28       1.0  0.90174  0.10275  0.31951  1.0000
  C   C29       1.0  0.97586  0.24900  0.28499  1.0000
  C   C30       1.0  0.86877  0.10740  0.41868  1.0000
  C   C31       1.0  0.80092  0.07829  0.41927  1.0000
  C   C32       1.0  0.76403  0.04365  0.31997  1.0000
  C   C33       1.0  0.79687  0.03748  0.22176  1.0000
  C   C34       1.0  0.86425  0.06625  0.22197  1.0000
  C   C35       1.0  0.69325  0.01531  0.31833  1.0000
  C   C36       1.0  0.20929  0.98187  0.30310  1.0000
  C   C37       1.0  0.35661  0.77666  0.68867  1.0000
  C   C38       1.0  0.39275  0.74321  0.70411  1.0000
  C   C39       1.0  0.36143  0.67376  0.71674  1.0000
  C   C40       1.0  0.29329  0.63420  0.70633  1.0000
  C   C41       1.0  0.25765  0.66747  0.68205  1.0000
  C   C42       1.0  0.28844  0.73730  0.67491  1.0000
  C   C43       1.0  0.21841  0.52395  0.66074  1.0000
  C   C44       1.0  0.07943  0.23699  0.76947  1.0000
  C   C45       1.0  0.11260  0.20046  0.78409  1.0000
  C   C46       1.0  0.07603  0.12990  0.80210  1.0000
  C   C47       1.0  0.00725  0.09628  0.81257  1.0000
  C   C48       1.0  0.97508  0.13389  0.80315  1.0000
  C   C49       1.0  0.01075  0.20414  0.77827  1.0000
  C   C50       1.0  0.18633  0.23719  0.78152  1.0000
  C   C51       1.0  0.96916  0.02087  0.83479  1.0000
  C   C52       1.0  0.90252  0.10009  0.81238  1.0000
  C   C53       1.0  0.97574  0.24361  0.75758  1.0000
  C   C54       1.0  0.87115  0.10850  0.91019  1.0000
  C   C55       1.0  0.80349  0.08080  0.91235  1.0000
  C   C56       1.0  0.76540  0.04393  0.81603  1.0000
  C   C57       1.0  0.79639  0.03320  0.72049  1.0000
  C   C58       1.0  0.86363  0.06087  0.71879  1.0000
  C   C59       1.0  0.69495  0.01689  0.81412  1.0000
  C   C60       1.0  0.21617  0.98423  0.80834  1.0000
  N   N1        1.0  0.38540  0.84978  0.17615  1.0000
  N   N2        1.0  0.24086  0.98284  0.20852  1.0000
  N   N3        1.0  0.26529  0.56766  0.21467  1.0000
  N   N4        1.0  0.66008  0.99054  0.22174  1.0000
  N   N5        1.0  0.38756  0.84711  0.68368  1.0000
  N   N6        1.0  0.24140  0.97896  0.71018  1.0000
  N   N7        1.0  0.26480  0.56473  0.72811  1.0000
  N   N8        1.0  0.66231  0.99522  0.71568  1.0000
  C   C61       1.0  0.12692  0.01856  0.42019  1.0000
  C   C62       1.0  0.16356  0.01503  0.32701  1.0000
  C  Sn1       1.0  0.17622  0.05559  0.21979  1.0000
  C  Sn2       1.0  0.15169  0.10048  0.20589  1.0000
  C   C63       1.0  0.11512  0.10367  0.29968  1.0000
  C   C64       1.0  0.10272  0.06284  0.40657  1.0000
  H   H49       1.0  0.11736  0.98700  0.50292  1.0000
  O  Te1       1.0  0.21289  0.05141  0.12758  1.0000
  O  Te2       1.0  0.16363  0.14161  0.09970  1.0000
  H   H50       1.0  0.07439  0.06562  0.47873  1.0000
  Mg  Mg1       1.0  0.21143  0.08136  0.99986  1.0000
  C   C65       1.0  0.37643  0.69350  0.21504  1.0000
  C   C66       1.0  0.31014  0.64622  0.20716  1.0000
  C  Sn3       1.0  0.26510  0.66674  0.17487  1.0000
  C  Sn4       1.0  0.28697  0.73591  0.15005  1.0000
  C   C67       1.0  0.35339  0.78281  0.15810  1.0000
  C   C68       1.0  0.39804  0.76173  0.19052  1.0000
  H   H51       1.0  0.41098  0.67719  0.24006  1.0000
  O  Te3       1.0  0.19905  0.61885  0.16747  1.0000
  O  Te4       1.0  0.24301  0.75780  0.11754  1.0000
  H   H52       1.0  0.44937  0.79834  0.19654  1.0000
  Mg  Mg2       1.0  0.15795  0.67341  0.11964  1.0000
  C   C69       1.0  0.51058  0.94901  0.59231  1.0000
  C   C70       1.0  0.46502  0.89657  0.66941  1.0000
  C  Sn5       1.0  0.48497  0.87821  0.77849  1.0000
  C  Sn6       1.0  0.55181  0.91311  0.81074  1.0000
  C   C71       1.0  0.59700  0.96554  0.73302  1.0000
  C   C72       1.0  0.08780  0.98348  0.62407  1.0000
  H   H53       1.0  0.49473  0.96292  0.50804  1.0000
  O  Te5       1.0  0.43882  0.82568  0.85445  1.0000
  O  Te6       1.0  0.57307  0.89582  0.91924  1.0000
  H   H54       1.0  0.12308  0.02411  0.56443  1.0000
  Mg  Mg3       1.0  0.49168  0.82070  0.99260  1.0000
  C   C73       1.0  0.32297  0.95018  0.58648  1.0000
  C   C74       1.0  0.28319  0.94551  0.68208  1.0000
  C  Sn7       1.0  0.27892  0.90769  0.78944  1.0000
  C  Sn8       1.0  0.31522  0.87398  0.80106  1.0000
  C   C75       1.0  0.35492  0.87900  0.70493  1.0000
  C   C76       1.0  0.35881  0.91697  0.59788  1.0000
  H   H55       1.0  0.32601  0.97958  0.50368  1.0000
  O  Te7       1.0  0.23892  0.90354  0.88404  1.0000
  O  Te8       1.0  0.31188  0.83586  0.90737  1.0000
  H   H56       1.0  0.38965  0.92060  0.52392  1.0000
  Mg  Mg4       1.0  0.25523  0.88177  0.01091  1.0000
  C   C77       1.0  0.11582  0.04086  0.92635  1.0000
  C   C78       1.0  0.11157  0.08316  0.83422  1.0000
  C  Sn9       1.0  0.14070  0.09176  0.72114  1.0000
  C  Sn10      1.0  0.17465  0.05729  0.70017  1.0000
  C   C79       1.0  0.17858  0.01505  0.79291  1.0000
  C   C80       1.0  0.14927  0.00682  0.90574  1.0000
  H   H57       1.0  0.09781  0.07079  0.01363  1.0000
  O  Te9       1.0  0.13601  0.13423  0.63010  1.0000
  O  Te10      1.0  0.20419  0.06495  0.58800  1.0000
  H   H58       1.0  0.15253  0.97404  0.97703  1.0000
  Mg  Mg5       1.0  0.18437  0.12835  0.49253  1.0000
  C   C81       1.0  0.13094  0.39098  0.59350  1.0000
  C   C82       1.0  0.17105  0.44200  0.66862  1.0000
  C  Sn11      1.0  0.18691  0.42629  0.78435  1.0000
  C  Sn12      1.0  0.16211  0.35818  0.82537  1.0000
  C   C83       1.0  0.12206  0.30751  0.74949  1.0000
  C   C84       1.0  0.10648  0.32380  0.63387  1.0000
  H   H59       1.0  0.11891  0.40358  0.50401  1.0000
  O  Te11      1.0  0.22702  0.47788  0.85825  1.0000
  O  Te12      1.0  0.17721  0.34107  0.94060  1.0000
  H   H60       1.0  0.07546  0.28429  0.57570  1.0000
  Mg  Mg6       1.0  0.23846  0.46556  0.00789  1.0000
