data_image0
_chemical_formula_structural       H60C90N16SnCSn2CSnTe4Mg2SnCSn2CSnTe4Mg2SnCSn2CSnTe4Mg2SnCSn2CSnTe4Mg2SnCSn2CSnTe4Mg2SnCSn2CSnTe4Mg2SnCSn2CSnTe4Mg2SnCSn2CSnTe4Mg2SnCSn2CSnTe4Mg2SnCSn2CSnTe4Mg2SnCSn2CSnTe4Mg2SnCSn2CSnTe4Mg2
_chemical_formula_sum              "H60 C114 N16 Sn48 Te48 Mg24"
_cell_length_a       17.9626
_cell_length_b       41.0204
_cell_length_c       42.0538
_cell_angle_alpha    118.806
_cell_angle_beta     89.676
_cell_angle_gamma    90.3793

_symmetry_space_group_name_H-M    'P1'
_space_group_IT_number       1

loop_
  _space_group_symop_operation_xyz
  'x, y, z'

loop_
  _atom_site_type_symbol
  _atom_site_label
  _atom_site_symmetry_multiplicity
  _atom_site_fract_x
  _atom_site_fract_y
  _atom_site_fract_z
  _atom_site_occupancy
  H   H1        1.0  0.04288  0.97701  0.42597  1.0000
  H   H2        1.0  0.12810  0.93315  0.37875  1.0000
  H   H3        1.0  0.24062  0.91442  0.45843  1.0000
  H   H4        1.0  0.15610  0.95978  0.50652  1.0000
  H   H5        1.0  0.97738  0.92210  0.45891  1.0000
  H   H6        1.0  0.89351  0.88127  0.40928  1.0000
  H   H7        1.0  0.77820  0.97708  0.41869  1.0000
  H   H8        1.0  0.86085  0.01829  0.47004  1.0000
  H   H9        1.0  0.80831  0.54004  0.52596  1.0000
  H   H10       1.0  0.72605  0.54545  0.57524  1.0000
  H   H11       1.0  0.86395  0.46873  0.59032  1.0000
  H   H12       1.0  0.94722  0.46325  0.54042  1.0000
  H   H13       1.0  0.46105  0.47403  0.94026  1.0000
  H   H14       1.0  0.44975  0.47836  0.88421  1.0000
  H   H15       1.0  0.61499  0.56529  0.92326  1.0000
  H   H16       1.0  0.62436  0.56193  0.98082  1.0000
  H   H17       1.0  0.39942  0.75419  0.25735  1.0000
  H   H18       1.0  0.62507  0.76800  0.29084  1.0000
  H   H19       1.0  0.61574  0.23253  0.70216  1.0000
  H   H20       1.0  0.39884  0.69580  0.19861  1.0000
  H   H21       1.0  0.61588  0.72204  0.17345  1.0000
  H   H22       1.0  0.61552  0.78169  0.23166  1.0000
  H   H23       1.0  0.54418  0.87615  0.31530  1.0000
  H   H24       1.0  0.54746  0.12483  0.68566  1.0000
  H   H25       1.0  0.65785  0.90542  0.35244  1.0000
  H   H26       1.0  0.65957  0.09636  0.64669  1.0000
  H   H27       1.0  0.73830  0.79715  0.32727  1.0000
  H   H28       1.0  0.72631  0.20404  0.66278  1.0000
  H   H29       1.0  0.45501  0.65350  0.14157  1.0000
  H   H30       1.0  0.45773  0.34288  0.86144  1.0000
  H   H31       1.0  0.80933  0.85239  0.36903  1.0000
  H   H32       1.0  0.79521  0.14846  0.61921  1.0000
  H   H33       1.0  0.20717  0.89043  0.34228  1.0000
  H   H34       1.0  0.21722  0.09862  0.65545  1.0000
  H   H35       1.0  0.38866  0.50929  0.26687  1.0000
  H   H36       1.0  0.58568  0.49500  0.70479  1.0000
  H   H37       1.0  0.59146  0.50723  0.29820  1.0000
  H   H38       1.0  0.34114  0.57883  0.75450  1.0000
  H   H39       1.0  0.33597  0.43705  0.24893  1.0000
  H   H40       1.0  0.39687  0.52099  0.21442  1.0000
  H   H41       1.0  0.57365  0.44131  0.16873  1.0000
  H   H42       1.0  0.56630  0.42962  0.22173  1.0000
  H   H43       1.0  0.22586  0.57523  0.72025  1.0000
  H   H44       1.0  0.22082  0.44258  0.28409  1.0000
  H   H45       1.0  0.33017  0.49553  0.62098  1.0000
  H   H46       1.0  0.34323  0.49995  0.38375  1.0000
  H   H47       1.0  0.44609  0.49935  0.65514  1.0000
  H   H48       1.0  0.45897  0.49469  0.34873  1.0000
  H   H49       1.0  0.49804  0.59244  0.70503  1.0000
  H   H50       1.0  0.50122  0.40728  0.29275  1.0000
  H   H51       1.0  0.60329  0.59162  0.66578  1.0000
  H   H52       1.0  0.60797  0.40472  0.32907  1.0000
  H   H53       1.0  0.68869  0.49280  0.66342  1.0000
  H   H54       1.0  0.69616  0.50597  0.33672  1.0000
  H   H55       1.0  0.42680  0.50216  0.84966  1.0000
  H   H56       1.0  0.45185  0.51055  0.15837  1.0000
  H   H57       1.0  0.71030  0.56429  0.63107  1.0000
  H   H58       1.0  0.71696  0.43072  0.36395  1.0000
  H   H59       1.0  0.15736  0.55166  0.66252  1.0000
  H   H60       1.0  0.15613  0.46203  0.34343  1.0000
  C   C1        1.0  0.09281  0.97147  0.46971  1.0000
  C   C2        1.0  0.92520  0.97323  0.46824  1.0000
  C   C3        1.0  0.08584  0.96320  0.43321  1.0000
  C   C4        1.0  0.13391  0.93825  0.40652  1.0000
  C   C5        1.0  0.19063  0.92037  0.41544  1.0000
  C   C6        1.0  0.19658  0.92824  0.45186  1.0000
  C   C7        1.0  0.14929  0.95345  0.47843  1.0000
  C   C8        1.0  0.93364  0.93427  0.45025  1.0000
  C   C9        1.0  0.88633  0.91126  0.42203  1.0000
  C   C10       1.0  0.82885  0.92647  0.41049  1.0000
  C   C11       1.0  0.82208  0.96548  0.42787  1.0000
  C   C12       1.0  0.86834  0.98828  0.45639  1.0000
  C   C13       1.0  0.88532  0.50221  0.53027  1.0000
  C   C14       1.0  0.82178  0.52510  0.54065  1.0000
  C   C15       1.0  0.77582  0.52844  0.56871  1.0000
  C   C16       1.0  0.79169  0.50889  0.58777  1.0000
  C   C17       1.0  0.85347  0.48489  0.57655  1.0000
  C   C18       1.0  0.89970  0.48186  0.54858  1.0000
  C   C19       1.0  0.55520  0.48271  0.00005  1.0000
  C   C20       1.0  0.55209  0.51569  0.99892  1.0000
  C   C21       1.0  0.54406  0.51748  0.96476  1.0000
  C   C22       1.0  0.49456  0.49433  0.93687  1.0000
  C   C23       1.0  0.48800  0.49692  0.90522  1.0000
  C   C24       1.0  0.53129  0.52287  0.89999  1.0000
  C   C25       1.0  0.58112  0.54575  0.92768  1.0000
  C   C26       1.0  0.58635  0.54361  0.95955  1.0000
  C   C27       1.0  0.50789  0.77170  0.24878  1.0000
  C   C28       1.0  0.44646  0.74728  0.23888  1.0000
  C   C29       1.0  0.63255  0.79802  0.30400  1.0000
  C   C30       1.0  0.62581  0.20281  0.69028  1.0000
  C   C31       1.0  0.57686  0.82024  0.30094  1.0000
  C   C32       1.0  0.57468  0.18042  0.69647  1.0000
  C   C33       1.0  0.44659  0.71451  0.20590  1.0000
  C   C34       1.0  0.50807  0.70454  0.18218  1.0000
  C   C35       1.0  0.56904  0.72934  0.19214  1.0000
  C   C36       1.0  0.56882  0.76247  0.22460  1.0000
  C   C37       1.0  0.58702  0.85911  0.31809  1.0000
  C   C38       1.0  0.58755  0.14193  0.68079  1.0000
  C   C39       1.0  0.64999  0.87540  0.33864  1.0000
  C   C40       1.0  0.64944  0.12610  0.65909  1.0000
  C   C41       1.0  0.70562  0.85351  0.34263  1.0000
  C   C42       1.0  0.70066  0.14807  0.65203  1.0000
  C   C43       1.0  0.69619  0.81459  0.32448  1.0000
  C   C44       1.0  0.68782  0.18664  0.66816  1.0000
  C   C45       1.0  0.50801  0.66901  0.14876  1.0000
  C   C46       1.0  0.51192  0.32917  0.85160  1.0000
  C   C47       1.0  0.76907  0.87116  0.36659  1.0000
  C   C48       1.0  0.76298  0.13052  0.62705  1.0000
  C   C49       1.0  0.24901  0.88439  0.35775  1.0000
  C   C50       1.0  0.25244  0.11018  0.64177  1.0000
  C   C51       1.0  0.47657  0.46845  0.24766  1.0000
  C   C52       1.0  0.42878  0.49425  0.24530  1.0000
  C   C53       1.0  0.59017  0.51604  0.69617  1.0000
  C   C54       1.0  0.59574  0.48487  0.30502  1.0000
  C   C55       1.0  0.53491  0.54358  0.70687  1.0000
  C   C56       1.0  0.53916  0.45770  0.29379  1.0000
  C   C57       1.0  0.40115  0.53972  0.70685  1.0000
  C   C58       1.0  0.40540  0.46503  0.29647  1.0000
  C   C59       1.0  0.33848  0.56066  0.72530  1.0000
  C   C60       1.0  0.33750  0.45082  0.27841  1.0000
  C   C61       1.0  0.43374  0.50072  0.21577  1.0000
  C   C62       1.0  0.48587  0.48176  0.18770  1.0000
  C   C63       1.0  0.53373  0.45610  0.19050  1.0000
  C   C64       1.0  0.52953  0.44962  0.21991  1.0000
  C   C65       1.0  0.27398  0.55844  0.70598  1.0000
  C   C66       1.0  0.27298  0.45404  0.29834  1.0000
  C   C67       1.0  0.27064  0.53544  0.66808  1.0000
  C   C68       1.0  0.27452  0.47132  0.33650  1.0000
  C   C69       1.0  0.33352  0.51385  0.65012  1.0000
  C   C70       1.0  0.34276  0.48599  0.35424  1.0000
  C   C71       1.0  0.39766  0.51597  0.66909  1.0000
  C   C72       1.0  0.40687  0.48304  0.33472  1.0000
  C   C73       1.0  0.54077  0.57117  0.69633  1.0000
  C   C74       1.0  0.54473  0.42840  0.30194  1.0000
  C   C75       1.0  0.59930  0.57039  0.67422  1.0000
  C   C76       1.0  0.60420  0.42727  0.32245  1.0000
  C   C77       1.0  0.65231  0.54166  0.66148  1.0000
  C   C78       1.0  0.65847  0.45567  0.33590  1.0000
  C   C79       1.0  0.64755  0.51492  0.67336  1.0000
  C   C80       1.0  0.65404  0.48412  0.32626  1.0000
  C   C81       1.0  0.47625  0.51632  0.84646  1.0000
  C   C82       1.0  0.48908  0.48860  0.15678  1.0000
  C   C83       1.0  0.70703  0.53956  0.63486  1.0000
  C   C84       1.0  0.71406  0.45610  0.36128  1.0000
  C   C85       1.0  0.20492  0.53430  0.64717  1.0000
  C   C86       1.0  0.20844  0.47406  0.35804  1.0000
  C   C87       1.0  0.04677  0.99942  0.50007  1.0000
  C   C88       1.0  0.97068  0.99967  0.49962  1.0000
  C   C89       1.0  0.00801  0.50044  0.50098  1.0000
  C   C90       1.0  0.93174  0.49944  0.49977  1.0000
  N   N1        1.0  0.56724  0.65544  0.12927  1.0000
  N   N2        1.0  0.57310  0.34462  0.86840  1.0000
  N   N3        1.0  0.77409  0.90707  0.38446  1.0000
  N   N4        1.0  0.77525  0.09534  0.61423  1.0000
  N   N5        1.0  0.24547  0.89651  0.39238  1.0000
  N   N6        1.0  0.24325  0.10293  0.60851  1.0000
  N   N7        1.0  0.53073  0.52799  0.86942  1.0000
  N   N8        1.0  0.53262  0.46964  0.12937  1.0000
  N   N9        1.0  0.74689  0.51029  0.61584  1.0000
  N   N10       1.0  0.75507  0.48496  0.38058  1.0000
  N   N11       1.0  0.20605  0.51355  0.61231  1.0000
  N   N12       1.0  0.21383  0.49029  0.39299  1.0000
  N   N13       1.0  0.46911  0.54218  0.72521  1.0000
  N   N14       1.0  0.47275  0.46134  0.27730  1.0000
  N   N15       1.0  0.50895  0.80484  0.28228  1.0000
  N   N16       1.0  0.50788  0.19504  0.71677  1.0000
  C  Sn1       1.0  0.88705  0.50399  0.41840  1.0000
  C   C91       1.0  0.82204  0.48287  0.40517  1.0000
  C  Sn2       1.0  0.78420  0.46958  0.42576  1.0000
  C  Sn3       1.0  0.81189  0.47760  0.46030  1.0000
  C   C92       1.0  0.87684  0.49871  0.47352  1.0000
  C  Sn4       1.0  0.91473  0.51200  0.45295  1.0000
  O  Te1       1.0  0.92396  0.51698  0.39736  1.0000
  O  Te2       1.0  0.71934  0.44851  0.41195  1.0000
  O  Te3       1.0  0.77491  0.46458  0.48134  1.0000
  O  Te4       1.0  0.97954  0.53306  0.46674  1.0000
  Mg  Mg1       1.0  0.68881  0.43705  0.45081  1.0000
  Mg  Mg2       1.0  0.01010  0.54456  0.42791  1.0000
  C  Sn5       1.0  0.11156  0.53167  0.47227  1.0000
  C   C93       1.0  0.05409  0.50718  0.46918  1.0000
  C  Sn6       1.0  0.05089  0.47155  0.43924  1.0000
  C  Sn7       1.0  0.10632  0.46013  0.41184  1.0000
  C   C94       1.0  0.16375  0.48461  0.41495  1.0000
  C  Sn8       1.0  0.16698  0.52025  0.44487  1.0000
  O  Te5       1.0  0.11365  0.56716  0.50243  1.0000
  O  Te6       1.0  0.99289  0.44756  0.43674  1.0000
  O  Te7       1.0  0.10418  0.42460  0.38166  1.0000
  O  Te8       1.0  0.22495  0.54422  0.44738  1.0000
  Mg  Mg3       1.0  0.01414  0.40200  0.39049  1.0000
  Mg  Mg4       1.0  0.20377  0.58978  0.49363  1.0000
  C  Sn9       1.0  0.08946  0.05155  0.57627  1.0000
  C   C95       1.0  0.09416  0.03785  0.53879  1.0000
  C  Sn10      1.0  0.15961  0.04226  0.52314  1.0000
  C  Sn11      1.0  0.22169  0.06073  0.54542  1.0000
  C   C96       1.0  0.21698  0.07441  0.58287  1.0000
  C  Sn12      1.0  0.15154  0.07001  0.59855  1.0000
  O  Te9       1.0  0.02347  0.04683  0.59133  1.0000
  O  Te10      1.0  0.16297  0.02834  0.48560  1.0000
  O  Te11      1.0  0.28771  0.06544  0.53033  1.0000
  O  Te12      1.0  0.14817  0.08392  0.63606  1.0000
  Mg  Mg5       1.0  0.26510  0.04162  0.47784  1.0000
  Mg  Mg6       1.0  0.04609  0.07064  0.64385  1.0000
  C  Sn13      1.0  0.51578  0.59294  0.03947  1.0000
  C   C97       1.0  0.56249  0.56234  0.02914  1.0000
  C  Sn14      1.0  0.60794  0.55980  0.05469  1.0000
  C  Sn15      1.0  0.60664  0.58843  0.09135  1.0000
  C   C98       1.0  0.55995  0.61901  0.10167  1.0000
  C  Sn16      1.0  0.51449  0.62158  0.07613  1.0000
  O  Te13      1.0  0.47081  0.59490  0.01347  1.0000
  O  Te14      1.0  0.65419  0.52893  0.04371  1.0000
  O  Te15      1.0  0.65166  0.58645  0.11735  1.0000
  O  Te16      1.0  0.46825  0.65241  0.08710  1.0000
  Mg  Mg7       1.0  0.70515  0.53889  0.08915  1.0000
  Mg  Mg8       1.0  0.41723  0.64248  0.04168  1.0000
  C  Sn17      1.0  0.54809  0.53876  0.78018  1.0000
  C   C99       1.0  0.49243  0.52866  0.75398  1.0000
  C  Sn18      1.0  0.42243  0.51730  0.75965  1.0000
  C  Sn19      1.0  0.40774  0.51603  0.79221  1.0000
  C   C100      1.0  0.46338  0.52613  0.81839  1.0000
  C  Sn20      1.0  0.53340  0.53749  0.81274  1.0000
  O  Te17      1.0  0.61767  0.55004  0.77394  1.0000
  O  Te18      1.0  0.36767  0.50732  0.73305  1.0000
  O  Te19      1.0  0.33810  0.50474  0.79843  1.0000
  O  Te20      1.0  0.58813  0.54747  0.83932  1.0000
  Mg  Mg9       1.0  0.28165  0.49387  0.75410  1.0000
  Mg  Mg10      1.0  0.67416  0.56094  0.81831  1.0000
  C  Sn21      1.0  0.65355  0.41107  0.91853  1.0000
  C   C101      1.0  0.60906  0.37952  0.90835  1.0000
  C  Sn22      1.0  0.54225  0.38200  0.92653  1.0000
  C  Sn23      1.0  0.51940  0.41675  0.95547  1.0000
  C   C102      1.0  0.56387  0.44827  0.96563  1.0000
  C  Sn24      1.0  0.63070  0.44581  0.94747  1.0000
  O  Te21      1.0  0.72012  0.40794  0.89997  1.0000
  O  Te22      1.0  0.49873  0.35007  0.91588  1.0000
  O  Te23      1.0  0.45277  0.41986  0.97403  1.0000
  O  Te24      1.0  0.65909  0.47772  0.95810  1.0000
  Mg  Mg11      1.0  0.41266  0.36848  0.94948  1.0000
  Mg  Mg12      1.0  0.74515  0.45935  0.92451  1.0000
  C  Sn25      1.0  0.60107  0.26984  0.79266  1.0000
  C   C103      1.0  0.54283  0.29470  0.80989  1.0000
  C  Sn26      1.0  0.46927  0.28410  0.79903  1.0000
  C  Sn27      1.0  0.45359  0.24788  0.77038  1.0000
  C   C104      1.0  0.51182  0.22304  0.75317  1.0000
  C  Sn28      1.0  0.58540  0.23363  0.76401  1.0000
  O  Te25      1.0  0.67419  0.28104  0.80396  1.0000
  O  Te26      1.0  0.41197  0.30944  0.81666  1.0000
  O  Te27      1.0  0.38040  0.23670  0.75909  1.0000
  O  Te28      1.0  0.64267  0.20830  0.74640  1.0000
  Mg  Mg13      1.0  0.32147  0.28115  0.79150  1.0000
  Mg  Mg14      1.0  0.73318  0.23655  0.77156  1.0000
  C  Sn29      1.0  0.40928  0.14004  0.64348  1.0000
  C   C105      1.0  0.35086  0.12787  0.65729  1.0000
  C  Sn30      1.0  0.34099  0.14305  0.69472  1.0000
  C  Sn31      1.0  0.39051  0.17100  0.71887  1.0000
  C   C106      1.0  0.44888  0.18316  0.70506  1.0000
  C  Sn32      1.0  0.45880  0.16799  0.66763  1.0000
  O  Te29      1.0  0.41809  0.12448  0.60596  1.0000
  O  Te30      1.0  0.28220  0.13042  0.70788  1.0000
  O  Te31      1.0  0.38166  0.18656  0.75642  1.0000
  O  Te32      1.0  0.51755  0.18061  0.65447  1.0000
  Mg  Mg15      1.0  0.29320  0.16019  0.76119  1.0000
  Mg  Mg16      1.0  0.50658  0.15087  0.60117  1.0000
  C  Sn33      1.0  0.85613  0.01574  0.54258  1.0000
  C   C107      1.0  0.91491  0.02497  0.52644  1.0000
  C  Sn34      1.0  0.94574  0.06071  0.54363  1.0000
  C  Sn35      1.0  0.91725  0.08779  0.57766  1.0000
  C   C108      1.0  0.85851  0.07856  0.59379  1.0000
  C  Sn36      1.0  0.82764  0.04282  0.57662  1.0000
  O  Te33      1.0  0.82617  0.97983  0.52492  1.0000
  O  Te34      1.0  0.00446  0.06928  0.52695  1.0000
  O  Te35      1.0  0.94726  0.12372  0.59532  1.0000
  O  Te36      1.0  0.76897  0.03424  0.59328  1.0000
  Mg  Mg17      1.0  0.02667  0.12199  0.56172  1.0000
  Mg  Mg18      1.0  0.74674  0.98155  0.55854  1.0000
  C  Sn37      1.0  0.37846  0.84274  0.28478  1.0000
  C   C109      1.0  0.43952  0.83293  0.29878  1.0000
  C  Sn38      1.0  0.43488  0.83449  0.33265  1.0000
  C  Sn39      1.0  0.36780  0.84609  0.35296  1.0000
  C   C110      1.0  0.30679  0.85589  0.33895  1.0000
  C  Sn40      1.0  0.31138  0.85434  0.30508  1.0000
  O  Te37      1.0  0.38435  0.84096  0.25085  1.0000
  O  Te38      1.0  0.49666  0.82456  0.34609  1.0000
  O  Te39      1.0  0.36195  0.84786  0.38691  1.0000
  O  Te40      1.0  0.24964  0.86426  0.29164  1.0000
  Mg  Mg19      1.0  0.46129  0.83152  0.39363  1.0000
  Mg  Mg20      1.0  0.28493  0.85729  0.24410  1.0000
  C  Sn41      1.0  0.58302  0.44624  0.04175  1.0000
  C   C111      1.0  0.54197  0.46814  0.03107  1.0000
  C  Sn42      1.0  0.49886  0.49755  0.05632  1.0000
  C  Sn43      1.0  0.49675  0.50525  0.09301  1.0000
  C   C112      1.0  0.53778  0.48337  0.10367  1.0000
  C  Sn44      1.0  0.58091  0.45394  0.07844  1.0000
  O  Te41      1.0  0.62574  0.41698  0.01605  1.0000
  O  Te42      1.0  0.45828  0.51904  0.04500  1.0000
  O  Te43      1.0  0.45397  0.53454  0.11871  1.0000
  O  Te44      1.0  0.62148  0.43246  0.08974  1.0000
  Mg  Mg21      1.0  0.40843  0.55588  0.09011  1.0000
  Mg  Mg22      1.0  0.67137  0.39563  0.04467  1.0000
  C  Sn45      1.0  0.10973  0.47133  0.53165  1.0000
  C   C113      1.0  0.05143  0.49469  0.53377  1.0000
  C  Sn46      1.0  0.04466  0.53006  0.56385  1.0000
  C  Sn47      1.0  0.09728  0.54234  0.59239  1.0000
  C   C114      1.0  0.15554  0.51898  0.59025  1.0000
  C  Sn48      1.0  0.16236  0.48361  0.56019  1.0000
  O  Te45      1.0  0.11543  0.43609  0.50133  1.0000
  O  Te46      1.0  0.98588  0.55291  0.56537  1.0000
  O  Te47      1.0  0.09154  0.57761  0.62273  1.0000
  O  Te48      1.0  0.22109  0.46076  0.55866  1.0000
  Mg  Mg23      1.0  0.00182  0.59855  0.61229  1.0000
  Mg  Mg24      1.0  0.20524  0.41513  0.51174  1.0000
