data_image0
_chemical_formula_structural       H32C54N12SnCSn2CSnTe4Mg2SnCSn2CSnTe4Mg2SnCSn2CSnTe4Mg2SnCSn2CSnTe4Mg2SnCSn2CSnTe4Mg2SnCSn2CSnTe4Mg2SnCSn2CSnTe4Mg2SnCSn2CSnTe4Mg2SnCSn2CSnTe4Mg2SnCSn2CSnTe4Mg2SnCSn2CSnTe4Mg2SnCSn2CSnTe4Mg2SnCSn2CSnTe4Mg2SnCSn2CSnTe4Mg2SnCSn2CSnTe4Mg2SnCSn2CSnTe4Mg2SnCSn2CSnTe4Mg2SnCSn2CSnTe4Mg2SnCSn2CSnTe4Mg2SnCSn2CSnTe4Mg2SnCSn2CSnTe4Mg2SnCSn2CSnTe4Mg2
_chemical_formula_sum              "H32 C98 N12 Sn88 Te88 Mg44"
_cell_length_a       21.0364
_cell_length_b       46.0187
_cell_length_c       45.1717
_cell_angle_alpha    118.54
_cell_angle_beta     89.1568
_cell_angle_gamma    90.7576

_symmetry_space_group_name_H-M    'P1'
_space_group_IT_number       1

loop_
  _space_group_symop_operation_xyz
  'x, y, z'

loop_
  _atom_site_type_symbol
  _atom_site_label
  _atom_site_symmetry_multiplicity
  _atom_site_fract_x
  _atom_site_fract_y
  _atom_site_fract_z
  _atom_site_occupancy
  H   H1        1.0  0.97805  0.45119  0.92898  1.0000
  H   H2        1.0  0.97862  0.54811  0.07054  1.0000
  H   H3        1.0  0.06285  0.41301  0.89375  1.0000
  H   H4        1.0  0.06503  0.58513  0.10567  1.0000
  H   H5        1.0  0.12941  0.41342  0.94334  1.0000
  H   H6        1.0  0.13510  0.58402  0.05563  1.0000
  H   H7        1.0  0.20204  0.46920  0.97131  1.0000
  H   H8        1.0  0.20369  0.52712  0.02793  1.0000
  H   H9        1.0  0.61561  0.25951  0.46961  1.0000
  H   H10       1.0  0.62455  0.73992  0.52886  1.0000
  H   H11       1.0  0.52036  0.34199  0.47060  1.0000
  H   H12       1.0  0.52580  0.66056  0.53517  1.0000
  H   H13       1.0  0.41302  0.25585  0.45566  1.0000
  H   H14       1.0  0.42156  0.74434  0.54480  1.0000
  H   H15       1.0  0.48052  0.10530  0.43156  1.0000
  H   H16       1.0  0.48909  0.89413  0.56833  1.0000
  H   H17       1.0  0.83000  0.38683  0.51799  1.0000
  H   H18       1.0  0.82671  0.60803  0.48001  1.0000
  H   H19       1.0  0.19618  0.35755  0.44530  1.0000
  H   H20       1.0  0.23869  0.62360  0.56462  1.0000
  H   H21       1.0  0.57213  0.72620  0.23037  1.0000
  H   H22       1.0  0.57229  0.27502  0.76600  1.0000
  H   H23       1.0  0.47626  0.63990  0.15581  1.0000
  H   H24       1.0  0.47819  0.35687  0.84761  1.0000
  H   H25       1.0  0.36767  0.72512  0.22293  1.0000
  H   H26       1.0  0.36754  0.27688  0.77256  1.0000
  H   H27       1.0  0.41680  0.86172  0.36629  1.0000
  H   H28       1.0  0.43219  0.14669  0.62348  1.0000
  H   H29       1.0  0.73995  0.57517  0.11804  1.0000
  H   H30       1.0  0.75785  0.41768  0.87328  1.0000
  H   H31       1.0  0.17994  0.62396  0.09366  1.0000
  H   H32       1.0  0.17442  0.37289  0.90482  1.0000
  C   C1        1.0  0.03885  0.47767  0.97277  1.0000
  C   C2        1.0  0.03951  0.52168  0.02635  1.0000
  C   C3        1.0  0.02542  0.45294  0.93898  1.0000
  C   C4        1.0  0.02646  0.54607  0.06039  1.0000
  C   C5        1.0  0.07201  0.43187  0.91955  1.0000
  C   C6        1.0  0.07397  0.56635  0.07977  1.0000
  C   C7        1.0  0.13640  0.43155  0.93358  1.0000
  C   C8        1.0  0.13938  0.56589  0.06547  1.0000
  C   C9        1.0  0.15250  0.46389  0.96398  1.0000
  C   C10       1.0  0.15412  0.53332  0.03505  1.0000
  C   C11       1.0  0.10417  0.48410  0.98307  1.0000
  C   C12       1.0  0.10483  0.51409  0.01591  1.0000
  C   C13       1.0  0.52155  0.00086  0.51537  1.0000
  C   C14       1.0  0.51986  0.99874  0.48389  1.0000
  C   C15       1.0  0.57197  0.27128  0.46829  1.0000
  C   C16       1.0  0.58035  0.72886  0.53165  1.0000
  C   C17       1.0  0.57483  0.30288  0.47093  1.0000
  C   C18       1.0  0.58210  0.69823  0.53126  1.0000
  C   C19       1.0  0.51845  0.31726  0.46804  1.0000
  C   C20       1.0  0.52524  0.68467  0.53621  1.0000
  C   C21       1.0  0.45972  0.30068  0.46246  1.0000
  C   C22       1.0  0.46719  0.70090  0.54065  1.0000
  C   C23       1.0  0.45833  0.26867  0.45894  1.0000
  C   C24       1.0  0.46657  0.73176  0.54163  1.0000
  C   C25       1.0  0.51403  0.25387  0.46210  1.0000
  C   C26       1.0  0.52306  0.74626  0.53758  1.0000
  C   C27       1.0  0.50561  0.12466  0.45347  1.0000
  C   C28       1.0  0.51749  0.87578  0.54709  1.0000
  C   C29       1.0  0.80239  0.38202  0.49557  1.0000
  C   C30       1.0  0.80341  0.61651  0.50474  1.0000
  C   C31       1.0  0.23285  0.37088  0.46430  1.0000
  C   C32       1.0  0.24948  0.62369  0.54074  1.0000
  C   C33       1.0  0.52816  0.71385  0.21818  1.0000
  C   C34       1.0  0.52858  0.28706  0.77902  1.0000
  C   C35       1.0  0.53081  0.68137  0.19163  1.0000
  C   C36       1.0  0.53171  0.31755  0.80835  1.0000
  C   C37       1.0  0.47392  0.66474  0.17709  1.0000
  C   C38       1.0  0.47526  0.33336  0.82452  1.0000
  C   C39       1.0  0.41486  0.68032  0.18771  1.0000
  C   C40       1.0  0.41559  0.31903  0.81196  1.0000
  C   C41       1.0  0.41326  0.71281  0.21447  1.0000
  C   C42       1.0  0.41344  0.28831  0.78249  1.0000
  C   C43       1.0  0.46935  0.72965  0.23055  1.0000
  C   C44       1.0  0.46951  0.27209  0.76571  1.0000
  C   C45       1.0  0.46157  0.85602  0.35174  1.0000
  C   C46       1.0  0.46823  0.14855  0.64172  1.0000
  C   C47       1.0  0.74015  0.59912  0.11813  1.0000
  C   C48       1.0  0.74555  0.39807  0.87976  1.0000
  C   C49       1.0  0.20456  0.60857  0.10255  1.0000
  C   C50       1.0  0.20102  0.38848  0.89634  1.0000
  C   C51       1.0  0.99612  0.50015  0.99953  1.0000
  C   C52       1.0  0.92971  0.50063  0.99934  1.0000
  C   C53       1.0  0.98808  0.50017  0.49971  1.0000
  C   C54       1.0  0.05279  0.50047  0.50043  1.0000
  N   N1        1.0  0.53199  0.11921  0.47602  1.0000
  N   N2        1.0  0.54599  0.88227  0.52532  1.0000
  N   N3        1.0  0.81504  0.39533  0.47661  1.0000
  N   N4        1.0  0.81795  0.60545  0.52520  1.0000
  N   N5        1.0  0.22825  0.40162  0.48673  1.0000
  N   N6        1.0  0.22260  0.60336  0.51283  1.0000
  N   N7        1.0  0.50960  0.87618  0.36126  1.0000
  N   N8        1.0  0.50764  0.12506  0.63610  1.0000
  N   N9        1.0  0.77687  0.60476  0.09812  1.0000
  N   N10       1.0  0.77126  0.39665  0.90489  1.0000
  N   N11       1.0  0.18981  0.57779  0.09091  1.0000
  N   N12       1.0  0.18773  0.41932  0.90817  1.0000
  C  Sn1       1.0  0.16212  0.54384  0.47541  1.0000
  C   C55       1.0  0.16375  0.57665  0.50110  1.0000
  C  Sn2       1.0  0.13321  0.58566  0.53192  1.0000
  C  Sn3       1.0  0.10038  0.56136  0.53717  1.0000
  C   C56       1.0  0.09877  0.52858  0.51149  1.0000
  C  Sn4       1.0  0.12929  0.51955  0.48067  1.0000
  O  Te1       1.0  0.19299  0.53540  0.44481  1.0000
  O  Te2       1.0  0.13548  0.61862  0.55722  1.0000
  O  Te3       1.0  0.06950  0.56984  0.56780  1.0000
  O  Te4       1.0  0.12703  0.48661  0.45538  1.0000
  Mg  Mg1       1.0  0.08612  0.61794  0.59454  1.0000
  Mg  Mg2       1.0  0.17640  0.48726  0.41805  1.0000
  C  Sn5       1.0  0.09115  0.43118  0.46479  1.0000
  C   C57       1.0  0.07932  0.46138  0.49352  1.0000
  C  Sn6       1.0  0.12253  0.47427  0.52003  1.0000
  C  Sn7       1.0  0.17876  0.45663  0.51778  1.0000
  C   C58       1.0  0.19057  0.42645  0.48907  1.0000
  C  Sn8       1.0  0.14737  0.41354  0.46254  1.0000
  O  Te5       1.0  0.04729  0.41876  0.43859  1.0000
  O  Te6       1.0  0.10966  0.50450  0.54849  1.0000
  O  Te7       1.0  0.22263  0.46908  0.54401  1.0000
  O  Te8       1.0  0.16023  0.38333  0.43409  1.0000
  Mg  Mg3       1.0  0.18393  0.51122  0.57756  1.0000
  Mg  Mg4       1.0  0.08601  0.37659  0.40500  1.0000
  C  Sn9       1.0  0.87271  0.53450  0.52202  1.0000
  C   C59       1.0  0.92726  0.52468  0.50164  1.0000
  C  Sn10      1.0  0.95624  0.54591  0.49136  1.0000
  C  Sn11      1.0  0.93018  0.57763  0.50167  1.0000
  C   C60       1.0  0.87567  0.58744  0.52204  1.0000
  C  Sn12      1.0  0.84665  0.56622  0.53233  1.0000
  O  Te9       1.0  0.84453  0.51288  0.53200  1.0000
  O  Te10      1.0  0.01073  0.53554  0.47099  1.0000
  O  Te11      1.0  0.95841  0.59926  0.49167  1.0000
  O  Te12      1.0  0.79221  0.57658  0.55269  1.0000
  Mg  Mg5       1.0  0.03193  0.57386  0.46396  1.0000
  Mg  Mg6       1.0  0.77098  0.53828  0.55975  1.0000
  C  Sn13      1.0  0.88129  0.43317  0.45501  1.0000
  C   C61       1.0  0.87779  0.41504  0.47251  1.0000
  C  Sn14      1.0  0.90774  0.42664  0.50357  1.0000
  C  Sn15      1.0  0.94186  0.45702  0.51744  1.0000
  C   C62       1.0  0.94534  0.47513  0.49995  1.0000
  C  Sn16      1.0  0.91542  0.46354  0.46888  1.0000
  O  Te13      1.0  0.85098  0.42109  0.42400  1.0000
  O  Te14      1.0  0.90359  0.40808  0.52058  1.0000
  O  Te15      1.0  0.97218  0.46909  0.54847  1.0000
  O  Te16      1.0  0.91955  0.48209  0.45187  1.0000
  Mg  Mg7       1.0  0.95286  0.43488  0.56205  1.0000
  Mg  Mg8       1.0  0.87027  0.45532  0.41041  1.0000
  C  Sn17      1.0  0.88702  0.41989  0.95608  1.0000
  C   C63       1.0  0.83732  0.42300  0.93761  1.0000
  C  Sn18      1.0  0.80230  0.45178  0.93482  1.0000
  C  Sn19      1.0  0.84683  0.47800  0.95080  1.0000
  C   C64       1.0  0.89650  0.47488  0.96924  1.0000
  C  Sn20      1.0  0.93155  0.44610  0.97206  1.0000
  O  Te17      1.0  0.89219  0.39090  0.95854  1.0000
  O  Te18      1.0  0.75220  0.45432  0.91623  1.0000
  O  Te19      1.0  0.84161  0.50701  0.94833  1.0000
  O  Te20      1.0  0.98161  0.44356  0.99063  1.0000
  Mg  Mg9       1.0  0.76528  0.49873  0.92022  1.0000
  Mg  Mg10      1.0  0.96860  0.39915  0.98664  1.0000
  C  Sn21      1.0  0.81310  0.53818  0.06375  1.0000
  C   C65       1.0  0.81961  0.57244  0.07731  1.0000
  C  Sn22      1.0  0.86012  0.58575  0.06203  1.0000
  C  Sn23      1.0  0.89483  0.56438  0.03256  1.0000
  C   C66       1.0  0.88830  0.53015  0.01901  1.0000
  C  Sn24      1.0  0.84781  0.51681  0.03428  1.0000
  O  Te21      1.0  0.77232  0.52542  0.07944  1.0000
  O  Te22      1.0  0.86586  0.62008  0.07606  1.0000
  O  Te23      1.0  0.93563  0.57718  0.01687  1.0000
  O  Te24      1.0  0.84205  0.48251  0.02026  1.0000
  Mg  Mg11      1.0  0.92738  0.62560  0.04549  1.0000
  Mg  Mg12      1.0  0.78052  0.47696  0.05080  1.0000
  C  Sn25      1.0  0.49726  0.96461  0.55143  1.0000
  C   C67       1.0  0.53479  0.97427  0.53180  1.0000
  C  Sn26      1.0  0.57305  0.95128  0.50585  1.0000
  C  Sn27      1.0  0.57379  0.91794  0.49935  1.0000
  C   C68       1.0  0.53627  0.90829  0.51896  1.0000
  C  Sn28      1.0  0.49800  0.93127  0.54493  1.0000
  O  Te25      1.0  0.45937  0.98802  0.57724  1.0000
  O  Te26      1.0  0.61017  0.96153  0.48658  1.0000
  O  Te27      1.0  0.61173  0.89453  0.47351  1.0000
  O  Te28      1.0  0.46088  0.92103  0.56419  1.0000
  Mg  Mg13      1.0  0.65390  0.92048  0.45421  1.0000
  Mg  Mg14      1.0  0.41711  0.96206  0.59655  1.0000
  C  Sn29      1.0  0.59349  0.06433  0.50540  1.0000
  C   C69       1.0  0.55128  0.03764  0.49010  1.0000
  C  Sn30      1.0  0.51275  0.03438  0.46374  1.0000
  C  Sn31      1.0  0.51651  0.05830  0.45244  1.0000
  C   C70       1.0  0.55871  0.08497  0.46774  1.0000
  C  Sn32      1.0  0.59726  0.08824  0.49410  1.0000
  O  Te29      1.0  0.63156  0.06708  0.53170  1.0000
  O  Te30      1.0  0.47090  0.00749  0.44884  1.0000
  O  Te31      1.0  0.47839  0.05552  0.42612  1.0000
  O  Te32      1.0  0.63909  0.11511  0.50899  1.0000
  Mg  Mg15      1.0  0.42888  0.01453  0.41386  1.0000
  Mg  Mg16      1.0  0.68115  0.10809  0.54396  1.0000
  C  Sn33      1.0  0.45480  0.91974  0.42452  1.0000
  C   C71       1.0  0.48826  0.91030  0.39437  1.0000
  C  Sn34      1.0  0.54085  0.92870  0.39342  1.0000
  C  Sn35      1.0  0.56044  0.95711  0.42322  1.0000
  C   C72       1.0  0.52699  0.96653  0.45334  1.0000
  C  Sn36      1.0  0.47438  0.94815  0.45432  1.0000
  O  Te33      1.0  0.40236  0.90098  0.42489  1.0000
  O  Te34      1.0  0.57353  0.91879  0.36298  1.0000
  O  Te35      1.0  0.61292  0.97587  0.42283  1.0000
  O  Te36      1.0  0.44172  0.95805  0.48473  1.0000
  Mg  Mg17      1.0  0.64201  0.95240  0.37527  1.0000
  Mg  Mg18      1.0  0.37326  0.92445  0.47248  1.0000
  C  Sn37      1.0  0.47787  0.07620  0.57606  1.0000
  C   C73       1.0  0.51592  0.08883  0.60471  1.0000
  C  Sn38      1.0  0.57445  0.07442  0.60377  1.0000
  C  Sn39      1.0  0.59542  0.04681  0.57356  1.0000
  C   C74       1.0  0.55738  0.03419  0.54493  1.0000
  C  Sn40      1.0  0.49884  0.04859  0.54584  1.0000
  O  Te37      1.0  0.41953  0.09101  0.57757  1.0000
  O  Te38      1.0  0.61165  0.08747  0.63275  1.0000
  O  Te39      1.0  0.65381  0.03200  0.57207  1.0000
  O  Te40      1.0  0.46166  0.03555  0.51689  1.0000
  Mg  Mg19      1.0  0.68747  0.05874  0.61812  1.0000
  Mg  Mg20      1.0  0.38584  0.06428  0.53148  1.0000
  C  Sn41      1.0  0.56274  0.19332  0.48895  1.0000
  C   C75       1.0  0.52977  0.16516  0.46589  1.0000
  C  Sn42      1.0  0.50564  0.16349  0.43646  1.0000
  C  Sn43      1.0  0.51469  0.19051  0.42994  1.0000
  C   C76       1.0  0.51873  0.21864  0.45300  1.0000
  C  Sn44      1.0  0.57179  0.22034  0.48243  1.0000
  O  Te41      1.0  0.58645  0.19445  0.51821  1.0000
  O  Te42      1.0  0.47282  0.13508  0.41379  1.0000
  O  Te43      1.0  0.46202  0.18935  0.40066  1.0000
  O  Te44      1.0  0.57567  0.24873  0.50510  1.0000
  Mg  Mg21      1.0  0.44953  0.14530  0.37747  1.0000
  Mg  Mg22      1.0  0.62794  0.23853  0.54142  1.0000
  C  Sn45      1.0  0.54820  0.80764  0.51153  1.0000
  C   C77       1.0  0.51420  0.83539  0.53445  1.0000
  C  Sn46      1.0  0.48720  0.83644  0.56338  1.0000
  C  Sn47      1.0  0.49438  0.80920  0.56954  1.0000
  C   C78       1.0  0.52837  0.78148  0.54664  1.0000
  C  Sn48      1.0  0.55538  0.78040  0.51769  1.0000
  O  Te45      1.0  0.57479  0.80713  0.48277  1.0000
  O  Te46      1.0  0.45339  0.86444  0.58592  1.0000
  O  Te47      1.0  0.46775  0.80973  0.59833  1.0000
  O  Te48      1.0  0.58917  0.75242  0.49517  1.0000
  Mg  Mg23      1.0  0.42600  0.85342  0.62152  1.0000
  Mg  Mg24      1.0  0.61661  0.76343  0.45957  1.0000
  C  Sn49      1.0  0.68061  0.33701  0.51149  1.0000
  C   C79       1.0  0.63559  0.32922  0.48630  1.0000
  C  Sn50      1.0  0.64926  0.33445  0.45885  1.0000
  C  Sn51      1.0  0.70920  0.34772  0.45650  1.0000
  C   C80       1.0  0.75419  0.35549  0.48168  1.0000
  C  Sn52      1.0  0.74055  0.35028  0.50914  1.0000
  O  Te49      1.0  0.66592  0.33157  0.53871  1.0000
  O  Te50      1.0  0.60348  0.32648  0.43399  1.0000
  O  Te51      1.0  0.72386  0.35315  0.42926  1.0000
  O  Te52      1.0  0.78630  0.35823  0.53399  1.0000
  Mg  Mg25      1.0  0.64589  0.33835  0.40178  1.0000
  Mg  Mg26      1.0  0.74396  0.34635  0.56620  1.0000
  C  Sn53      1.0  0.68315  0.66034  0.48882  1.0000
  C   C81       1.0  0.64111  0.67135  0.51624  1.0000
  C  Sn54      1.0  0.65738  0.66924  0.54503  1.0000
  C  Sn55      1.0  0.71693  0.65588  0.54644  1.0000
  C   C82       1.0  0.75893  0.64489  0.51903  1.0000
  C  Sn56      1.0  0.74270  0.64698  0.49024  1.0000
  O  Te53      1.0  0.66589  0.66269  0.46030  1.0000
  O  Te54      1.0  0.61456  0.68039  0.57212  1.0000
  O  Te55      1.0  0.73416  0.65354  0.57499  1.0000
  O  Te56      1.0  0.78548  0.63585  0.46316  1.0000
  Mg  Mg27      1.0  0.65975  0.67202  0.60542  1.0000
  Mg  Mg28      1.0  0.74036  0.64422  0.42986  1.0000
  C  Sn57      1.0  0.29781  0.31041  0.44505  1.0000
  C   C83       1.0  0.28382  0.34378  0.46585  1.0000
  C  Sn58      1.0  0.33195  0.36624  0.48395  1.0000
  C  Sn59      1.0  0.39540  0.35512  0.48119  1.0000
  C   C84       1.0  0.40937  0.32177  0.46040  1.0000
  C  Sn60      1.0  0.36127  0.29929  0.44229  1.0000
  O  Te57      1.0  0.24894  0.28839  0.42718  1.0000
  O  Te58      1.0  0.31679  0.39948  0.50459  1.0000
  O  Te59      1.0  0.44428  0.37717  0.49908  1.0000
  O  Te60      1.0  0.37640  0.26607  0.42166  1.0000
  Mg  Mg29      1.0  0.39988  0.41998  0.52388  1.0000
  Mg  Mg30      1.0  0.29336  0.24555  0.40234  1.0000
  C  Sn61      1.0  0.34148  0.64248  0.50735  1.0000
  C   C85       1.0  0.31452  0.63988  0.53445  1.0000
  C  Sn62      1.0  0.33053  0.66261  0.56752  1.0000
  C  Sn63      1.0  0.37438  0.68851  0.57363  1.0000
  C   C86       1.0  0.40131  0.69111  0.54654  1.0000
  C  Sn64      1.0  0.38533  0.66838  0.51346  1.0000
  O  Te61      1.0  0.32478  0.61948  0.47450  1.0000
  O  Te62      1.0  0.30297  0.65949  0.59420  1.0000
  O  Te63      1.0  0.39107  0.71152  0.60651  1.0000
  O  Te64      1.0  0.41286  0.67150  0.48679  1.0000
  Mg  Mg31      1.0  0.34080  0.69691  0.63446  1.0000
  Mg  Mg32      1.0  0.37505  0.63410  0.44652  1.0000
  C  Sn65      1.0  0.40102  0.78154  0.28451  1.0000
  C   C87       1.0  0.45002  0.76862  0.26059  1.0000
  C  Sn66      1.0  0.51056  0.78303  0.26779  1.0000
  C  Sn67      1.0  0.52239  0.81092  0.29957  1.0000
  C   C88       1.0  0.47341  0.82383  0.32347  1.0000
  C  Sn68      1.0  0.41285  0.80944  0.31629  1.0000
  O  Te65      1.0  0.34087  0.76673  0.27677  1.0000
  O  Te66      1.0  0.55879  0.76967  0.24347  1.0000
  O  Te67      1.0  0.58261  0.82572  0.30729  1.0000
  O  Te68      1.0  0.36465  0.82277  0.34059  1.0000
  Mg  Mg33      1.0  0.63280  0.79853  0.26590  1.0000
  Mg  Mg34      1.0  0.29064  0.79392  0.31819  1.0000
  C  Sn69      1.0  0.53576  0.18763  0.70943  1.0000
  C   C89       1.0  0.49518  0.17762  0.68198  1.0000
  C  Sn70      1.0  0.45681  0.20064  0.67903  1.0000
  C  Sn71      1.0  0.45908  0.23437  0.70403  1.0000
  C   C90       1.0  0.49965  0.24437  0.73145  1.0000
  C  Sn72      1.0  0.53803  0.22136  0.73442  1.0000
  O  Te69      1.0  0.57370  0.16420  0.71186  1.0000
  O  Te70      1.0  0.41661  0.19003  0.65137  1.0000
  O  Te71      1.0  0.42110  0.25780  0.70158  1.0000
  O  Te72      1.0  0.57822  0.23195  0.76206  1.0000
  Mg  Mg35      1.0  0.37411  0.23128  0.65924  1.0000
  Mg  Mg36      1.0  0.62076  0.19073  0.75421  1.0000
  C  Sn73      1.0  0.64172  0.66973  0.15206  1.0000
  C   C91       1.0  0.59228  0.66252  0.16858  1.0000
  C  Sn74      1.0  0.59639  0.63543  0.17444  1.0000
  C  Sn75      1.0  0.65108  0.61511  0.16358  1.0000
  C   C92       1.0  0.70049  0.62232  0.14707  1.0000
  C  Sn76      1.0  0.69641  0.64941  0.14120  1.0000
  O  Te73      1.0  0.63660  0.69694  0.14647  1.0000
  O  Te74      1.0  0.54634  0.62871  0.19099  1.0000
  O  Te75      1.0  0.65616  0.58788  0.16918  1.0000
  O  Te76      1.0  0.74643  0.65613  0.12466  1.0000
  Mg  Mg37      1.0  0.57554  0.58886  0.19278  1.0000
  Mg  Mg38      1.0  0.71729  0.69598  0.12287  1.0000
  C  Sn77      1.0  0.70025  0.33927  0.85973  1.0000
  C   C93       1.0  0.73210  0.36302  0.85404  1.0000
  C  Sn78      1.0  0.70504  0.37485  0.83384  1.0000
  C  Sn79      1.0  0.64486  0.36270  0.81902  1.0000
  C   C94       1.0  0.61304  0.33897  0.82471  1.0000
  C  Sn80      1.0  0.64007  0.32712  0.84491  1.0000
  O  Te77      1.0  0.72820  0.32780  0.88001  1.0000
  O  Te78      1.0  0.70887  0.39858  0.82852  1.0000
  O  Te79      1.0  0.61693  0.37419  0.79872  1.0000
  O  Te80      1.0  0.60734  0.30340  0.85024  1.0000
  Mg  Mg39      1.0  0.65116  0.40656  0.79896  1.0000
  Mg  Mg40      1.0  0.66499  0.29542  0.87981  1.0000
  C  Sn81      1.0  0.30186  0.61351  0.14912  1.0000
  C   C95       1.0  0.25348  0.62527  0.13687  1.0000
  C  Sn82      1.0  0.25898  0.65632  0.13857  1.0000
  C  Sn83      1.0  0.31401  0.67601  0.15280  1.0000
  C   C96       1.0  0.36235  0.66424  0.16503  1.0000
  C  Sn84      1.0  0.35689  0.63319  0.16335  1.0000
  O  Te81      1.0  0.29535  0.58239  0.14716  1.0000
  O  Te82      1.0  0.20997  0.66756  0.12617  1.0000
  O  Te83      1.0  0.32048  0.70714  0.15475  1.0000
  O  Te84      1.0  0.40586  0.62195  0.17574  1.0000
  Mg  Mg41      1.0  0.24091  0.71161  0.13447  1.0000
  Mg  Mg42      1.0  0.37498  0.57790  0.16743  1.0000
  C  Sn85      1.0  0.38196  0.37793  0.85737  1.0000
  C   C97       1.0  0.39286  0.34387  0.84099  1.0000
  C  Sn86      1.0  0.34360  0.32178  0.83733  1.0000
  C  Sn87      1.0  0.28215  0.33398  0.85028  1.0000
  C   C98       1.0  0.27127  0.36802  0.86665  1.0000
  C  Sn88      1.0  0.32051  0.39013  0.87033  1.0000
  O  Te85      1.0  0.43190  0.39957  0.86075  1.0000
  O  Te86      1.0  0.35566  0.28783  0.82087  1.0000
  O  Te87      1.0  0.23219  0.31231  0.84689  1.0000
  O  Te88      1.0  0.27955  0.42405  0.88677  1.0000
  Mg  Mg43      1.0  0.27219  0.26824  0.82251  1.0000
  Mg  Mg44      1.0  0.36296  0.44367  0.88513  1.0000
