data_image0
_chemical_formula_structural       H30C36N6C2Sn2C2HTe2HMgC2Sn2C2HTe2HMgC2Sn2C2HTe2HMgC2Sn2C2HTe2HMgC2Sn2C2HTe2HMgC2Sn2C2HTe2HMgC2Sn2C2HTe2HMgC2Sn2C2HTe2HMgC2Sn2C2HTe2HMgC2Sn2C2HTe2HMgC2Sn2C2HTe2HMgC2Sn2C2HTe2HMg
_chemical_formula_sum              "H54 C84 N6 Sn24 Te24 Mg12"
_cell_length_a       25.5097
_cell_length_b       25.6743
_cell_length_c       8.61582
_cell_angle_alpha    97.9046
_cell_angle_beta     84.7758
_cell_angle_gamma    118.604

_symmetry_space_group_name_H-M    'P1'
_space_group_IT_number       1

loop_
  _space_group_symop_operation_xyz
  'x, y, z'

loop_
  _atom_site_type_symbol
  _atom_site_label
  _atom_site_symmetry_multiplicity
  _atom_site_fract_x
  _atom_site_fract_y
  _atom_site_fract_z
  _atom_site_occupancy
  H   H1        1.0  0.20506  0.48483  0.16043  1.0000
  H   H2        1.0  0.36370  0.65018  0.10404  1.0000
  H   H3        1.0  0.19193  0.64455  0.14381  1.0000
  H   H4        1.0  0.46354  0.48474  0.36092  1.0000
  H   H5        1.0  0.43748  0.19556  0.50326  1.0000
  H   H6        1.0  0.43111  0.16720  0.30516  1.0000
  H   H7        1.0  0.43814  0.23944  0.36246  1.0000
  H   H8        1.0  0.64480  0.15952  0.30134  1.0000
  H   H9        1.0  0.61250  0.15486  0.49182  1.0000
  H   H10       1.0  0.68441  0.21516  0.45130  1.0000
  H   H11       1.0  0.63144  0.39021  0.19730  1.0000
  H   H12       1.0  0.66513  0.41709  0.86216  1.0000
  H   H13       1.0  0.62955  0.38776  0.68089  1.0000
  H   H14       1.0  0.36851  0.92144  0.42282  1.0000
  H   H15       1.0  0.91411  0.37304  0.11002  1.0000
  H   H16       1.0  0.20060  0.48323  0.61964  1.0000
  H   H17       1.0  0.35966  0.65169  0.59776  1.0000
  H   H18       1.0  0.18760  0.64534  0.65797  1.0000
  H   H19       1.0  0.46407  0.48800  0.85233  1.0000
  H   H20       1.0  0.43373  0.19296  0.00079  1.0000
  H   H21       1.0  0.42795  0.16838  0.80061  1.0000
  H   H22       1.0  0.43425  0.23975  0.86880  1.0000
  H   H23       1.0  0.63979  0.15919  0.80849  1.0000
  H   H24       1.0  0.61027  0.15802  0.00122  1.0000
  H   H25       1.0  0.68186  0.21679  0.95190  1.0000
  H   H26       1.0  0.69607  0.38506  0.71372  1.0000
  H   H27       1.0  0.69732  0.38311  0.20663  1.0000
  H   H28       1.0  0.67293  0.41608  0.37003  1.0000
  H   H29       1.0  0.36532  0.92360  0.93342  1.0000
  H   H30       1.0  0.91050  0.36464  0.63046  1.0000
  C   C1        1.0  0.22573  0.53177  0.14272  1.0000
  C   C2        1.0  0.28805  0.56324  0.12217  1.0000
  C   C3        1.0  0.31529  0.62502  0.11435  1.0000
  C   C4        1.0  0.28145  0.65542  0.12565  1.0000
  C   C5        1.0  0.21906  0.62223  0.14125  1.0000
  C   C6        1.0  0.19055  0.56068  0.15352  1.0000
  C   C7        1.0  0.45095  0.44542  0.27398  1.0000
  C   C8        1.0  0.55731  0.29529  0.34248  1.0000
  C   C9        1.0  0.52081  0.23475  0.36892  1.0000
  C   C10       1.0  0.54775  0.19823  0.37920  1.0000
  C   C11       1.0  0.61075  0.22322  0.37539  1.0000
  C   C12       1.0  0.64687  0.28347  0.34721  1.0000
  C   C13       1.0  0.62008  0.31900  0.32550  1.0000
  C   C14       1.0  0.45356  0.20827  0.38488  1.0000
  C   C15       1.0  0.63959  0.18624  0.40664  1.0000
  C   C16       1.0  0.65746  0.38041  0.27213  1.0000
  C   C17       1.0  0.40116  0.94119  0.32765  1.0000
  C   C18       1.0  0.90175  0.39183  0.22108  1.0000
  C   C19       1.0  0.22171  0.53122  0.61492  1.0000
  C   C20       1.0  0.28430  0.56375  0.60245  1.0000
  C   C21       1.0  0.31121  0.62602  0.60508  1.0000
  C   C22       1.0  0.27704  0.65623  0.62508  1.0000
  C   C23       1.0  0.21476  0.62269  0.64189  1.0000
  C   C24       1.0  0.18660  0.56034  0.63873  1.0000
  C   C25       1.0  0.44835  0.44721  0.76981  1.0000
  C   C26       1.0  0.55356  0.29560  0.83888  1.0000
  C   C27       1.0  0.51739  0.23536  0.86869  1.0000
  C   C28       1.0  0.54473  0.19948  0.88267  1.0000
  C   C29       1.0  0.60768  0.22453  0.87841  1.0000
  C   C30       1.0  0.64361  0.28452  0.84728  1.0000
  C   C31       1.0  0.61648  0.31946  0.82287  1.0000
  C   C32       1.0  0.45004  0.20821  0.88481  1.0000
  C   C33       1.0  0.63641  0.18774  0.91183  1.0000
  C   C34       1.0  0.65378  0.38052  0.76723  1.0000
  C   C35       1.0  0.39765  0.94275  0.83719  1.0000
  C   C36       1.0  0.89897  0.38846  0.73250  1.0000
  N   N1        1.0  0.94041  0.43805  0.30444  1.0000
  N   N2        1.0  0.41374  0.43238  0.16440  1.0000
  N   N3        1.0  0.40799  0.90981  0.20416  1.0000
  N   N4        1.0  0.93807  0.43709  0.80739  1.0000
  N   N5        1.0  0.40946  0.43368  0.66424  1.0000
  N   N6        1.0  0.40369  0.91087  0.71370  1.0000
  C   C37       1.0  0.05016  0.53938  0.32347  1.0000
  C   C38       1.0  0.00834  0.48160  0.26748  1.0000
  C  Sn1       1.0  0.02682  0.44453  0.17165  1.0000
  C  Sn2       1.0  0.08833  0.46583  0.13135  1.0000
  C   C39       1.0  0.12982  0.52369  0.18805  1.0000
  C   C40       1.0  0.11084  0.56041  0.28383  1.0000
  H   H31       1.0  0.03549  0.56779  0.39764  1.0000
  O  Te1       1.0  0.98444  0.38693  0.11668  1.0000
  O  Te2       1.0  0.10802  0.42971  0.03582  1.0000
  H   H32       1.0  0.14323  0.60513  0.32724  1.0000
  Mg  Mg1       1.0  0.02218  0.39549  0.98991  1.0000
  C   C41       1.0  0.39112  0.55919  0.21757  1.0000
  C   C42       1.0  0.33955  0.54102  0.13446  1.0000
  C  Sn3       1.0  0.31029  0.48324  0.05801  1.0000
  C  Sn4       1.0  0.33318  0.44301  0.06515  1.0000
  C   C43       1.0  0.38477  0.46161  0.14870  1.0000
  C   C44       1.0  0.41371  0.51953  0.22472  1.0000
  H   H33       1.0  0.41350  0.60400  0.27647  1.0000
  O  Te3       1.0  0.24779  0.50672  0.97545  1.0000
  O  Te4       1.0  0.29375  0.42590  0.98987  1.0000
  H   H34       1.0  0.45362  0.53357  0.28915  1.0000
  Mg  Mg2       1.0  0.22500  0.42306  0.89212  1.0000
  C   C45       1.0  0.38011  0.76820  0.04948  1.0000
  C   C46       1.0  0.32643  0.72816  0.11807  1.0000
  C  Sn5       1.0  0.29257  0.74922  0.21707  1.0000
  C  Sn6       1.0  0.31294  0.81155  0.24772  1.0000
  C   C47       1.0  0.36669  0.85124  0.17844  1.0000
  C   C48       1.0  0.40022  0.82968  0.07960  1.0000
  H   H35       1.0  0.39499  0.79241  0.97294  1.0000
  O  Te5       1.0  0.23906  0.70860  0.28467  1.0000
  O  Te6       1.0  0.27998  0.83382  0.34616  1.0000
  H   H36       1.0  0.44176  0.86069  0.02643  1.0000
  Mg  Mg3       1.0  0.20994  0.76069  0.41066  1.0000
  C   C49       1.0  0.46162  0.33906  0.18238  1.0000
  C   C50       1.0  0.46898  0.39144  0.27332  1.0000
  C  Sn7       1.0  0.51167  0.41816  0.38945  1.0000
  C  Sn8       1.0  0.54760  0.39185  0.41472  1.0000
  C   C51       1.0  0.53993  0.33947  0.32305  1.0000
  C   C52       1.0  0.49706  0.31310  0.20718  1.0000
  H   H37       1.0  0.42848  0.31866  0.09267  1.0000
  O  Te7       1.0  0.51842  0.47047  0.47929  1.0000
  O  Te8       1.0  0.59062  0.41764  0.52996  1.0000
  H   H38       1.0  0.49140  0.27256  0.13673  1.0000
  Mg  Mg4       1.0  0.58305  0.48883  0.62225  1.0000
  C   C53       1.0  0.52222  0.08007  0.24800  1.0000
  C   C54       1.0  0.51304  0.12350  0.34481  1.0000
  C  Sn9       1.0  0.46628  0.10677  0.45679  1.0000
  C  Sn10      1.0  0.42809  0.04538  0.47189  1.0000
  C   C55       1.0  0.91953  0.00227  0.37455  1.0000
  C   C56       1.0  0.48459  0.01951  0.26285  1.0000
  H   H39       1.0  0.55854  0.09340  0.16163  1.0000
  O  Te9       1.0  0.45772  0.15074  0.55253  1.0000
  O  Te10      1.0  0.38103  0.02742  0.58287  1.0000
  H   H40       1.0  0.97356  0.98587  0.18798  1.0000
  Mg  Mg5       1.0  0.38748  0.10399  0.68621  1.0000
  C   C57       1.0  0.76780  0.37539  0.42248  1.0000
  C   C58       1.0  0.72201  0.32412  0.34677  1.0000
  C  Sn11      1.0  0.73557  0.28855  0.23001  1.0000
  C  Sn12      1.0  0.79614  0.30472  0.18855  1.0000
  C   C59       1.0  0.84162  0.35608  0.26506  1.0000
  C   C60       1.0  0.82755  0.39136  0.38170  1.0000
  H   H41       1.0  0.75691  0.40267  0.51278  1.0000
  O  Te11      1.0  0.68928  0.23748  0.15551  1.0000
  O  Te12      1.0  0.81095  0.26997  0.07230  1.0000
  H   H42       1.0  0.86301  0.43103  0.44036  1.0000
  Mg  Mg6       1.0  0.73207  0.20452  0.00450  1.0000
  C   C61       1.0  0.05185  0.53027  0.85563  1.0000
  C   C62       1.0  0.00675  0.47932  0.77681  1.0000
  C  Sn13      1.0  0.02079  0.44956  0.64492  1.0000
  C  Sn14      1.0  0.08112  0.47132  0.59125  1.0000
  C   C63       1.0  0.12592  0.52231  0.67099  1.0000
  C   C64       1.0  0.11137  0.55176  0.80281  1.0000
  H   H43       1.0  0.04061  0.55304  0.95767  1.0000
  O  Te13      1.0  0.97518  0.39873  0.56752  1.0000
  O  Te14      1.0  0.09640  0.44244  0.45978  1.0000
  H   H44       1.0  0.14630  0.59119  0.86387  1.0000
  Mg  Mg7       1.0  0.01840  0.37488  0.39385  1.0000
  C   C65       1.0  0.30682  0.46305  0.51456  1.0000
  C   C66       1.0  0.31332  0.51745  0.59049  1.0000
  C  Sn15      1.0  0.35941  0.55157  0.69510  1.0000
  C  Sn16      1.0  0.39970  0.53074  0.72396  1.0000
  C   C67       1.0  0.39285  0.47628  0.64732  1.0000
  C   C68       1.0  0.34655  0.44248  0.54291  1.0000
  H   H45       1.0  0.27103  0.43691  0.43371  1.0000
  O  Te15      1.0  0.36524  0.60580  0.77002  1.0000
  O  Te16      1.0  0.44618  0.56396  0.82790  1.0000
  H   H46       1.0  0.34156  0.40038  0.48406  1.0000
  Mg  Mg8       1.0  0.43570  0.63502  0.90155  1.0000
  C   C69       1.0  0.30058  0.80123  0.78219  1.0000
  C   C70       1.0  0.35503  0.84159  0.71757  1.0000
  C  Sn17      1.0  0.38534  0.82129  0.60281  1.0000
  C  Sn18      1.0  0.36055  0.75940  0.55201  1.0000
  C   C71       1.0  0.30603  0.71938  0.61731  1.0000
  C   C72       1.0  0.27609  0.74018  0.73211  1.0000
  H   H47       1.0  0.27739  0.81732  0.87095  1.0000
  O  Te17      1.0  0.43971  0.86222  0.53952  1.0000
  O  Te18      1.0  0.38989  0.73790  0.43745  1.0000
  H   H48       1.0  0.23391  0.70892  0.78205  1.0000
  Mg  Mg9       1.0  0.46280  0.81120  0.38653  1.0000
  C   C73       1.0  0.54726  0.40596  0.91475  1.0000
  C   C74       1.0  0.53045  0.34757  0.84812  1.0000
  C  Sn19      1.0  0.48525  0.31958  0.73874  1.0000
  C  Sn20      1.0  0.45645  0.35073  0.69546  1.0000
  C   C75       1.0  0.47362  0.40914  0.76271  1.0000
  C   C76       1.0  0.51889  0.43672  0.87208  1.0000
  H   H49       1.0  0.58230  0.42732  0.99931  1.0000
  O  Te19      1.0  0.46899  0.26122  0.67336  1.0000
  O  Te20      1.0  0.41116  0.32382  0.58639  1.0000
  H   H50       1.0  0.53192  0.48194  0.92357  1.0000
  Mg  Mg10      1.0  0.40477  0.24362  0.52986  1.0000
  C   C77       1.0  0.42705  0.05856  0.99691  1.0000
  C   C78       1.0  0.91073  0.01575  0.88059  1.0000
  C  Sn21      1.0  0.47435  0.03231  0.76499  1.0000
  C  Sn22      1.0  0.51875  0.09289  0.76620  1.0000
  C   C79       1.0  0.51654  0.13538  0.88315  1.0000
  C   C80       1.0  0.47084  0.11832  0.99823  1.0000
  H   H51       1.0  0.40275  0.00447  0.08601  1.0000
  O  Te21      1.0  0.95736  0.98896  0.64959  1.0000
  O  Te22      1.0  0.56471  0.11067  0.65210  1.0000
  H   H52       1.0  0.48050  0.11058  0.08834  1.0000
  Mg  Mg11      1.0  0.54712  0.03516  0.51922  1.0000
  C   C81       1.0  0.74799  0.27956  0.70392  1.0000
  C   C82       1.0  0.71592  0.29938  0.81403  1.0000
  C  Sn23      1.0  0.74521  0.35447  0.90404  1.0000
  C  Sn24      1.0  0.80777  0.39029  0.88313  1.0000
  C   C83       1.0  0.83945  0.37008  0.77259  1.0000
  C   C84       1.0  0.80969  0.31487  0.68318  1.0000
  H   H53       1.0  0.72497  0.23687  0.63467  1.0000
  O  Te23      1.0  0.72354  0.33269  0.01358  1.0000
  O  Te24      1.0  0.83817  0.44554  0.97149  1.0000
  H   H54       1.0  0.83453  0.29956  0.59786  1.0000
  Mg  Mg12      1.0  0.78505  0.41131  0.10604  1.0000
