data_image0
_chemical_formula_structural       H76C120N12SnCSn2CSnTe4Mg2SnCSn2CSnTe4Mg2SnCSn2CSnTe4Mg2SnCSn2CSnTe4Mg2SnCSn2CSnTe4Mg2SnCSn2CSnTe4Mg2SnCSn2CSnTe4Mg2SnCSn2CSnTe4Mg2SnCSn2CSnTe4Mg2SnCSn2CSnTe4Mg2SnCSn2CSnTe4Mg2
_chemical_formula_sum              "H76 C142 N12 Sn44 Te44 Mg22"
_cell_length_a       21.0364
_cell_length_b       46.0187
_cell_length_c       45.1717
_cell_angle_alpha    118.54
_cell_angle_beta     89.1568
_cell_angle_gamma    90.7576

_symmetry_space_group_name_H-M    'P1'
_space_group_IT_number       1

loop_
  _space_group_symop_operation_xyz
  'x, y, z'

loop_
  _atom_site_type_symbol
  _atom_site_label
  _atom_site_symmetry_multiplicity
  _atom_site_fract_x
  _atom_site_fract_y
  _atom_site_fract_z
  _atom_site_occupancy
  H   H1        1.0  0.06757  0.43903  0.44402  1.0000
  H   H2        1.0  0.14607  0.39631  0.43665  1.0000
  H   H3        1.0  0.20216  0.45466  0.54003  1.0000
  H   H4        1.0  0.12590  0.49852  0.54674  1.0000
  H   H5        1.0  0.00051  0.54485  0.47436  1.0000
  H   H6        1.0  0.98964  0.46173  0.53198  1.0000
  H   H7        1.0  0.92696  0.59030  0.48448  1.0000
  H   H8        1.0  0.91430  0.41688  0.52368  1.0000
  H   H9        1.0  0.81390  0.56703  0.55054  1.0000
  H   H10       1.0  0.82612  0.42553  0.44298  1.0000
  H   H11       1.0  0.88534  0.51978  0.53843  1.0000
  H   H12       1.0  0.89993  0.47225  0.45274  1.0000
  H   H13       1.0  0.97805  0.45119  0.92898  1.0000
  H   H14       1.0  0.97862  0.54811  0.07054  1.0000
  H   H15       1.0  0.06285  0.41301  0.89375  1.0000
  H   H16       1.0  0.06503  0.58513  0.10567  1.0000
  H   H17       1.0  0.12941  0.41342  0.94334  1.0000
  H   H18       1.0  0.13510  0.58402  0.05563  1.0000
  H   H19       1.0  0.20204  0.46920  0.97131  1.0000
  H   H20       1.0  0.20369  0.52712  0.02793  1.0000
  H   H21       1.0  0.61000  0.95238  0.48620  1.0000
  H   H22       1.0  0.60715  0.04888  0.51106  1.0000
  H   H23       1.0  0.61835  0.90107  0.49165  1.0000
  H   H24       1.0  0.60956  0.10097  0.50698  1.0000
  H   H25       1.0  0.45772  0.93213  0.55960  1.0000
  H   H26       1.0  0.44365  0.06852  0.44443  1.0000
  H   H27       1.0  0.45096  0.98330  0.55508  1.0000
  H   H28       1.0  0.44248  0.01645  0.44766  1.0000
  H   H29       1.0  0.44702  0.94399  0.47179  1.0000
  H   H30       1.0  0.44222  0.89085  0.41950  1.0000
  H   H31       1.0  0.57569  0.92769  0.37213  1.0000
  H   H32       1.0  0.57979  0.98174  0.42485  1.0000
  H   H33       1.0  0.61561  0.25951  0.46961  1.0000
  H   H34       1.0  0.62455  0.73992  0.52886  1.0000
  H   H35       1.0  0.52036  0.34199  0.47060  1.0000
  H   H36       1.0  0.52580  0.66056  0.53517  1.0000
  H   H37       1.0  0.41302  0.25585  0.45566  1.0000
  H   H38       1.0  0.42156  0.74434  0.54480  1.0000
  H   H39       1.0  0.35580  0.27550  0.42124  1.0000
  H   H40       1.0  0.41373  0.69787  0.59477  1.0000
  H   H41       1.0  0.25794  0.30567  0.42256  1.0000
  H   H42       1.0  0.31890  0.66477  0.59444  1.0000
  H   H43       1.0  0.33354  0.39460  0.50410  1.0000
  H   H44       1.0  0.29343  0.63213  0.48898  1.0000
  H   H45       1.0  0.43154  0.36442  0.50337  1.0000
  H   H46       1.0  0.38814  0.66575  0.48935  1.0000
  H   H47       1.0  0.48052  0.10530  0.43156  1.0000
  H   H48       1.0  0.48909  0.89413  0.56833  1.0000
  H   H49       1.0  0.83000  0.38683  0.51799  1.0000
  H   H50       1.0  0.82671  0.60803  0.48001  1.0000
  H   H51       1.0  0.19618  0.35755  0.44530  1.0000
  H   H52       1.0  0.23869  0.62360  0.56462  1.0000
  H   H53       1.0  0.57213  0.72620  0.23037  1.0000
  H   H54       1.0  0.57229  0.27502  0.76600  1.0000
  H   H55       1.0  0.47626  0.63990  0.15581  1.0000
  H   H56       1.0  0.47819  0.35687  0.84761  1.0000
  H   H57       1.0  0.36767  0.72512  0.22293  1.0000
  H   H58       1.0  0.36754  0.27688  0.77256  1.0000
  H   H59       1.0  0.37495  0.75421  0.27770  1.0000
  H   H60       1.0  0.55968  0.62187  0.18400  1.0000
  H   H61       1.0  0.31418  0.70503  0.16986  1.0000
  H   H62       1.0  0.37132  0.80836  0.32916  1.0000
  H   H63       1.0  0.55472  0.83356  0.30455  1.0000
  H   H64       1.0  0.55734  0.77988  0.25170  1.0000
  H   H65       1.0  0.22562  0.67326  0.13240  1.0000
  H   H66       1.0  0.29606  0.58358  0.12716  1.0000
  H   H67       1.0  0.38565  0.61546  0.16445  1.0000
  H   H68       1.0  0.63632  0.70061  0.16833  1.0000
  H   H69       1.0  0.72645  0.66421  0.13498  1.0000
  H   H70       1.0  0.65045  0.58611  0.15187  1.0000
  H   H71       1.0  0.41680  0.86172  0.36629  1.0000
  H   H72       1.0  0.43219  0.14669  0.62348  1.0000
  H   H73       1.0  0.73995  0.57517  0.11804  1.0000
  H   H74       1.0  0.75785  0.41768  0.87328  1.0000
  H   H75       1.0  0.17994  0.62396  0.09366  1.0000
  H   H76       1.0  0.17442  0.37289  0.90482  1.0000
  C   C1        1.0  0.09111  0.47162  0.49589  1.0000
  C   C2        1.0  0.94822  0.52887  0.50551  1.0000
  C   C3        1.0  0.94964  0.47040  0.49324  1.0000
  C   C4        1.0  0.09644  0.44221  0.46517  1.0000
  C   C5        1.0  0.14013  0.41800  0.46121  1.0000
  C   C6        1.0  0.17896  0.42234  0.48826  1.0000
  C   C7        1.0  0.17191  0.45144  0.51934  1.0000
  C   C8        1.0  0.12924  0.47566  0.52297  1.0000
  C   C9        1.0  0.95917  0.54936  0.49069  1.0000
  C   C10       1.0  0.95372  0.45385  0.51250  1.0000
  C   C11       1.0  0.91764  0.57497  0.49643  1.0000
  C   C12       1.0  0.91114  0.42852  0.50771  1.0000
  C   C13       1.0  0.86407  0.58126  0.51777  1.0000
  C   C14       1.0  0.86360  0.41858  0.48295  1.0000
  C   C15       1.0  0.85461  0.56159  0.53364  1.0000
  C   C16       1.0  0.86214  0.43393  0.46242  1.0000
  C   C17       1.0  0.89481  0.53549  0.52695  1.0000
  C   C18       1.0  0.90351  0.45969  0.46783  1.0000
  C   C19       1.0  0.03885  0.47767  0.97277  1.0000
  C   C20       1.0  0.03951  0.52168  0.02635  1.0000
  C   C21       1.0  0.02542  0.45294  0.93898  1.0000
  C   C22       1.0  0.02646  0.54607  0.06039  1.0000
  C   C23       1.0  0.07201  0.43187  0.91955  1.0000
  C   C24       1.0  0.07397  0.56635  0.07977  1.0000
  C   C25       1.0  0.13640  0.43155  0.93358  1.0000
  C   C26       1.0  0.13938  0.56589  0.06547  1.0000
  C   C27       1.0  0.15250  0.46389  0.96398  1.0000
  C   C28       1.0  0.15412  0.53332  0.03505  1.0000
  C   C29       1.0  0.10417  0.48410  0.98307  1.0000
  C   C30       1.0  0.10483  0.51409  0.01591  1.0000
  C   C31       1.0  0.52959  0.97136  0.52002  1.0000
  C   C32       1.0  0.52416  0.02898  0.47995  1.0000
  C   C33       1.0  0.52155  0.00086  0.51537  1.0000
  C   C34       1.0  0.51986  0.99874  0.48389  1.0000
  C   C35       1.0  0.51423  0.96693  0.45244  1.0000
  C   C36       1.0  0.57746  0.94807  0.50266  1.0000
  C   C37       1.0  0.57181  0.05303  0.49616  1.0000
  C   C38       1.0  0.58213  0.91941  0.50551  1.0000
  C   C39       1.0  0.57333  0.08217  0.49402  1.0000
  C   C40       1.0  0.53944  0.91287  0.52600  1.0000
  C   C41       1.0  0.52773  0.08844  0.47524  1.0000
  C   C42       1.0  0.49234  0.93663  0.54410  1.0000
  C   C43       1.0  0.48058  0.06409  0.45840  1.0000
  C   C44       1.0  0.48816  0.96544  0.54144  1.0000
  C   C45       1.0  0.47956  0.03482  0.46041  1.0000
  C   C46       1.0  0.47486  0.94078  0.44997  1.0000
  C   C47       1.0  0.47184  0.91082  0.42039  1.0000
  C   C48       1.0  0.50812  0.90571  0.39176  1.0000
  C   C49       1.0  0.54736  0.93175  0.39408  1.0000
  C   C50       1.0  0.54941  0.96187  0.42357  1.0000
  C   C51       1.0  0.57197  0.27128  0.46829  1.0000
  C   C52       1.0  0.58035  0.72886  0.53165  1.0000
  C   C53       1.0  0.57483  0.30288  0.47093  1.0000
  C   C54       1.0  0.58210  0.69823  0.53126  1.0000
  C   C55       1.0  0.51845  0.31726  0.46804  1.0000
  C   C56       1.0  0.52524  0.68467  0.53621  1.0000
  C   C57       1.0  0.45972  0.30068  0.46246  1.0000
  C   C58       1.0  0.46719  0.70090  0.54065  1.0000
  C   C59       1.0  0.45833  0.26867  0.45894  1.0000
  C   C60       1.0  0.46657  0.73176  0.54163  1.0000
  C   C61       1.0  0.51403  0.25387  0.46210  1.0000
  C   C62       1.0  0.52306  0.74626  0.53758  1.0000
  C   C63       1.0  0.40078  0.31775  0.46224  1.0000
  C   C64       1.0  0.40738  0.68388  0.54205  1.0000
  C   C65       1.0  0.35083  0.30147  0.43977  1.0000
  C   C66       1.0  0.38702  0.68379  0.57171  1.0000
  C   C67       1.0  0.29593  0.31850  0.44037  1.0000
  C   C68       1.0  0.33376  0.66524  0.57147  1.0000
  C   C69       1.0  0.28937  0.35231  0.46353  1.0000
  C   C70       1.0  0.30014  0.64615  0.54155  1.0000
  C   C71       1.0  0.33932  0.36854  0.48614  1.0000
  C   C72       1.0  0.31951  0.64711  0.51206  1.0000
  C   C73       1.0  0.39378  0.35164  0.48545  1.0000
  C   C74       1.0  0.37218  0.66580  0.51239  1.0000
  C   C75       1.0  0.50561  0.12466  0.45347  1.0000
  C   C76       1.0  0.51749  0.87578  0.54709  1.0000
  C   C77       1.0  0.80239  0.38202  0.49557  1.0000
  C   C78       1.0  0.80341  0.61651  0.50474  1.0000
  C   C79       1.0  0.23285  0.37088  0.46430  1.0000
  C   C80       1.0  0.24948  0.62369  0.54074  1.0000
  C   C81       1.0  0.52816  0.71385  0.21818  1.0000
  C   C82       1.0  0.52858  0.28706  0.77902  1.0000
  C   C83       1.0  0.53081  0.68137  0.19163  1.0000
  C   C84       1.0  0.53171  0.31755  0.80835  1.0000
  C   C85       1.0  0.47392  0.66474  0.17709  1.0000
  C   C86       1.0  0.47526  0.33336  0.82452  1.0000
  C   C87       1.0  0.41486  0.68032  0.18771  1.0000
  C   C88       1.0  0.41559  0.31903  0.81196  1.0000
  C   C89       1.0  0.41326  0.71281  0.21447  1.0000
  C   C90       1.0  0.41344  0.28831  0.78249  1.0000
  C   C91       1.0  0.46935  0.72965  0.23055  1.0000
  C   C92       1.0  0.46951  0.27209  0.76571  1.0000
  C   C93       1.0  0.46658  0.76264  0.26078  1.0000
  C   C94       1.0  0.41406  0.77164  0.28301  1.0000
  C   C95       1.0  0.59631  0.63108  0.17331  1.0000
  C   C96       1.0  0.59072  0.66321  0.17743  1.0000
  C   C97       1.0  0.35724  0.66240  0.16920  1.0000
  C   C98       1.0  0.31009  0.67855  0.16089  1.0000
  C   C99       1.0  0.41231  0.80206  0.31227  1.0000
  C   C100      1.0  0.46346  0.82454  0.32063  1.0000
  C   C101      1.0  0.51581  0.81585  0.29826  1.0000
  C   C102      1.0  0.51704  0.78569  0.26892  1.0000
  C   C103      1.0  0.26033  0.66061  0.13976  1.0000
  C   C104      1.0  0.25494  0.62615  0.12690  1.0000
  C   C105      1.0  0.30024  0.61015  0.13663  1.0000
  C   C106      1.0  0.35044  0.62802  0.15729  1.0000
  C   C107      1.0  0.63975  0.67561  0.16489  1.0000
  C   C108      1.0  0.69011  0.65552  0.14637  1.0000
  C   C109      1.0  0.69357  0.62266  0.14062  1.0000
  C   C110      1.0  0.64727  0.61122  0.15551  1.0000
  C   C111      1.0  0.46157  0.85602  0.35174  1.0000
  C   C112      1.0  0.46823  0.14855  0.64172  1.0000
  C   C113      1.0  0.74015  0.59912  0.11813  1.0000
  C   C114      1.0  0.74555  0.39807  0.87976  1.0000
  C   C115      1.0  0.20456  0.60857  0.10255  1.0000
  C   C116      1.0  0.20102  0.38848  0.89634  1.0000
  C   C117      1.0  0.99612  0.50015  0.99953  1.0000
  C   C118      1.0  0.92971  0.50063  0.99934  1.0000
  C   C119      1.0  0.98808  0.50017  0.49971  1.0000
  C   C120      1.0  0.05279  0.50047  0.50043  1.0000
  N   N1        1.0  0.53199  0.11921  0.47602  1.0000
  N   N2        1.0  0.54599  0.88227  0.52532  1.0000
  N   N3        1.0  0.81504  0.39533  0.47661  1.0000
  N   N4        1.0  0.81795  0.60545  0.52520  1.0000
  N   N5        1.0  0.22825  0.40162  0.48673  1.0000
  N   N6        1.0  0.22260  0.60336  0.51283  1.0000
  N   N7        1.0  0.50960  0.87618  0.36126  1.0000
  N   N8        1.0  0.50764  0.12506  0.63610  1.0000
  N   N9        1.0  0.77687  0.60476  0.09812  1.0000
  N   N10       1.0  0.77126  0.39665  0.90489  1.0000
  N   N11       1.0  0.18981  0.57779  0.09091  1.0000
  N   N12       1.0  0.18773  0.41932  0.90817  1.0000
  C  Sn1       1.0  0.81834  0.47805  0.96051  1.0000
  C   C121      1.0  0.87015  0.47471  0.97765  1.0000
  C  Sn2       1.0  0.92597  0.44370  0.96728  1.0000
  C  Sn3       1.0  0.90059  0.41543  0.93919  1.0000
  C   C122      1.0  0.84882  0.41878  0.92207  1.0000
  C  Sn4       1.0  0.79296  0.44978  0.93243  1.0000
  O  Te1       1.0  0.79221  0.50930  0.97131  1.0000
  O  Te2       1.0  0.97773  0.44098  0.98482  1.0000
  O  Te3       1.0  0.92677  0.38417  0.92840  1.0000
  O  Te4       1.0  0.74124  0.45251  0.91490  1.0000
  Mg  Mg1       1.0  0.99688  0.39311  0.96045  1.0000
  Mg  Mg2       1.0  0.72207  0.50037  0.93924  1.0000
  C  Sn5       1.0  0.16212  0.54384  0.47541  1.0000
  C   C123      1.0  0.16375  0.57665  0.50110  1.0000
  C  Sn6       1.0  0.13321  0.58566  0.53192  1.0000
  C  Sn7       1.0  0.10038  0.56136  0.53717  1.0000
  C   C124      1.0  0.09877  0.52858  0.51149  1.0000
  C  Sn8       1.0  0.12929  0.51955  0.48067  1.0000
  O  Te5       1.0  0.19299  0.53540  0.44481  1.0000
  O  Te6       1.0  0.13548  0.61862  0.55722  1.0000
  O  Te7       1.0  0.06950  0.56984  0.56780  1.0000
  O  Te8       1.0  0.12703  0.48661  0.45538  1.0000
  Mg  Mg3       1.0  0.08612  0.61794  0.59454  1.0000
  Mg  Mg4       1.0  0.17640  0.48726  0.41805  1.0000
  C  Sn9       1.0  0.56274  0.19332  0.48895  1.0000
  C   C125      1.0  0.52977  0.16516  0.46589  1.0000
  C  Sn10      1.0  0.50564  0.16349  0.43646  1.0000
  C  Sn11      1.0  0.51469  0.19051  0.42994  1.0000
  C   C126      1.0  0.51873  0.21864  0.45300  1.0000
  C  Sn12      1.0  0.57179  0.22034  0.48243  1.0000
  O  Te9       1.0  0.58645  0.19445  0.51821  1.0000
  O  Te10      1.0  0.47282  0.13508  0.41379  1.0000
  O  Te11      1.0  0.46202  0.18935  0.40066  1.0000
  O  Te12      1.0  0.57567  0.24873  0.50510  1.0000
  Mg  Mg5       1.0  0.44953  0.14530  0.37747  1.0000
  Mg  Mg6       1.0  0.62794  0.23853  0.54142  1.0000
  C  Sn13      1.0  0.43508  0.22353  0.70692  1.0000
  C   C127      1.0  0.47797  0.23437  0.73352  1.0000
  C  Sn14      1.0  0.53624  0.21853  0.72908  1.0000
  C  Sn15      1.0  0.55201  0.19130  0.69740  1.0000
  C   C128      1.0  0.50915  0.18048  0.67083  1.0000
  C  Sn16      1.0  0.45085  0.19630  0.67525  1.0000
  O  Te13      1.0  0.37709  0.23974  0.71192  1.0000
  O  Te14      1.0  0.57833  0.22981  0.75605  1.0000
  O  Te15      1.0  0.61006  0.17510  0.69242  1.0000
  O  Te16      1.0  0.40878  0.18503  0.64830  1.0000
  Mg  Mg7       1.0  0.65154  0.19963  0.73680  1.0000
  Mg  Mg8       1.0  0.33557  0.21520  0.66751  1.0000
  C  Sn17      1.0  0.54820  0.80764  0.51153  1.0000
  C   C129      1.0  0.51420  0.83539  0.53445  1.0000
  C  Sn18      1.0  0.48720  0.83644  0.56338  1.0000
  C  Sn19      1.0  0.49438  0.80920  0.56954  1.0000
  C   C130      1.0  0.52837  0.78148  0.54664  1.0000
  C  Sn20      1.0  0.55538  0.78040  0.51769  1.0000
  O  Te17      1.0  0.57479  0.80713  0.48277  1.0000
  O  Te18      1.0  0.45339  0.86444  0.58592  1.0000
  O  Te19      1.0  0.46775  0.80973  0.59833  1.0000
  O  Te20      1.0  0.58917  0.75242  0.49517  1.0000
  Mg  Mg9       1.0  0.42600  0.85342  0.62152  1.0000
  Mg  Mg10      1.0  0.61661  0.76343  0.45957  1.0000
  C  Sn21      1.0  0.81310  0.53818  0.06375  1.0000
  C   C131      1.0  0.81961  0.57244  0.07731  1.0000
  C  Sn22      1.0  0.86012  0.58575  0.06203  1.0000
  C  Sn23      1.0  0.89483  0.56438  0.03256  1.0000
  C   C132      1.0  0.88830  0.53015  0.01901  1.0000
  C  Sn24      1.0  0.84781  0.51681  0.03428  1.0000
  O  Te21      1.0  0.77232  0.52542  0.07944  1.0000
  O  Te22      1.0  0.86586  0.62008  0.07606  1.0000
  O  Te23      1.0  0.93563  0.57718  0.01687  1.0000
  O  Te24      1.0  0.84205  0.48251  0.02026  1.0000
  Mg  Mg11      1.0  0.92738  0.62560  0.04549  1.0000
  Mg  Mg12      1.0  0.78052  0.47696  0.05080  1.0000
  C  Sn25      1.0  0.67093  0.33288  0.44940  1.0000
  C   C133      1.0  0.64812  0.31695  0.46717  1.0000
  C  Sn26      1.0  0.67255  0.32505  0.49879  1.0000
  C  Sn27      1.0  0.72075  0.34959  0.51296  1.0000
  C   C134      1.0  0.74352  0.36551  0.49520  1.0000
  C  Sn28      1.0  0.71913  0.35742  0.46358  1.0000
  O  Te25      1.0  0.64581  0.32440  0.41783  1.0000
  O  Te26      1.0  0.64901  0.30877  0.51607  1.0000
  O  Te27      1.0  0.74586  0.35807  0.54456  1.0000
  O  Te28      1.0  0.74263  0.37369  0.44631  1.0000
  Mg  Mg13      1.0  0.69834  0.32898  0.55831  1.0000
  Mg  Mg14      1.0  0.69332  0.35351  0.40407  1.0000
  C  Sn29      1.0  0.73554  0.66510  0.49604  1.0000
  C   C135      1.0  0.75718  0.64994  0.51439  1.0000
  C  Sn30      1.0  0.71753  0.64728  0.53807  1.0000
  C  Sn31      1.0  0.65493  0.66002  0.54351  1.0000
  C   C136      1.0  0.63331  0.67516  0.52517  1.0000
  C  Sn32      1.0  0.67293  0.67784  0.50148  1.0000
  O  Te29      1.0  0.77599  0.66748  0.47249  1.0000
  O  Te30      1.0  0.74024  0.63203  0.55612  1.0000
  O  Te31      1.0  0.61448  0.65762  0.56709  1.0000
  O  Te32      1.0  0.65025  0.69307  0.48344  1.0000
  Mg  Mg15      1.0  0.66716  0.63472  0.58542  1.0000
  Mg  Mg16      1.0  0.72327  0.69038  0.45411  1.0000
  C  Sn33      1.0  0.38196  0.37793  0.85737  1.0000
  C   C137      1.0  0.39286  0.34387  0.84099  1.0000
  C  Sn34      1.0  0.34360  0.32178  0.83733  1.0000
  C  Sn35      1.0  0.28215  0.33398  0.85028  1.0000
  C   C138      1.0  0.27127  0.36802  0.86665  1.0000
  C  Sn36      1.0  0.32051  0.39013  0.87033  1.0000
  O  Te33      1.0  0.43190  0.39957  0.86075  1.0000
  O  Te34      1.0  0.35566  0.28783  0.82087  1.0000
  O  Te35      1.0  0.23219  0.31231  0.84689  1.0000
  O  Te36      1.0  0.27955  0.42405  0.88677  1.0000
  Mg  Mg17      1.0  0.27219  0.26824  0.82251  1.0000
  Mg  Mg18      1.0  0.36296  0.44367  0.88513  1.0000
  C  Sn37      1.0  0.50468  0.06698  0.55139  1.0000
  C   C139      1.0  0.54734  0.04142  0.54438  1.0000
  C  Sn38      1.0  0.58194  0.04091  0.57029  1.0000
  C  Sn39      1.0  0.57370  0.06649  0.60391  1.0000
  C   C140      1.0  0.53106  0.09203  0.61091  1.0000
  C  Sn40      1.0  0.49644  0.09255  0.58502  1.0000
  O  Te37      1.0  0.47059  0.06698  0.52510  1.0000
  O  Te38      1.0  0.62433  0.01511  0.56265  1.0000
  O  Te39      1.0  0.60784  0.06647  0.63021  1.0000
  O  Te40      1.0  0.45407  0.11834  0.59264  1.0000
  Mg  Mg19      1.0  0.65988  0.02600  0.60714  1.0000
  Mg  Mg20      1.0  0.41848  0.10745  0.54818  1.0000
  C  Sn41      1.0  0.70025  0.33927  0.85973  1.0000
  C   C141      1.0  0.73210  0.36302  0.85404  1.0000
  C  Sn42      1.0  0.70504  0.37485  0.83384  1.0000
  C  Sn43      1.0  0.64486  0.36270  0.81902  1.0000
  C   C142      1.0  0.61304  0.33897  0.82471  1.0000
  C  Sn44      1.0  0.64007  0.32712  0.84491  1.0000
  O  Te41      1.0  0.72820  0.32780  0.88001  1.0000
  O  Te42      1.0  0.70887  0.39858  0.82852  1.0000
  O  Te43      1.0  0.61693  0.37419  0.79872  1.0000
  O  Te44      1.0  0.60734  0.30340  0.85024  1.0000
  Mg  Mg21      1.0  0.65116  0.40656  0.79896  1.0000
  Mg  Mg22      1.0  0.66499  0.29542  0.87981  1.0000
