data_image0
_chemical_formula_structural       H24C24N8C2Sn2C2HTe2HMgC2Sn2C2HTe2HMgC2Sn2C2HTe2HMgC2Sn2C2HTe2HMgC2Sn2C2HTe2HMgC2Sn2C2HTe2HMgC2Sn2C2HTe2HMgC2Sn2C2HTe2HMgC2Sn2C2HTe2HMgC2Sn2C2HTe2HMgC2Sn2C2HTe2HMgC2Sn2C2HTe2HMg
_chemical_formula_sum              "H48 C72 N8 Sn24 Te24 Mg12"
_cell_length_a       23.688
_cell_length_b       23.1016
_cell_length_c       11.0486
_cell_angle_alpha    85.9339
_cell_angle_beta     91.6041
_cell_angle_gamma    120.073

_symmetry_space_group_name_H-M    'P1'
_space_group_IT_number       1

loop_
  _space_group_symop_operation_xyz
  'x, y, z'

loop_
  _atom_site_type_symbol
  _atom_site_label
  _atom_site_symmetry_multiplicity
  _atom_site_fract_x
  _atom_site_fract_y
  _atom_site_fract_z
  _atom_site_occupancy
  H   H1        1.0  0.20003  0.54286  0.06904  1.0000
  H   H2        1.0  0.20344  0.27673  0.19733  1.0000
  H   H3        1.0  0.20601  0.20967  0.28194  1.0000
  H   H4        1.0  0.20595  0.27466  0.35668  1.0000
  H   H5        1.0  0.99487  0.00063  0.31561  1.0000
  H   H6        1.0  0.92241  0.00339  0.28401  1.0000
  H   H7        1.0  0.95135  0.00958  0.43367  1.0000
  H   H8        1.0  0.00552  0.29688  0.32672  1.0000
  H   H9        1.0  0.92800  0.22222  0.32950  1.0000
  H   H10       1.0  0.96819  0.26135  0.19022  1.0000
  H   H11       1.0  0.67069  0.01777  0.40215  1.0000
  H   H12       1.0  0.20664  0.95343  0.38906  1.0000
  H   H13       1.0  0.20283  0.54139  0.57797  1.0000
  H   H14       1.0  0.20633  0.28079  0.71596  1.0000
  H   H15       1.0  0.20544  0.20478  0.75991  1.0000
  H   H16       1.0  0.20595  0.25632  0.87065  1.0000
  H   H17       1.0  0.96645  0.00633  0.93241  1.0000
  H   H18       1.0  0.99275  0.99740  0.79056  1.0000
  H   H19       1.0  0.91895  0.99923  0.80252  1.0000
  H   H20       1.0  0.93091  0.22207  0.81166  1.0000
  H   H21       1.0  0.96143  0.24373  0.66185  1.0000
  H   H22       1.0  0.00712  0.29601  0.77849  1.0000
  H   H23       1.0  0.67172  0.01643  0.89939  1.0000
  H   H24       1.0  0.22175  0.96388  0.89801  1.0000
  C   C1        1.0  0.21709  0.52635  0.15091  1.0000
  C   C2        1.0  0.07812  0.24083  0.27704  1.0000
  C   C3        1.0  0.11169  0.20464  0.28668  1.0000
  C   C4        1.0  0.07553  0.13385  0.30530  1.0000
  C   C5        1.0  0.00669  0.10009  0.31788  1.0000
  C   C6        1.0  0.97441  0.13766  0.31241  1.0000
  C   C7        1.0  0.00980  0.20814  0.29223  1.0000
  C   C8        1.0  0.18553  0.24285  0.27969  1.0000
  C   C9        1.0  0.96700  0.02453  0.33809  1.0000
  C   C10       1.0  0.97586  0.24900  0.28499  1.0000
  C   C11       1.0  0.69325  0.01531  0.31833  1.0000
  C   C12       1.0  0.20929  0.98187  0.30310  1.0000
  C   C13       1.0  0.21841  0.52395  0.66074  1.0000
  C   C14       1.0  0.07943  0.23699  0.76947  1.0000
  C   C15       1.0  0.11260  0.20046  0.78409  1.0000
  C   C16       1.0  0.07603  0.12990  0.80210  1.0000
  C   C17       1.0  0.00725  0.09628  0.81257  1.0000
  C   C18       1.0  0.97508  0.13389  0.80315  1.0000
  C   C19       1.0  0.01075  0.20414  0.77827  1.0000
  C   C20       1.0  0.18633  0.23719  0.78152  1.0000
  C   C21       1.0  0.96916  0.02087  0.83479  1.0000
  C   C22       1.0  0.97574  0.24361  0.75758  1.0000
  C   C23       1.0  0.69495  0.01689  0.81412  1.0000
  C   C24       1.0  0.21617  0.98423  0.80834  1.0000
  N   N1        1.0  0.38540  0.84978  0.17615  1.0000
  N   N2        1.0  0.24086  0.98284  0.20852  1.0000
  N   N3        1.0  0.26529  0.56766  0.21467  1.0000
  N   N4        1.0  0.66008  0.99054  0.22174  1.0000
  N   N5        1.0  0.38756  0.84711  0.68368  1.0000
  N   N6        1.0  0.24140  0.97896  0.71018  1.0000
  N   N7        1.0  0.26480  0.56473  0.72811  1.0000
  N   N8        1.0  0.66231  0.99522  0.71568  1.0000
  C   C25       1.0  0.35169  0.94686  0.08998  1.0000
  C   C26       1.0  0.35385  0.89742  0.16719  1.0000
  C  Sn1       1.0  0.31179  0.86894  0.26737  1.0000
  C  Sn2       1.0  0.26677  0.89045  0.29042  1.0000
  C   C27       1.0  0.26496  0.93991  0.21258  1.0000
  C   C28       1.0  0.30728  0.96809  0.11263  1.0000
  H   H25       1.0  0.38441  0.96864  0.01260  1.0000
  O  Te1       1.0  0.31461  0.81961  0.34361  1.0000
  O  Te2       1.0  0.22416  0.86281  0.38986  1.0000
  H   H26       1.0  0.81687  0.00634  0.05282  1.0000
  Mg  Mg1       1.0  0.24658  0.79710  0.46750  1.0000
  C   C29       1.0  0.25726  0.68529  0.15461  1.0000
  C   C30       1.0  0.28463  0.64412  0.17447  1.0000
  C  Sn3       1.0  0.35097  0.67202  0.20020  1.0000
  C  Sn4       1.0  0.39053  0.74245  0.20613  1.0000
  C   C31       1.0  0.36267  0.78319  0.18621  1.0000
  C   C32       1.0  0.29623  0.75475  0.16049  1.0000
  H   H27       1.0  0.20585  0.66328  0.13478  1.0000
  O  Te3       1.0  0.37753  0.63017  0.21975  1.0000
  O  Te4       1.0  0.45697  0.77165  0.23171  1.0000
  H   H28       1.0  0.27505  0.78663  0.14520  1.0000
  Mg  Mg2       1.0  0.47059  0.69366  0.25159  1.0000
  C   C33       1.0  0.51208  0.94183  0.08214  1.0000
  C   C34       1.0  0.46367  0.89595  0.16359  1.0000
  C  Sn5       1.0  0.48005  0.88404  0.28153  1.0000
  C  Sn6       1.0  0.54616  0.91881  0.31836  1.0000
  C   C35       1.0  0.59422  0.96465  0.23621  1.0000
  C   C36       1.0  0.57730  0.97617  0.11840  1.0000
  H   H29       1.0  0.49429  0.91445  0.99100  1.0000
  O  Te5       1.0  0.43107  0.83801  0.36175  1.0000
  O  Te6       1.0  0.56388  0.90789  0.43571  1.0000
  H   H30       1.0  0.12609  0.01173  0.05538  1.0000
  Mg  Mg3       1.0  0.47956  0.84028  0.51201  1.0000
  C   C37       1.0  0.17362  0.37675  0.33256  1.0000
  C   C38       1.0  0.12287  0.32532  0.27124  1.0000
  C  Sn7       1.0  0.10370  0.33905  0.15713  1.0000
  C  Sn8       1.0  0.13603  0.40554  0.10364  1.0000
  C   C39       1.0  0.18678  0.45663  0.16569  1.0000
  C   C40       1.0  0.20556  0.44234  0.27984  1.0000
  H   H31       1.0  0.18818  0.36569  0.42086  1.0000
  O  Te7       1.0  0.05288  0.28708  0.09714  1.0000
  O  Te8       1.0  0.11318  0.38433  0.98967  1.0000
  H   H32       1.0  0.24488  0.48216  0.32727  1.0000
  Mg  Mg4       1.0  0.04112  0.29641  0.94366  1.0000
  C   C41       1.0  0.85387  0.10559  0.43339  1.0000
  C   C42       1.0  0.89422  0.10132  0.34886  1.0000
  C  Sn9       1.0  0.86800  0.06839  0.24272  1.0000
  C  Sn10      1.0  0.80011  0.03926  0.22103  1.0000
  C   C43       1.0  0.76016  0.04384  0.30611  1.0000
  C   C44       1.0  0.78691  0.07689  0.41204  1.0000
  H   H33       1.0  0.87456  0.13119  0.51532  1.0000
  O  Te9       1.0  0.90901  0.06456  0.15925  1.0000
  O  Te10      1.0  0.77263  0.00608  0.11567  1.0000
  H   H34       1.0  0.75566  0.08023  0.47743  1.0000
  Mg  Mg5       1.0  0.84857  0.01408  0.02920  1.0000
  C   C45       1.0  0.10641  0.03564  0.41807  1.0000
  C   C46       1.0  0.11018  0.08595  0.33486  1.0000
  C  Sn11      1.0  0.14660  0.10219  0.22788  1.0000
  C  Sn12      1.0  0.17979  0.06732  0.20400  1.0000
  C   C47       1.0  0.17567  0.01704  0.28779  1.0000
  C   C48       1.0  0.13910  0.00121  0.39458  1.0000
  H   H35       1.0  0.07809  0.02337  0.50067  1.0000
  O  Te11      1.0  0.14988  0.15260  0.14573  1.0000
  O  Te12      1.0  0.21652  0.08252  0.09777  1.0000
  H   H36       1.0  0.62486  0.96222  0.45895  1.0000
  Mg  Mg6       1.0  0.20615  0.15519  0.01375  1.0000
  C   C49       1.0  0.30673  0.87681  0.81983  1.0000
  C   C50       1.0  0.33951  0.87443  0.71876  1.0000
  C  Sn13      1.0  0.34303  0.91151  0.61082  1.0000
  C  Sn14      1.0  0.31316  0.95168  0.60423  1.0000
  C   C51       1.0  0.28052  0.95376  0.70587  1.0000
  C   C52       1.0  0.27727  0.91644  0.81342  1.0000
  H   H37       1.0  0.30424  0.84797  0.90307  1.0000
  O  Te13      1.0  0.37596  0.90854  0.51068  1.0000
  O  Te14      1.0  0.82726  0.98926  0.49749  1.0000
  H   H38       1.0  0.25192  0.91833  0.89169  1.0000
  Mg  Mg7       1.0  0.36643  0.96874  0.38545  1.0000
  C   C53       1.0  0.25622  0.68292  0.68119  1.0000
  C   C54       1.0  0.28335  0.64123  0.68934  1.0000
  C  Sn15      1.0  0.35075  0.66862  0.70041  1.0000
  C  Sn16      1.0  0.39162  0.73905  0.70339  1.0000
  C   C55       1.0  0.36400  0.78032  0.69526  1.0000
  C   C56       1.0  0.29649  0.75239  0.68417  1.0000
  H   H39       1.0  0.20399  0.66131  0.67267  1.0000
  O  Te15      1.0  0.37705  0.62625  0.70841  1.0000
  O  Te16      1.0  0.45914  0.76775  0.71445  1.0000
  H   H40       1.0  0.27550  0.78467  0.67794  1.0000
  Mg  Mg8       1.0  0.47189  0.68916  0.72232  1.0000
  C   C57       1.0  0.50282  0.88112  0.81769  1.0000
  C   C58       1.0  0.46277  0.88757  0.72894  1.0000
  C  Sn17      1.0  0.49022  0.93139  0.62631  1.0000
  C  Sn18      1.0  0.55906  0.96936  0.61251  1.0000
  C   C59       1.0  0.59870  0.96251  0.70177  1.0000
  C   C60       1.0  0.57072  0.91853  0.80413  1.0000
  H   H41       1.0  0.48118  0.84707  0.89686  1.0000
  O  Te17      1.0  0.44949  0.93725  0.53854  1.0000
  O  Te18      1.0  0.09908  0.01351  0.51082  1.0000
  H   H42       1.0  0.60175  0.91351  0.87279  1.0000
  Mg  Mg9       1.0  0.02305  0.00407  0.41605  1.0000
  C   C61       1.0  0.13094  0.39098  0.59350  1.0000
  C   C62       1.0  0.17105  0.44200  0.66862  1.0000
  C  Sn19      1.0  0.18691  0.42629  0.78435  1.0000
  C  Sn20      1.0  0.16211  0.35818  0.82537  1.0000
  C   C63       1.0  0.12206  0.30751  0.74949  1.0000
  C   C64       1.0  0.10648  0.32380  0.63387  1.0000
  H   H43       1.0  0.11891  0.40358  0.50401  1.0000
  O  Te19      1.0  0.22702  0.47788  0.85825  1.0000
  O  Te20      1.0  0.17721  0.34107  0.94060  1.0000
  H   H44       1.0  0.07546  0.28429  0.57570  1.0000
  Mg  Mg10      1.0  0.23846  0.46556  0.00789  1.0000
  C   C65       1.0  0.81932  0.08955  0.92885  1.0000
  C   C66       1.0  0.77369  0.05476  0.84032  1.0000
  C  Sn21      1.0  0.79328  0.03901  0.73535  1.0000
  C  Sn22      1.0  0.85982  0.05850  0.71899  1.0000
  C   C67       1.0  0.90509  0.09325  0.80813  1.0000
  C   C68       1.0  0.88496  0.10878  0.91280  1.0000
  H   H45       1.0  0.80844  0.13786  0.00987  1.0000
  O  Te21      1.0  0.74705  0.00424  0.64779  1.0000
  O  Te22      1.0  0.88073  0.04338  0.61496  1.0000
  H   H46       1.0  0.92030  0.13568  0.98137  1.0000
  Mg  Mg11      1.0  0.79938  0.99522  0.52150  1.0000
  C   C69       1.0  0.15467  0.08710  0.68474  1.0000
  C   C70       1.0  0.11554  0.08856  0.77545  1.0000
  C  Sn23      1.0  0.11038  0.05578  0.88931  1.0000
  C  Sn24      1.0  0.14512  0.02095  0.91255  1.0000
  C   C71       1.0  0.18418  0.01982  0.82123  1.0000
  C   C72       1.0  0.18897  0.05278  0.70760  1.0000
  H   H47       1.0  0.15841  0.11263  0.59684  1.0000
  O  Te23      1.0  0.07105  0.05772  0.97890  1.0000
  O  Te24      1.0  0.14555  0.02410  0.02556  1.0000
  H   H48       1.0  0.21931  0.05167  0.63742  1.0000
  Mg  Mg12      1.0  0.08564  0.04115  0.11839  1.0000
