data_image0
_chemical_formula_structural       H54C72N6C2Sn2C2HTe2HMgC2Sn2C2HTe2HMgC2Sn2C2HTe2HMgC2Sn2C2HTe2HMgC2Sn2C2HTe2HMgC2Sn2C2HTe2HMg
_chemical_formula_sum              "H66 C96 N6 Sn12 Te12 Mg6"
_cell_length_a       25.5097
_cell_length_b       25.6743
_cell_length_c       8.61582
_cell_angle_alpha    97.9046
_cell_angle_beta     84.7758
_cell_angle_gamma    118.604

_symmetry_space_group_name_H-M    'P1'
_space_group_IT_number       1

loop_
  _space_group_symop_operation_xyz
  'x, y, z'

loop_
  _atom_site_type_symbol
  _atom_site_label
  _atom_site_symmetry_multiplicity
  _atom_site_fract_x
  _atom_site_fract_y
  _atom_site_fract_z
  _atom_site_occupancy
  H   H1        1.0  0.20506  0.48483  0.16043  1.0000
  H   H2        1.0  0.36370  0.65018  0.10404  1.0000
  H   H3        1.0  0.19193  0.64455  0.14381  1.0000
  H   H4        1.0  0.11270  0.44455  0.05856  1.0000
  H   H5        1.0  0.00529  0.38927  0.12447  1.0000
  H   H6        1.0  0.01335  0.54722  0.39093  1.0000
  H   H7        1.0  0.12234  0.60241  0.32941  1.0000
  H   H8        1.0  0.46354  0.48474  0.36092  1.0000
  H   H9        1.0  0.53822  0.46861  0.46887  1.0000
  H   H10       1.0  0.58338  0.40457  0.50051  1.0000
  H   H11       1.0  0.47333  0.27592  0.13847  1.0000
  H   H12       1.0  0.42485  0.33808  0.11369  1.0000
  H   H13       1.0  0.43748  0.19556  0.50326  1.0000
  H   H14       1.0  0.43111  0.16720  0.30516  1.0000
  H   H15       1.0  0.43814  0.23944  0.36246  1.0000
  H   H16       1.0  0.64480  0.15952  0.30134  1.0000
  H   H17       1.0  0.61250  0.15486  0.49182  1.0000
  H   H18       1.0  0.68441  0.21516  0.45130  1.0000
  H   H19       1.0  0.63144  0.39021  0.19730  1.0000
  H   H20       1.0  0.66513  0.41709  0.86216  1.0000
  H   H21       1.0  0.62955  0.38776  0.68089  1.0000
  H   H22       1.0  0.56126  0.11538  0.18359  1.0000
  H   H23       1.0  0.50017  0.00550  0.16072  1.0000
  H   H24       1.0  0.73442  0.38608  0.49758  1.0000
  H   H25       1.0  0.84366  0.43258  0.44367  1.0000
  H   H26       1.0  0.81769  0.28499  0.09868  1.0000
  H   H27       1.0  0.70942  0.23766  0.15841  1.0000
  H   H28       1.0  0.36851  0.92144  0.42282  1.0000
  H   H29       1.0  0.91411  0.37304  0.11002  1.0000
  H   H30       1.0  0.20060  0.48323  0.61964  1.0000
  H   H31       1.0  0.35966  0.65169  0.59776  1.0000
  H   H32       1.0  0.18760  0.64534  0.65797  1.0000
  H   H33       1.0  0.10222  0.45536  0.48954  1.0000
  H   H34       1.0  0.99561  0.40003  0.56092  1.0000
  H   H35       1.0  0.01758  0.53445  0.94490  1.0000
  H   H36       1.0  0.12624  0.59001  0.87406  1.0000
  H   H37       1.0  0.46407  0.48800  0.85233  1.0000
  H   H38       1.0  0.43373  0.19296  0.00079  1.0000
  H   H39       1.0  0.42795  0.16838  0.80061  1.0000
  H   H40       1.0  0.43425  0.23975  0.86880  1.0000
  H   H41       1.0  0.63979  0.15919  0.80849  1.0000
  H   H42       1.0  0.61027  0.15802  0.00122  1.0000
  H   H43       1.0  0.68186  0.21679  0.95190  1.0000
  H   H44       1.0  0.69607  0.38506  0.71372  1.0000
  H   H45       1.0  0.69732  0.38311  0.20663  1.0000
  H   H46       1.0  0.67293  0.41608  0.37003  1.0000
  H   H47       1.0  0.38750  0.02163  0.54534  1.0000
  H   H48       1.0  0.45020  0.13049  0.57452  1.0000
  H   H49       1.0  0.73097  0.38944  0.98974  1.0000
  H   H50       1.0  0.84075  0.43419  0.94195  1.0000
  H   H51       1.0  0.81497  0.28214  0.61563  1.0000
  H   H52       1.0  0.70617  0.23653  0.66916  1.0000
  H   H53       1.0  0.36532  0.92360  0.93342  1.0000
  H   H54       1.0  0.91050  0.36464  0.63046  1.0000
  C   C1        1.0  0.22573  0.53177  0.14272  1.0000
  C   C2        1.0  0.28805  0.56324  0.12217  1.0000
  C   C3        1.0  0.31529  0.62502  0.11435  1.0000
  C   C4        1.0  0.28145  0.65542  0.12565  1.0000
  C   C5        1.0  0.21906  0.62223  0.14125  1.0000
  C   C6        1.0  0.19055  0.56068  0.15352  1.0000
  C   C7        1.0  0.12558  0.52800  0.18657  1.0000
  C   C8        1.0  0.09123  0.46728  0.13213  1.0000
  C   C9        1.0  0.03029  0.43629  0.16755  1.0000
  C   C10       1.0  0.00107  0.46525  0.25871  1.0000
  C   C11       1.0  0.03553  0.52565  0.31565  1.0000
  C   C12       1.0  0.09634  0.55635  0.27959  1.0000
  C   C13       1.0  0.45095  0.44542  0.27398  1.0000
  C   C14       1.0  0.47785  0.40755  0.28997  1.0000
  C   C15       1.0  0.52360  0.42608  0.39666  1.0000
  C   C16       1.0  0.54936  0.39014  0.41386  1.0000
  C   C17       1.0  0.53060  0.33447  0.32425  1.0000
  C   C18       1.0  0.48600  0.31718  0.21459  1.0000
  C   C19       1.0  0.45936  0.35215  0.19868  1.0000
  C   C20       1.0  0.55731  0.29529  0.34248  1.0000
  C   C21       1.0  0.52081  0.23475  0.36892  1.0000
  C   C22       1.0  0.54775  0.19823  0.37920  1.0000
  C   C23       1.0  0.61075  0.22322  0.37539  1.0000
  C   C24       1.0  0.64687  0.28347  0.34721  1.0000
  C   C25       1.0  0.62008  0.31900  0.32550  1.0000
  C   C26       1.0  0.45356  0.20827  0.38488  1.0000
  C   C27       1.0  0.51039  0.13227  0.37910  1.0000
  C   C28       1.0  0.63959  0.18624  0.40664  1.0000
  C   C29       1.0  0.71305  0.30884  0.32882  1.0000
  C   C30       1.0  0.65746  0.38041  0.27213  1.0000
  C   C31       1.0  0.52403  0.09498  0.26565  1.0000
  C   C32       1.0  0.48970  0.03353  0.25058  1.0000
  C   C33       1.0  0.43879  0.00589  0.34816  1.0000
  C   C34       1.0  0.42522  0.04217  0.46413  1.0000
  C   C35       1.0  0.46055  0.10408  0.47950  1.0000
  C   C36       1.0  0.75248  0.36353  0.41086  1.0000
  C   C37       1.0  0.81379  0.38996  0.38100  1.0000
  C   C38       1.0  0.83832  0.36279  0.26554  1.0000
  C   C39       1.0  0.79966  0.30704  0.18767  1.0000
  C   C40       1.0  0.73846  0.28044  0.22083  1.0000
  C   C41       1.0  0.40116  0.94119  0.32765  1.0000
  C   C42       1.0  0.90175  0.39183  0.22108  1.0000
  C   C43       1.0  0.22171  0.53122  0.61492  1.0000
  C   C44       1.0  0.28430  0.56375  0.60245  1.0000
  C   C45       1.0  0.31121  0.62602  0.60508  1.0000
  C   C46       1.0  0.27704  0.65623  0.62508  1.0000
  C   C47       1.0  0.21476  0.62269  0.64189  1.0000
  C   C48       1.0  0.18660  0.56034  0.63873  1.0000
  C   C49       1.0  0.12195  0.52697  0.67615  1.0000
  C   C50       1.0  0.08415  0.47235  0.59130  1.0000
  C   C51       1.0  0.02372  0.44128  0.63158  1.0000
  C   C52       1.0  0.99869  0.46364  0.75888  1.0000
  C   C53       1.0  0.03667  0.51793  0.84467  1.0000
  C   C54       1.0  0.09706  0.54909  0.80356  1.0000
  C   C55       1.0  0.44835  0.44721  0.76981  1.0000
  C   C56       1.0  0.55356  0.29560  0.83888  1.0000
  C   C57       1.0  0.51739  0.23536  0.86869  1.0000
  C   C58       1.0  0.54473  0.19948  0.88267  1.0000
  C   C59       1.0  0.60768  0.22453  0.87841  1.0000
  C   C60       1.0  0.64361  0.28452  0.84728  1.0000
  C   C61       1.0  0.61648  0.31946  0.82287  1.0000
  C   C62       1.0  0.45004  0.20821  0.88481  1.0000
  C   C63       1.0  0.63641  0.18774  0.91183  1.0000
  C   C64       1.0  0.70980  0.30993  0.83029  1.0000
  C   C65       1.0  0.65378  0.38052  0.76723  1.0000
  C   C66       1.0  0.74928  0.36555  0.90856  1.0000
  C   C67       1.0  0.81071  0.39099  0.88216  1.0000
  C   C68       1.0  0.83545  0.36168  0.77440  1.0000
  C   C69       1.0  0.79663  0.30532  0.69983  1.0000
  C   C70       1.0  0.73529  0.27989  0.72873  1.0000
  C   C71       1.0  0.39765  0.94275  0.83719  1.0000
  C   C72       1.0  0.89897  0.38846  0.73250  1.0000
  N   N1        1.0  0.94041  0.43805  0.30444  1.0000
  N   N2        1.0  0.41374  0.43238  0.16440  1.0000
  N   N3        1.0  0.40799  0.90981  0.20416  1.0000
  N   N4        1.0  0.93807  0.43709  0.80739  1.0000
  N   N5        1.0  0.40946  0.43368  0.66424  1.0000
  N   N6        1.0  0.40369  0.91087  0.71370  1.0000
  C   C73       1.0  0.44425  0.09253  0.99882  1.0000
  C   C74       1.0  0.49761  0.12720  0.91925  1.0000
  C  Sn1       1.0  0.51939  0.10072  0.79616  1.0000
  C  Sn2       1.0  0.48705  0.03835  0.75215  1.0000
  C   C75       1.0  0.91554  0.00406  0.83242  1.0000
  C   C76       1.0  0.89416  0.03102  0.95545  1.0000
  H   H55       1.0  0.43873  0.07249  0.09396  1.0000
  O  Te1       1.0  0.57279  0.13601  0.71794  1.0000
  O  Te2       1.0  0.98964  0.01074  0.62952  1.0000
  H   H56       1.0  0.86387  0.96327  0.01697  1.0000
  Mg  Mg1       1.0  0.58281  0.07778  0.55859  1.0000
  C   C77       1.0  0.37155  0.76990  0.54218  1.0000
  C   C78       1.0  0.32113  0.72918  0.62066  1.0000
  C  Sn3       1.0  0.29124  0.74945  0.73683  1.0000
  C  Sn4       1.0  0.31231  0.81166  0.77485  1.0000
  C   C79       1.0  0.36277  0.85203  0.69558  1.0000
  C   C80       1.0  0.39235  0.83126  0.57956  1.0000
  H   H57       1.0  0.39443  0.75383  0.45235  1.0000
  O  Te3       1.0  0.24094  0.70817  0.81413  1.0000
  O  Te4       1.0  0.28326  0.83314  0.89043  1.0000
  H   H58       1.0  0.43137  0.86279  0.51875  1.0000
  Mg  Mg2       1.0  0.21662  0.75930  0.96291  1.0000
  C   C81       1.0  0.53101  0.42418  0.91235  1.0000
  C   C82       1.0  0.48916  0.41634  0.80534  1.0000
  C  Sn5       1.0  0.46302  0.36382  0.70358  1.0000
  C  Sn6       1.0  0.47916  0.31837  0.70936  1.0000
  C   C83       1.0  0.52104  0.32662  0.81691  1.0000
  C   C84       1.0  0.54694  0.37936  0.91817  1.0000
  H   H59       1.0  0.55102  0.46497  0.99076  1.0000
  O  Te5       1.0  0.42130  0.35673  0.59735  1.0000
  O  Te6       1.0  0.45371  0.26543  0.60904  1.0000
  H   H60       1.0  0.59036  0.34450  0.00108  1.0000
  Mg  Mg3       1.0  0.39900  0.27666  0.48473  1.0000
  C   C85       1.0  0.32037  0.44134  0.05566  1.0000
  C   C86       1.0  0.37596  0.46206  0.12115  1.0000
  C  Sn7       1.0  0.40564  0.52011  0.19574  1.0000
  C  Sn8       1.0  0.37907  0.55800  0.20478  1.0000
  C   C87       1.0  0.32343  0.53684  0.13899  1.0000
  C   C88       1.0  0.29412  0.47868  0.06458  1.0000
  H   H61       1.0  0.28663  0.43723  0.99817  1.0000
  O  Te7       1.0  0.46116  0.54011  0.26049  1.0000
  O  Te8       1.0  0.40776  0.61621  0.27869  1.0000
  H   H62       1.0  0.25106  0.46263  0.01397  1.0000
  Mg  Mg4       1.0  0.48275  0.62301  0.34908  1.0000
  C   C89       1.0  0.38217  0.55808  0.72481  1.0000
  C   C90       1.0  0.33579  0.54219  0.62370  1.0000
  C  Sn9       1.0  0.31163  0.48689  0.53294  1.0000
  C  Sn10      1.0  0.33440  0.44682  0.54389  1.0000
  C   C91       1.0  0.38077  0.46311  0.64549  1.0000
  C   C92       1.0  0.40464  0.51858  0.73573  1.0000
  H   H63       1.0  0.40061  0.60097  0.79470  1.0000
  O  Te9       1.0  0.26532  0.47174  0.43247  1.0000
  O  Te10      1.0  0.31106  0.39126  0.45456  1.0000
  H   H64       1.0  0.44052  0.53084  0.81409  1.0000
  Mg  Mg5       1.0  0.24826  0.39095  0.33466  1.0000
  C   C93       1.0  0.30101  0.80114  0.25336  1.0000
  C   C94       1.0  0.35832  0.84093  0.20203  1.0000
  C  Sn11      1.0  0.39256  0.81984  0.10491  1.0000
  C  Sn12      1.0  0.36887  0.75774  0.05847  1.0000
  C   C95       1.0  0.31147  0.71830  0.11036  1.0000
  C   C96       1.0  0.27759  0.73989  0.20756  1.0000
  H   H65       1.0  0.27478  0.81784  0.32849  1.0000
  O  Te11      1.0  0.44975  0.86020  0.05474  1.0000
  O  Te12      1.0  0.39108  0.77635  0.96142  1.0000
  H   H66       1.0  0.23321  0.70908  0.24720  1.0000
  Mg  Mg6       1.0  0.46676  0.84909  0.92370  1.0000
