data_image0
_chemical_formula_structural       H30C36N6SnCSn2CSnTe4Mg2SnCSn2CSnTe4Mg2SnCSn2CSnTe4Mg2SnCSn2CSnTe4Mg2SnCSn2CSnTe4Mg2SnCSn2CSnTe4Mg2SnCSn2CSnTe4Mg2SnCSn2CSnTe4Mg2SnCSn2CSnTe4Mg2SnCSn2CSnTe4Mg2SnCSn2CSnTe4Mg2SnCSn2CSnTe4Mg2
_chemical_formula_sum              "H30 C60 N6 Sn48 Te48 Mg24"
_cell_length_a       25.5097
_cell_length_b       25.6743
_cell_length_c       8.61582
_cell_angle_alpha    97.9046
_cell_angle_beta     84.7758
_cell_angle_gamma    118.604

_symmetry_space_group_name_H-M    'P1'
_space_group_IT_number       1

loop_
  _space_group_symop_operation_xyz
  'x, y, z'

loop_
  _atom_site_type_symbol
  _atom_site_label
  _atom_site_symmetry_multiplicity
  _atom_site_fract_x
  _atom_site_fract_y
  _atom_site_fract_z
  _atom_site_occupancy
  H   H1        1.0  0.20506  0.48483  0.16043  1.0000
  H   H2        1.0  0.36370  0.65018  0.10404  1.0000
  H   H3        1.0  0.19193  0.64455  0.14381  1.0000
  H   H4        1.0  0.46354  0.48474  0.36092  1.0000
  H   H5        1.0  0.43748  0.19556  0.50326  1.0000
  H   H6        1.0  0.43111  0.16720  0.30516  1.0000
  H   H7        1.0  0.43814  0.23944  0.36246  1.0000
  H   H8        1.0  0.64480  0.15952  0.30134  1.0000
  H   H9        1.0  0.61250  0.15486  0.49182  1.0000
  H   H10       1.0  0.68441  0.21516  0.45130  1.0000
  H   H11       1.0  0.63144  0.39021  0.19730  1.0000
  H   H12       1.0  0.66513  0.41709  0.86216  1.0000
  H   H13       1.0  0.62955  0.38776  0.68089  1.0000
  H   H14       1.0  0.36851  0.92144  0.42282  1.0000
  H   H15       1.0  0.91411  0.37304  0.11002  1.0000
  H   H16       1.0  0.20060  0.48323  0.61964  1.0000
  H   H17       1.0  0.35966  0.65169  0.59776  1.0000
  H   H18       1.0  0.18760  0.64534  0.65797  1.0000
  H   H19       1.0  0.46407  0.48800  0.85233  1.0000
  H   H20       1.0  0.43373  0.19296  0.00079  1.0000
  H   H21       1.0  0.42795  0.16838  0.80061  1.0000
  H   H22       1.0  0.43425  0.23975  0.86880  1.0000
  H   H23       1.0  0.63979  0.15919  0.80849  1.0000
  H   H24       1.0  0.61027  0.15802  0.00122  1.0000
  H   H25       1.0  0.68186  0.21679  0.95190  1.0000
  H   H26       1.0  0.69607  0.38506  0.71372  1.0000
  H   H27       1.0  0.69732  0.38311  0.20663  1.0000
  H   H28       1.0  0.67293  0.41608  0.37003  1.0000
  H   H29       1.0  0.36532  0.92360  0.93342  1.0000
  H   H30       1.0  0.91050  0.36464  0.63046  1.0000
  C   C1        1.0  0.22573  0.53177  0.14272  1.0000
  C   C2        1.0  0.28805  0.56324  0.12217  1.0000
  C   C3        1.0  0.31529  0.62502  0.11435  1.0000
  C   C4        1.0  0.28145  0.65542  0.12565  1.0000
  C   C5        1.0  0.21906  0.62223  0.14125  1.0000
  C   C6        1.0  0.19055  0.56068  0.15352  1.0000
  C   C7        1.0  0.45095  0.44542  0.27398  1.0000
  C   C8        1.0  0.55731  0.29529  0.34248  1.0000
  C   C9        1.0  0.52081  0.23475  0.36892  1.0000
  C   C10       1.0  0.54775  0.19823  0.37920  1.0000
  C   C11       1.0  0.61075  0.22322  0.37539  1.0000
  C   C12       1.0  0.64687  0.28347  0.34721  1.0000
  C   C13       1.0  0.62008  0.31900  0.32550  1.0000
  C   C14       1.0  0.45356  0.20827  0.38488  1.0000
  C   C15       1.0  0.63959  0.18624  0.40664  1.0000
  C   C16       1.0  0.65746  0.38041  0.27213  1.0000
  C   C17       1.0  0.40116  0.94119  0.32765  1.0000
  C   C18       1.0  0.90175  0.39183  0.22108  1.0000
  C   C19       1.0  0.22171  0.53122  0.61492  1.0000
  C   C20       1.0  0.28430  0.56375  0.60245  1.0000
  C   C21       1.0  0.31121  0.62602  0.60508  1.0000
  C   C22       1.0  0.27704  0.65623  0.62508  1.0000
  C   C23       1.0  0.21476  0.62269  0.64189  1.0000
  C   C24       1.0  0.18660  0.56034  0.63873  1.0000
  C   C25       1.0  0.44835  0.44721  0.76981  1.0000
  C   C26       1.0  0.55356  0.29560  0.83888  1.0000
  C   C27       1.0  0.51739  0.23536  0.86869  1.0000
  C   C28       1.0  0.54473  0.19948  0.88267  1.0000
  C   C29       1.0  0.60768  0.22453  0.87841  1.0000
  C   C30       1.0  0.64361  0.28452  0.84728  1.0000
  C   C31       1.0  0.61648  0.31946  0.82287  1.0000
  C   C32       1.0  0.45004  0.20821  0.88481  1.0000
  C   C33       1.0  0.63641  0.18774  0.91183  1.0000
  C   C34       1.0  0.65378  0.38052  0.76723  1.0000
  C   C35       1.0  0.39765  0.94275  0.83719  1.0000
  C   C36       1.0  0.89897  0.38846  0.73250  1.0000
  N   N1        1.0  0.94041  0.43805  0.30444  1.0000
  N   N2        1.0  0.41374  0.43238  0.16440  1.0000
  N   N3        1.0  0.40799  0.90981  0.20416  1.0000
  N   N4        1.0  0.93807  0.43709  0.80739  1.0000
  N   N5        1.0  0.40946  0.43368  0.66424  1.0000
  N   N6        1.0  0.40369  0.91087  0.71370  1.0000
  C  Sn1       1.0  0.07437  0.46183  0.09523  1.0000
  C   C37       1.0  0.11459  0.52117  0.14344  1.0000
  C  Sn2       1.0  0.09950  0.55290  0.26817  1.0000
  C  Sn3       1.0  0.04304  0.52474  0.34642  1.0000
  C   C38       1.0  0.00286  0.46543  0.29822  1.0000
  C  Sn4       1.0  0.01792  0.43366  0.17348  1.0000
  O  Te1       1.0  0.07936  0.47185  0.97026  1.0000
  O  Te2       1.0  0.14044  0.61219  0.31422  1.0000
  O  Te3       1.0  0.02703  0.55567  0.47147  1.0000
  O  Te4       1.0  0.97702  0.37441  0.12745  1.0000
  Mg  Mg1       1.0  0.09799  0.63556  0.49089  1.0000
  Mg  Mg2       1.0  0.00837  0.39189  0.95086  1.0000
  C  Sn5       1.0  0.33410  0.45073  0.01827  1.0000
  C   C39       1.0  0.38665  0.47057  0.09856  1.0000
  C  Sn6       1.0  0.40676  0.52161  0.20636  1.0000
  C  Sn7       1.0  0.37364  0.55347  0.23458  1.0000
  C   C40       1.0  0.32112  0.53362  0.15434  1.0000
  C  Sn8       1.0  0.30098  0.48259  0.04649  1.0000
  O  Te5       1.0  0.30379  0.44049  0.91102  1.0000
  O  Te6       1.0  0.45944  0.54059  0.28516  1.0000
  O  Te7       1.0  0.39296  0.60464  0.34193  1.0000
  O  Te8       1.0  0.23729  0.50450  0.96774  1.0000
  Mg  Mg3       1.0  0.46738  0.61278  0.42018  1.0000
  Mg  Mg4       1.0  0.22928  0.43230  0.83276  1.0000
  C  Sn9       1.0  0.38481  0.76639  0.09713  1.0000
  C   C41       1.0  0.32818  0.72742  0.15434  1.0000
  C  Sn10      1.0  0.28867  0.74877  0.21621  1.0000
  C  Sn11      1.0  0.30611  0.81036  0.22090  1.0000
  C   C42       1.0  0.36270  0.84929  0.16369  1.0000
  C  Sn12      1.0  0.40225  0.82798  0.10182  1.0000
  O  Te9       1.0  0.42358  0.74407  0.03579  1.0000
  O  Te10      1.0  0.23230  0.70895  0.27276  1.0000
  O  Te11      1.0  0.26728  0.83266  0.28231  1.0000
  O  Te12      1.0  0.45859  0.86776  0.04527  1.0000
  Mg  Mg5       1.0  0.19528  0.76080  0.34500  1.0000
  Mg  Mg6       1.0  0.48458  0.85685  0.97293  1.0000
  C  Sn13      1.0  0.49006  0.33007  0.17030  1.0000
  C   C43       1.0  0.53464  0.34099  0.27229  1.0000
  C  Sn14      1.0  0.54797  0.38430  0.40110  1.0000
  C  Sn15      1.0  0.51605  0.41737  0.42863  1.0000
  C   C44       1.0  0.47149  0.40644  0.32670  1.0000
  C  Sn16      1.0  0.45814  0.36314  0.19782  1.0000
  O  Te13      1.0  0.47748  0.28655  0.04226  1.0000
  O  Te14      1.0  0.59274  0.39443  0.50139  1.0000
  O  Te15      1.0  0.52867  0.46092  0.55679  1.0000
  O  Te16      1.0  0.41339  0.35300  0.09759  1.0000
  Mg  Mg7       1.0  0.59353  0.45840  0.65994  1.0000
  Mg  Mg8       1.0  0.40149  0.32992  0.93906  1.0000
  C  Sn17      1.0  0.51034  0.04534  0.27429  1.0000
  C   C45       1.0  0.94155  0.01092  0.36345  1.0000
  C  Sn18      1.0  0.42944  0.03746  0.45722  1.0000
  C  Sn19      1.0  0.45022  0.09971  0.46192  1.0000
  C   C46       1.0  0.50083  0.13410  0.37278  1.0000
  C  Sn20      1.0  0.53112  0.10759  0.27899  1.0000
  O  Te17      1.0  0.53988  0.01787  0.18137  1.0000
  O  Te18      1.0  0.86078  0.00212  0.54536  1.0000
  O  Te19      1.0  0.42063  0.12717  0.55495  1.0000
  O  Te20      1.0  0.58160  0.14289  0.19087  1.0000
  Mg  Mg9       1.0  0.35391  0.06016  0.65383  1.0000
  Mg  Mg10      1.0  0.60663  0.08490  0.08231  1.0000
  C  Sn21      1.0  0.78397  0.30634  0.15345  1.0000
  C   C47       1.0  0.82863  0.36025  0.22232  1.0000
  C  Sn22      1.0  0.81692  0.38763  0.36291  1.0000
  C  Sn23      1.0  0.75939  0.36053  0.43626  1.0000
  C   C48       1.0  0.71478  0.30665  0.36743  1.0000
  C  Sn24      1.0  0.72644  0.27925  0.22681  1.0000
  O  Te21      1.0  0.79667  0.27976  0.01288  1.0000
  O  Te22      1.0  0.86228  0.44153  0.42949  1.0000
  O  Te23      1.0  0.74672  0.38716  0.57695  1.0000
  O  Te24      1.0  0.68112  0.22538  0.16026  1.0000
  Mg  Mg11      1.0  0.82320  0.46042  0.62195  1.0000
  Mg  Mg12      1.0  0.70911  0.24732  0.96785  1.0000
  C  Sn25      1.0  0.06716  0.47175  0.56275  1.0000
  C   C49       1.0  0.11083  0.52482  0.63797  1.0000
  C  Sn26      1.0  0.09994  0.54585  0.78924  1.0000
  C  Sn27      1.0  0.04425  0.51312  0.86701  1.0000
  C   C50       1.0  0.00062  0.46008  0.79181  1.0000
  C  Sn28      1.0  0.01147  0.43902  0.64051  1.0000
  O  Te25      1.0  0.07901  0.45157  0.41151  1.0000
  O  Te26      1.0  0.14429  0.59904  0.86203  1.0000
  O  Te27      1.0  0.04347  0.49245  0.01836  1.0000
  O  Te28      1.0  0.96716  0.38587  0.56775  1.0000
  Mg  Mg13      1.0  0.11801  0.56730  0.06858  1.0000
  Mg  Mg14      1.0  0.00445  0.37665  0.36124  1.0000
  C  Sn29      1.0  0.38670  0.53078  0.76293  1.0000
  C   C51       1.0  0.37760  0.47503  0.69071  1.0000
  C  Sn30      1.0  0.34222  0.44857  0.55901  1.0000
  C  Sn31      1.0  0.31539  0.47848  0.49815  1.0000
  C   C52       1.0  0.32451  0.53419  0.57034  1.0000
  C  Sn32      1.0  0.35988  0.56068  0.70208  1.0000
  O  Te29      1.0  0.42225  0.55639  0.89447  1.0000
  O  Te30      1.0  0.33375  0.39280  0.48885  1.0000
  O  Te31      1.0  0.27982  0.45281  0.36650  1.0000
  O  Te32      1.0  0.36835  0.61643  0.77220  1.0000
  Mg  Mg15      1.0  0.28159  0.37620  0.31207  1.0000
  Mg  Mg16      1.0  0.42053  0.63308  0.94892  1.0000
  C  Sn33      1.0  0.37833  0.76762  0.58617  1.0000
  C   C53       1.0  0.32445  0.72810  0.65508  1.0000
  C  Sn34      1.0  0.28729  0.74902  0.73749  1.0000
  C  Sn35      1.0  0.30432  0.81073  0.75124  1.0000
  C   C54       1.0  0.35816  0.85021  0.68233  1.0000
  C  Sn36      1.0  0.39536  0.82933  0.59991  1.0000
  O  Te33      1.0  0.41478  0.74572  0.50431  1.0000
  O  Te34      1.0  0.23365  0.70865  0.80542  1.0000
  O  Te35      1.0  0.26781  0.83261  0.83318  1.0000
  O  Te36      1.0  0.44896  0.86966  0.53199  1.0000
  Mg  Mg17      1.0  0.19911  0.76006  0.90505  1.0000
  Mg  Mg18      1.0  0.48352  0.81830  0.43227  1.0000
  C  Sn37      1.0  0.53165  0.39407  0.94465  1.0000
  C   C55       1.0  0.51816  0.33818  0.86441  1.0000
  C  Sn38      1.0  0.48528  0.31815  0.72792  1.0000
  C  Sn39      1.0  0.46550  0.35475  0.67035  1.0000
  C   C56       1.0  0.47900  0.41061  0.75055  1.0000
  C  Sn40      1.0  0.51187  0.43068  0.88708  1.0000
  O  Te37      1.0  0.57563  0.37231  0.08087  1.0000
  O  Te38      1.0  0.47233  0.26210  0.64976  1.0000
  O  Te39      1.0  0.43254  0.33558  0.53402  1.0000
  O  Te40      1.0  0.52484  0.48670  0.96521  1.0000
  Mg  Mg19      1.0  0.42616  0.25579  0.46903  1.0000
  Mg  Mg20      1.0  0.58207  0.45216  0.14589  1.0000
  C  Sn41      1.0  0.46976  0.05054  0.02273  1.0000
  C   C57       1.0  0.50852  0.12574  0.93091  1.0000
  C  Sn42      1.0  0.52003  0.10119  0.78524  1.0000
  C  Sn43      1.0  0.48093  0.04111  0.73013  1.0000
  C   C58       1.0  0.91300  0.00683  0.82191  1.0000
  C  Sn44      1.0  0.90146  0.03134  0.96762  1.0000
  O  Te41      1.0  0.45911  0.07600  0.16798  1.0000
  O  Te42      1.0  0.57012  0.13637  0.69557  1.0000
  O  Te43      1.0  0.97347  0.01566  0.58475  1.0000
  O  Te44      1.0  0.86245  0.95531  0.05725  1.0000
  Mg  Mg21      1.0  0.56563  0.08157  0.50554  1.0000
  Mg  Mg22      1.0  0.86688  0.01007  0.24725  1.0000
  C  Sn45      1.0  0.79947  0.38108  0.93087  1.0000
  C   C59       1.0  0.83105  0.35809  0.82890  1.0000
  C  Sn46      1.0  0.80138  0.31134  0.71284  1.0000
  C  Sn47      1.0  0.73885  0.28708  0.69831  1.0000
  C   C60       1.0  0.70731  0.31008  0.80022  1.0000
  C  Sn48      1.0  0.73694  0.35683  0.91634  1.0000
  O  Te45      1.0  0.84109  0.38694  0.04602  1.0000
  O  Te46      1.0  0.83391  0.28908  0.61230  1.0000
  O  Te47      1.0  0.70829  0.24030  0.58304  1.0000
  O  Te48      1.0  0.71550  0.33819  0.01681  1.0000
  Mg  Mg23      1.0  0.77220  0.22517  0.47406  1.0000
  Mg  Mg24      1.0  0.77716  0.40212  0.15504  1.0000
