data_image0
_chemical_formula_structural       H32C54N12C2Sn2C2HTe2HMgC2Sn2C2HTe2HMgC2Sn2C2HTe2HMgC2Sn2C2HTe2HMgC2Sn2C2HTe2HMgC2Sn2C2HTe2HMgC2Sn2C2HTe2HMgC2Sn2C2HTe2HMgC2Sn2C2HTe2HMgC2Sn2C2HTe2HMgC2Sn2C2HTe2HMgC2Sn2C2HTe2HMgC2Sn2C2HTe2HMgC2Sn2C2HTe2HMgC2Sn2C2HTe2HMgC2Sn2C2HTe2HMgC2Sn2C2HTe2HMgC2Sn2C2HTe2HMgC2Sn2C2HTe2HMgC2Sn2C2HTe2HMgC2Sn2C2HTe2HMgC2Sn2C2HTe2HMg
_chemical_formula_sum              "H76 C142 N12 Sn44 Te44 Mg22"
_cell_length_a       21.0364
_cell_length_b       46.0187
_cell_length_c       45.1717
_cell_angle_alpha    118.54
_cell_angle_beta     89.1568
_cell_angle_gamma    90.7576

_symmetry_space_group_name_H-M    'P1'
_space_group_IT_number       1

loop_
  _space_group_symop_operation_xyz
  'x, y, z'

loop_
  _atom_site_type_symbol
  _atom_site_label
  _atom_site_symmetry_multiplicity
  _atom_site_fract_x
  _atom_site_fract_y
  _atom_site_fract_z
  _atom_site_occupancy
  H   H1        1.0  0.97805  0.45119  0.92898  1.0000
  H   H2        1.0  0.97862  0.54811  0.07054  1.0000
  H   H3        1.0  0.06285  0.41301  0.89375  1.0000
  H   H4        1.0  0.06503  0.58513  0.10567  1.0000
  H   H5        1.0  0.12941  0.41342  0.94334  1.0000
  H   H6        1.0  0.13510  0.58402  0.05563  1.0000
  H   H7        1.0  0.20204  0.46920  0.97131  1.0000
  H   H8        1.0  0.20369  0.52712  0.02793  1.0000
  H   H9        1.0  0.61561  0.25951  0.46961  1.0000
  H   H10       1.0  0.62455  0.73992  0.52886  1.0000
  H   H11       1.0  0.52036  0.34199  0.47060  1.0000
  H   H12       1.0  0.52580  0.66056  0.53517  1.0000
  H   H13       1.0  0.41302  0.25585  0.45566  1.0000
  H   H14       1.0  0.42156  0.74434  0.54480  1.0000
  H   H15       1.0  0.48052  0.10530  0.43156  1.0000
  H   H16       1.0  0.48909  0.89413  0.56833  1.0000
  H   H17       1.0  0.83000  0.38683  0.51799  1.0000
  H   H18       1.0  0.82671  0.60803  0.48001  1.0000
  H   H19       1.0  0.19618  0.35755  0.44530  1.0000
  H   H20       1.0  0.23869  0.62360  0.56462  1.0000
  H   H21       1.0  0.57213  0.72620  0.23037  1.0000
  H   H22       1.0  0.57229  0.27502  0.76600  1.0000
  H   H23       1.0  0.47626  0.63990  0.15581  1.0000
  H   H24       1.0  0.47819  0.35687  0.84761  1.0000
  H   H25       1.0  0.36767  0.72512  0.22293  1.0000
  H   H26       1.0  0.36754  0.27688  0.77256  1.0000
  H   H27       1.0  0.41680  0.86172  0.36629  1.0000
  H   H28       1.0  0.43219  0.14669  0.62348  1.0000
  H   H29       1.0  0.73995  0.57517  0.11804  1.0000
  H   H30       1.0  0.75785  0.41768  0.87328  1.0000
  H   H31       1.0  0.17994  0.62396  0.09366  1.0000
  H   H32       1.0  0.17442  0.37289  0.90482  1.0000
  C   C1        1.0  0.03885  0.47767  0.97277  1.0000
  C   C2        1.0  0.03951  0.52168  0.02635  1.0000
  C   C3        1.0  0.02542  0.45294  0.93898  1.0000
  C   C4        1.0  0.02646  0.54607  0.06039  1.0000
  C   C5        1.0  0.07201  0.43187  0.91955  1.0000
  C   C6        1.0  0.07397  0.56635  0.07977  1.0000
  C   C7        1.0  0.13640  0.43155  0.93358  1.0000
  C   C8        1.0  0.13938  0.56589  0.06547  1.0000
  C   C9        1.0  0.15250  0.46389  0.96398  1.0000
  C   C10       1.0  0.15412  0.53332  0.03505  1.0000
  C   C11       1.0  0.10417  0.48410  0.98307  1.0000
  C   C12       1.0  0.10483  0.51409  0.01591  1.0000
  C   C13       1.0  0.52155  0.00086  0.51537  1.0000
  C   C14       1.0  0.51986  0.99874  0.48389  1.0000
  C   C15       1.0  0.57197  0.27128  0.46829  1.0000
  C   C16       1.0  0.58035  0.72886  0.53165  1.0000
  C   C17       1.0  0.57483  0.30288  0.47093  1.0000
  C   C18       1.0  0.58210  0.69823  0.53126  1.0000
  C   C19       1.0  0.51845  0.31726  0.46804  1.0000
  C   C20       1.0  0.52524  0.68467  0.53621  1.0000
  C   C21       1.0  0.45972  0.30068  0.46246  1.0000
  C   C22       1.0  0.46719  0.70090  0.54065  1.0000
  C   C23       1.0  0.45833  0.26867  0.45894  1.0000
  C   C24       1.0  0.46657  0.73176  0.54163  1.0000
  C   C25       1.0  0.51403  0.25387  0.46210  1.0000
  C   C26       1.0  0.52306  0.74626  0.53758  1.0000
  C   C27       1.0  0.50561  0.12466  0.45347  1.0000
  C   C28       1.0  0.51749  0.87578  0.54709  1.0000
  C   C29       1.0  0.80239  0.38202  0.49557  1.0000
  C   C30       1.0  0.80341  0.61651  0.50474  1.0000
  C   C31       1.0  0.23285  0.37088  0.46430  1.0000
  C   C32       1.0  0.24948  0.62369  0.54074  1.0000
  C   C33       1.0  0.52816  0.71385  0.21818  1.0000
  C   C34       1.0  0.52858  0.28706  0.77902  1.0000
  C   C35       1.0  0.53081  0.68137  0.19163  1.0000
  C   C36       1.0  0.53171  0.31755  0.80835  1.0000
  C   C37       1.0  0.47392  0.66474  0.17709  1.0000
  C   C38       1.0  0.47526  0.33336  0.82452  1.0000
  C   C39       1.0  0.41486  0.68032  0.18771  1.0000
  C   C40       1.0  0.41559  0.31903  0.81196  1.0000
  C   C41       1.0  0.41326  0.71281  0.21447  1.0000
  C   C42       1.0  0.41344  0.28831  0.78249  1.0000
  C   C43       1.0  0.46935  0.72965  0.23055  1.0000
  C   C44       1.0  0.46951  0.27209  0.76571  1.0000
  C   C45       1.0  0.46157  0.85602  0.35174  1.0000
  C   C46       1.0  0.46823  0.14855  0.64172  1.0000
  C   C47       1.0  0.74015  0.59912  0.11813  1.0000
  C   C48       1.0  0.74555  0.39807  0.87976  1.0000
  C   C49       1.0  0.20456  0.60857  0.10255  1.0000
  C   C50       1.0  0.20102  0.38848  0.89634  1.0000
  C   C51       1.0  0.99612  0.50015  0.99953  1.0000
  C   C52       1.0  0.92971  0.50063  0.99934  1.0000
  C   C53       1.0  0.98808  0.50017  0.49971  1.0000
  C   C54       1.0  0.05279  0.50047  0.50043  1.0000
  N   N1        1.0  0.53199  0.11921  0.47602  1.0000
  N   N2        1.0  0.54599  0.88227  0.52532  1.0000
  N   N3        1.0  0.81504  0.39533  0.47661  1.0000
  N   N4        1.0  0.81795  0.60545  0.52520  1.0000
  N   N5        1.0  0.22825  0.40162  0.48673  1.0000
  N   N6        1.0  0.22260  0.60336  0.51283  1.0000
  N   N7        1.0  0.50960  0.87618  0.36126  1.0000
  N   N8        1.0  0.50764  0.12506  0.63610  1.0000
  N   N9        1.0  0.77687  0.60476  0.09812  1.0000
  N   N10       1.0  0.77126  0.39665  0.90489  1.0000
  N   N11       1.0  0.18981  0.57779  0.09091  1.0000
  N   N12       1.0  0.18773  0.41932  0.90817  1.0000
  C   C55       1.0  0.09490  0.56949  0.53841  1.0000
  C   C56       1.0  0.08817  0.53757  0.51142  1.0000
  C  Sn1       1.0  0.13006  0.52622  0.48392  1.0000
  C  Sn2       1.0  0.17958  0.54727  0.48353  1.0000
  C   C57       1.0  0.18595  0.57915  0.51067  1.0000
  C   C58       1.0  0.14375  0.59027  0.53805  1.0000
  H   H33       1.0  0.06228  0.57809  0.55961  1.0000
  O  Te1       1.0  0.12264  0.49426  0.45715  1.0000
  O  Te2       1.0  0.22213  0.53655  0.45637  1.0000
  H   H34       1.0  0.14900  0.61497  0.55896  1.0000
  Mg  Mg1       1.0  0.19252  0.49094  0.42584  1.0000
  C   C59       1.0  0.16608  0.46010  0.52460  1.0000
  C   C60       1.0  0.17478  0.42860  0.49719  1.0000
  C  Sn3       1.0  0.14159  0.41901  0.46733  1.0000
  C  Sn4       1.0  0.09894  0.44143  0.46495  1.0000
  C   C61       1.0  0.09061  0.47289  0.49251  1.0000
  C   C62       1.0  0.12405  0.48222  0.52227  1.0000
  H   H35       1.0  0.19198  0.46733  0.54762  1.0000
  O  Te3       1.0  0.15082  0.38745  0.44018  1.0000
  O  Te4       1.0  0.06518  0.43249  0.43541  1.0000
  H   H36       1.0  0.11734  0.50661  0.54349  1.0000
  Mg  Mg2       1.0  0.09392  0.38674  0.40529  1.0000
  C   C63       1.0  0.88156  0.54097  0.53218  1.0000
  C   C64       1.0  0.93233  0.52861  0.50932  1.0000
  C  Sn5       1.0  0.95234  0.54483  0.49137  1.0000
  C  Sn6       1.0  0.92086  0.57396  0.49645  1.0000
  C   C65       1.0  0.87014  0.58614  0.51940  1.0000
  C   C66       1.0  0.85050  0.56971  0.53723  1.0000
  H   H37       1.0  0.86637  0.52827  0.54599  1.0000
  O  Te5       1.0  0.00313  0.53214  0.46862  1.0000
  O  Te6       1.0  0.93990  0.59067  0.47885  1.0000
  H   H38       1.0  0.81121  0.57930  0.55494  1.0000
  Mg  Mg3       1.0  0.01154  0.56370  0.45059  1.0000
  C   C67       1.0  0.86632  0.44089  0.46066  1.0000
  C   C68       1.0  0.86613  0.42022  0.47539  1.0000
  C  Sn7       1.0  0.90840  0.42606  0.50125  1.0000
  C  Sn8       1.0  0.95160  0.45312  0.51252  1.0000
  C   C69       1.0  0.95138  0.47367  0.49763  1.0000
  C   C70       1.0  0.90889  0.46759  0.47176  1.0000
  H   H39       1.0  0.83342  0.43621  0.44065  1.0000
  O  Te7       1.0  0.90760  0.40516  0.51570  1.0000
  O  Te8       1.0  0.99435  0.45952  0.53833  1.0000
  H   H40       1.0  0.90902  0.48361  0.46037  1.0000
  Mg  Mg4       1.0  0.97503  0.42403  0.55009  1.0000
  C   C71       1.0  0.80521  0.46476  0.94024  1.0000
  C   C72       1.0  0.83793  0.43052  0.92731  1.0000
  C  Sn9       1.0  0.88343  0.41708  0.93942  1.0000
  C  Sn10      1.0  0.92582  0.43837  0.96495  1.0000
  C   C73       1.0  0.89268  0.47259  0.97774  1.0000
  C   C74       1.0  0.84699  0.48578  0.96543  1.0000
  H   H41       1.0  0.76984  0.47497  0.93074  1.0000
  O  Te9       1.0  0.88658  0.38281  0.92621  1.0000
  O  Te10      1.0  0.97173  0.42560  0.97751  1.0000
  H   H42       1.0  0.84404  0.51230  0.97546  1.0000
  Mg  Mg5       1.0  0.95730  0.37723  0.95149  1.0000
  C   C75       1.0  0.88205  0.58434  0.05500  1.0000
  C   C76       1.0  0.82412  0.58135  0.06889  1.0000
  C  Sn11      1.0  0.79965  0.55012  0.06092  1.0000
  C  Sn12      1.0  0.83393  0.52139  0.03864  1.0000
  C   C77       1.0  0.89186  0.52464  0.02490  1.0000
  C   C78       1.0  0.91590  0.55602  0.03303  1.0000
  H   H43       1.0  0.90067  0.60861  0.06131  1.0000
  O  Te11      1.0  0.74169  0.54758  0.07501  1.0000
  O  Te12      1.0  0.81058  0.48987  0.03026  1.0000
  H   H44       1.0  0.96077  0.55832  0.02230  1.0000
  Mg  Mg6       1.0  0.72950  0.49919  0.05590  1.0000
  C   C79       1.0  0.48072  0.95984  0.54440  1.0000
  C   C80       1.0  0.52155  0.97161  0.52777  1.0000
  C  Sn13      1.0  0.57213  0.95225  0.50821  1.0000
  C  Sn14      1.0  0.58189  0.92053  0.50527  1.0000
  C   C81       1.0  0.54075  0.90897  0.52198  1.0000
  C   C82       1.0  0.49030  0.92854  0.54151  1.0000
  H   H45       1.0  0.44166  0.97497  0.55949  1.0000
  O  Te13      1.0  0.61248  0.96440  0.49177  1.0000
  O  Te14      1.0  0.63206  0.90067  0.48587  1.0000
  H   H46       1.0  0.45867  0.91941  0.55436  1.0000
  Mg  Mg7       1.0  0.67419  0.92811  0.46827  1.0000
  C   C83       1.0  0.50014  0.04043  0.45790  1.0000
  C   C84       1.0  0.54413  0.02882  0.47260  1.0000
  C  Sn15      1.0  0.59521  0.04880  0.49076  1.0000
  C  Sn16      1.0  0.60225  0.08099  0.49424  1.0000
  C   C85       1.0  0.55795  0.09238  0.47946  1.0000
  C   C86       1.0  0.50703  0.07218  0.46132  1.0000
  H   H47       1.0  0.46072  0.02481  0.44388  1.0000
  O  Te15      1.0  0.63874  0.03681  0.50528  1.0000
  O  Te16      1.0  0.65284  0.10147  0.51227  1.0000
  H   H48       1.0  0.47296  0.08118  0.44996  1.0000
  Mg  Mg8       1.0  0.69977  0.07401  0.52743  1.0000
  C   C87       1.0  0.55623  0.95637  0.41500  1.0000
  C   C88       1.0  0.52047  0.96705  0.44466  1.0000
  C  Sn17      1.0  0.47861  0.94529  0.44859  1.0000
  C  Sn18      1.0  0.47255  0.91224  0.42231  1.0000
  C   C89       1.0  0.50857  0.90179  0.39275  1.0000
  C   C90       1.0  0.55030  0.92377  0.38907  1.0000
  H   H49       1.0  0.58854  0.97337  0.41216  1.0000
  O  Te17      1.0  0.44323  0.95637  0.47838  1.0000
  O  Te18      1.0  0.43109  0.88997  0.42558  1.0000
  H   H50       1.0  0.57801  0.91549  0.36611  1.0000
  Mg  Mg9       1.0  0.39308  0.91675  0.47093  1.0000
  C   C91       1.0  0.48788  0.06355  0.55531  1.0000
  C   C92       1.0  0.53401  0.03911  0.54632  1.0000
  C  Sn19      1.0  0.58100  0.04221  0.56921  1.0000
  C  Sn20      1.0  0.58167  0.07033  0.60169  1.0000
  C   C93       1.0  0.53528  0.09463  0.61045  1.0000
  C   C94       1.0  0.48849  0.09128  0.58735  1.0000
  H   H51       1.0  0.45165  0.06095  0.53744  1.0000
  O  Te19      1.0  0.62675  0.01756  0.55982  1.0000
  O  Te20      1.0  0.62807  0.07404  0.62507  1.0000
  H   H52       1.0  0.45275  0.11020  0.59432  1.0000
  Mg  Mg10      1.0  0.68027  0.03381  0.60046  1.0000
  C   C95       1.0  0.49835  0.18620  0.43052  1.0000
  C   C96       1.0  0.49881  0.21518  0.45453  1.0000
  C  Sn21      1.0  0.56558  0.21463  0.47942  1.0000
  C  Sn22      1.0  0.57409  0.18448  0.48021  1.0000
  C   C97       1.0  0.54452  0.15562  0.45606  1.0000
  C   C98       1.0  0.50674  0.15644  0.43127  1.0000
  H   H53       1.0  0.46914  0.18683  0.41133  1.0000
  O  Te21      1.0  0.56564  0.24382  0.50323  1.0000
  O  Te22      1.0  0.61168  0.18323  0.50480  1.0000
  H   H54       1.0  0.48403  0.13400  0.41267  1.0000
  Mg  Mg11      1.0  0.64129  0.22954  0.53177  1.0000
  C   C99       1.0  0.47554  0.82990  0.56895  1.0000
  C   C100      1.0  0.51266  0.84247  0.55169  1.0000
  C  Sn23      1.0  0.55465  0.82188  0.52622  1.0000
  C  Sn24      1.0  0.55945  0.78811  0.51793  1.0000
  C   C101      1.0  0.52207  0.77577  0.53533  1.0000
  C   C102      1.0  0.48022  0.79659  0.56078  1.0000
  H   H55       1.0  0.44314  0.84600  0.58863  1.0000
  O  Te23      1.0  0.59141  0.83484  0.50923  1.0000
  O  Te24      1.0  0.60101  0.76698  0.49257  1.0000
  H   H56       1.0  0.45146  0.78685  0.57413  1.0000
  Mg  Mg12      1.0  0.64113  0.79623  0.47662  1.0000
  C   C103      1.0  0.69331  0.32805  0.50638  1.0000
  C   C104      1.0  0.64437  0.32270  0.48371  1.0000
  C  Sn25      1.0  0.64903  0.33549  0.46125  1.0000
  C  Sn26      1.0  0.70378  0.35397  0.46154  1.0000
  C   C105      1.0  0.75251  0.35916  0.48430  1.0000
  C   C106      1.0  0.74734  0.34626  0.50668  1.0000
  H   H57       1.0  0.68934  0.31806  0.52369  1.0000
  O  Te25      1.0  0.59968  0.32992  0.43877  1.0000
  O  Te26      1.0  0.70969  0.36702  0.43935  1.0000
  H   H58       1.0  0.78527  0.35039  0.52421  1.0000
  Mg  Mg13      1.0  0.62977  0.35277  0.41346  1.0000
  C   C107      1.0  0.69667  0.66908  0.49256  1.0000
  C   C108      1.0  0.65037  0.67759  0.51780  1.0000
  C  Sn27      1.0  0.65687  0.66799  0.54264  1.0000
  C  Sn28      1.0  0.71078  0.64955  0.54214  1.0000
  C   C109      1.0  0.75686  0.64118  0.51679  1.0000
  C   C110      1.0  0.74987  0.65090  0.49205  1.0000
  H   H59       1.0  0.69128  0.67662  0.47343  1.0000
  O  Te27      1.0  0.61016  0.67669  0.56768  1.0000
  O  Te28      1.0  0.71848  0.63965  0.56666  1.0000
  H   H60       1.0  0.78574  0.64433  0.47252  1.0000
  Mg  Mg14      1.0  0.64195  0.65747  0.59558  1.0000
  C   C111      1.0  0.33415  0.30105  0.43680  1.0000
  C   C112      1.0  0.39001  0.31337  0.45518  1.0000
  C  Sn29      1.0  0.39404  0.34645  0.48006  1.0000
  C  Sn30      1.0  0.34107  0.36751  0.48662  1.0000
  C   C113      1.0  0.28538  0.35493  0.46811  1.0000
  C   C114      1.0  0.28188  0.32180  0.44326  1.0000
  H   H61       1.0  0.33142  0.27540  0.41758  1.0000
  O  Te29      1.0  0.45021  0.35836  0.49818  1.0000
  O  Te30      1.0  0.34379  0.40066  0.51136  1.0000
  H   H62       1.0  0.23861  0.31226  0.42905  1.0000
  Mg  Mg15      1.0  0.43078  0.40536  0.52934  1.0000
  C   C115      1.0  0.32933  0.65059  0.50750  1.0000
  C   C116      1.0  0.30545  0.64488  0.53331  1.0000
  C  Sn31      1.0  0.33223  0.66105  0.56538  1.0000
  C  Sn32      1.0  0.38386  0.68332  0.57164  1.0000
  C   C117      1.0  0.40738  0.68888  0.54565  1.0000
  C   C118      1.0  0.38024  0.67257  0.51366  1.0000
  H   H63       1.0  0.30832  0.63798  0.48275  1.0000
  O  Te31      1.0  0.30780  0.65505  0.59088  1.0000
  O  Te32      1.0  0.41150  0.69982  0.60346  1.0000
  H   H64       1.0  0.39871  0.67701  0.49368  1.0000
  Mg  Mg16      1.0  0.36150  0.68345  0.63003  1.0000
  C   C119      1.0  0.40381  0.79427  0.30635  1.0000
  C   C120      1.0  0.45024  0.81910  0.31964  1.0000
  C  Sn33      1.0  0.50672  0.81617  0.30179  1.0000
  C  Sn34      1.0  0.51674  0.78784  0.27004  1.0000
  C   C121      1.0  0.46997  0.76314  0.25695  1.0000
  C   C122      1.0  0.41364  0.76632  0.27503  1.0000
  H   H65       1.0  0.36021  0.79673  0.32033  1.0000
  O  Te33      1.0  0.55263  0.84121  0.31544  1.0000
  O  Te34      1.0  0.57273  0.78429  0.25166  1.0000
  H   H66       1.0  0.37768  0.74709  0.26472  1.0000
  Mg  Mg17      1.0  0.62112  0.82506  0.28084  1.0000
  C   C123      1.0  0.44379  0.22824  0.70102  1.0000
  C   C124      1.0  0.48200  0.23822  0.72934  1.0000
  C  Sn35      1.0  0.53175  0.21820  0.72892  1.0000
  C  Sn36      1.0  0.54336  0.18765  0.69955  1.0000
  C   C125      1.0  0.50490  0.17791  0.67134  1.0000
  C   C126      1.0  0.45523  0.19812  0.67204  1.0000
  H   H67       1.0  0.40539  0.24389  0.70155  1.0000
  O  Te35      1.0  0.56944  0.22853  0.75744  1.0000
  O  Te36      1.0  0.59277  0.16718  0.69844  1.0000
  H   H68       1.0  0.42569  0.19041  0.65010  1.0000
  Mg  Mg18      1.0  0.63105  0.19203  0.74366  1.0000
  C   C127      1.0  0.63307  0.61250  0.16108  1.0000
  C   C128      1.0  0.68196  0.61875  0.14356  1.0000
  C  Sn37      1.0  0.68714  0.64963  0.14485  1.0000
  C  Sn38      1.0  0.64249  0.67468  0.16408  1.0000
  C   C129      1.0  0.59377  0.66819  0.18154  1.0000
  C   C130      1.0  0.58902  0.63719  0.18006  1.0000
  H   H69       1.0  0.62941  0.58853  0.15996  1.0000
  O  Te37      1.0  0.73627  0.65546  0.12718  1.0000
  O  Te38      1.0  0.64657  0.70577  0.16581  1.0000
  H   H70       1.0  0.55118  0.63237  0.19365  1.0000
  Mg  Mg19      1.0  0.72191  0.70178  0.13736  1.0000
  C   C131      1.0  0.66101  0.36313  0.81475  1.0000
  C   C132      1.0  0.63103  0.33784  0.81860  1.0000
  C  Sn39      1.0  0.64835  0.33161  0.84477  1.0000
  C  Sn40      1.0  0.69656  0.35111  0.86748  1.0000
  C   C133      1.0  0.72623  0.37636  0.86343  1.0000
  C   C134      1.0  0.70855  0.38238  0.83714  1.0000
  H   H71       1.0  0.64731  0.36780  0.79443  1.0000
  O  Te39      1.0  0.61793  0.30624  0.84824  1.0000
  O  Te40      1.0  0.71477  0.34542  0.89386  1.0000
  H   H72       1.0  0.70281  0.40198  0.83419  1.0000
  Mg  Mg20      1.0  0.65937  0.30801  0.88817  1.0000
  C   C135      1.0  0.29644  0.67842  0.15560  1.0000
  C   C136      1.0  0.34308  0.66761  0.16974  1.0000
  C  Sn41      1.0  0.34684  0.63419  0.16106  1.0000
  C  Sn42      1.0  0.30305  0.61121  0.13777  1.0000
  C   C137      1.0  0.25659  0.62227  0.12375  1.0000
  C   C138      1.0  0.25324  0.65578  0.13262  1.0000
  H   H73       1.0  0.29387  0.70434  0.16245  1.0000
  O  Te41      1.0  0.39372  0.62381  0.17544  1.0000
  O  Te42      1.0  0.30575  0.57766  0.12865  1.0000
  H   H74       1.0  0.21715  0.66413  0.12165  1.0000
  Mg  Mg21      1.0  0.37815  0.57555  0.15505  1.0000
  C   C139      1.0  0.29265  0.32856  0.85179  1.0000
  C   C140      1.0  0.28271  0.36265  0.87009  1.0000
  C  Sn43      1.0  0.32524  0.38462  0.86694  1.0000
  C  Sn44      1.0  0.37865  0.37214  0.84503  1.0000
  C   C141      1.0  0.38815  0.33799  0.82680  1.0000
  C   C142      1.0  0.34530  0.31624  0.83016  1.0000
  H   H75       1.0  0.25949  0.31172  0.85436  1.0000
  O  Te43      1.0  0.28569  0.41861  0.88543  1.0000
  O  Te44      1.0  0.42189  0.39354  0.84139  1.0000
  H   H76       1.0  0.35299  0.28984  0.81596  1.0000
  Mg  Mg22      1.0  0.35804  0.43783  0.87193  1.0000
