data_image0
_chemical_formula_structural       H76C120N12C2Sn2C2HTe2HMgC2Sn2C2HTe2HMgC2Sn2C2HTe2HMgC2Sn2C2HTe2HMgC2Sn2C2HTe2HMgC2Sn2C2HTe2HMgC2Sn2C2HTe2HMgC2Sn2C2HTe2HMgC2Sn2C2HTe2HMgC2Sn2C2HTe2HMgC2Sn2C2HTe2HMg
_chemical_formula_sum              "H98 C164 N12 Sn22 Te22 Mg11"
_cell_length_a       21.0364
_cell_length_b       46.0187
_cell_length_c       45.1717
_cell_angle_alpha    118.54
_cell_angle_beta     89.1568
_cell_angle_gamma    90.7576

_symmetry_space_group_name_H-M    'P1'
_space_group_IT_number       1

loop_
  _space_group_symop_operation_xyz
  'x, y, z'

loop_
  _atom_site_type_symbol
  _atom_site_label
  _atom_site_symmetry_multiplicity
  _atom_site_fract_x
  _atom_site_fract_y
  _atom_site_fract_z
  _atom_site_occupancy
  H   H1        1.0  0.06757  0.43903  0.44402  1.0000
  H   H2        1.0  0.14607  0.39631  0.43665  1.0000
  H   H3        1.0  0.20216  0.45466  0.54003  1.0000
  H   H4        1.0  0.12590  0.49852  0.54674  1.0000
  H   H5        1.0  0.97805  0.45119  0.92898  1.0000
  H   H6        1.0  0.97862  0.54811  0.07054  1.0000
  H   H7        1.0  0.06285  0.41301  0.89375  1.0000
  H   H8        1.0  0.06503  0.58513  0.10567  1.0000
  H   H9        1.0  0.12941  0.41342  0.94334  1.0000
  H   H10       1.0  0.13510  0.58402  0.05563  1.0000
  H   H11       1.0  0.20204  0.46920  0.97131  1.0000
  H   H12       1.0  0.20369  0.52712  0.02793  1.0000
  H   H13       1.0  0.94610  0.56855  0.02546  1.0000
  H   H14       1.0  0.87729  0.61260  0.06849  1.0000
  H   H15       1.0  0.75397  0.53803  0.06987  1.0000
  H   H16       1.0  0.82221  0.49466  0.02796  1.0000
  H   H17       1.0  0.61000  0.95238  0.48620  1.0000
  H   H18       1.0  0.61835  0.90107  0.49165  1.0000
  H   H19       1.0  0.45772  0.93213  0.55960  1.0000
  H   H20       1.0  0.45096  0.98330  0.55508  1.0000
  H   H21       1.0  0.44702  0.94399  0.47179  1.0000
  H   H22       1.0  0.43536  0.04954  0.52968  1.0000
  H   H23       1.0  0.44222  0.89085  0.41950  1.0000
  H   H24       1.0  0.42616  0.10299  0.58104  1.0000
  H   H25       1.0  0.57569  0.92769  0.37213  1.0000
  H   H26       1.0  0.58514  0.07841  0.62356  1.0000
  H   H27       1.0  0.57979  0.98174  0.42485  1.0000
  H   H28       1.0  0.59253  0.02335  0.57180  1.0000
  H   H29       1.0  0.61561  0.25951  0.46961  1.0000
  H   H30       1.0  0.62455  0.73992  0.52886  1.0000
  H   H31       1.0  0.52036  0.34199  0.47060  1.0000
  H   H32       1.0  0.52580  0.66056  0.53517  1.0000
  H   H33       1.0  0.41302  0.25585  0.45566  1.0000
  H   H34       1.0  0.42156  0.74434  0.54480  1.0000
  H   H35       1.0  0.66920  0.68164  0.48027  1.0000
  H   H36       1.0  0.41373  0.69787  0.59477  1.0000
  H   H37       1.0  0.31890  0.66477  0.59444  1.0000
  H   H38       1.0  0.29343  0.63213  0.48898  1.0000
  H   H39       1.0  0.38814  0.66575  0.48935  1.0000
  H   H40       1.0  0.62862  0.67324  0.56949  1.0000
  H   H41       1.0  0.72533  0.63833  0.55839  1.0000
  H   H42       1.0  0.76431  0.64620  0.46883  1.0000
  H   H43       1.0  0.48052  0.10530  0.43156  1.0000
  H   H44       1.0  0.48909  0.89413  0.56833  1.0000
  H   H45       1.0  0.83000  0.38683  0.51799  1.0000
  H   H46       1.0  0.82671  0.60803  0.48001  1.0000
  H   H47       1.0  0.19618  0.35755  0.44530  1.0000
  H   H48       1.0  0.23869  0.62360  0.56462  1.0000
  H   H49       1.0  0.57213  0.72620  0.23037  1.0000
  H   H50       1.0  0.57229  0.27502  0.76600  1.0000
  H   H51       1.0  0.47626  0.63990  0.15581  1.0000
  H   H52       1.0  0.47819  0.35687  0.84761  1.0000
  H   H53       1.0  0.36767  0.72512  0.22293  1.0000
  H   H54       1.0  0.36754  0.27688  0.77256  1.0000
  H   H55       1.0  0.37495  0.75421  0.27770  1.0000
  H   H56       1.0  0.55968  0.62187  0.18400  1.0000
  H   H57       1.0  0.60178  0.35766  0.79190  1.0000
  H   H58       1.0  0.31418  0.70503  0.16986  1.0000
  H   H59       1.0  0.37132  0.80836  0.32916  1.0000
  H   H60       1.0  0.55472  0.83356  0.30455  1.0000
  H   H61       1.0  0.55734  0.77988  0.25170  1.0000
  H   H62       1.0  0.22562  0.67326  0.13240  1.0000
  H   H63       1.0  0.29606  0.58358  0.12716  1.0000
  H   H64       1.0  0.38565  0.61546  0.16445  1.0000
  H   H65       1.0  0.63632  0.70061  0.16833  1.0000
  H   H66       1.0  0.59701  0.31495  0.85824  1.0000
  H   H67       1.0  0.72645  0.66421  0.13498  1.0000
  H   H68       1.0  0.68981  0.35054  0.88979  1.0000
  H   H69       1.0  0.65045  0.58611  0.15187  1.0000
  H   H70       1.0  0.69308  0.39349  0.82369  1.0000
  H   H71       1.0  0.41680  0.86172  0.36629  1.0000
  H   H72       1.0  0.43219  0.14669  0.62348  1.0000
  H   H73       1.0  0.73995  0.57517  0.11804  1.0000
  H   H74       1.0  0.75785  0.41768  0.87328  1.0000
  H   H75       1.0  0.17994  0.62396  0.09366  1.0000
  H   H76       1.0  0.17442  0.37289  0.90482  1.0000
  C   C1        1.0  0.09111  0.47162  0.49589  1.0000
  C   C2        1.0  0.09644  0.44221  0.46517  1.0000
  C   C3        1.0  0.14013  0.41800  0.46121  1.0000
  C   C4        1.0  0.17896  0.42234  0.48826  1.0000
  C   C5        1.0  0.17191  0.45144  0.51934  1.0000
  C   C6        1.0  0.12924  0.47566  0.52297  1.0000
  C   C7        1.0  0.03885  0.47767  0.97277  1.0000
  C   C8        1.0  0.03951  0.52168  0.02635  1.0000
  C   C9        1.0  0.89146  0.52801  0.02456  1.0000
  C   C10       1.0  0.02542  0.45294  0.93898  1.0000
  C   C11       1.0  0.02646  0.54607  0.06039  1.0000
  C   C12       1.0  0.07201  0.43187  0.91955  1.0000
  C   C13       1.0  0.07397  0.56635  0.07977  1.0000
  C   C14       1.0  0.13640  0.43155  0.93358  1.0000
  C   C15       1.0  0.13938  0.56589  0.06547  1.0000
  C   C16       1.0  0.15250  0.46389  0.96398  1.0000
  C   C17       1.0  0.15412  0.53332  0.03505  1.0000
  C   C18       1.0  0.10417  0.48410  0.98307  1.0000
  C   C19       1.0  0.10483  0.51409  0.01591  1.0000
  C   C20       1.0  0.90521  0.56187  0.03603  1.0000
  C   C21       1.0  0.86678  0.58660  0.05993  1.0000
  C   C22       1.0  0.81306  0.57877  0.07389  1.0000
  C   C23       1.0  0.79720  0.54499  0.06124  1.0000
  C   C24       1.0  0.83537  0.52050  0.03733  1.0000
  C   C25       1.0  0.52959  0.97136  0.52002  1.0000
  C   C26       1.0  0.52155  0.00086  0.51537  1.0000
  C   C27       1.0  0.51986  0.99874  0.48389  1.0000
  C   C28       1.0  0.51423  0.96693  0.45244  1.0000
  C   C29       1.0  0.51554  0.03284  0.54658  1.0000
  C   C30       1.0  0.57746  0.94807  0.50266  1.0000
  C   C31       1.0  0.58213  0.91941  0.50551  1.0000
  C   C32       1.0  0.53944  0.91287  0.52600  1.0000
  C   C33       1.0  0.49234  0.93663  0.54410  1.0000
  C   C34       1.0  0.48816  0.96544  0.54144  1.0000
  C   C35       1.0  0.47486  0.94078  0.44997  1.0000
  C   C36       1.0  0.46837  0.05586  0.55020  1.0000
  C   C37       1.0  0.47184  0.91082  0.42039  1.0000
  C   C38       1.0  0.46364  0.08615  0.57921  1.0000
  C   C39       1.0  0.50812  0.90571  0.39176  1.0000
  C   C40       1.0  0.50671  0.09500  0.60593  1.0000
  C   C41       1.0  0.54736  0.93175  0.39408  1.0000
  C   C42       1.0  0.55267  0.07163  0.60271  1.0000
  C   C43       1.0  0.54941  0.96187  0.42357  1.0000
  C   C44       1.0  0.55657  0.04102  0.57382  1.0000
  C   C45       1.0  0.57197  0.27128  0.46829  1.0000
  C   C46       1.0  0.58035  0.72886  0.53165  1.0000
  C   C47       1.0  0.57483  0.30288  0.47093  1.0000
  C   C48       1.0  0.58210  0.69823  0.53126  1.0000
  C   C49       1.0  0.51845  0.31726  0.46804  1.0000
  C   C50       1.0  0.52524  0.68467  0.53621  1.0000
  C   C51       1.0  0.45972  0.30068  0.46246  1.0000
  C   C52       1.0  0.46719  0.70090  0.54065  1.0000
  C   C53       1.0  0.45833  0.26867  0.45894  1.0000
  C   C54       1.0  0.46657  0.73176  0.54163  1.0000
  C   C55       1.0  0.51403  0.25387  0.46210  1.0000
  C   C56       1.0  0.52306  0.74626  0.53758  1.0000
  C   C57       1.0  0.68179  0.67253  0.49764  1.0000
  C   C58       1.0  0.64203  0.67967  0.52555  1.0000
  C   C59       1.0  0.40738  0.68388  0.54205  1.0000
  C   C60       1.0  0.38702  0.68379  0.57171  1.0000
  C   C61       1.0  0.33376  0.66524  0.57147  1.0000
  C   C62       1.0  0.30014  0.64615  0.54155  1.0000
  C   C63       1.0  0.31951  0.64711  0.51206  1.0000
  C   C64       1.0  0.37218  0.66580  0.51239  1.0000
  C   C65       1.0  0.65868  0.66732  0.54754  1.0000
  C   C66       1.0  0.71237  0.64804  0.54159  1.0000
  C   C67       1.0  0.75089  0.63976  0.51288  1.0000
  C   C68       1.0  0.73512  0.65255  0.49120  1.0000
  C   C69       1.0  0.50561  0.12466  0.45347  1.0000
  C   C70       1.0  0.51749  0.87578  0.54709  1.0000
  C   C71       1.0  0.80239  0.38202  0.49557  1.0000
  C   C72       1.0  0.80341  0.61651  0.50474  1.0000
  C   C73       1.0  0.23285  0.37088  0.46430  1.0000
  C   C74       1.0  0.24948  0.62369  0.54074  1.0000
  C   C75       1.0  0.52816  0.71385  0.21818  1.0000
  C   C76       1.0  0.52858  0.28706  0.77902  1.0000
  C   C77       1.0  0.53081  0.68137  0.19163  1.0000
  C   C78       1.0  0.53171  0.31755  0.80835  1.0000
  C   C79       1.0  0.47392  0.66474  0.17709  1.0000
  C   C80       1.0  0.47526  0.33336  0.82452  1.0000
  C   C81       1.0  0.41486  0.68032  0.18771  1.0000
  C   C82       1.0  0.41559  0.31903  0.81196  1.0000
  C   C83       1.0  0.41326  0.71281  0.21447  1.0000
  C   C84       1.0  0.41344  0.28831  0.78249  1.0000
  C   C85       1.0  0.46935  0.72965  0.23055  1.0000
  C   C86       1.0  0.46951  0.27209  0.76571  1.0000
  C   C87       1.0  0.46658  0.76264  0.26078  1.0000
  C   C88       1.0  0.41406  0.77164  0.28301  1.0000
  C   C89       1.0  0.59631  0.63108  0.17331  1.0000
  C   C90       1.0  0.62138  0.35598  0.81318  1.0000
  C   C91       1.0  0.59072  0.66321  0.17743  1.0000
  C   C92       1.0  0.59282  0.33446  0.82340  1.0000
  C   C93       1.0  0.35724  0.66240  0.16920  1.0000
  C   C94       1.0  0.31009  0.67855  0.16089  1.0000
  C   C95       1.0  0.41231  0.80206  0.31227  1.0000
  C   C96       1.0  0.46346  0.82454  0.32063  1.0000
  C   C97       1.0  0.51581  0.81585  0.29826  1.0000
  C   C98       1.0  0.51704  0.78569  0.26892  1.0000
  C   C99       1.0  0.26033  0.66061  0.13976  1.0000
  C   C100      1.0  0.25494  0.62615  0.12690  1.0000
  C   C101      1.0  0.30024  0.61015  0.13663  1.0000
  C   C102      1.0  0.35044  0.62802  0.15729  1.0000
  C   C103      1.0  0.63975  0.67561  0.16489  1.0000
  C   C104      1.0  0.61886  0.33190  0.85056  1.0000
  C   C105      1.0  0.69011  0.65552  0.14637  1.0000
  C   C106      1.0  0.67023  0.35158  0.86817  1.0000
  C   C107      1.0  0.69357  0.62266  0.14062  1.0000
  C   C108      1.0  0.69669  0.37459  0.85919  1.0000
  C   C109      1.0  0.64727  0.61122  0.15551  1.0000
  C   C110      1.0  0.67251  0.37600  0.83103  1.0000
  C   C111      1.0  0.46157  0.85602  0.35174  1.0000
  C   C112      1.0  0.46823  0.14855  0.64172  1.0000
  C   C113      1.0  0.74015  0.59912  0.11813  1.0000
  C   C114      1.0  0.74555  0.39807  0.87976  1.0000
  C   C115      1.0  0.20456  0.60857  0.10255  1.0000
  C   C116      1.0  0.20102  0.38848  0.89634  1.0000
  C   C117      1.0  0.99612  0.50015  0.99953  1.0000
  C   C118      1.0  0.92971  0.50063  0.99934  1.0000
  C   C119      1.0  0.98808  0.50017  0.49971  1.0000
  C   C120      1.0  0.05279  0.50047  0.50043  1.0000
  N   N1        1.0  0.53199  0.11921  0.47602  1.0000
  N   N2        1.0  0.54599  0.88227  0.52532  1.0000
  N   N3        1.0  0.81504  0.39533  0.47661  1.0000
  N   N4        1.0  0.81795  0.60545  0.52520  1.0000
  N   N5        1.0  0.22825  0.40162  0.48673  1.0000
  N   N6        1.0  0.22260  0.60336  0.51283  1.0000
  N   N7        1.0  0.50960  0.87618  0.36126  1.0000
  N   N8        1.0  0.50764  0.12506  0.63610  1.0000
  N   N9        1.0  0.77687  0.60476  0.09812  1.0000
  N   N10       1.0  0.77126  0.39665  0.90489  1.0000
  N   N11       1.0  0.18981  0.57779  0.09091  1.0000
  N   N12       1.0  0.18773  0.41932  0.90817  1.0000
  C   C121      1.0  0.49835  0.18620  0.43052  1.0000
  C   C122      1.0  0.49881  0.21518  0.45453  1.0000
  C  Sn1       1.0  0.56558  0.21463  0.47942  1.0000
  C  Sn2       1.0  0.57409  0.18448  0.48021  1.0000
  C   C123      1.0  0.54452  0.15562  0.45606  1.0000
  C   C124      1.0  0.50674  0.15644  0.43127  1.0000
  H   H77       1.0  0.46914  0.18683  0.41133  1.0000
  O  Te1       1.0  0.56564  0.24382  0.50323  1.0000
  O  Te2       1.0  0.61168  0.18323  0.50480  1.0000
  H   H78       1.0  0.48403  0.13400  0.41267  1.0000
  Mg  Mg1       1.0  0.64129  0.22954  0.53177  1.0000
  C   C125      1.0  0.55204  0.19193  0.70607  1.0000
  C   C126      1.0  0.50825  0.17994  0.67981  1.0000
  C  Sn3       1.0  0.45787  0.19973  0.68047  1.0000
  C  Sn4       1.0  0.45134  0.23211  0.70796  1.0000
  C   C127      1.0  0.49543  0.24388  0.73409  1.0000
  C   C128      1.0  0.54565  0.22387  0.73318  1.0000
  H   H79       1.0  0.59092  0.17645  0.70536  1.0000
  O  Te3       1.0  0.41454  0.18736  0.65404  1.0000
  O  Te4       1.0  0.40145  0.25242  0.70924  1.0000
  H   H80       1.0  0.57957  0.23316  0.75350  1.0000
  Mg  Mg2       1.0  0.35452  0.22444  0.66723  1.0000
  C   C129      1.0  0.69331  0.32805  0.50638  1.0000
  C   C130      1.0  0.64437  0.32270  0.48371  1.0000
  C  Sn5       1.0  0.64903  0.33549  0.46125  1.0000
  C  Sn6       1.0  0.70378  0.35397  0.46154  1.0000
  C   C131      1.0  0.75251  0.35916  0.48430  1.0000
  C   C132      1.0  0.74734  0.34626  0.50668  1.0000
  H   H81       1.0  0.68934  0.31806  0.52369  1.0000
  O  Te5       1.0  0.59968  0.32992  0.43877  1.0000
  O  Te6       1.0  0.70969  0.36702  0.43935  1.0000
  H   H82       1.0  0.78527  0.35039  0.52421  1.0000
  Mg  Mg3       1.0  0.62977  0.35277  0.41346  1.0000
  C   C133      1.0  0.33415  0.30105  0.43680  1.0000
  C   C134      1.0  0.39001  0.31337  0.45518  1.0000
  C  Sn7       1.0  0.39404  0.34645  0.48006  1.0000
  C  Sn8       1.0  0.34107  0.36751  0.48662  1.0000
  C   C135      1.0  0.28538  0.35493  0.46811  1.0000
  C   C136      1.0  0.28188  0.32180  0.44326  1.0000
  H   H83       1.0  0.33142  0.27540  0.41758  1.0000
  O  Te7       1.0  0.45021  0.35836  0.49818  1.0000
  O  Te8       1.0  0.34379  0.40066  0.51136  1.0000
  H   H84       1.0  0.23861  0.31226  0.42905  1.0000
  Mg  Mg4       1.0  0.43078  0.40536  0.52934  1.0000
  C   C137      1.0  0.17733  0.53944  0.47901  1.0000
  C   C138      1.0  0.17561  0.57307  0.50251  1.0000
  C  Sn9       1.0  0.13260  0.58464  0.52954  1.0000
  C  Sn10      1.0  0.09061  0.56208  0.53305  1.0000
  C   C139      1.0  0.09274  0.52848  0.50943  1.0000
  C   C140      1.0  0.13595  0.51717  0.48247  1.0000
  H   H85       1.0  0.21078  0.53068  0.45816  1.0000
  O  Te9       1.0  0.13150  0.61832  0.55277  1.0000
  O  Te10      1.0  0.04717  0.57298  0.55984  1.0000
  H   H86       1.0  0.13730  0.49113  0.46430  1.0000
  Mg  Mg5       1.0  0.06378  0.62121  0.58498  1.0000
  C   C141      1.0  0.60956  0.06075  0.49775  1.0000
  C   C142      1.0  0.56422  0.03532  0.48561  1.0000
  C  Sn11      1.0  0.51389  0.03583  0.46603  1.0000
  C  Sn12      1.0  0.50901  0.06232  0.45849  1.0000
  C   C143      1.0  0.55465  0.08763  0.47073  1.0000
  C   C144      1.0  0.60480  0.08688  0.49032  1.0000
  H   H87       1.0  0.64839  0.06017  0.51289  1.0000
  O  Te11      1.0  0.46898  0.01023  0.45411  1.0000
  O  Te12      1.0  0.45921  0.06343  0.43896  1.0000
  H   H88       1.0  0.63993  0.10656  0.49969  1.0000
  Mg  Mg6       1.0  0.40978  0.02280  0.42851  1.0000
  C   C145      1.0  0.89126  0.45359  0.46234  1.0000
  C   C146      1.0  0.93611  0.46947  0.48773  1.0000
  C  Sn13      1.0  0.94801  0.45782  0.51055  1.0000
  C  Sn14      1.0  0.91432  0.42974  0.50783  1.0000
  C   C147      1.0  0.86957  0.41402  0.48232  1.0000
  C   C148      1.0  0.85802  0.42589  0.45962  1.0000
  H   H89       1.0  0.88234  0.46277  0.44476  1.0000
  O  Te13      1.0  0.99296  0.47399  0.53579  1.0000
  O  Te14      1.0  0.92530  0.41757  0.53029  1.0000
  H   H90       1.0  0.82332  0.41358  0.43995  1.0000
  Mg  Mg7       1.0  0.99119  0.44807  0.56040  1.0000
  C   C149      1.0  0.29265  0.32856  0.85179  1.0000
  C   C150      1.0  0.28271  0.36265  0.87009  1.0000
  C  Sn15      1.0  0.32524  0.38462  0.86694  1.0000
  C  Sn16      1.0  0.37865  0.37214  0.84503  1.0000
  C   C151      1.0  0.38815  0.33799  0.82680  1.0000
  C   C152      1.0  0.34530  0.31624  0.83016  1.0000
  H   H91       1.0  0.25949  0.31172  0.85436  1.0000
  O  Te15      1.0  0.28569  0.41861  0.88543  1.0000
  O  Te16      1.0  0.42189  0.39354  0.84139  1.0000
  H   H92       1.0  0.35299  0.28984  0.81596  1.0000
  Mg  Mg8       1.0  0.35804  0.43783  0.87193  1.0000
  C   C153      1.0  0.80521  0.46476  0.94024  1.0000
  C   C154      1.0  0.83793  0.43052  0.92731  1.0000
  C  Sn17      1.0  0.88343  0.41708  0.93942  1.0000
  C  Sn18      1.0  0.92582  0.43837  0.96495  1.0000
  C   C155      1.0  0.89268  0.47259  0.97774  1.0000
  C   C156      1.0  0.84699  0.48578  0.96543  1.0000
  H   H93       1.0  0.76984  0.47497  0.93074  1.0000
  O  Te17      1.0  0.88658  0.38281  0.92621  1.0000
  O  Te18      1.0  0.97173  0.42560  0.97751  1.0000
  H   H94       1.0  0.84404  0.51230  0.97546  1.0000
  Mg  Mg9       1.0  0.95730  0.37723  0.95149  1.0000
  C   C157      1.0  0.56701  0.80960  0.51690  1.0000
  C   C158      1.0  0.52866  0.83662  0.53718  1.0000
  C  Sn19      1.0  0.48736  0.83520  0.56098  1.0000
  C  Sn20      1.0  0.48452  0.80617  0.56447  1.0000
  C   C159      1.0  0.52313  0.77928  0.54407  1.0000
  C   C160      1.0  0.56427  0.78096  0.52034  1.0000
  H   H95       1.0  0.59887  0.81091  0.49855  1.0000
  O  Te19      1.0  0.44935  0.86242  0.58103  1.0000
  O  Te20      1.0  0.44369  0.80409  0.58806  1.0000
  H   H96       1.0  0.59399  0.76004  0.50465  1.0000
  Mg  Mg10      1.0  0.40129  0.84767  0.60956  1.0000
  C   C161      1.0  0.93323  0.57083  0.49293  1.0000
  C   C162      1.0  0.87542  0.57915  0.51058  1.0000
  C  Sn21      1.0  0.85450  0.56240  0.52785  1.0000
  C  Sn22      1.0  0.89226  0.53688  0.52742  1.0000
  C   C163      1.0  0.95004  0.52876  0.50971  1.0000
  C   C164      1.0  0.97051  0.54566  0.49250  1.0000
  H   H97       1.0  0.94909  0.58392  0.47962  1.0000
  O  Te21      1.0  0.79661  0.57102  0.54535  1.0000
  O  Te22      1.0  0.87249  0.51976  0.54448  1.0000
  H   H98       1.0  0.01529  0.53923  0.47885  1.0000
  Mg  Mg11      1.0  0.79002  0.54050  0.56473  1.0000
