data_image0
_chemical_formula_structural       H48C60N8SnCSn2CSnTe4Mg2SnCSn2CSnTe4Mg2SnCSn2CSnTe4Mg2SnCSn2CSnTe4Mg2SnCSn2CSnTe4Mg2SnCSn2CSnTe4Mg2
_chemical_formula_sum              "H48 C72 N8 Sn24 Te24 Mg12"
_cell_length_a       23.688
_cell_length_b       23.1016
_cell_length_c       11.0486
_cell_angle_alpha    85.9339
_cell_angle_beta     91.6041
_cell_angle_gamma    120.073

_symmetry_space_group_name_H-M    'P1'
_space_group_IT_number       1

loop_
  _space_group_symop_operation_xyz
  'x, y, z'

loop_
  _atom_site_type_symbol
  _atom_site_label
  _atom_site_symmetry_multiplicity
  _atom_site_fract_x
  _atom_site_fract_y
  _atom_site_fract_z
  _atom_site_occupancy
  H   H1        1.0  0.29308  0.81962  0.34318  1.0000
  H   H2        1.0  0.22891  0.87562  0.36394  1.0000
  H   H3        1.0  0.32656  0.00685  0.04947  1.0000
  H   H4        1.0  0.39166  0.95070  0.02943  1.0000
  H   H5        1.0  0.20003  0.54286  0.06904  1.0000
  H   H6        1.0  0.20344  0.27673  0.19733  1.0000
  H   H7        1.0  0.20601  0.20967  0.28194  1.0000
  H   H8        1.0  0.20595  0.27466  0.35668  1.0000
  H   H9        1.0  0.99487  0.00063  0.31561  1.0000
  H   H10       1.0  0.92241  0.00339  0.28401  1.0000
  H   H11       1.0  0.95135  0.00958  0.43367  1.0000
  H   H12       1.0  0.00552  0.29688  0.32672  1.0000
  H   H13       1.0  0.92800  0.22222  0.32950  1.0000
  H   H14       1.0  0.96819  0.26135  0.19022  1.0000
  H   H15       1.0  0.89681  0.13478  0.49548  1.0000
  H   H16       1.0  0.77653  0.08305  0.49687  1.0000
  H   H17       1.0  0.76820  0.00993  0.14577  1.0000
  H   H18       1.0  0.88871  0.06137  0.14465  1.0000
  H   H19       1.0  0.07424  0.04325  0.48214  1.0000
  H   H20       1.0  0.13172  0.97880  0.47956  1.0000
  H   H21       1.0  0.21277  0.07223  0.12832  1.0000
  H   H22       1.0  0.15440  0.13629  0.12998  1.0000
  H   H23       1.0  0.67069  0.01777  0.40215  1.0000
  H   H24       1.0  0.20664  0.95343  0.38906  1.0000
  H   H25       1.0  0.31825  0.84043  0.87561  1.0000
  H   H26       1.0  0.25378  0.89621  0.89434  1.0000
  H   H27       1.0  0.30844  0.98369  0.52877  1.0000
  H   H28       1.0  0.37162  0.92512  0.50935  1.0000
  H   H29       1.0  0.20283  0.54139  0.57797  1.0000
  H   H30       1.0  0.13422  0.42906  0.51813  1.0000
  H   H31       1.0  0.07529  0.30586  0.56363  1.0000
  H   H32       1.0  0.16693  0.33374  0.91297  1.0000
  H   H33       1.0  0.22749  0.45728  0.86562  1.0000
  H   H34       1.0  0.20633  0.28079  0.71596  1.0000
  H   H35       1.0  0.20544  0.20478  0.75991  1.0000
  H   H36       1.0  0.20595  0.25632  0.87065  1.0000
  H   H37       1.0  0.96645  0.00633  0.93241  1.0000
  H   H38       1.0  0.99275  0.99740  0.79056  1.0000
  H   H39       1.0  0.91895  0.99923  0.80252  1.0000
  H   H40       1.0  0.93091  0.22207  0.81166  1.0000
  H   H41       1.0  0.96143  0.24373  0.66185  1.0000
  H   H42       1.0  0.00712  0.29601  0.77849  1.0000
  H   H43       1.0  0.90029  0.13815  0.98406  1.0000
  H   H44       1.0  0.78010  0.08854  0.98812  1.0000
  H   H45       1.0  0.76636  0.00347  0.64767  1.0000
  H   H46       1.0  0.88688  0.05273  0.64348  1.0000
  H   H47       1.0  0.67172  0.01643  0.89939  1.0000
  H   H48       1.0  0.22175  0.96388  0.89801  1.0000
  C   C1        1.0  0.34756  0.88177  0.18605  1.0000
  C   C2        1.0  0.30080  0.86115  0.27948  1.0000
  C   C3        1.0  0.26456  0.89288  0.29056  1.0000
  C   C4        1.0  0.27404  0.94677  0.20821  1.0000
  C   C5        1.0  0.32034  0.96637  0.11442  1.0000
  C   C6        1.0  0.35680  0.93490  0.10358  1.0000
  C   C7        1.0  0.21709  0.52635  0.15091  1.0000
  C   C8        1.0  0.07812  0.24083  0.27704  1.0000
  C   C9        1.0  0.11169  0.20464  0.28668  1.0000
  C   C10       1.0  0.07553  0.13385  0.30530  1.0000
  C   C11       1.0  0.00669  0.10009  0.31788  1.0000
  C   C12       1.0  0.97441  0.13766  0.31241  1.0000
  C   C13       1.0  0.00980  0.20814  0.29223  1.0000
  C   C14       1.0  0.18553  0.24285  0.27969  1.0000
  C   C15       1.0  0.10986  0.09466  0.30628  1.0000
  C   C16       1.0  0.96700  0.02453  0.33809  1.0000
  C   C17       1.0  0.90174  0.10275  0.31951  1.0000
  C   C18       1.0  0.97586  0.24900  0.28499  1.0000
  C   C19       1.0  0.86877  0.10740  0.41868  1.0000
  C   C20       1.0  0.80092  0.07829  0.41927  1.0000
  C   C21       1.0  0.76403  0.04365  0.31997  1.0000
  C   C22       1.0  0.79687  0.03748  0.22176  1.0000
  C   C23       1.0  0.86425  0.06625  0.22197  1.0000
  C   C24       1.0  0.10407  0.04949  0.40385  1.0000
  C   C25       1.0  0.13656  0.01317  0.40253  1.0000
  C   C26       1.0  0.17573  0.02039  0.30280  1.0000
  C   C27       1.0  0.18179  0.06570  0.20482  1.0000
  C   C28       1.0  0.14930  0.10167  0.20666  1.0000
  C   C29       1.0  0.69325  0.01531  0.31833  1.0000
  C   C30       1.0  0.20929  0.98187  0.30310  1.0000
  C   C31       1.0  0.35002  0.87986  0.69202  1.0000
  C   C32       1.0  0.31612  0.87211  0.79989  1.0000
  C   C33       1.0  0.27977  0.90376  0.80981  1.0000
  C   C34       1.0  0.27679  0.94493  0.71187  1.0000
  C   C35       1.0  0.31109  0.95238  0.60448  1.0000
  C   C36       1.0  0.34700  0.92015  0.59426  1.0000
  C   C37       1.0  0.21841  0.52395  0.66074  1.0000
  C   C38       1.0  0.18472  0.45147  0.68914  1.0000
  C   C39       1.0  0.14132  0.40810  0.60479  1.0000
  C   C40       1.0  0.10831  0.33888  0.63029  1.0000
  C   C41       1.0  0.11691  0.31090  0.74148  1.0000
  C   C42       1.0  0.16035  0.35454  0.82581  1.0000
  C   C43       1.0  0.19398  0.42359  0.80025  1.0000
  C   C44       1.0  0.07943  0.23699  0.76947  1.0000
  C   C45       1.0  0.11260  0.20046  0.78409  1.0000
  C   C46       1.0  0.07603  0.12990  0.80210  1.0000
  C   C47       1.0  0.00725  0.09628  0.81257  1.0000
  C   C48       1.0  0.97508  0.13389  0.80315  1.0000
  C   C49       1.0  0.01075  0.20414  0.77827  1.0000
  C   C50       1.0  0.18633  0.23719  0.78152  1.0000
  C   C51       1.0  0.96916  0.02087  0.83479  1.0000
  C   C52       1.0  0.90252  0.10009  0.81238  1.0000
  C   C53       1.0  0.97574  0.24361  0.75758  1.0000
  C   C54       1.0  0.87115  0.10850  0.91019  1.0000
  C   C55       1.0  0.80349  0.08080  0.91235  1.0000
  C   C56       1.0  0.76540  0.04393  0.81603  1.0000
  C   C57       1.0  0.79639  0.03320  0.72049  1.0000
  C   C58       1.0  0.86363  0.06087  0.71879  1.0000
  C   C59       1.0  0.69495  0.01689  0.81412  1.0000
  C   C60       1.0  0.21617  0.98423  0.80834  1.0000
  N   N1        1.0  0.38540  0.84978  0.17615  1.0000
  N   N2        1.0  0.24086  0.98284  0.20852  1.0000
  N   N3        1.0  0.26529  0.56766  0.21467  1.0000
  N   N4        1.0  0.66008  0.99054  0.22174  1.0000
  N   N5        1.0  0.38756  0.84711  0.68368  1.0000
  N   N6        1.0  0.24140  0.97896  0.71018  1.0000
  N   N7        1.0  0.26480  0.56473  0.72811  1.0000
  N   N8        1.0  0.66231  0.99522  0.71568  1.0000
  C  Sn1       1.0  0.12296  0.35281  0.10436  1.0000
  C   C61       1.0  0.12724  0.31913  0.21127  1.0000
  C  Sn2       1.0  0.15587  0.35418  0.31441  1.0000
  C  Sn3       1.0  0.18070  0.42435  0.31064  1.0000
  C   C62       1.0  0.17640  0.45799  0.20378  1.0000
  C  Sn4       1.0  0.14778  0.42297  0.10058  1.0000
  O  Te1       1.0  0.09414  0.31675  0.00234  1.0000
  O  Te2       1.0  0.15962  0.31943  0.42024  1.0000
  O  Te3       1.0  0.20953  0.46039  0.41277  1.0000
  O  Te4       1.0  0.13933  0.42137  0.99481  1.0000
  Mg  Mg1       1.0  0.20321  0.39067  0.53559  1.0000
  Mg  Mg2       1.0  0.09571  0.35017  0.87944  1.0000
  C  Sn5       1.0  0.36767  0.69231  0.25162  1.0000
  C   C63       1.0  0.30226  0.64585  0.23097  1.0000
  C  Sn6       1.0  0.26230  0.66592  0.16804  1.0000
  C  Sn7       1.0  0.28828  0.73384  0.12478  1.0000
  C   C64       1.0  0.35365  0.78026  0.14542  1.0000
  C  Sn8       1.0  0.39364  0.76023  0.20837  1.0000
  O  Te5       1.0  0.40671  0.67113  0.31474  1.0000
  O  Te6       1.0  0.19706  0.61856  0.14854  1.0000
  O  Te7       1.0  0.24916  0.75499  0.06163  1.0000
  O  Te8       1.0  0.45885  0.80755  0.22786  1.0000
  Mg  Mg3       1.0  0.16338  0.67179  0.05769  1.0000
  Mg  Mg4       1.0  0.49257  0.75436  0.31863  1.0000
  C  Sn9       1.0  0.37087  0.68960  0.75106  1.0000
  C   C65       1.0  0.30418  0.64358  0.74421  1.0000
  C  Sn10      1.0  0.26151  0.66365  0.69356  1.0000
  C  Sn11      1.0  0.28600  0.73113  0.64875  1.0000
  C   C66       1.0  0.35265  0.77710  0.65559  1.0000
  C  Sn12      1.0  0.39536  0.75708  0.70625  1.0000
  O  Te9       1.0  0.41263  0.66843  0.80205  1.0000
  O  Te10      1.0  0.19503  0.61674  0.68774  1.0000
  O  Te11      1.0  0.24417  0.75227  0.59773  1.0000
  O  Te12      1.0  0.46180  0.80394  0.71205  1.0000
  Mg  Mg5       1.0  0.15760  0.66978  0.61013  1.0000
  Mg  Mg6       1.0  0.49927  0.75096  0.78959  1.0000
  C  Sn13      1.0  0.54204  0.89059  0.80057  1.0000
  C   C67       1.0  0.58712  0.93947  0.71772  1.0000
  C  Sn14      1.0  0.56658  0.96908  0.62542  1.0000
  C  Sn15      1.0  0.49959  0.94944  0.61575  1.0000
  C   C68       1.0  0.45455  0.90059  0.69856  1.0000
  C  Sn16      1.0  0.47504  0.87095  0.79089  1.0000
  O  Te13      1.0  0.56367  0.86167  0.89213  1.0000
  O  Te14      1.0  0.12386  0.01782  0.54365  1.0000
  O  Te15      1.0  0.47798  0.97841  0.52409  1.0000
  O  Te16      1.0  0.42911  0.82224  0.87264  1.0000
  Mg  Mg7       1.0  0.07050  0.04262  0.43460  1.0000
  Mg  Mg8       1.0  0.48241  0.79744  0.98176  1.0000
  C  Sn17      1.0  0.13506  0.06827  0.68192  1.0000
  C   C69       1.0  0.10177  0.07460  0.77792  1.0000
  C  Sn18      1.0  0.11163  0.05741  0.89722  1.0000
  C  Sn19      1.0  0.15572  0.03342  0.92108  1.0000
  C   C70       1.0  0.18900  0.02711  0.82513  1.0000
  C  Sn20      1.0  0.17916  0.04428  0.70579  1.0000
  O  Te17      1.0  0.12445  0.08576  0.56337  1.0000
  O  Te18      1.0  0.07776  0.06415  0.99168  1.0000
  O  Te19      1.0  0.17101  0.05225  0.03976  1.0000
  O  Te20      1.0  0.21300  0.03756  0.61136  1.0000
  Mg  Mg9       1.0  0.11345  0.07022  0.13776  1.0000
  Mg  Mg10      1.0  0.18208  0.06783  0.46526  1.0000
  C  Sn21      1.0  0.53615  0.89550  0.31390  1.0000
  C   C71       1.0  0.58403  0.93729  0.22795  1.0000
  C  Sn22      1.0  0.56737  0.96194  0.12216  1.0000
  C  Sn23      1.0  0.50148  0.94450  0.10188  1.0000
  C   C72       1.0  0.45364  0.90275  0.18781  1.0000
  C  Sn24      1.0  0.47026  0.87806  0.29362  1.0000
  O  Te21      1.0  0.55392  0.87144  0.41901  1.0000
  O  Te22      1.0  0.12739  0.00362  0.03754  1.0000
  O  Te23      1.0  0.47905  0.93228  0.99666  1.0000
  O  Te24      1.0  0.42158  0.83642  0.37822  1.0000
  Mg  Mg11      1.0  0.07424  0.98746  0.90843  1.0000
  Mg  Mg12      1.0  0.46999  0.81625  0.50738  1.0000
