data_image0
_chemical_formula_structural       H12C18N16SnCSn2CSnTe4Mg2SnCSn2CSnTe4Mg2SnCSn2CSnTe4Mg2SnCSn2CSnTe4Mg2SnCSn2CSnTe4Mg2SnCSn2CSnTe4Mg2SnCSn2CSnTe4Mg2SnCSn2CSnTe4Mg2SnCSn2CSnTe4Mg2SnCSn2CSnTe4Mg2SnCSn2CSnTe4Mg2SnCSn2CSnTe4Mg2SnCSn2CSnTe4Mg2SnCSn2CSnTe4Mg2SnCSn2CSnTe4Mg2SnCSn2CSnTe4Mg2SnCSn2CSnTe4Mg2SnCSn2CSnTe4Mg2SnCSn2CSnTe4Mg2SnCSn2CSnTe4Mg2SnCSn2CSnTe4Mg2SnCSn2CSnTe4Mg2SnCSn2CSnTe4Mg2SnCSn2CSnTe4Mg2
_chemical_formula_sum              "H12 C66 N16 Sn96 Te96 Mg48"
_cell_length_a       17.9626
_cell_length_b       41.0204
_cell_length_c       42.0538
_cell_angle_alpha    118.806
_cell_angle_beta     89.676
_cell_angle_gamma    90.3793

_symmetry_space_group_name_H-M    'P1'
_space_group_IT_number       1

loop_
  _space_group_symop_operation_xyz
  'x, y, z'

loop_
  _atom_site_type_symbol
  _atom_site_label
  _atom_site_symmetry_multiplicity
  _atom_site_fract_x
  _atom_site_fract_y
  _atom_site_fract_z
  _atom_site_occupancy
  H   H1        1.0  0.45501  0.65350  0.14157  1.0000
  H   H2        1.0  0.45773  0.34288  0.86144  1.0000
  H   H3        1.0  0.80933  0.85239  0.36903  1.0000
  H   H4        1.0  0.79521  0.14846  0.61921  1.0000
  H   H5        1.0  0.20717  0.89043  0.34228  1.0000
  H   H6        1.0  0.21722  0.09862  0.65545  1.0000
  H   H7        1.0  0.42680  0.50216  0.84966  1.0000
  H   H8        1.0  0.45185  0.51055  0.15837  1.0000
  H   H9        1.0  0.71030  0.56429  0.63107  1.0000
  H   H10       1.0  0.71696  0.43072  0.36395  1.0000
  H   H11       1.0  0.15736  0.55166  0.66252  1.0000
  H   H12       1.0  0.15613  0.46203  0.34343  1.0000
  C   C1        1.0  0.55520  0.48271  0.00005  1.0000
  C   C2        1.0  0.55209  0.51569  0.99892  1.0000
  C   C3        1.0  0.50801  0.66901  0.14876  1.0000
  C   C4        1.0  0.51192  0.32917  0.85160  1.0000
  C   C5        1.0  0.76907  0.87116  0.36659  1.0000
  C   C6        1.0  0.76298  0.13052  0.62705  1.0000
  C   C7        1.0  0.24901  0.88439  0.35775  1.0000
  C   C8        1.0  0.25244  0.11018  0.64177  1.0000
  C   C9        1.0  0.47625  0.51632  0.84646  1.0000
  C   C10       1.0  0.48908  0.48860  0.15678  1.0000
  C   C11       1.0  0.70703  0.53956  0.63486  1.0000
  C   C12       1.0  0.71406  0.45610  0.36128  1.0000
  C   C13       1.0  0.20492  0.53430  0.64717  1.0000
  C   C14       1.0  0.20844  0.47406  0.35804  1.0000
  C   C15       1.0  0.04677  0.99942  0.50007  1.0000
  C   C16       1.0  0.97068  0.99967  0.49962  1.0000
  C   C17       1.0  0.00801  0.50044  0.50098  1.0000
  C   C18       1.0  0.93174  0.49944  0.49977  1.0000
  N   N1        1.0  0.56724  0.65544  0.12927  1.0000
  N   N2        1.0  0.57310  0.34462  0.86840  1.0000
  N   N3        1.0  0.77409  0.90707  0.38446  1.0000
  N   N4        1.0  0.77525  0.09534  0.61423  1.0000
  N   N5        1.0  0.24547  0.89651  0.39238  1.0000
  N   N6        1.0  0.24325  0.10293  0.60851  1.0000
  N   N7        1.0  0.53073  0.52799  0.86942  1.0000
  N   N8        1.0  0.53262  0.46964  0.12937  1.0000
  N   N9        1.0  0.74689  0.51029  0.61584  1.0000
  N   N10       1.0  0.75507  0.48496  0.38058  1.0000
  N   N11       1.0  0.20605  0.51355  0.61231  1.0000
  N   N12       1.0  0.21383  0.49029  0.39299  1.0000
  N   N13       1.0  0.46911  0.54218  0.72521  1.0000
  N   N14       1.0  0.47275  0.46134  0.27730  1.0000
  N   N15       1.0  0.50895  0.80484  0.28228  1.0000
  N   N16       1.0  0.50788  0.19504  0.71677  1.0000
  C  Sn1       1.0  0.08946  0.05155  0.57627  1.0000
  C   C19       1.0  0.09416  0.03785  0.53879  1.0000
  C  Sn2       1.0  0.15961  0.04226  0.52314  1.0000
  C  Sn3       1.0  0.22169  0.06073  0.54542  1.0000
  C   C20       1.0  0.21698  0.07441  0.58287  1.0000
  C  Sn4       1.0  0.15154  0.07001  0.59855  1.0000
  O  Te1       1.0  0.02347  0.04683  0.59133  1.0000
  O  Te2       1.0  0.16297  0.02834  0.48560  1.0000
  O  Te3       1.0  0.28771  0.06544  0.53033  1.0000
  O  Te4       1.0  0.14817  0.08392  0.63606  1.0000
  Mg  Mg1       1.0  0.26510  0.04162  0.47784  1.0000
  Mg  Mg2       1.0  0.04609  0.07064  0.64385  1.0000
  C  Sn5       1.0  0.07932  0.94988  0.42377  1.0000
  C   C21       1.0  0.07940  0.96125  0.46089  1.0000
  C  Sn6       1.0  0.14120  0.95462  0.47694  1.0000
  C  Sn7       1.0  0.20427  0.93625  0.45544  1.0000
  C   C22       1.0  0.20418  0.92490  0.41834  1.0000
  C  Sn8       1.0  0.14239  0.93151  0.40227  1.0000
  O  Te5       1.0  0.01693  0.95680  0.40830  1.0000
  O  Te6       1.0  0.13997  0.96624  0.51410  1.0000
  O  Te7       1.0  0.26669  0.92934  0.47094  1.0000
  O  Te8       1.0  0.14361  0.91991  0.36513  1.0000
  Mg  Mg3       1.0  0.23840  0.95049  0.52267  1.0000
  Mg  Mg4       1.0  0.04523  0.93566  0.35654  1.0000
  C  Sn9       1.0  0.85613  0.01574  0.54258  1.0000
  C   C23       1.0  0.91491  0.02497  0.52644  1.0000
  C  Sn10      1.0  0.94574  0.06071  0.54363  1.0000
  C  Sn11      1.0  0.91725  0.08779  0.57766  1.0000
  C   C24       1.0  0.85851  0.07856  0.59379  1.0000
  C  Sn12      1.0  0.82764  0.04282  0.57662  1.0000
  O  Te9       1.0  0.82617  0.97983  0.52492  1.0000
  O  Te10      1.0  0.00446  0.06928  0.52695  1.0000
  O  Te11      1.0  0.94726  0.12372  0.59532  1.0000
  O  Te12      1.0  0.76897  0.03424  0.59328  1.0000
  Mg  Mg5       1.0  0.02667  0.12199  0.56172  1.0000
  Mg  Mg6       1.0  0.74674  0.98155  0.55854  1.0000
  C  Sn13      1.0  0.84144  0.98494  0.45763  1.0000
  C   C25       1.0  0.90072  0.97474  0.47232  1.0000
  C  Sn14      1.0  0.93115  0.93912  0.45346  1.0000
  C  Sn15      1.0  0.90175  0.91316  0.41919  1.0000
  C   C26       1.0  0.84251  0.92337  0.40452  1.0000
  C  Sn16      1.0  0.81204  0.95899  0.42336  1.0000
  O  Te13      1.0  0.81190  0.02070  0.47696  1.0000
  O  Te14      1.0  0.99039  0.92956  0.46870  1.0000
  O  Te15      1.0  0.93135  0.87738  0.39987  1.0000
  O  Te16      1.0  0.75285  0.96855  0.40814  1.0000
  Mg  Mg7       1.0  0.01174  0.87751  0.43192  1.0000
  Mg  Mg8       1.0  0.73148  0.02060  0.44488  1.0000
  C  Sn17      1.0  0.07318  0.46973  0.40925  1.0000
  C   C27       1.0  0.13388  0.49278  0.41295  1.0000
  C  Sn18      1.0  0.16106  0.51771  0.44733  1.0000
  C  Sn19      1.0  0.12690  0.51963  0.47868  1.0000
  C   C28       1.0  0.06624  0.49660  0.47497  1.0000
  C  Sn20      1.0  0.03901  0.47166  0.44060  1.0000
  O  Te17      1.0  0.04693  0.44502  0.37461  1.0000
  O  Te18      1.0  0.22180  0.54047  0.45034  1.0000
  O  Te19      1.0  0.15320  0.54437  0.51333  1.0000
  O  Te20      1.0  0.97832  0.44890  0.43758  1.0000
  Mg  Mg9       1.0  0.23733  0.56961  0.50342  1.0000
  Mg  Mg10      1.0  0.96277  0.41974  0.38452  1.0000
  C  Sn21      1.0  0.16493  0.48633  0.54312  1.0000
  C   C29       1.0  0.16180  0.51240  0.58000  1.0000
  C  Sn22      1.0  0.09799  0.53384  0.59473  1.0000
  C  Sn23      1.0  0.03599  0.52911  0.57215  1.0000
  C   C30       1.0  0.03913  0.50305  0.53530  1.0000
  C  Sn24      1.0  0.10293  0.48160  0.52054  1.0000
  O  Te21      1.0  0.22929  0.46520  0.52898  1.0000
  O  Te22      1.0  0.09619  0.55974  0.63167  1.0000
  O  Te23      1.0  0.97160  0.55027  0.58633  1.0000
  O  Te24      1.0  0.10474  0.45571  0.48362  1.0000
  Mg  Mg11      1.0  0.99596  0.58193  0.63826  1.0000
  Mg  Mg12      1.0  0.20492  0.43349  0.47701  1.0000
  C  Sn25      1.0  0.82566  0.46053  0.44433  1.0000
  C   C31       1.0  0.88842  0.48317  0.45878  1.0000
  C  Sn26      1.0  0.90423  0.51142  0.45020  1.0000
  C  Sn27      1.0  0.85628  0.51718  0.42670  1.0000
  C   C32       1.0  0.79356  0.49455  0.41226  1.0000
  C  Sn28      1.0  0.77771  0.46628  0.42083  1.0000
  O  Te25      1.0  0.81094  0.43245  0.45328  1.0000
  O  Te26      1.0  0.96732  0.53369  0.46497  1.0000
  O  Te27      1.0  0.87106  0.54528  0.41775  1.0000
  O  Te28      1.0  0.71466  0.44402  0.40607  1.0000
  Mg  Mg13      1.0  0.96373  0.56834  0.44470  1.0000
  Mg  Mg14      1.0  0.71817  0.40938  0.42634  1.0000
  C  Sn29      1.0  0.77008  0.52092  0.55518  1.0000
  C   C33       1.0  0.77768  0.50396  0.57691  1.0000
  C  Sn30      1.0  0.84515  0.48778  0.57797  1.0000
  C  Sn31      1.0  0.90633  0.48858  0.55688  1.0000
  C   C34       1.0  0.89872  0.50554  0.53517  1.0000
  C  Sn32      1.0  0.83126  0.52172  0.53409  1.0000
  O  Te29      1.0  0.70211  0.53692  0.55454  1.0000
  O  Te30      1.0  0.85140  0.47098  0.59989  1.0000
  O  Te31      1.0  0.97433  0.47256  0.55754  1.0000
  O  Te32      1.0  0.82500  0.53852  0.51219  1.0000
  Mg  Mg15      1.0  0.95541  0.45299  0.59164  1.0000
  Mg  Mg16      1.0  0.72103  0.55653  0.52044  1.0000
  C  Sn33      1.0  0.65355  0.41107  0.91853  1.0000
  C   C35       1.0  0.60906  0.37952  0.90835  1.0000
  C  Sn34      1.0  0.54225  0.38200  0.92653  1.0000
  C  Sn35      1.0  0.51940  0.41675  0.95547  1.0000
  C   C36       1.0  0.56387  0.44827  0.96563  1.0000
  C  Sn36      1.0  0.63070  0.44581  0.94747  1.0000
  O  Te33      1.0  0.72012  0.40794  0.89997  1.0000
  O  Te34      1.0  0.49873  0.35007  0.91588  1.0000
  O  Te35      1.0  0.45277  0.41986  0.97403  1.0000
  O  Te36      1.0  0.65909  0.47772  0.95810  1.0000
  Mg  Mg17      1.0  0.41266  0.36848  0.94948  1.0000
  Mg  Mg18      1.0  0.74515  0.45935  0.92451  1.0000
  C  Sn37      1.0  0.63366  0.58982  0.07884  1.0000
  C   C37       1.0  0.58666  0.62034  0.08929  1.0000
  C  Sn38      1.0  0.51794  0.61609  0.07230  1.0000
  C  Sn39      1.0  0.49570  0.58059  0.04431  1.0000
  C   C38       1.0  0.54268  0.55009  0.03389  1.0000
  C  Sn40      1.0  0.61142  0.55432  0.05086  1.0000
  O  Te37      1.0  0.70211  0.59471  0.09620  1.0000
  O  Te38      1.0  0.47192  0.64702  0.08320  1.0000
  O  Te39      1.0  0.42719  0.57571  0.02696  1.0000
  O  Te40      1.0  0.65742  0.52341  0.03998  1.0000
  Mg  Mg19      1.0  0.38396  0.62627  0.05139  1.0000
  Mg  Mg20      1.0  0.74537  0.54413  0.07178  1.0000
  C  Sn41      1.0  0.50572  0.48519  0.92459  1.0000
  C   C39       1.0  0.55042  0.50652  0.95477  1.0000
  C  Sn42      1.0  0.58284  0.53960  0.95948  1.0000
  C  Sn43      1.0  0.57028  0.55163  0.93350  1.0000
  C   C40       1.0  0.52560  0.53030  0.90335  1.0000
  C  Sn44      1.0  0.49317  0.49722  0.89861  1.0000
  O  Te41      1.0  0.48899  0.45222  0.92043  1.0000
  O  Te42      1.0  0.62734  0.56045  0.98987  1.0000
  O  Te43      1.0  0.60218  0.58463  0.93769  1.0000
  O  Te44      1.0  0.44868  0.47638  0.86825  1.0000
  Mg  Mg21      1.0  0.65847  0.60338  0.98357  1.0000
  Mg  Mg22      1.0  0.41750  0.43345  0.87454  1.0000
  C  Sn45      1.0  0.46961  0.49239  0.08114  1.0000
  C   C41       1.0  0.51172  0.47112  0.09218  1.0000
  C  Sn46      1.0  0.57995  0.45626  0.07557  1.0000
  C  Sn47      1.0  0.60667  0.46282  0.04734  1.0000
  C   C42       1.0  0.56457  0.48409  0.03631  1.0000
  C  Sn48      1.0  0.49633  0.49895  0.05291  1.0000
  O  Te45      1.0  0.40157  0.50698  0.09813  1.0000
  O  Te46      1.0  0.62104  0.43506  0.08706  1.0000
  O  Te47      1.0  0.67477  0.44821  0.03035  1.0000
  O  Te48      1.0  0.45525  0.52014  0.04143  1.0000
  Mg  Mg23      1.0  0.71045  0.42115  0.05556  1.0000
  Mg  Mg24      1.0  0.36586  0.53408  0.07292  1.0000
  C  Sn49      1.0  0.45094  0.73430  0.23728  1.0000
  C   C43       1.0  0.50596  0.76189  0.25091  1.0000
  C  Sn50      1.0  0.56138  0.76304  0.22802  1.0000
  C  Sn51      1.0  0.56180  0.73604  0.19073  1.0000
  C   C44       1.0  0.50680  0.70847  0.17712  1.0000
  C  Sn52      1.0  0.45136  0.70731  0.19999  1.0000
  O  Te49      1.0  0.39607  0.73369  0.26065  1.0000
  O  Te50      1.0  0.61581  0.79089  0.24227  1.0000
  O  Te51      1.0  0.61674  0.73667  0.16737  1.0000
  O  Te52      1.0  0.39695  0.67948  0.18575  1.0000
  Mg  Mg25      1.0  0.67887  0.78008  0.19958  1.0000
  Mg  Mg26      1.0  0.33385  0.69027  0.22842  1.0000
  C  Sn53      1.0  0.60107  0.26984  0.79266  1.0000
  C   C45       1.0  0.54283  0.29470  0.80989  1.0000
  C  Sn54      1.0  0.46927  0.28410  0.79903  1.0000
  C  Sn55      1.0  0.45359  0.24788  0.77038  1.0000
  C   C46       1.0  0.51182  0.22304  0.75317  1.0000
  C  Sn56      1.0  0.58540  0.23363  0.76401  1.0000
  O  Te53      1.0  0.67419  0.28104  0.80396  1.0000
  O  Te54      1.0  0.41197  0.30944  0.81666  1.0000
  O  Te55      1.0  0.38040  0.23670  0.75909  1.0000
  O  Te56      1.0  0.64267  0.20830  0.74640  1.0000
  Mg  Mg27      1.0  0.32147  0.28115  0.79150  1.0000
  Mg  Mg28      1.0  0.73318  0.23655  0.77156  1.0000
  C  Sn57      1.0  0.63748  0.79986  0.31671  1.0000
  C   C47       1.0  0.57831  0.81740  0.30967  1.0000
  C  Sn58      1.0  0.58550  0.85409  0.31636  1.0000
  C  Sn59      1.0  0.65325  0.87366  0.33035  1.0000
  C   C48       1.0  0.71237  0.85613  0.33737  1.0000
  C  Sn60      1.0  0.70523  0.81943  0.33070  1.0000
  O  Te57      1.0  0.62905  0.76316  0.30981  1.0000
  O  Te58      1.0  0.52557  0.87104  0.30913  1.0000
  O  Te59      1.0  0.66163  0.91039  0.33724  1.0000
  O  Te60      1.0  0.76511  0.80249  0.33792  1.0000
  Mg  Mg29      1.0  0.56413  0.92145  0.32298  1.0000
  Mg  Mg30      1.0  0.72663  0.75207  0.32406  1.0000
  C  Sn61      1.0  0.63807  0.12533  0.65444  1.0000
  C   C49       1.0  0.69511  0.14330  0.64607  1.0000
  C  Sn62      1.0  0.70358  0.18188  0.66613  1.0000
  C  Sn63      1.0  0.65403  0.20295  0.69517  1.0000
  C   C50       1.0  0.59704  0.18498  0.70353  1.0000
  C  Sn64      1.0  0.58852  0.14640  0.68348  1.0000
  O  Te61      1.0  0.63064  0.08673  0.63402  1.0000
  O  Te62      1.0  0.76102  0.19922  0.65724  1.0000
  O  Te63      1.0  0.66150  0.24157  0.71559  1.0000
  O  Te64      1.0  0.53113  0.12906  0.69236  1.0000
  Mg  Mg31      1.0  0.74842  0.25245  0.69304  1.0000
  Mg  Mg32      1.0  0.54370  0.07583  0.65659  1.0000
  C  Sn65      1.0  0.32215  0.83442  0.29153  1.0000
  C   C51       1.0  0.30620  0.85007  0.32856  1.0000
  C  Sn66      1.0  0.36264  0.85519  0.35328  1.0000
  C  Sn67      1.0  0.43657  0.84448  0.34074  1.0000
  C   C52       1.0  0.45250  0.82885  0.30374  1.0000
  C  Sn68      1.0  0.39609  0.82371  0.27899  1.0000
  O  Te65      1.0  0.26486  0.82956  0.26730  1.0000
  O  Te66      1.0  0.34533  0.87088  0.39017  1.0000
  O  Te67      1.0  0.49388  0.84936  0.36501  1.0000
  O  Te68      1.0  0.41337  0.80804  0.24213  1.0000
  Mg  Mg33      1.0  0.44254  0.87190  0.41260  1.0000
  Mg  Mg34      1.0  0.31621  0.80703  0.21968  1.0000
  C  Sn69      1.0  0.42182  0.17094  0.66001  1.0000
  C   C53       1.0  0.44262  0.18259  0.69588  1.0000
  C  Sn70      1.0  0.40937  0.16679  0.71539  1.0000
  C  Sn71      1.0  0.35421  0.13876  0.69870  1.0000
  C   C54       1.0  0.33344  0.12713  0.66285  1.0000
  C  Sn72      1.0  0.36666  0.14292  0.64332  1.0000
  O  Te69      1.0  0.45580  0.18712  0.64102  1.0000
  O  Te70      1.0  0.43107  0.17890  0.75122  1.0000
  O  Te71      1.0  0.32022  0.12260  0.71773  1.0000
  O  Te72      1.0  0.34499  0.13082  0.60750  1.0000
  Mg  Mg35      1.0  0.36861  0.14839  0.76587  1.0000
  Mg  Mg36      1.0  0.40744  0.16129  0.59283  1.0000
  C  Sn73      1.0  0.52692  0.55416  0.80929  1.0000
  C   C55       1.0  0.47638  0.53388  0.81835  1.0000
  C  Sn74      1.0  0.42435  0.51033  0.79297  1.0000
  C  Sn75      1.0  0.42282  0.50697  0.75779  1.0000
  C   C56       1.0  0.47335  0.52724  0.74875  1.0000
  C  Sn76      1.0  0.52539  0.55080  0.77411  1.0000
  O  Te73      1.0  0.57845  0.57754  0.83508  1.0000
  O  Te74      1.0  0.37437  0.49035  0.80266  1.0000
  O  Te75      1.0  0.37123  0.48357  0.73199  1.0000
  O  Te76      1.0  0.57535  0.57077  0.76443  1.0000
  Mg  Mg37      1.0  0.31467  0.46211  0.75808  1.0000
  Mg  Mg38      1.0  0.63510  0.59900  0.80898  1.0000
  C  Sn77      1.0  0.44390  0.50931  0.22844  1.0000
  C   C57       1.0  0.49066  0.49237  0.19816  1.0000
  C  Sn78      1.0  0.52819  0.45963  0.19035  1.0000
  C  Sn79      1.0  0.51876  0.44345  0.21328  1.0000
  C   C58       1.0  0.47201  0.46038  0.24353  1.0000
  C  Sn80      1.0  0.43446  0.49313  0.25137  1.0000
  O  Te77      1.0  0.40692  0.54203  0.23572  1.0000
  O  Te78      1.0  0.57466  0.44321  0.15993  1.0000
  O  Te79      1.0  0.55578  0.41070  0.20597  1.0000
  O  Te80      1.0  0.38801  0.50954  0.28176  1.0000
  Mg  Mg39      1.0  0.61300  0.39879  0.16135  1.0000
  Mg  Mg40      1.0  0.34962  0.55395  0.28036  1.0000
  C  Sn81      1.0  0.59701  0.57924  0.68783  1.0000
  C   C59       1.0  0.65474  0.55343  0.67341  1.0000
  C  Sn82      1.0  0.64962  0.51932  0.67318  1.0000
  C  Sn83      1.0  0.58544  0.51083  0.68765  1.0000
  C   C60       1.0  0.52775  0.53664  0.70205  1.0000
  C  Sn84      1.0  0.53283  0.57075  0.70230  1.0000
  O  Te81      1.0  0.60332  0.61316  0.68776  1.0000
  O  Te82      1.0  0.70806  0.49396  0.65863  1.0000
  O  Te83      1.0  0.57917  0.47688  0.68770  1.0000
  O  Te84      1.0  0.47443  0.59610  0.71683  1.0000
  Mg  Mg41      1.0  0.67344  0.45145  0.66486  1.0000
  Mg  Mg42      1.0  0.50897  0.63861  0.71060  1.0000
  C  Sn85      1.0  0.62245  0.48102  0.30068  1.0000
  C   C61       1.0  0.56293  0.45605  0.28635  1.0000
  C  Sn86      1.0  0.54662  0.43127  0.29938  1.0000
  C  Sn87      1.0  0.59069  0.43145  0.32735  1.0000
  C   C62       1.0  0.65016  0.45641  0.34167  1.0000
  C  Sn88      1.0  0.66652  0.48120  0.32865  1.0000
  O  Te85      1.0  0.63774  0.50555  0.28724  1.0000
  O  Te86      1.0  0.48685  0.40656  0.28461  1.0000
  O  Te87      1.0  0.57535  0.40689  0.34078  1.0000
  O  Te88      1.0  0.72624  0.50591  0.34341  1.0000
  Mg  Mg43      1.0  0.48810  0.37853  0.31196  1.0000
  Mg  Mg44      1.0  0.72502  0.53396  0.31610  1.0000
  C  Sn89      1.0  0.29293  0.56906  0.71066  1.0000
  C   C63       1.0  0.27925  0.54678  0.67361  1.0000
  C  Sn90      1.0  0.32580  0.51685  0.65243  1.0000
  C  Sn91      1.0  0.38729  0.50901  0.66863  1.0000
  C   C64       1.0  0.40094  0.53129  0.70567  1.0000
  C  Sn92      1.0  0.35441  0.56123  0.72686  1.0000
  O  Te89      1.0  0.24565  0.59884  0.73131  1.0000
  O  Te90      1.0  0.31102  0.49497  0.61544  1.0000
  O  Te91      1.0  0.43458  0.47921  0.64795  1.0000
  O  Te92      1.0  0.36917  0.58310  0.76384  1.0000
  Mg  Mg45      1.0  0.39141  0.45748  0.59868  1.0000
  Mg  Mg46      1.0  0.28879  0.62057  0.78062  1.0000
  C  Sn93      1.0  0.28847  0.44225  0.29156  1.0000
  C   C65       1.0  0.27937  0.45972  0.32921  1.0000
  C  Sn94      1.0  0.33383  0.48409  0.35205  1.0000
  C  Sn95      1.0  0.39872  0.49117  0.33695  1.0000
  C   C66       1.0  0.40779  0.47371  0.29931  1.0000
  C  Sn96      1.0  0.35337  0.44933  0.27645  1.0000
  O  Te93      1.0  0.23331  0.41799  0.26924  1.0000
  O  Te94      1.0  0.32350  0.50122  0.38962  1.0000
  O  Te95      1.0  0.45390  0.51545  0.35930  1.0000
  O  Te96      1.0  0.36367  0.43221  0.23891  1.0000
  Mg  Mg47      1.0  0.41439  0.53206  0.40876  1.0000
  Mg  Mg48      1.0  0.27280  0.40139  0.21974  1.0000
