data_image0
_chemical_formula_structural       H18C54S6N18SnCSn2CSnTe4Mg2SnCSn2CSnTe4Mg2SnCSn2CSnTe4Mg2SnCSn2CSnTe4Mg2SnCSn2CSnTe4Mg2SnCSn2CSnTe4Mg2
_chemical_formula_sum              "H18 C66 S6 N18 Sn24 Te24 Mg12"
_cell_length_a       25.0741
_cell_length_b       25.1159
_cell_length_c       7.98305
_cell_angle_alpha    121.209
_cell_angle_beta     84.3925
_cell_angle_gamma    120.097

_symmetry_space_group_name_H-M    'P1'
_space_group_IT_number       1

loop_
  _space_group_symop_operation_xyz
  'x, y, z'

loop_
  _atom_site_type_symbol
  _atom_site_label
  _atom_site_symmetry_multiplicity
  _atom_site_fract_x
  _atom_site_fract_y
  _atom_site_fract_z
  _atom_site_occupancy
  H   H1        1.0  0.64715  0.47153  0.78560  1.0000
  H   H2        1.0  0.53413  0.18078  0.76514  1.0000
  H   H3        1.0  0.81952  0.35621  0.75328  1.0000
  H   H4        1.0  0.35325  0.52775  0.21492  1.0000
  H   H5        1.0  0.46469  0.81626  0.22307  1.0000
  H   H6        1.0  0.18183  0.64693  0.25803  1.0000
  H   H7        1.0  0.49781  0.27052  0.71817  1.0000
  H   H8        1.0  0.72328  0.22634  0.74470  1.0000
  H   H9        1.0  0.77129  0.49725  0.74935  1.0000
  H   H10       1.0  0.50084  0.72990  0.28460  1.0000
  H   H11       1.0  0.27384  0.76572  0.21932  1.0000
  H   H12       1.0  0.22695  0.50237  0.25346  1.0000
  H   H13       1.0  0.41695  0.29948  0.69692  1.0000
  H   H14       1.0  0.69316  0.11205  0.73047  1.0000
  H   H15       1.0  0.88292  0.57920  0.74843  1.0000
  H   H16       1.0  0.58315  0.70354  0.31122  1.0000
  H   H17       1.0  0.30288  0.87874  0.22820  1.0000
  H   H18       1.0  0.11491  0.42278  0.26036  1.0000
  C   C1        1.0  0.35887  0.63090  0.73509  1.0000
  C   C2        1.0  0.36437  0.72305  0.72814  1.0000
  C   C3        1.0  0.27166  0.63854  0.74356  1.0000
  C   C4        1.0  0.64068  0.36885  0.26387  1.0000
  C   C5        1.0  0.63459  0.27533  0.26448  1.0000
  C   C6        1.0  0.72773  0.36096  0.25474  1.0000
  C   C7        1.0  0.48054  0.48981  0.74600  1.0000
  C   C8        1.0  0.51221  0.98663  0.72760  1.0000
  C   C9        1.0  0.00804  0.52464  0.75871  1.0000
  C   C10       1.0  0.52110  0.51223  0.25613  1.0000
  C   C11       1.0  0.48536  0.00824  0.24933  1.0000
  C   C12       1.0  0.99268  0.48153  0.26126  1.0000
  C   C13       1.0  0.48675  0.40232  0.73124  1.0000
  C   C14       1.0  0.59631  0.08156  0.73850  1.0000
  C   C15       1.0  0.91481  0.51448  0.75371  1.0000
  C   C16       1.0  0.51409  0.59938  0.27172  1.0000
  C   C17       1.0  0.40091  0.91227  0.23378  1.0000
  C   C18       1.0  0.08517  0.48990  0.26143  1.0000
  C   C19       1.0  0.55233  0.45137  0.75702  1.0000
  C   C20       1.0  0.55153  0.10191  0.75009  1.0000
  C   C21       1.0  0.89612  0.45049  0.75259  1.0000
  C   C22       1.0  0.44858  0.54947  0.24387  1.0000
  C   C23       1.0  0.44627  0.89329  0.22914  1.0000
  C   C24       1.0  0.10454  0.55426  0.26383  1.0000
  C   C25       1.0  0.59708  0.43528  0.76746  1.0000
  C   C26       1.0  0.56793  0.16512  0.75850  1.0000
  C   C27       1.0  0.83433  0.40493  0.75338  1.0000
  C   C28       1.0  0.40317  0.56466  0.23343  1.0000
  C   C29       1.0  0.43043  0.83079  0.22436  1.0000
  C   C30       1.0  0.16624  0.59811  0.25824  1.0000
  C   C31       1.0  0.57659  0.36961  0.75363  1.0000
  C   C32       1.0  0.63041  0.20953  0.75567  1.0000
  C   C33       1.0  0.78973  0.42301  0.75330  1.0000
  C   C34       1.0  0.42296  0.63021  0.24782  1.0000
  C   C35       1.0  0.36776  0.78581  0.22456  1.0000
  C   C36       1.0  0.20984  0.57802  0.25247  1.0000
  C   C37       1.0  0.51167  0.32082  0.72853  1.0000
  C   C38       1.0  0.67534  0.19022  0.74581  1.0000
  C   C39       1.0  0.80754  0.48574  0.75136  1.0000
  C   C40       1.0  0.48777  0.67988  0.27463  1.0000
  C   C41       1.0  0.32209  0.80312  0.22412  1.0000
  C   C42       1.0  0.19138  0.51521  0.25480  1.0000
  C   C43       1.0  0.46697  0.33647  0.71624  1.0000
  C   C44       1.0  0.65891  0.12715  0.73758  1.0000
  C   C45       1.0  0.86917  0.53112  0.75072  1.0000
  C   C46       1.0  0.53318  0.66541  0.28875  1.0000
  C   C47       1.0  0.33794  0.86535  0.22842  1.0000
  C   C48       1.0  0.12978  0.47138  0.25944  1.0000
  C   C49       1.0  0.62355  0.35171  0.76222  1.0000
  C   C50       1.0  0.64885  0.27587  0.75904  1.0000
  C   C51       1.0  0.72410  0.37606  0.75565  1.0000
  C   C52       1.0  0.37558  0.64727  0.23725  1.0000
  C   C53       1.0  0.34985  0.72119  0.22987  1.0000
  C   C54       1.0  0.27508  0.62306  0.24299  1.0000
  S   S1        1.0  0.43836  0.47271  0.22399  1.0000
  S   S2        1.0  0.51944  0.95993  0.23837  1.0000
  S   S3        1.0  0.04059  0.56435  0.27020  1.0000
  S   S4        1.0  0.56319  0.52832  0.77590  1.0000
  S   S5        1.0  0.47859  0.03625  0.74573  1.0000
  S   S6        1.0  0.96075  0.44209  0.75132  1.0000
  N   N1        1.0  0.29711  0.60197  0.74147  1.0000
  N   N2        1.0  0.39452  0.69164  0.73090  1.0000
  N   N3        1.0  0.30293  0.69837  0.73308  1.0000
  N   N4        1.0  0.70241  0.39777  0.25831  1.0000
  N   N5        1.0  0.60481  0.30774  0.26647  1.0000
  N   N6        1.0  0.69604  0.29985  0.25918  1.0000
  N   N7        1.0  0.44794  0.42527  0.72465  1.0000
  N   N8        1.0  0.57275  0.01665  0.72578  1.0000
  N   N9        1.0  0.97783  0.55486  0.75776  1.0000
  N   N10       1.0  0.55338  0.57698  0.27868  1.0000
  N   N11       1.0  0.42443  0.97713  0.24595  1.0000
  N   N12       1.0  0.02231  0.45045  0.25977  1.0000
  N   N13       1.0  0.68310  0.39627  0.76065  1.0000
  N   N14       1.0  0.60443  0.29209  0.76736  1.0000
  N   N15       1.0  0.70900  0.31562  0.75062  1.0000
  N   N16       1.0  0.31608  0.60302  0.24024  1.0000
  N   N17       1.0  0.39459  0.70616  0.22848  1.0000
  N   N18       1.0  0.28979  0.68190  0.23975  1.0000
  C  Sn1       1.0  0.37165  0.48712  0.67437  1.0000
  C   C55       1.0  0.43584  0.51162  0.68746  1.0000
  C  Sn2       1.0  0.48024  0.58381  0.74485  1.0000
  C  Sn3       1.0  0.46007  0.63256  0.79023  1.0000
  C   C56       1.0  0.39592  0.60807  0.77717  1.0000
  C  Sn4       1.0  0.35148  0.53587  0.71975  1.0000
  O  Te1       1.0  0.32809  0.41472  0.61670  1.0000
  O  Te2       1.0  0.54415  0.60703  0.75680  1.0000
  O  Te3       1.0  0.50369  0.70501  0.84793  1.0000
  O  Te4       1.0  0.28760  0.51266  0.70783  1.0000
  Mg  Mg1       1.0  0.58548  0.71083  0.84235  1.0000
  Mg  Mg2       1.0  0.24624  0.40889  0.62240  1.0000
  C  Sn5       1.0  0.48168  0.84254  0.77589  1.0000
  C   C57       1.0  0.41719  0.80550  0.77219  1.0000
  C  Sn6       1.0  0.37749  0.82124  0.72140  1.0000
  C  Sn7       1.0  0.40276  0.87510  0.67319  1.0000
  C   C58       1.0  0.46721  0.91209  0.67687  1.0000
  C  Sn8       1.0  0.50695  0.89640  0.72768  1.0000
  O  Te5       1.0  0.52049  0.82591  0.82708  1.0000
  O  Te6       1.0  0.31318  0.78350  0.71880  1.0000
  O  Te7       1.0  0.36389  0.89170  0.62198  1.0000
  O  Te8       1.0  0.57122  0.93409  0.73026  1.0000
  Mg  Mg3       1.0  0.27947  0.82550  0.63947  1.0000
  Mg  Mg4       1.0  0.60497  0.89211  0.80946  1.0000
  C  Sn9       1.0  0.12418  0.53893  0.84150  1.0000
  C   C59       1.0  0.08657  0.56319  0.82600  1.0000
  C  Sn10      1.0  0.10716  0.60996  0.75731  1.0000
  C  Sn11      1.0  0.16656  0.63294  0.70286  1.0000
  C   C60       1.0  0.20412  0.60867  0.71833  1.0000
  C  Sn12      1.0  0.18358  0.56190  0.78704  1.0000
  O  Te9       1.0  0.10266  0.49218  0.91053  1.0000
  O  Te10      1.0  0.06874  0.63351  0.74317  1.0000
  O  Te11      1.0  0.18806  0.67972  0.63379  1.0000
  O  Te12      1.0  0.22196  0.53835  0.80117  1.0000
  Mg  Mg5       1.0  0.11873  0.69687  0.64073  1.0000
  Mg  Mg6       1.0  0.17200  0.47497  0.90348  1.0000
  C  Sn13      1.0  0.52173  0.41100  0.31741  1.0000
  C   C61       1.0  0.54838  0.47386  0.31159  1.0000
  C  Sn14      1.0  0.60728  0.50102  0.26271  1.0000
  C  Sn15      1.0  0.64021  0.46457  0.21861  1.0000
  C   C62       1.0  0.61356  0.40174  0.22441  1.0000
  C  Sn16      1.0  0.55467  0.37455  0.27331  1.0000
  O  Te13      1.0  0.46280  0.38482  0.36663  1.0000
  O  Te14      1.0  0.63297  0.56396  0.25792  1.0000
  O  Te15      1.0  0.69919  0.49081  0.16937  1.0000
  O  Te16      1.0  0.52898  0.31164  0.27807  1.0000
  Mg  Mg7       1.0  0.71456  0.57841  0.18261  1.0000
  Mg  Mg8       1.0  0.44738  0.29712  0.35327  1.0000
  C  Sn17      1.0  0.49613  0.11976  0.21882  1.0000
  C   C63       1.0  0.51583  0.07544  0.21019  1.0000
  C  Sn18      1.0  0.58012  0.10179  0.25055  1.0000
  C  Sn19      1.0  0.62569  0.17397  0.30071  1.0000
  C   C64       1.0  0.60598  0.21825  0.30936  1.0000
  C  Sn20      1.0  0.54169  0.19194  0.26898  1.0000
  O  Te17      1.0  0.43161  0.09228  0.17791  1.0000
  O  Te18      1.0  0.59867  0.05645  0.24092  1.0000
  O  Te19      1.0  0.69025  0.20142  0.34163  1.0000
  O  Te20      1.0  0.52314  0.23724  0.27863  1.0000
  Mg  Mg9       1.0  0.69206  0.11874  0.30929  1.0000
  Mg  Mg10      1.0  0.42977  0.17502  0.21039  1.0000
  C  Sn21      1.0  0.84343  0.37468  0.32471  1.0000
  C   C65       1.0  0.80479  0.39670  0.30202  1.0000
  C  Sn22      1.0  0.82531  0.44337  0.23298  1.0000
  C  Sn23      1.0  0.88569  0.46850  0.18549  1.0000
  C   C66       1.0  0.92428  0.44647  0.20815  1.0000
  C  Sn24      1.0  0.90381  0.39981  0.27722  1.0000
  O  Te21      1.0  0.82195  0.32800  0.39396  1.0000
  O  Te22      1.0  0.78585  0.46466  0.21158  1.0000
  O  Te23      1.0  0.90715  0.51522  0.11620  1.0000
  O  Te24      1.0  0.94322  0.37852  0.29859  1.0000
  Mg  Mg11      1.0  0.83621  0.52886  0.11186  1.0000
  Mg  Mg12      1.0  0.89291  0.31429  0.39819  1.0000
