data_image0
_chemical_formula_structural       H18C54S6N18C2Sn2C2HTe2HMgC2Sn2C2HTe2HMgC2Sn2C2HTe2HMgC2Sn2C2HTe2HMgC2Sn2C2HTe2HMgC2Sn2C2HTe2HMg
_chemical_formula_sum              "H30 C78 S6 N18 Sn12 Te12 Mg6"
_cell_length_a       25.0741
_cell_length_b       25.1159
_cell_length_c       7.98305
_cell_angle_alpha    121.209
_cell_angle_beta     84.3925
_cell_angle_gamma    120.097

_symmetry_space_group_name_H-M    'P1'
_space_group_IT_number       1

loop_
  _space_group_symop_operation_xyz
  'x, y, z'

loop_
  _atom_site_type_symbol
  _atom_site_label
  _atom_site_symmetry_multiplicity
  _atom_site_fract_x
  _atom_site_fract_y
  _atom_site_fract_z
  _atom_site_occupancy
  H   H1        1.0  0.64715  0.47153  0.78560  1.0000
  H   H2        1.0  0.53413  0.18078  0.76514  1.0000
  H   H3        1.0  0.81952  0.35621  0.75328  1.0000
  H   H4        1.0  0.35325  0.52775  0.21492  1.0000
  H   H5        1.0  0.46469  0.81626  0.22307  1.0000
  H   H6        1.0  0.18183  0.64693  0.25803  1.0000
  H   H7        1.0  0.49781  0.27052  0.71817  1.0000
  H   H8        1.0  0.72328  0.22634  0.74470  1.0000
  H   H9        1.0  0.77129  0.49725  0.74935  1.0000
  H   H10       1.0  0.50084  0.72990  0.28460  1.0000
  H   H11       1.0  0.27384  0.76572  0.21932  1.0000
  H   H12       1.0  0.22695  0.50237  0.25346  1.0000
  H   H13       1.0  0.41695  0.29948  0.69692  1.0000
  H   H14       1.0  0.69316  0.11205  0.73047  1.0000
  H   H15       1.0  0.88292  0.57920  0.74843  1.0000
  H   H16       1.0  0.58315  0.70354  0.31122  1.0000
  H   H17       1.0  0.30288  0.87874  0.22820  1.0000
  H   H18       1.0  0.11491  0.42278  0.26036  1.0000
  C   C1        1.0  0.35887  0.63090  0.73509  1.0000
  C   C2        1.0  0.36437  0.72305  0.72814  1.0000
  C   C3        1.0  0.27166  0.63854  0.74356  1.0000
  C   C4        1.0  0.64068  0.36885  0.26387  1.0000
  C   C5        1.0  0.63459  0.27533  0.26448  1.0000
  C   C6        1.0  0.72773  0.36096  0.25474  1.0000
  C   C7        1.0  0.48054  0.48981  0.74600  1.0000
  C   C8        1.0  0.51221  0.98663  0.72760  1.0000
  C   C9        1.0  0.00804  0.52464  0.75871  1.0000
  C   C10       1.0  0.52110  0.51223  0.25613  1.0000
  C   C11       1.0  0.48536  0.00824  0.24933  1.0000
  C   C12       1.0  0.99268  0.48153  0.26126  1.0000
  C   C13       1.0  0.48675  0.40232  0.73124  1.0000
  C   C14       1.0  0.59631  0.08156  0.73850  1.0000
  C   C15       1.0  0.91481  0.51448  0.75371  1.0000
  C   C16       1.0  0.51409  0.59938  0.27172  1.0000
  C   C17       1.0  0.40091  0.91227  0.23378  1.0000
  C   C18       1.0  0.08517  0.48990  0.26143  1.0000
  C   C19       1.0  0.55233  0.45137  0.75702  1.0000
  C   C20       1.0  0.55153  0.10191  0.75009  1.0000
  C   C21       1.0  0.89612  0.45049  0.75259  1.0000
  C   C22       1.0  0.44858  0.54947  0.24387  1.0000
  C   C23       1.0  0.44627  0.89329  0.22914  1.0000
  C   C24       1.0  0.10454  0.55426  0.26383  1.0000
  C   C25       1.0  0.59708  0.43528  0.76746  1.0000
  C   C26       1.0  0.56793  0.16512  0.75850  1.0000
  C   C27       1.0  0.83433  0.40493  0.75338  1.0000
  C   C28       1.0  0.40317  0.56466  0.23343  1.0000
  C   C29       1.0  0.43043  0.83079  0.22436  1.0000
  C   C30       1.0  0.16624  0.59811  0.25824  1.0000
  C   C31       1.0  0.57659  0.36961  0.75363  1.0000
  C   C32       1.0  0.63041  0.20953  0.75567  1.0000
  C   C33       1.0  0.78973  0.42301  0.75330  1.0000
  C   C34       1.0  0.42296  0.63021  0.24782  1.0000
  C   C35       1.0  0.36776  0.78581  0.22456  1.0000
  C   C36       1.0  0.20984  0.57802  0.25247  1.0000
  C   C37       1.0  0.51167  0.32082  0.72853  1.0000
  C   C38       1.0  0.67534  0.19022  0.74581  1.0000
  C   C39       1.0  0.80754  0.48574  0.75136  1.0000
  C   C40       1.0  0.48777  0.67988  0.27463  1.0000
  C   C41       1.0  0.32209  0.80312  0.22412  1.0000
  C   C42       1.0  0.19138  0.51521  0.25480  1.0000
  C   C43       1.0  0.46697  0.33647  0.71624  1.0000
  C   C44       1.0  0.65891  0.12715  0.73758  1.0000
  C   C45       1.0  0.86917  0.53112  0.75072  1.0000
  C   C46       1.0  0.53318  0.66541  0.28875  1.0000
  C   C47       1.0  0.33794  0.86535  0.22842  1.0000
  C   C48       1.0  0.12978  0.47138  0.25944  1.0000
  C   C49       1.0  0.62355  0.35171  0.76222  1.0000
  C   C50       1.0  0.64885  0.27587  0.75904  1.0000
  C   C51       1.0  0.72410  0.37606  0.75565  1.0000
  C   C52       1.0  0.37558  0.64727  0.23725  1.0000
  C   C53       1.0  0.34985  0.72119  0.22987  1.0000
  C   C54       1.0  0.27508  0.62306  0.24299  1.0000
  S   S1        1.0  0.43836  0.47271  0.22399  1.0000
  S   S2        1.0  0.51944  0.95993  0.23837  1.0000
  S   S3        1.0  0.04059  0.56435  0.27020  1.0000
  S   S4        1.0  0.56319  0.52832  0.77590  1.0000
  S   S5        1.0  0.47859  0.03625  0.74573  1.0000
  S   S6        1.0  0.96075  0.44209  0.75132  1.0000
  N   N1        1.0  0.29711  0.60197  0.74147  1.0000
  N   N2        1.0  0.39452  0.69164  0.73090  1.0000
  N   N3        1.0  0.30293  0.69837  0.73308  1.0000
  N   N4        1.0  0.70241  0.39777  0.25831  1.0000
  N   N5        1.0  0.60481  0.30774  0.26647  1.0000
  N   N6        1.0  0.69604  0.29985  0.25918  1.0000
  N   N7        1.0  0.44794  0.42527  0.72465  1.0000
  N   N8        1.0  0.57275  0.01665  0.72578  1.0000
  N   N9        1.0  0.97783  0.55486  0.75776  1.0000
  N   N10       1.0  0.55338  0.57698  0.27868  1.0000
  N   N11       1.0  0.42443  0.97713  0.24595  1.0000
  N   N12       1.0  0.02231  0.45045  0.25977  1.0000
  N   N13       1.0  0.68310  0.39627  0.76065  1.0000
  N   N14       1.0  0.60443  0.29209  0.76736  1.0000
  N   N15       1.0  0.70900  0.31562  0.75062  1.0000
  N   N16       1.0  0.31608  0.60302  0.24024  1.0000
  N   N17       1.0  0.39459  0.70616  0.22848  1.0000
  N   N18       1.0  0.28979  0.68190  0.23975  1.0000
  C   C55       1.0  0.48643  0.60726  0.74469  1.0000
  C   C56       1.0  0.46195  0.54620  0.75810  1.0000
  C  Sn1       1.0  0.39764  0.50600  0.75172  1.0000
  C  Sn2       1.0  0.35721  0.52743  0.73148  1.0000
  C   C57       1.0  0.38216  0.58857  0.71804  1.0000
  C   C58       1.0  0.44658  0.62842  0.72464  1.0000
  H   H19       1.0  0.53627  0.63808  0.74968  1.0000
  O  Te1       1.0  0.37396  0.44516  0.76539  1.0000
  O  Te2       1.0  0.29275  0.48821  0.72464  1.0000
  H   H20       1.0  0.46552  0.67566  0.71413  1.0000
  Mg  Mg1       1.0  0.28282  0.40932  0.74898  1.0000
  C   C59       1.0  0.50149  0.86657  0.71898  1.0000
  C   C60       1.0  0.48142  0.90733  0.70564  1.0000
  C  Sn3       1.0  0.41874  0.88864  0.70657  1.0000
  C  Sn4       1.0  0.37546  0.82800  0.72121  1.0000
  C   C61       1.0  0.39601  0.78759  0.73463  1.0000
  C   C62       1.0  0.45884  0.80676  0.73350  1.0000
  H   H21       1.0  0.55010  0.88142  0.71822  1.0000
  O  Te3       1.0  0.39948  0.92994  0.69304  1.0000
  O  Te4       1.0  0.31255  0.80813  0.72255  1.0000
  H   H22       1.0  0.47437  0.77522  0.74397  1.0000
  Mg  Mg2       1.0  0.30889  0.88131  0.70076  1.0000
  C   C63       1.0  0.15537  0.53817  0.78561  1.0000
  C   C64       1.0  0.19653  0.59389  0.75406  1.0000
  C  Sn5       1.0  0.17647  0.63414  0.73769  1.0000
  C  Sn6       1.0  0.11401  0.61820  0.75331  1.0000
  C   C65       1.0  0.07320  0.56239  0.78503  1.0000
  C   C66       1.0  0.09376  0.52244  0.80112  1.0000
  H   H23       1.0  0.17128  0.50728  0.79817  1.0000
  O  Te5       1.0  0.21820  0.68960  0.70610  1.0000
  O  Te6       1.0  0.09274  0.65760  0.73759  1.0000
  H   H24       1.0  0.06189  0.47933  0.82568  1.0000
  Mg  Mg3       1.0  0.16719  0.72798  0.69466  1.0000
  C   C67       1.0  0.63083  0.50616  0.26967  1.0000
  C   C68       1.0  0.56672  0.48230  0.25109  1.0000
  C  Sn7       1.0  0.52334  0.41870  0.24751  1.0000
  C  Sn8       1.0  0.54467  0.37836  0.26291  1.0000
  C   C69       1.0  0.60891  0.40271  0.28159  1.0000
  C   C70       1.0  0.65191  0.46642  0.28494  1.0000
  H   H25       1.0  0.66411  0.55547  0.27237  1.0000
  O  Te7       1.0  0.45947  0.39562  0.22879  1.0000
  O  Te8       1.0  0.50234  0.31462  0.25982  1.0000
  H   H26       1.0  0.70154  0.48490  0.29945  1.0000
  Mg  Mg4       1.0  0.41999  0.30532  0.23174  1.0000
  C   C71       1.0  0.49855  0.13398  0.28593  1.0000
  C   C72       1.0  0.51528  0.08486  0.25663  1.0000
  C  Sn9       1.0  0.57691  0.10094  0.24231  1.0000
  C  Sn10      1.0  0.62254  0.16746  0.25771  1.0000
  C   C73       1.0  0.60534  0.21626  0.28716  1.0000
  C   C74       1.0  0.54353  0.19962  0.30122  1.0000
  H   H27       1.0  0.45073  0.12113  0.29692  1.0000
  O  Te9       1.0  0.59282  0.05125  0.21295  1.0000
  O  Te10      1.0  0.68449  0.18491  0.24400  1.0000
  H   H28       1.0  0.53060  0.23767  0.32404  1.0000
  Mg  Mg5       1.0  0.68330  0.09958  0.20373  1.0000
  C   C75       1.0  0.87903  0.48040  0.22424  1.0000
  C   C76       1.0  0.91919  0.46157  0.25588  1.0000
  C  Sn11      1.0  0.89491  0.40173  0.27482  1.0000
  C  Sn12      1.0  0.82917  0.36007  0.26173  1.0000
  C   C77       1.0  0.78938  0.37933  0.22991  1.0000
  C   C78       1.0  0.81419  0.43932  0.21123  1.0000
  H   H29       1.0  0.89822  0.52680  0.20967  1.0000
  O  Te11      1.0  0.93570  0.38368  0.30646  1.0000
  O  Te12      1.0  0.80364  0.29998  0.28006  1.0000
  H   H30       1.0  0.78308  0.45386  0.18660  1.0000
  Mg  Mg6       1.0  0.87842  0.29704  0.32197  1.0000
