data_image0
_chemical_formula_structural       H30C72S6N18C2Sn2C2HTe2HMgC2Sn2C2HTe2HMgC2Sn2C2HTe2HMg
_chemical_formula_sum              "H36 C84 S6 N18 Sn6 Te6 Mg3"
_cell_length_a       25.0741
_cell_length_b       25.1159
_cell_length_c       7.98305
_cell_angle_alpha    121.209
_cell_angle_beta     84.3925
_cell_angle_gamma    120.097

_symmetry_space_group_name_H-M    'P1'
_space_group_IT_number       1

loop_
  _space_group_symop_operation_xyz
  'x, y, z'

loop_
  _atom_site_type_symbol
  _atom_site_label
  _atom_site_symmetry_multiplicity
  _atom_site_fract_x
  _atom_site_fract_y
  _atom_site_fract_z
  _atom_site_occupancy
  H   H1        1.0  0.48701  0.78800  0.71248  1.0000
  H   H2        1.0  0.20258  0.69207  0.73753  1.0000
  H   H3        1.0  0.69517  0.49374  0.26913  1.0000
  H   H4        1.0  0.55163  0.90334  0.71220  1.0000
  H   H5        1.0  0.08761  0.64209  0.74244  1.0000
  H   H6        1.0  0.64209  0.55566  0.26595  1.0000
  H   H7        1.0  0.38648  0.91620  0.71851  1.0000
  H   H8        1.0  0.08010  0.47645  0.79552  1.0000
  H   H9        1.0  0.46539  0.38632  0.25414  1.0000
  H   H10       1.0  0.32357  0.80266  0.72125  1.0000
  H   H11       1.0  0.19339  0.52599  0.78757  1.0000
  H   H12       1.0  0.51864  0.32627  0.26122  1.0000
  H   H13       1.0  0.64715  0.47153  0.78560  1.0000
  H   H14       1.0  0.53413  0.18078  0.76514  1.0000
  H   H15       1.0  0.81952  0.35621  0.75328  1.0000
  H   H16       1.0  0.35325  0.52775  0.21492  1.0000
  H   H17       1.0  0.46469  0.81626  0.22307  1.0000
  H   H18       1.0  0.18183  0.64693  0.25803  1.0000
  H   H19       1.0  0.49781  0.27052  0.71817  1.0000
  H   H20       1.0  0.72328  0.22634  0.74470  1.0000
  H   H21       1.0  0.77129  0.49725  0.74935  1.0000
  H   H22       1.0  0.50084  0.72990  0.28460  1.0000
  H   H23       1.0  0.27384  0.76572  0.21932  1.0000
  H   H24       1.0  0.22695  0.50237  0.25346  1.0000
  H   H25       1.0  0.41695  0.29948  0.69692  1.0000
  H   H26       1.0  0.69316  0.11205  0.73047  1.0000
  H   H27       1.0  0.88292  0.57920  0.74843  1.0000
  H   H28       1.0  0.58315  0.70354  0.31122  1.0000
  H   H29       1.0  0.30288  0.87874  0.22820  1.0000
  H   H30       1.0  0.11491  0.42278  0.26036  1.0000
  C   C1        1.0  0.35887  0.63090  0.73509  1.0000
  C   C2        1.0  0.36437  0.72305  0.72814  1.0000
  C   C3        1.0  0.27166  0.63854  0.74356  1.0000
  C   C4        1.0  0.64068  0.36885  0.26387  1.0000
  C   C5        1.0  0.63459  0.27533  0.26448  1.0000
  C   C6        1.0  0.72773  0.36096  0.25474  1.0000
  C   C7        1.0  0.40178  0.78940  0.72134  1.0000
  C   C8        1.0  0.20484  0.61125  0.75786  1.0000
  C   C9        1.0  0.61004  0.40605  0.26453  1.0000
  C   C10       1.0  0.46606  0.81720  0.71523  1.0000
  C   C11       1.0  0.17488  0.64476  0.74939  1.0000
  C   C12       1.0  0.64502  0.47116  0.26689  1.0000
  C   C13       1.0  0.50169  0.88069  0.71401  1.0000
  C   C14       1.0  0.11119  0.61722  0.75292  1.0000
  C   C15       1.0  0.61569  0.50520  0.26356  1.0000
  C   C16       1.0  0.47378  0.91804  0.71884  1.0000
  C   C17       1.0  0.07552  0.55505  0.76483  1.0000
  C   C18       1.0  0.55042  0.47484  0.25745  1.0000
  C   C19       1.0  0.40907  0.88896  0.71964  1.0000
  C   C20       1.0  0.10622  0.52328  0.78066  1.0000
  C   C21       1.0  0.51565  0.40986  0.25593  1.0000
  C   C22       1.0  0.37354  0.82552  0.72083  1.0000
  C   C23       1.0  0.16985  0.55084  0.77686  1.0000
  C   C24       1.0  0.54505  0.37612  0.26063  1.0000
  C   C25       1.0  0.48054  0.48981  0.74600  1.0000
  C   C26       1.0  0.51221  0.98663  0.72760  1.0000
  C   C27       1.0  0.00804  0.52464  0.75871  1.0000
  C   C28       1.0  0.52110  0.51223  0.25613  1.0000
  C   C29       1.0  0.48536  0.00824  0.24933  1.0000
  C   C30       1.0  0.99268  0.48153  0.26126  1.0000
  C   C31       1.0  0.48675  0.40232  0.73124  1.0000
  C   C32       1.0  0.59631  0.08156  0.73850  1.0000
  C   C33       1.0  0.91481  0.51448  0.75371  1.0000
  C   C34       1.0  0.51409  0.59938  0.27172  1.0000
  C   C35       1.0  0.40091  0.91227  0.23378  1.0000
  C   C36       1.0  0.08517  0.48990  0.26143  1.0000
  C   C37       1.0  0.55233  0.45137  0.75702  1.0000
  C   C38       1.0  0.55153  0.10191  0.75009  1.0000
  C   C39       1.0  0.89612  0.45049  0.75259  1.0000
  C   C40       1.0  0.44858  0.54947  0.24387  1.0000
  C   C41       1.0  0.44627  0.89329  0.22914  1.0000
  C   C42       1.0  0.10454  0.55426  0.26383  1.0000
  C   C43       1.0  0.59708  0.43528  0.76746  1.0000
  C   C44       1.0  0.56793  0.16512  0.75850  1.0000
  C   C45       1.0  0.83433  0.40493  0.75338  1.0000
  C   C46       1.0  0.40317  0.56466  0.23343  1.0000
  C   C47       1.0  0.43043  0.83079  0.22436  1.0000
  C   C48       1.0  0.16624  0.59811  0.25824  1.0000
  C   C49       1.0  0.57659  0.36961  0.75363  1.0000
  C   C50       1.0  0.63041  0.20953  0.75567  1.0000
  C   C51       1.0  0.78973  0.42301  0.75330  1.0000
  C   C52       1.0  0.42296  0.63021  0.24782  1.0000
  C   C53       1.0  0.36776  0.78581  0.22456  1.0000
  C   C54       1.0  0.20984  0.57802  0.25247  1.0000
  C   C55       1.0  0.51167  0.32082  0.72853  1.0000
  C   C56       1.0  0.67534  0.19022  0.74581  1.0000
  C   C57       1.0  0.80754  0.48574  0.75136  1.0000
  C   C58       1.0  0.48777  0.67988  0.27463  1.0000
  C   C59       1.0  0.32209  0.80312  0.22412  1.0000
  C   C60       1.0  0.19138  0.51521  0.25480  1.0000
  C   C61       1.0  0.46697  0.33647  0.71624  1.0000
  C   C62       1.0  0.65891  0.12715  0.73758  1.0000
  C   C63       1.0  0.86917  0.53112  0.75072  1.0000
  C   C64       1.0  0.53318  0.66541  0.28875  1.0000
  C   C65       1.0  0.33794  0.86535  0.22842  1.0000
  C   C66       1.0  0.12978  0.47138  0.25944  1.0000
  C   C67       1.0  0.62355  0.35171  0.76222  1.0000
  C   C68       1.0  0.64885  0.27587  0.75904  1.0000
  C   C69       1.0  0.72410  0.37606  0.75565  1.0000
  C   C70       1.0  0.37558  0.64727  0.23725  1.0000
  C   C71       1.0  0.34985  0.72119  0.22987  1.0000
  C   C72       1.0  0.27508  0.62306  0.24299  1.0000
  S   S1        1.0  0.43836  0.47271  0.22399  1.0000
  S   S2        1.0  0.51944  0.95993  0.23837  1.0000
  S   S3        1.0  0.04059  0.56435  0.27020  1.0000
  S   S4        1.0  0.56319  0.52832  0.77590  1.0000
  S   S5        1.0  0.47859  0.03625  0.74573  1.0000
  S   S6        1.0  0.96075  0.44209  0.75132  1.0000
  N   N1        1.0  0.29711  0.60197  0.74147  1.0000
  N   N2        1.0  0.39452  0.69164  0.73090  1.0000
  N   N3        1.0  0.30293  0.69837  0.73308  1.0000
  N   N4        1.0  0.70241  0.39777  0.25831  1.0000
  N   N5        1.0  0.60481  0.30774  0.26647  1.0000
  N   N6        1.0  0.69604  0.29985  0.25918  1.0000
  N   N7        1.0  0.44794  0.42527  0.72465  1.0000
  N   N8        1.0  0.57275  0.01665  0.72578  1.0000
  N   N9        1.0  0.97783  0.55486  0.75776  1.0000
  N   N10       1.0  0.55338  0.57698  0.27868  1.0000
  N   N11       1.0  0.42443  0.97713  0.24595  1.0000
  N   N12       1.0  0.02231  0.45045  0.25977  1.0000
  N   N13       1.0  0.68310  0.39627  0.76065  1.0000
  N   N14       1.0  0.60443  0.29209  0.76736  1.0000
  N   N15       1.0  0.70900  0.31562  0.75062  1.0000
  N   N16       1.0  0.31608  0.60302  0.24024  1.0000
  N   N17       1.0  0.39459  0.70616  0.22848  1.0000
  N   N18       1.0  0.28979  0.68190  0.23975  1.0000
  C   C73       1.0  0.37093  0.49653  0.73997  1.0000
  C   C74       1.0  0.43353  0.51576  0.73215  1.0000
  C  Sn1       1.0  0.47647  0.57941  0.73539  1.0000
  C  Sn2       1.0  0.45623  0.62456  0.74674  1.0000
  C   C75       1.0  0.39351  0.60487  0.75464  1.0000
  C   C76       1.0  0.35093  0.54105  0.75124  1.0000
  H   H31       1.0  0.33798  0.44717  0.73745  1.0000
  O  Te1       1.0  0.53884  0.59779  0.72740  1.0000
  O  Te2       1.0  0.49817  0.68849  0.75028  1.0000
  H   H32       1.0  0.30247  0.52620  0.75743  1.0000
  Mg  Mg1       1.0  0.57831  0.69033  0.73624  1.0000
  C   C77       1.0  0.83998  0.35674  0.26025  1.0000
  C   C78       1.0  0.80182  0.38225  0.25859  1.0000
  C  Sn3       1.0  0.82633  0.44285  0.24306  1.0000
  C  Sn4       1.0  0.89026  0.47845  0.22891  1.0000
  C   C79       1.0  0.92804  0.45247  0.23057  1.0000
  C   C80       1.0  0.90303  0.39180  0.24622  1.0000
  H   H33       1.0  0.82063  0.30978  0.27226  1.0000
  O  Te3       1.0  0.78755  0.46764  0.24170  1.0000
  O  Te4       1.0  0.91596  0.53911  0.21318  1.0000
  H   H34       1.0  0.93258  0.37203  0.24738  1.0000
  Mg  Mg2       1.0  0.84427  0.55239  0.21768  1.0000
  C   C81       1.0  0.62374  0.15478  0.25757  1.0000
  C   C82       1.0  0.60438  0.19787  0.25560  1.0000
  C  Sn5       1.0  0.54244  0.18109  0.26628  1.0000
  C  Sn6       1.0  0.49919  0.12002  0.27921  1.0000
  C   C83       1.0  0.51903  0.07729  0.28122  1.0000
  C   C84       1.0  0.58112  0.09455  0.27040  1.0000
  H   H35       1.0  0.67178  0.16816  0.24931  1.0000
  O  Te5       1.0  0.52388  0.22470  0.26407  1.0000
  O  Te6       1.0  0.43701  0.10204  0.29013  1.0000
  H   H36       1.0  0.59610  0.06121  0.27205  1.0000
  Mg  Mg3       1.0  0.43414  0.17805  0.28204  1.0000
