data_image0
_chemical_formula_structural       H48C64S8N8SnCSn2CSnTe4Mg2SnCSn2CSnTe4Mg2SnCSn2CSnTe4Mg2SnCSn2CSnTe4Mg2
_chemical_formula_sum              "H48 C72 S8 N8 Sn16 Te16 Mg8"
_cell_length_a       21.3713
_cell_length_b       21.4838
_cell_length_c       26.012
_cell_angle_alpha    90.2239
_cell_angle_beta     89.9284
_cell_angle_gamma    90.0745

_symmetry_space_group_name_H-M    'P1'
_space_group_IT_number       1

loop_
  _space_group_symop_operation_xyz
  'x, y, z'

loop_
  _atom_site_type_symbol
  _atom_site_label
  _atom_site_symmetry_multiplicity
  _atom_site_fract_x
  _atom_site_fract_y
  _atom_site_fract_z
  _atom_site_occupancy
  H   H1        1.0  0.39244  0.25799  0.25276  1.0000
  H   H2        1.0  0.52685  0.66822  0.25225  1.0000
  H   H3        1.0  0.40118  0.24822  0.53449  1.0000
  H   H4        1.0  0.24762  0.52638  0.03942  1.0000
  H   H5        1.0  0.38792  0.16599  0.31157  1.0000
  H   H6        1.0  0.53252  0.76290  0.30884  1.0000
  H   H7        1.0  0.39575  0.15283  0.47869  1.0000
  H   H8        1.0  0.15158  0.53251  0.98466  1.0000
  H   H9        1.0  0.54609  0.33419  0.21397  1.0000
  H   H10       1.0  0.37741  0.57949  0.22677  1.0000
  H   H11       1.0  0.57403  0.54436  0.73268  1.0000
  H   H12       1.0  0.33888  0.37723  0.71445  1.0000
  H   H13       1.0  0.37962  0.58290  0.55384  1.0000
  H   H14       1.0  0.54535  0.35208  0.54037  1.0000
  H   H15       1.0  0.36152  0.39111  0.03374  1.0000
  H   H16       1.0  0.58600  0.54962  0.05760  1.0000
  H   H17       1.0  0.35926  0.41017  0.16033  1.0000
  H   H18       1.0  0.56702  0.51707  0.16607  1.0000
  H   H19       1.0  0.52286  0.36062  0.65998  1.0000
  H   H20       1.0  0.41207  0.56584  0.66249  1.0000
  H   H21       1.0  0.56943  0.51772  0.61092  1.0000
  H   H22       1.0  0.36332  0.40809  0.61552  1.0000
  H   H23       1.0  0.41187  0.56792  0.11543  1.0000
  H   H24       1.0  0.51857  0.36171  0.11402  1.0000
  H   H25       1.0  0.39987  0.36740  0.11260  1.0000
  H   H26       1.0  0.52856  0.56258  0.11929  1.0000
  H   H27       1.0  0.56507  0.40071  0.61183  1.0000
  H   H28       1.0  0.36729  0.52510  0.61607  1.0000
  H   H29       1.0  0.53098  0.56142  0.65935  1.0000
  H   H30       1.0  0.40570  0.36473  0.66158  1.0000
  H   H31       1.0  0.36512  0.52799  0.16079  1.0000
  H   H32       1.0  0.56158  0.40084  0.16262  1.0000
  H   H33       1.0  0.58770  0.17373  0.32960  1.0000
  H   H34       1.0  0.33701  0.74319  0.34400  1.0000
  H   H35       1.0  0.57988  0.19244  0.42064  1.0000
  H   H36       1.0  0.20167  0.35906  0.91253  1.0000
  H   H37       1.0  0.59223  0.26452  0.27064  1.0000
  H   H38       1.0  0.33133  0.65010  0.28707  1.0000
  H   H39       1.0  0.58591  0.28600  0.47707  1.0000
  H   H40       1.0  0.29694  0.35334  0.96675  1.0000
  H   H41       1.0  0.46800  0.42359  0.73151  1.0000
  H   H42       1.0  0.47120  0.50592  0.73007  1.0000
  H   H43       1.0  0.50187  0.45991  0.23372  1.0000
  H   H44       1.0  0.41901  0.46434  0.23151  1.0000
  H   H45       1.0  0.46882  0.50721  0.04615  1.0000
  H   H46       1.0  0.46482  0.42479  0.04479  1.0000
  H   H47       1.0  0.42270  0.46466  0.54467  1.0000
  H   H48       1.0  0.50555  0.46141  0.54277  1.0000
  C   C1        1.0  0.48459  0.10994  0.35981  1.0000
  C   C2        1.0  0.44052  0.81452  0.36380  1.0000
  C   C3        1.0  0.81648  0.48968  0.86310  1.0000
  C   C4        1.0  0.11245  0.44304  0.86015  1.0000
  C   C5        1.0  0.44216  0.81558  0.41600  1.0000
  C   C6        1.0  0.48374  0.11116  0.41204  1.0000
  C   C7        1.0  0.11419  0.44878  0.91219  1.0000
  C   C8        1.0  0.81739  0.49170  0.91538  1.0000
  C   C9        1.0  0.54497  0.19240  0.31308  1.0000
  C   C10       1.0  0.37869  0.72662  0.32427  1.0000
  C   C11       1.0  0.54058  0.20496  0.44508  1.0000
  C   C12       1.0  0.21220  0.39600  0.93976  1.0000
  C   C13       1.0  0.54735  0.24323  0.27993  1.0000
  C   C14       1.0  0.37561  0.67446  0.29214  1.0000
  C   C15       1.0  0.54388  0.25723  0.47687  1.0000
  C   C16       1.0  0.26542  0.39288  0.97046  1.0000
  C   C17       1.0  0.49246  0.26737  0.25806  1.0000
  C   C18       1.0  0.42897  0.65320  0.26592  1.0000
  C   C19       1.0  0.49371  0.27333  0.50920  1.0000
  C   C20       1.0  0.27855  0.43973  0.00670  1.0000
  C   C21       1.0  0.43476  0.23916  0.26992  1.0000
  C   C22       1.0  0.48579  0.68539  0.27249  1.0000
  C   C23       1.0  0.43991  0.23532  0.50939  1.0000
  C   C24       1.0  0.23685  0.49019  0.01142  1.0000
  C   C25       1.0  0.43243  0.18818  0.30275  1.0000
  C   C26       1.0  0.48879  0.73761  0.30400  1.0000
  C   C27       1.0  0.43702  0.18256  0.47832  1.0000
  C   C28       1.0  0.18363  0.49339  0.98090  1.0000
  C   C29       1.0  0.48742  0.16451  0.32515  1.0000
  C   C30       1.0  0.43538  0.75867  0.33065  1.0000
  C   C31       1.0  0.48698  0.16707  0.44515  1.0000
  C   C32       1.0  0.17071  0.44645  0.94431  1.0000
  C   C33       1.0  0.46151  0.46280  0.20769  1.0000
  C   C34       1.0  0.46907  0.46401  0.70580  1.0000
  C   C35       1.0  0.46493  0.46292  0.56868  1.0000
  C   C36       1.0  0.46572  0.46556  0.07043  1.0000
  C   C37       1.0  0.49766  0.32091  0.22332  1.0000
  C   C38       1.0  0.42479  0.59883  0.23167  1.0000
  C   C39       1.0  0.60068  0.50055  0.73066  1.0000
  C   C40       1.0  0.32615  0.42522  0.72505  1.0000
  C   C41       1.0  0.42739  0.60094  0.54822  1.0000
  C   C42       1.0  0.49944  0.32875  0.54216  1.0000
  C   C43       1.0  0.33428  0.43422  0.03926  1.0000
  C   C44       1.0  0.60403  0.50217  0.05151  1.0000
  C   C45       1.0  0.46207  0.93096  0.38796  1.0000
  C   C46       1.0  0.47125  0.99369  0.38719  1.0000
  C   C47       1.0  0.99611  0.45962  0.88778  1.0000
  C   C48       1.0  0.93312  0.46880  0.88832  1.0000
  C   C49       1.0  0.40579  0.46831  0.10352  1.0000
  C   C50       1.0  0.52392  0.46181  0.10543  1.0000
  C   C51       1.0  0.46331  0.40420  0.60267  1.0000
  C   C52       1.0  0.46854  0.52194  0.60270  1.0000
  C   C53       1.0  0.52719  0.46080  0.67060  1.0000
  C   C54       1.0  0.40880  0.46568  0.67319  1.0000
  C   C55       1.0  0.46614  0.52228  0.17481  1.0000
  C   C56       1.0  0.45964  0.40458  0.17260  1.0000
  C   C57       1.0  0.40211  0.40924  0.13698  1.0000
  C   C58       1.0  0.52556  0.51910  0.14121  1.0000
  C   C59       1.0  0.52290  0.40254  0.63595  1.0000
  C   C60       1.0  0.41085  0.52374  0.63840  1.0000
  C   C61       1.0  0.52807  0.51878  0.63603  1.0000
  C   C62       1.0  0.40626  0.40758  0.63872  1.0000
  C   C63       1.0  0.40910  0.52567  0.13902  1.0000
  C   C64       1.0  0.51907  0.40309  0.13903  1.0000
  S   S1        1.0  0.45752  0.88785  0.44560  1.0000
  S   S2        1.0  0.47846  0.03896  0.44377  1.0000
  S   S3        1.0  0.04191  0.45792  0.94420  1.0000
  S   S4        1.0  0.88969  0.47798  0.94559  1.0000
  S   S5        1.0  0.47984  0.03655  0.32974  1.0000
  S   S6        1.0  0.45392  0.88535  0.33170  1.0000
  S   S7        1.0  0.88798  0.47404  0.83176  1.0000
  S   S8        1.0  0.03867  0.44594  0.83061  1.0000
  N   N1        1.0  0.44990  0.35011  0.20581  1.0000
  N   N2        1.0  0.47324  0.57660  0.20890  1.0000
  N   N3        1.0  0.58436  0.45465  0.70182  1.0000
  N   N4        1.0  0.35537  0.47333  0.70830  1.0000
  N   N5        1.0  0.47570  0.57672  0.56945  1.0000
  N   N6        1.0  0.45434  0.34812  0.57064  1.0000
  N   N7        1.0  0.34950  0.47669  0.07173  1.0000
  N   N8        1.0  0.57956  0.45396  0.07254  1.0000
  C  Sn1       1.0  0.19571  0.49576  0.78745  1.0000
  C   C65       1.0  0.16293  0.44704  0.81066  1.0000
  C  Sn2       1.0  0.18854  0.38728  0.81219  1.0000
  C  Sn3       1.0  0.24818  0.37600  0.79008  1.0000
  C   C66       1.0  0.28093  0.42471  0.76690  1.0000
  C  Sn4       1.0  0.25535  0.48448  0.76534  1.0000
  O  Te1       1.0  0.16921  0.55513  0.78637  1.0000
  O  Te2       1.0  0.15488  0.33931  0.83559  1.0000
  O  Te3       1.0  0.27466  0.31658  0.79118  1.0000
  O  Te4       1.0  0.28898  0.53243  0.74197  1.0000
  Mg  Mg1       1.0  0.21070  0.26646  0.82742  1.0000
  Mg  Mg2       1.0  0.23322  0.60531  0.75014  1.0000
  C  Sn5       1.0  0.49007  0.71004  0.51408  1.0000
  C   C67       1.0  0.43823  0.67213  0.52380  1.0000
  C  Sn6       1.0  0.38522  0.67550  0.49258  1.0000
  C  Sn7       1.0  0.38400  0.71763  0.45074  1.0000
  C   C68       1.0  0.43581  0.75550  0.44103  1.0000
  C  Sn8       1.0  0.48885  0.75216  0.47224  1.0000
  O  Te5       1.0  0.54256  0.70588  0.54579  1.0000
  O  Te6       1.0  0.33396  0.63715  0.50307  1.0000
  O  Te7       1.0  0.33144  0.72176  0.41903  1.0000
  O  Te8       1.0  0.54008  0.79049  0.46176  1.0000
  Mg  Mg3       1.0  0.27328  0.65986  0.44886  1.0000
  Mg  Mg4       1.0  0.60080  0.76779  0.51592  1.0000
  C  Sn9       1.0  0.71909  0.43327  0.96957  1.0000
  C   C69       1.0  0.74791  0.48301  0.94438  1.0000
  C  Sn10      1.0  0.73492  0.54427  0.95902  1.0000
  C  Sn11      1.0  0.69226  0.55608  0.99971  1.0000
  C   C70       1.0  0.66499  0.50164  0.02488  1.0000
  C  Sn12      1.0  0.67795  0.44035  0.01026  1.0000
  O  Te9       1.0  0.73278  0.37240  0.95430  1.0000
  O  Te10      1.0  0.76429  0.59323  0.93325  1.0000
  O  Te11      1.0  0.68010  0.61228  0.01497  1.0000
  O  Te12      1.0  0.64861  0.39141  0.03601  1.0000
  Mg  Mg5       1.0  0.73043  0.66804  0.96813  1.0000
  Mg  Mg6       1.0  0.68246  0.31659  0.00118  1.0000
  C  Sn13      1.0  0.74797  0.44750  0.77650  1.0000
  C   C71       1.0  0.76808  0.49229  0.81193  1.0000
  C  Sn14      1.0  0.72795  0.54005  0.82754  1.0000
  C  Sn15      1.0  0.66643  0.54310  0.80733  1.0000
  C   C72       1.0  0.64635  0.49833  0.77192  1.0000
  C  Sn16      1.0  0.68644  0.45055  0.75629  1.0000
  O  Te13      1.0  0.78887  0.40016  0.76145  1.0000
  O  Te14      1.0  0.74912  0.58431  0.86299  1.0000
  O  Te15      1.0  0.62552  0.59050  0.82241  1.0000
  O  Te16      1.0  0.66530  0.40631  0.72086  1.0000
  Mg  Mg7       1.0  0.67599  0.63986  0.87165  1.0000
  Mg  Mg8       1.0  0.73838  0.35072  0.71220  1.0000
