data_image0
_chemical_formula_structural       H40C70S8N8SnCSn2CSnTe4Mg2SnCSn2CSnTe4Mg2SnCSn2CSnTe4Mg2SnCSn2CSnTe4Mg2SnCSn2CSnTe4Mg2SnCSn2CSnTe4Mg2SnCSn2CSnTe4Mg2SnCSn2CSnTe4Mg2
_chemical_formula_sum              "H40 C86 S8 N8 Sn32 Te32 Mg16"
_cell_length_a       18.819
_cell_length_b       18.6484
_cell_length_c       31.3138
_cell_angle_alpha    90.2836
_cell_angle_beta     90.1882
_cell_angle_gamma    90.0969

_symmetry_space_group_name_H-M    'P1'
_space_group_IT_number       1

loop_
  _space_group_symop_operation_xyz
  'x, y, z'

loop_
  _atom_site_type_symbol
  _atom_site_label
  _atom_site_symmetry_multiplicity
  _atom_site_fract_x
  _atom_site_fract_y
  _atom_site_fract_z
  _atom_site_occupancy
  H   H1        1.0  0.57908  0.72095  0.80453  1.0000
  H   H2        1.0  0.71735  0.38726  0.29632  1.0000
  H   H3        1.0  0.28390  0.57469  0.30929  1.0000
  H   H4        1.0  0.58169  0.72205  0.19485  1.0000
  H   H5        1.0  0.72273  0.43019  0.69033  1.0000
  H   H6        1.0  0.50483  0.64832  0.75678  1.0000
  H   H7        1.0  0.65124  0.47002  0.25046  1.0000
  H   H8        1.0  0.35516  0.50338  0.25998  1.0000
  H   H9        1.0  0.51160  0.65078  0.24452  1.0000
  H   H10       1.0  0.64898  0.49887  0.73985  1.0000
  H   H11       1.0  0.59105  0.45566  0.81065  1.0000
  H   H12       1.0  0.45927  0.42197  0.31881  1.0000
  H   H13       1.0  0.54657  0.59362  0.31276  1.0000
  H   H14       1.0  0.58822  0.45705  0.18618  1.0000
  H   H15       1.0  0.46079  0.40125  0.68730  1.0000
  H   H16       1.0  0.66851  0.52947  0.85827  1.0000
  H   H17       1.0  0.52624  0.33884  0.36538  1.0000
  H   H18       1.0  0.47376  0.66884  0.36193  1.0000
  H   H19       1.0  0.66247  0.52926  0.13724  1.0000
  H   H20       1.0  0.53615  0.32861  0.63842  1.0000
  H   H21       1.0  0.25791  0.85447  0.47254  1.0000
  H   H22       1.0  0.25664  0.87349  0.54347  1.0000
  H   H23       1.0  0.84374  0.73994  0.02320  1.0000
  H   H24       1.0  0.32539  0.77217  0.42457  1.0000
  H   H25       1.0  0.32208  0.78491  0.58826  1.0000
  H   H26       1.0  0.76427  0.67598  0.07327  1.0000
  H   H27       1.0  0.12875  0.69291  0.37254  1.0000
  H   H28       1.0  0.12707  0.67009  0.60939  1.0000
  H   H29       1.0  0.72284  0.87420  0.13893  1.0000
  H   H30       1.0  0.06107  0.77329  0.42121  1.0000
  H   H31       1.0  0.06205  0.75770  0.56442  1.0000
  H   H32       1.0  0.79877  0.93929  0.08751  1.0000
  H   H33       1.0  0.23692  0.65281  0.34231  1.0000
  H   H34       1.0  0.75762  0.36500  0.36090  1.0000
  H   H35       1.0  0.35075  0.23529  0.85115  1.0000
  H   H36       1.0  0.65516  0.76983  0.84092  1.0000
  H   H37       1.0  0.77306  0.34513  0.65860  1.0000
  H   H38       1.0  0.23621  0.62349  0.63912  1.0000
  H   H39       1.0  0.67254  0.76602  0.16635  1.0000
  H   H40       1.0  0.33876  0.23308  0.15977  1.0000
  C   C1        1.0  0.87477  0.88275  0.97803  1.0000
  C   C2        1.0  0.11929  0.12393  0.97826  1.0000
  C   C3        1.0  0.11514  0.86851  0.47842  1.0000
  C   C4        1.0  0.88612  0.12383  0.47845  1.0000
  C   C5        1.0  0.11966  0.12426  0.02175  1.0000
  C   C6        1.0  0.87381  0.88342  0.02164  1.0000
  C   C7        1.0  0.88870  0.12602  0.52187  1.0000
  C   C8        1.0  0.11671  0.87083  0.52183  1.0000
  C   C9        1.0  0.58388  0.66289  0.80563  1.0000
  C   C10       1.0  0.66104  0.39580  0.30214  1.0000
  C   C11       1.0  0.34135  0.58108  0.30980  1.0000
  C   C12       1.0  0.58653  0.66397  0.19381  1.0000
  C   C13       1.0  0.66557  0.42129  0.69019  1.0000
  C   C14       1.0  0.54128  0.62158  0.77843  1.0000
  C   C15       1.0  0.62304  0.44221  0.27566  1.0000
  C   C16       1.0  0.38197  0.54011  0.28170  1.0000
  C   C17       1.0  0.54613  0.62324  0.22209  1.0000
  C   C18       1.0  0.62345  0.46080  0.71835  1.0000
  C   C19       1.0  0.54467  0.54650  0.77856  1.0000
  C   C20       1.0  0.54985  0.45246  0.28078  1.0000
  C   C21       1.0  0.45631  0.54510  0.28119  1.0000
  C   C22       1.0  0.54827  0.54801  0.22153  1.0000
  C   C23       1.0  0.54922  0.45287  0.71921  1.0000
  C   C24       1.0  0.58968  0.51389  0.80866  1.0000
  C   C25       1.0  0.51605  0.41486  0.31396  1.0000
  C   C26       1.0  0.48886  0.59099  0.31122  1.0000
  C   C27       1.0  0.58953  0.51512  0.18959  1.0000
  C   C28       1.0  0.51836  0.40584  0.68910  1.0000
  C   C29       1.0  0.63285  0.55470  0.83547  1.0000
  C   C30       1.0  0.55333  0.36820  0.34028  1.0000
  C   C31       1.0  0.44865  0.63274  0.33901  1.0000
  C   C32       1.0  0.63060  0.55532  0.16167  1.0000
  C   C33       1.0  0.56003  0.36559  0.66132  1.0000
  C   C34       1.0  0.63206  0.63022  0.83393  1.0000
  C   C35       1.0  0.62704  0.35834  0.33520  1.0000
  C   C36       1.0  0.37387  0.62932  0.33850  1.0000
  C   C37       1.0  0.63158  0.63082  0.16387  1.0000
  C   C38       1.0  0.63472  0.37132  0.66181  1.0000
  C   C39       1.0  0.15480  0.81871  0.45066  1.0000
  C   C40       1.0  0.15534  0.82040  0.54998  1.0000
  C   C41       1.0  0.82582  0.84475  0.05075  1.0000
  C   C42       1.0  0.22974  0.81785  0.45137  1.0000
  C   C43       1.0  0.22869  0.82840  0.55758  1.0000
  C   C44       1.0  0.81549  0.76991  0.04752  1.0000
  C   C45       1.0  0.26760  0.77252  0.42459  1.0000
  C   C46       1.0  0.26529  0.77948  0.58265  1.0000
  C   C47       1.0  0.77176  0.73369  0.07577  1.0000
  C   C48       1.0  0.23169  0.72694  0.39575  1.0000
  C   C49       1.0  0.22950  0.72120  0.60129  1.0000
  C   C50       1.0  0.73736  0.77058  0.10913  1.0000
  C   C51       1.0  0.15690  0.72795  0.39480  1.0000
  C   C52       1.0  0.15573  0.71435  0.59474  1.0000
  C   C53       1.0  0.74854  0.84501  0.11305  1.0000
  C   C54       1.0  0.11887  0.77309  0.42190  1.0000
  C   C55       1.0  0.11901  0.76349  0.56952  1.0000
  C   C56       1.0  0.79168  0.88159  0.08435  1.0000
  C   C57       1.0  0.27011  0.68075  0.36614  1.0000
  C   C58       1.0  0.72740  0.31807  0.37188  1.0000
  C   C59       1.0  0.31337  0.27177  0.86722  1.0000
  C   C60       1.0  0.68633  0.73453  0.86183  1.0000
  C   C61       1.0  0.73901  0.31809  0.63479  1.0000
  C   C62       1.0  0.26775  0.66897  0.62732  1.0000
  C   C63       1.0  0.69170  0.73328  0.13941  1.0000
  C   C64       1.0  0.31165  0.26930  0.13735  1.0000
  C   C65       1.0  0.02639  0.97062  0.49957  1.0000
  C   C66       1.0  0.97888  0.02561  0.49959  1.0000
  C   C67       1.0  0.02289  0.02927  0.99989  1.0000
  C   C68       1.0  0.97162  0.97764  0.99992  1.0000
  C   C69       1.0  0.50355  0.49986  0.25128  1.0000
  C   C70       1.0  0.50034  0.49760  0.74872  1.0000
  S   S1        1.0  0.05927  0.93049  0.45243  1.0000
  S   S2        1.0  0.94152  0.06161  0.45252  1.0000
  S   S3        1.0  0.05830  0.06612  0.95264  1.0000
  S   S4        1.0  0.93666  0.93910  0.95279  1.0000
  S   S5        1.0  0.94745  0.06582  0.54710  1.0000
  S   S6        1.0  0.06269  0.93499  0.54707  1.0000
  S   S7        1.0  0.93576  0.94108  0.04708  1.0000
  S   S8        1.0  0.05898  0.06649  0.04718  1.0000
  N   N1        1.0  0.33841  0.67412  0.36768  1.0000
  N   N2        1.0  0.66104  0.30943  0.36242  1.0000
  N   N3        1.0  0.31419  0.34035  0.86172  1.0000
  N   N4        1.0  0.67994  0.66552  0.86155  1.0000
  N   N5        1.0  0.67090  0.32653  0.63298  1.0000
  N   N6        1.0  0.33468  0.67619  0.63553  1.0000
  N   N7        1.0  0.67594  0.66614  0.13470  1.0000
  N   N8        1.0  0.32202  0.33777  0.13672  1.0000
  C  Sn1       1.0  0.85712  0.25973  0.40054  1.0000
  C   C71       1.0  0.78484  0.25705  0.39024  1.0000
  C  Sn2       1.0  0.73869  0.21335  0.41338  1.0000
  C  Sn3       1.0  0.76532  0.17147  0.44754  1.0000
  C   C72       1.0  0.83754  0.17417  0.45783  1.0000
  C  Sn4       1.0  0.88374  0.21786  0.43471  1.0000
  O  Te1       1.0  0.90228  0.30381  0.37698  1.0000
  O  Te2       1.0  0.66666  0.21154  0.40247  1.0000
  O  Te3       1.0  0.72008  0.12737  0.47111  1.0000
  O  Te4       1.0  0.95573  0.21968  0.44560  1.0000
  Mg  Mg1       1.0  0.62623  0.14318  0.44406  1.0000
  Mg  Mg2       1.0  0.99620  0.28804  0.40405  1.0000
  C  Sn5       1.0  0.88322  0.21581  0.59521  1.0000
  C   C73       1.0  0.85477  0.16955  0.56432  1.0000
  C  Sn6       1.0  0.78453  0.17752  0.55059  1.0000
  C  Sn7       1.0  0.74186  0.23290  0.56808  1.0000
  C   C74       1.0  0.77032  0.27913  0.59894  1.0000
  C  Sn8       1.0  0.84055  0.27120  0.61269  1.0000
  O  Te5       1.0  0.95357  0.20686  0.60845  1.0000
  O  Te6       1.0  0.75726  0.13060  0.51969  1.0000
  O  Te7       1.0  0.67146  0.24182  0.55481  1.0000
  O  Te8       1.0  0.86783  0.31808  0.64357  1.0000
  Mg  Mg3       1.0  0.65843  0.16450  0.51195  1.0000
  Mg  Mg4       1.0  0.96665  0.28426  0.65132  1.0000
  C  Sn9       1.0  0.18961  0.27008  0.08384  1.0000
  C   C75       1.0  0.24079  0.23973  0.11063  1.0000
  C  Sn10      1.0  0.26139  0.16838  0.10507  1.0000
  C  Sn11      1.0  0.23023  0.12649  0.07202  1.0000
  C   C76       1.0  0.17909  0.15684  0.04524  1.0000
  C  Sn12      1.0  0.15844  0.22819  0.05079  1.0000
  O  Te9       1.0  0.16982  0.34152  0.08998  1.0000
  O  Te10      1.0  0.31264  0.13921  0.13226  1.0000
  O  Te11      1.0  0.25006  0.05499  0.06589  1.0000
  O  Te12      1.0  0.10723  0.25736  0.02361  1.0000
  Mg  Mg5       1.0  0.32206  0.03946  0.11111  1.0000
  Mg  Mg6       1.0  0.09780  0.35711  0.04472  1.0000
  C  Sn13      1.0  0.36445  0.53187  0.70669  1.0000
  C   C77       1.0  0.43842  0.52692  0.70935  1.0000
  C  Sn14      1.0  0.48143  0.57895  0.69050  1.0000
  C  Sn15      1.0  0.44985  0.63718  0.66855  1.0000
  C   C78       1.0  0.37592  0.64212  0.66590  1.0000
  C  Sn16      1.0  0.33287  0.59010  0.68474  1.0000
  O  Te13      1.0  0.32249  0.47925  0.72578  1.0000
  O  Te14      1.0  0.55525  0.57284  0.69357  1.0000
  O  Te15      1.0  0.49188  0.68982  0.64945  1.0000
  O  Te16      1.0  0.25909  0.59620  0.68169  1.0000
  Mg  Mg7       1.0  0.58988  0.65801  0.66234  1.0000
  Mg  Mg8       1.0  0.22441  0.51108  0.71292  1.0000
  C  Sn17      1.0  0.41211  0.34148  0.20907  1.0000
  C   C79       1.0  0.36601  0.36627  0.17735  1.0000
  C  Sn18      1.0  0.36969  0.43734  0.16364  1.0000
  C  Sn19      1.0  0.42052  0.48462  0.18200  1.0000
  C   C80       1.0  0.46659  0.45983  0.21370  1.0000
  C  Sn20      1.0  0.46295  0.38876  0.22743  1.0000
  O  Te17      1.0  0.40750  0.27021  0.22228  1.0000
  O  Te18      1.0  0.32302  0.46090  0.13190  1.0000
  O  Te19      1.0  0.42510  0.55594  0.16877  1.0000
  O  Te20      1.0  0.50958  0.36520  0.25915  1.0000
  Mg  Mg9       1.0  0.35002  0.56274  0.12457  1.0000
  Mg  Mg10      1.0  0.48266  0.26336  0.26649  1.0000
  C  Sn21      1.0  0.83793  0.75862  0.92824  1.0000
  C   C81       1.0  0.84175  0.83219  0.93668  1.0000
  C  Sn22      1.0  0.78608  0.87740  0.92478  1.0000
  C  Sn23      1.0  0.72528  0.84848  0.90403  1.0000
  C   C82       1.0  0.72147  0.77496  0.89560  1.0000
  C  Sn24      1.0  0.77713  0.72970  0.90749  1.0000
  O  Te21      1.0  0.89421  0.71443  0.94042  1.0000
  O  Te22      1.0  0.79113  0.95078  0.93354  1.0000
  O  Te23      1.0  0.66898  0.89275  0.89184  1.0000
  O  Te24      1.0  0.77210  0.65637  0.89874  1.0000
  Mg  Mg11      1.0  0.70067  0.98910  0.91074  1.0000
  Mg  Mg12      1.0  0.86250  0.61800  0.92154  1.0000
  C  Sn25      1.0  0.41881  0.47986  0.82583  1.0000
  C   C83       1.0  0.46224  0.45381  0.79316  1.0000
  C  Sn26      1.0  0.45198  0.38475  0.77677  1.0000
  C  Sn27      1.0  0.39714  0.34081  0.79337  1.0000
  C   C84       1.0  0.35373  0.36687  0.82602  1.0000
  C  Sn28      1.0  0.36396  0.43593  0.84243  1.0000
  O  Te25      1.0  0.43002  0.54908  0.84173  1.0000
  O  Te26      1.0  0.49610  0.35987  0.74411  1.0000
  O  Te27      1.0  0.38596  0.27155  0.77745  1.0000
  O  Te28      1.0  0.31988  0.46081  0.87506  1.0000
  Mg  Mg13      1.0  0.45983  0.26181  0.73296  1.0000
  Mg  Mg14      1.0  0.35607  0.55887  0.88623  1.0000
  C  Sn29      1.0  0.21628  0.27261  0.93702  1.0000
  C   C85       1.0  0.26684  0.24327  0.90944  1.0000
  C  Sn30      1.0  0.26383  0.17076  0.89816  1.0000
  C  Sn31      1.0  0.20912  0.12666  0.91477  1.0000
  C   C86       1.0  0.15860  0.15601  0.94233  1.0000
  C  Sn32      1.0  0.16158  0.22851  0.95363  1.0000
  O  Te29      1.0  0.22032  0.34524  0.94787  1.0000
  O  Te30      1.0  0.31498  0.14264  0.87054  1.0000
  O  Te31      1.0  0.20512  0.05398  0.90390  1.0000
  O  Te32      1.0  0.11046  0.25664  0.98122  1.0000
  Mg  Mg15      1.0  0.28701  0.04059  0.86518  1.0000
  Mg  Mg16      1.0  0.13835  0.35868  0.98659  1.0000
