data_image0
_chemical_formula_structural       H8C22S8N8SnCSn2CSnTe4Mg2SnCSn2CSnTe4Mg2SnCSn2CSnTe4Mg2SnCSn2CSnTe4Mg2SnCSn2CSnTe4Mg2SnCSn2CSnTe4Mg2SnCSn2CSnTe4Mg2SnCSn2CSnTe4Mg2SnCSn2CSnTe4Mg2SnCSn2CSnTe4Mg2SnCSn2CSnTe4Mg2SnCSn2CSnTe4Mg2SnCSn2CSnTe4Mg2SnCSn2CSnTe4Mg2SnCSn2CSnTe4Mg2SnCSn2CSnTe4Mg2
_chemical_formula_sum              "H8 C54 S8 N8 Sn64 Te64 Mg32"
_cell_length_a       18.819
_cell_length_b       18.6484
_cell_length_c       31.3138
_cell_angle_alpha    90.2836
_cell_angle_beta     90.1882
_cell_angle_gamma    90.0969

_symmetry_space_group_name_H-M    'P1'
_space_group_IT_number       1

loop_
  _space_group_symop_operation_xyz
  'x, y, z'

loop_
  _atom_site_type_symbol
  _atom_site_label
  _atom_site_symmetry_multiplicity
  _atom_site_fract_x
  _atom_site_fract_y
  _atom_site_fract_z
  _atom_site_occupancy
  H   H1        1.0  0.23692  0.65281  0.34231  1.0000
  H   H2        1.0  0.75762  0.36500  0.36090  1.0000
  H   H3        1.0  0.35075  0.23529  0.85115  1.0000
  H   H4        1.0  0.65516  0.76983  0.84092  1.0000
  H   H5        1.0  0.77306  0.34513  0.65860  1.0000
  H   H6        1.0  0.23621  0.62349  0.63912  1.0000
  H   H7        1.0  0.67254  0.76602  0.16635  1.0000
  H   H8        1.0  0.33876  0.23308  0.15977  1.0000
  C   C1        1.0  0.87477  0.88275  0.97803  1.0000
  C   C2        1.0  0.11929  0.12393  0.97826  1.0000
  C   C3        1.0  0.11514  0.86851  0.47842  1.0000
  C   C4        1.0  0.88612  0.12383  0.47845  1.0000
  C   C5        1.0  0.11966  0.12426  0.02175  1.0000
  C   C6        1.0  0.87381  0.88342  0.02164  1.0000
  C   C7        1.0  0.88870  0.12602  0.52187  1.0000
  C   C8        1.0  0.11671  0.87083  0.52183  1.0000
  C   C9        1.0  0.27011  0.68075  0.36614  1.0000
  C   C10       1.0  0.72740  0.31807  0.37188  1.0000
  C   C11       1.0  0.31337  0.27177  0.86722  1.0000
  C   C12       1.0  0.68633  0.73453  0.86183  1.0000
  C   C13       1.0  0.73901  0.31809  0.63479  1.0000
  C   C14       1.0  0.26775  0.66897  0.62732  1.0000
  C   C15       1.0  0.69170  0.73328  0.13941  1.0000
  C   C16       1.0  0.31165  0.26930  0.13735  1.0000
  C   C17       1.0  0.02639  0.97062  0.49957  1.0000
  C   C18       1.0  0.97888  0.02561  0.49959  1.0000
  C   C19       1.0  0.02289  0.02927  0.99989  1.0000
  C   C20       1.0  0.97162  0.97764  0.99992  1.0000
  C   C21       1.0  0.50355  0.49986  0.25128  1.0000
  C   C22       1.0  0.50034  0.49760  0.74872  1.0000
  S   S1        1.0  0.05927  0.93049  0.45243  1.0000
  S   S2        1.0  0.94152  0.06161  0.45252  1.0000
  S   S3        1.0  0.05830  0.06612  0.95264  1.0000
  S   S4        1.0  0.93666  0.93910  0.95279  1.0000
  S   S5        1.0  0.94745  0.06582  0.54710  1.0000
  S   S6        1.0  0.06269  0.93499  0.54707  1.0000
  S   S7        1.0  0.93576  0.94108  0.04708  1.0000
  S   S8        1.0  0.05898  0.06649  0.04718  1.0000
  N   N1        1.0  0.33841  0.67412  0.36768  1.0000
  N   N2        1.0  0.66104  0.30943  0.36242  1.0000
  N   N3        1.0  0.31419  0.34035  0.86172  1.0000
  N   N4        1.0  0.67994  0.66552  0.86155  1.0000
  N   N5        1.0  0.67090  0.32653  0.63298  1.0000
  N   N6        1.0  0.33468  0.67619  0.63553  1.0000
  N   N7        1.0  0.67594  0.66614  0.13470  1.0000
  N   N8        1.0  0.32202  0.33777  0.13672  1.0000
  C  Sn1       1.0  0.43173  0.33890  0.80477  1.0000
  C   C23       1.0  0.38549  0.36534  0.83591  1.0000
  C  Sn2       1.0  0.36839  0.43818  0.83725  1.0000
  C  Sn3       1.0  0.39808  0.48558  0.80682  1.0000
  C   C24       1.0  0.44428  0.45914  0.77571  1.0000
  C  Sn4       1.0  0.46142  0.38631  0.77434  1.0000
  O  Te1       1.0  0.44808  0.26589  0.80403  1.0000
  O  Te2       1.0  0.32206  0.46336  0.86869  1.0000
  O  Te3       1.0  0.38169  0.55864  0.80759  1.0000
  O  Te4       1.0  0.50771  0.36112  0.74293  1.0000
  Mg  Mg1       1.0  0.31595  0.56726  0.85655  1.0000
  Mg  Mg2       1.0  0.51383  0.25723  0.75502  1.0000
  C  Sn5       1.0  0.55732  0.65835  0.80751  1.0000
  C   C25       1.0  0.60719  0.63495  0.83750  1.0000
  C  Sn6       1.0  0.63181  0.56434  0.83651  1.0000
  C  Sn7       1.0  0.60607  0.51611  0.80486  1.0000
  C   C26       1.0  0.55624  0.53952  0.77489  1.0000
  C  Sn8       1.0  0.53158  0.61013  0.77587  1.0000
  O  Te5       1.0  0.53345  0.72918  0.80910  1.0000
  O  Te6       1.0  0.68166  0.54218  0.86684  1.0000
  O  Te7       1.0  0.62999  0.44524  0.80330  1.0000
  O  Te8       1.0  0.48177  0.63229  0.74556  1.0000
  Mg  Mg3       1.0  0.69807  0.44043  0.85151  1.0000
  Mg  Mg4       1.0  0.46535  0.73403  0.76084  1.0000
  C  Sn9       1.0  0.52396  0.42023  0.32926  1.0000
  C   C27       1.0  0.54896  0.46005  0.29472  1.0000
  C  Sn10      1.0  0.61461  0.44406  0.27631  1.0000
  C  Sn11      1.0  0.65611  0.38704  0.29276  1.0000
  C   C28       1.0  0.63110  0.34724  0.32728  1.0000
  C  Sn12      1.0  0.56546  0.36320  0.34570  1.0000
  O  Te9       1.0  0.45818  0.43716  0.34715  1.0000
  O  Te10      1.0  0.63850  0.48465  0.24182  1.0000
  O  Te11      1.0  0.72194  0.37013  0.27483  1.0000
  O  Te12      1.0  0.54157  0.32264  0.38018  1.0000
  Mg  Mg5       1.0  0.73159  0.44091  0.22830  1.0000
  Mg  Mg6       1.0  0.44848  0.36631  0.39370  1.0000
  C  Sn13      1.0  0.34654  0.55435  0.31129  1.0000
  C   C29       1.0  0.36990  0.60434  0.34165  1.0000
  C  Sn14      1.0  0.43922  0.63108  0.34022  1.0000
  C  Sn15      1.0  0.48618  0.60739  0.30777  1.0000
  C   C30       1.0  0.46281  0.55744  0.27743  1.0000
  C  Sn16      1.0  0.39349  0.53066  0.27884  1.0000
  O  Te13      1.0  0.27700  0.52834  0.31333  1.0000
  O  Te14      1.0  0.46137  0.68101  0.37093  1.0000
  O  Te15      1.0  0.55576  0.63345  0.30575  1.0000
  O  Te16      1.0  0.37133  0.48077  0.24815  1.0000
  Mg  Mg7       1.0  0.56109  0.70074  0.35474  1.0000
  Mg  Mg8       1.0  0.27162  0.46103  0.26429  1.0000
  C  Sn17      1.0  0.61626  0.51913  0.19111  1.0000
  C   C31       1.0  0.56842  0.54320  0.22204  1.0000
  C  Sn18      1.0  0.54513  0.61428  0.22206  1.0000
  C  Sn19      1.0  0.57013  0.66230  0.19048  1.0000
  C   C32       1.0  0.61793  0.63822  0.15956  1.0000
  C  Sn20      1.0  0.64127  0.56715  0.15953  1.0000
  O  Te17      1.0  0.63883  0.44784  0.19171  1.0000
  O  Te18      1.0  0.49731  0.63711  0.25332  1.0000
  O  Te19      1.0  0.54752  0.73364  0.18991  1.0000
  O  Te20      1.0  0.68905  0.54432  0.12829  1.0000
  Mg  Mg9       1.0  0.48207  0.73930  0.23916  1.0000
  Mg  Mg10      1.0  0.70429  0.44213  0.14241  1.0000
  C  Sn21      1.0  0.46852  0.36508  0.20747  1.0000
  C   C33       1.0  0.47151  0.43957  0.21227  1.0000
  C  Sn22      1.0  0.41822  0.48277  0.19498  1.0000
  C  Sn23      1.0  0.36071  0.45086  0.17246  1.0000
  C   C34       1.0  0.35773  0.37641  0.16768  1.0000
  C  Sn24      1.0  0.41101  0.33316  0.18495  1.0000
  O  Te21      1.0  0.52238  0.32293  0.22502  1.0000
  O  Te22      1.0  0.42237  0.55712  0.20018  1.0000
  O  Te23      1.0  0.30683  0.49308  0.15491  1.0000
  O  Te24      1.0  0.40687  0.25886  0.17976  1.0000
  Mg  Mg11      1.0  0.33609  0.59182  0.17048  1.0000
  Mg  Mg12      1.0  0.49310  0.22410  0.20947  1.0000
  C  Sn25      1.0  0.45697  0.60449  0.65600  1.0000
  C   C35       1.0  0.38316  0.61251  0.65500  1.0000
  C  Sn26      1.0  0.34165  0.58838  0.68894  1.0000
  C  Sn27      1.0  0.37460  0.55558  0.72464  1.0000
  C   C36       1.0  0.44836  0.54759  0.72563  1.0000
  C  Sn28      1.0  0.48991  0.57169  0.69170  1.0000
  O  Te25      1.0  0.49742  0.62902  0.62172  1.0000
  O  Te26      1.0  0.26796  0.59696  0.68721  1.0000
  O  Te27      1.0  0.33407  0.53105  0.75894  1.0000
  O  Te28      1.0  0.56356  0.56313  0.69343  1.0000
  Mg  Mg13      1.0  0.23564  0.55489  0.74174  1.0000
  Mg  Mg14      1.0  0.59593  0.60521  0.63893  1.0000
  C  Sn29      1.0  0.54577  0.38771  0.65705  1.0000
  C   C37       1.0  0.61986  0.38610  0.65435  1.0000
  C  Sn30      1.0  0.66163  0.41543  0.68702  1.0000
  C  Sn31      1.0  0.62865  0.44699  0.72316  1.0000
  C   C38       1.0  0.55461  0.44858  0.72586  1.0000
  C  Sn32      1.0  0.51280  0.41927  0.69319  1.0000
  O  Te29      1.0  0.50507  0.35806  0.62401  1.0000
  O  Te30      1.0  0.73560  0.41321  0.68360  1.0000
  O  Te31      1.0  0.66942  0.47665  0.75621  1.0000
  O  Te32      1.0  0.43887  0.42147  0.69661  1.0000
  Mg  Mg15      1.0  0.76819  0.46062  0.73689  1.0000
  Mg  Mg16      1.0  0.40623  0.37404  0.64335  1.0000
  C  Sn33      1.0  0.26372  0.76876  0.44055  1.0000
  C   C39       1.0  0.23668  0.72095  0.41005  1.0000
  C  Sn34      1.0  0.16617  0.72628  0.39637  1.0000
  C  Sn35      1.0  0.12177  0.78057  0.41351  1.0000
  C   C40       1.0  0.14882  0.82835  0.44399  1.0000
  C  Sn36      1.0  0.21932  0.82305  0.45769  1.0000
  O  Te33      1.0  0.33438  0.76243  0.45376  1.0000
  O  Te34      1.0  0.14033  0.67785  0.36586  1.0000
  O  Te35      1.0  0.05107  0.78686  0.40028  1.0000
  O  Te36      1.0  0.24517  0.87145  0.48818  1.0000
  Mg  Mg17      1.0  0.04041  0.70827  0.35801  1.0000
  Mg  Mg18      1.0  0.34508  0.84110  0.49603  1.0000
  C  Sn37      1.0  0.73280  0.20541  0.43251  1.0000
  C   C41       1.0  0.75755  0.26632  0.41137  1.0000
  C  Sn38      1.0  0.83039  0.27733  0.40589  1.0000
  C  Sn39      1.0  0.87951  0.22637  0.42184  1.0000
  C   C42       1.0  0.85474  0.16549  0.44295  1.0000
  C  Sn40      1.0  0.78191  0.15445  0.44846  1.0000
  O  Te37      1.0  0.65975  0.19550  0.43763  1.0000
  O  Te38      1.0  0.85387  0.33864  0.38466  1.0000
  O  Te39      1.0  0.95260  0.23633  0.41671  1.0000
  O  Te40      1.0  0.75843  0.09317  0.46966  1.0000
  Mg  Mg19      1.0  0.95854  0.32826  0.38558  1.0000
  Mg  Mg20      1.0  0.65377  0.10348  0.46874  1.0000
  C  Sn41      1.0  0.24246  0.12865  0.92707  1.0000
  C   C43       1.0  0.18985  0.15787  0.95328  1.0000
  C  Sn42      1.0  0.16809  0.22884  0.94793  1.0000
  C  Sn43      1.0  0.19953  0.27150  0.91570  1.0000
  C   C44       1.0  0.25209  0.24228  0.88952  1.0000
  C  Sn44      1.0  0.27390  0.17131  0.89485  1.0000
  O  Te41      1.0  0.26339  0.05757  0.93299  1.0000
  O  Te42      1.0  0.11541  0.25687  0.97453  1.0000
  O  Te43      1.0  0.17855  0.34264  0.90981  1.0000
  O  Te44      1.0  0.32653  0.14328  0.86827  1.0000
  Mg  Mg21      1.0  0.10480  0.35653  0.95399  1.0000
  Mg  Mg22      1.0  0.33716  0.04362  0.88876  1.0000
  C  Sn45      1.0  0.78383  0.73397  0.93125  1.0000
  C   C45       1.0  0.73191  0.76344  0.90462  1.0000
  C  Sn46      1.0  0.73228  0.83672  0.89560  1.0000
  C  Sn47      1.0  0.78568  0.88149  0.91355  1.0000
  C   C46       1.0  0.83756  0.85202  0.94016  1.0000
  C  Sn48      1.0  0.83723  0.77874  0.94920  1.0000
  O  Te45      1.0  0.78244  0.66057  0.93983  1.0000
  O  Te46      1.0  0.67980  0.86495  0.86890  1.0000
  O  Te47      1.0  0.78703  0.95495  0.90495  1.0000
  O  Te48      1.0  0.88967  0.75052  0.97588  1.0000
  Mg  Mg23      1.0  0.70419  0.96818  0.86670  1.0000
  Mg  Mg24      1.0  0.86536  0.64729  0.97808  1.0000
  C  Sn49      1.0  0.86378  0.27358  0.59272  1.0000
  C   C47       1.0  0.79038  0.28215  0.59697  1.0000
  C  Sn50      1.0  0.74371  0.23092  0.58013  1.0000
  C  Sn51      1.0  0.77096  0.16983  0.55861  1.0000
  C   C48       1.0  0.84432  0.16128  0.55437  1.0000
  C  Sn52      1.0  0.89104  0.21249  0.57120  1.0000
  O  Te49      1.0  0.90945  0.32546  0.60981  1.0000
  O  Te50      1.0  0.67053  0.24067  0.58476  1.0000
  O  Te51      1.0  0.72522  0.11794  0.54151  1.0000
  O  Te52      1.0  0.96416  0.20276  0.56658  1.0000
  Mg  Mg25      1.0  0.62980  0.15513  0.55601  1.0000
  Mg  Mg26      1.0  0.00494  0.28824  0.59534  1.0000
  C  Sn53      1.0  0.11849  0.76272  0.58581  1.0000
  C   C49       1.0  0.14615  0.82148  0.56384  1.0000
  C  Sn54      1.0  0.21928  0.82770  0.55727  1.0000
  C  Sn55      1.0  0.26573  0.77405  0.57296  1.0000
  C   C50       1.0  0.23806  0.71533  0.59491  1.0000
  C  Sn56      1.0  0.16493  0.70907  0.60150  1.0000
  O  Te53      1.0  0.04520  0.75760  0.59201  1.0000
  O  Te54      1.0  0.24570  0.88695  0.53522  1.0000
  O  Te55      1.0  0.33906  0.77921  0.56675  1.0000
  O  Te56      1.0  0.13852  0.64986  0.62353  1.0000
  Mg  Mg27      1.0  0.34951  0.86992  0.53479  1.0000
  Mg  Mg28      1.0  0.03472  0.66682  0.62396  1.0000
  C  Sn57      1.0  0.79887  0.73349  0.07636  1.0000
  C   C51       1.0  0.75822  0.76235  0.10950  1.0000
  C  Sn58      1.0  0.74598  0.83612  0.11181  1.0000
  C  Sn59      1.0  0.77492  0.88201  0.08033  1.0000
  C   C52       1.0  0.81553  0.85316  0.04720  1.0000
  C  Sn60      1.0  0.82782  0.77938  0.04487  1.0000
  O  Te57      1.0  0.81043  0.65958  0.07467  1.0000
  O  Te58      1.0  0.70519  0.86372  0.14526  1.0000
  O  Te59      1.0  0.76333  0.95598  0.08203  1.0000
  O  Te60      1.0  0.86857  0.75178  0.01144  1.0000
  Mg  Mg29      1.0  0.70426  0.96802  0.13375  1.0000
  Mg  Mg30      1.0  0.86950  0.64750  0.02291  1.0000
  C  Sn61      1.0  0.26781  0.14779  0.09139  1.0000
  C   C53       1.0  0.27362  0.22140  0.09927  1.0000
  C  Sn62      1.0  0.22076  0.26827  0.08521  1.0000
  C  Sn63      1.0  0.16082  0.24100  0.06283  1.0000
  C   C54       1.0  0.15502  0.16743  0.05498  1.0000
  C  Sn64      1.0  0.20787  0.12052  0.06902  1.0000
  O  Te61      1.0  0.32130  0.10192  0.10575  1.0000
  O  Te62      1.0  0.22776  0.34165  0.09345  1.0000
  O  Te63      1.0  0.10732  0.28694  0.04848  1.0000
  O  Te64      1.0  0.20089  0.04718  0.06080  1.0000
  Mg  Mg31      1.0  0.14087  0.38259  0.06747  1.0000
  Mg  Mg32      1.0  0.28772  0.00618  0.08678  1.0000
