data_image0
_chemical_formula_structural       H8C22S8N8C2Sn2C2HTe2HMgC2Sn2C2HTe2HMgC2Sn2C2HTe2HMgC2Sn2C2HTe2HMgC2Sn2C2HTe2HMgC2Sn2C2HTe2HMgC2Sn2C2HTe2HMgC2Sn2C2HTe2HMgC2Sn2C2HTe2HMgC2Sn2C2HTe2HMgC2Sn2C2HTe2HMgC2Sn2C2HTe2HMgC2Sn2C2HTe2HMgC2Sn2C2HTe2HMgC2Sn2C2HTe2HMgC2Sn2C2HTe2HMg
_chemical_formula_sum              "H40 C86 S8 N8 Sn32 Te32 Mg16"
_cell_length_a       18.819
_cell_length_b       18.6484
_cell_length_c       31.3138
_cell_angle_alpha    90.2836
_cell_angle_beta     90.1882
_cell_angle_gamma    90.0969

_symmetry_space_group_name_H-M    'P1'
_space_group_IT_number       1

loop_
  _space_group_symop_operation_xyz
  'x, y, z'

loop_
  _atom_site_type_symbol
  _atom_site_label
  _atom_site_symmetry_multiplicity
  _atom_site_fract_x
  _atom_site_fract_y
  _atom_site_fract_z
  _atom_site_occupancy
  H   H1        1.0  0.23692  0.65281  0.34231  1.0000
  H   H2        1.0  0.75762  0.36500  0.36090  1.0000
  H   H3        1.0  0.35075  0.23529  0.85115  1.0000
  H   H4        1.0  0.65516  0.76983  0.84092  1.0000
  H   H5        1.0  0.77306  0.34513  0.65860  1.0000
  H   H6        1.0  0.23621  0.62349  0.63912  1.0000
  H   H7        1.0  0.67254  0.76602  0.16635  1.0000
  H   H8        1.0  0.33876  0.23308  0.15977  1.0000
  C   C1        1.0  0.87477  0.88275  0.97803  1.0000
  C   C2        1.0  0.11929  0.12393  0.97826  1.0000
  C   C3        1.0  0.11514  0.86851  0.47842  1.0000
  C   C4        1.0  0.88612  0.12383  0.47845  1.0000
  C   C5        1.0  0.11966  0.12426  0.02175  1.0000
  C   C6        1.0  0.87381  0.88342  0.02164  1.0000
  C   C7        1.0  0.88870  0.12602  0.52187  1.0000
  C   C8        1.0  0.11671  0.87083  0.52183  1.0000
  C   C9        1.0  0.27011  0.68075  0.36614  1.0000
  C   C10       1.0  0.72740  0.31807  0.37188  1.0000
  C   C11       1.0  0.31337  0.27177  0.86722  1.0000
  C   C12       1.0  0.68633  0.73453  0.86183  1.0000
  C   C13       1.0  0.73901  0.31809  0.63479  1.0000
  C   C14       1.0  0.26775  0.66897  0.62732  1.0000
  C   C15       1.0  0.69170  0.73328  0.13941  1.0000
  C   C16       1.0  0.31165  0.26930  0.13735  1.0000
  C   C17       1.0  0.02639  0.97062  0.49957  1.0000
  C   C18       1.0  0.97888  0.02561  0.49959  1.0000
  C   C19       1.0  0.02289  0.02927  0.99989  1.0000
  C   C20       1.0  0.97162  0.97764  0.99992  1.0000
  C   C21       1.0  0.50355  0.49986  0.25128  1.0000
  C   C22       1.0  0.50034  0.49760  0.74872  1.0000
  S   S1        1.0  0.05927  0.93049  0.45243  1.0000
  S   S2        1.0  0.94152  0.06161  0.45252  1.0000
  S   S3        1.0  0.05830  0.06612  0.95264  1.0000
  S   S4        1.0  0.93666  0.93910  0.95279  1.0000
  S   S5        1.0  0.94745  0.06582  0.54710  1.0000
  S   S6        1.0  0.06269  0.93499  0.54707  1.0000
  S   S7        1.0  0.93576  0.94108  0.04708  1.0000
  S   S8        1.0  0.05898  0.06649  0.04718  1.0000
  N   N1        1.0  0.33841  0.67412  0.36768  1.0000
  N   N2        1.0  0.66104  0.30943  0.36242  1.0000
  N   N3        1.0  0.31419  0.34035  0.86172  1.0000
  N   N4        1.0  0.67994  0.66552  0.86155  1.0000
  N   N5        1.0  0.67090  0.32653  0.63298  1.0000
  N   N6        1.0  0.33468  0.67619  0.63553  1.0000
  N   N7        1.0  0.67594  0.66614  0.13470  1.0000
  N   N8        1.0  0.32202  0.33777  0.13672  1.0000
  C   C23       1.0  0.39936  0.48610  0.81819  1.0000
  C   C24       1.0  0.44855  0.46071  0.78842  1.0000
  C  Sn1       1.0  0.45286  0.38743  0.77932  1.0000
  C  Sn2       1.0  0.40699  0.33879  0.80047  1.0000
  C   C25       1.0  0.35793  0.36474  0.83017  1.0000
  C   C26       1.0  0.35408  0.43817  0.83904  1.0000
  H   H9        1.0  0.39635  0.54292  0.82504  1.0000
  O  Te1       1.0  0.50233  0.36297  0.74950  1.0000
  O  Te2       1.0  0.41016  0.26529  0.79197  1.0000
  H   H10       1.0  0.31596  0.45782  0.86208  1.0000
  Mg  Mg1       1.0  0.48644  0.25795  0.74877  1.0000
  C   C27       1.0  0.60493  0.51462  0.81636  1.0000
  C   C28       1.0  0.55129  0.53657  0.78839  1.0000
  C  Sn3       1.0  0.53888  0.60950  0.78168  1.0000
  C  Sn4       1.0  0.58106  0.66129  0.80342  1.0000
  C   C29       1.0  0.63463  0.63878  0.83131  1.0000
  C   C30       1.0  0.64658  0.56566  0.83779  1.0000
  H   H11       1.0  0.61421  0.45805  0.82136  1.0000
  O  Te3       1.0  0.48505  0.63051  0.75364  1.0000
  O  Te4       1.0  0.56981  0.73453  0.79729  1.0000
  H   H12       1.0  0.68815  0.54868  0.85943  1.0000
  Mg  Mg2       1.0  0.49010  0.73657  0.75589  1.0000
  C   C31       1.0  0.53642  0.37812  0.33812  1.0000
  C   C32       1.0  0.60731  0.35640  0.33549  1.0000
  C  Sn5       1.0  0.65250  0.38692  0.30526  1.0000
  C  Sn6       1.0  0.62607  0.44017  0.27720  1.0000
  C   C33       1.0  0.55507  0.46156  0.28011  1.0000
  C   C34       1.0  0.51032  0.43066  0.31047  1.0000
  H   H13       1.0  0.50180  0.35424  0.36163  1.0000
  O  Te5       1.0  0.72317  0.36458  0.30305  1.0000
  O  Te6       1.0  0.67007  0.47158  0.24669  1.0000
  H   H14       1.0  0.45544  0.44752  0.31252  1.0000
  Mg  Mg3       1.0  0.76238  0.42327  0.25611  1.0000
  C   C35       1.0  0.46662  0.62588  0.33593  1.0000
  C   C36       1.0  0.39285  0.63374  0.33775  1.0000
  C  Sn7       1.0  0.34886  0.59179  0.31165  1.0000
  C  Sn8       1.0  0.37943  0.54107  0.28326  1.0000
  C   C37       1.0  0.45329  0.53359  0.28170  1.0000
  C   C38       1.0  0.49682  0.57585  0.30794  1.0000
  H   H15       1.0  0.50030  0.65856  0.35625  1.0000
  O  Te7       1.0  0.27526  0.60034  0.31386  1.0000
  O  Te8       1.0  0.33670  0.49844  0.25684  1.0000
  H   H16       1.0  0.55393  0.56973  0.30655  1.0000
  Mg  Mg4       1.0  0.23928  0.52985  0.27145  1.0000
  C   C39       1.0  0.55309  0.64126  0.21893  1.0000
  C   C40       1.0  0.54356  0.56699  0.22050  1.0000
  C  Sn9       1.0  0.58145  0.52211  0.19295  1.0000
  C  Sn10      1.0  0.62975  0.55231  0.16332  1.0000
  C   C41       1.0  0.63895  0.62668  0.16202  1.0000
  C   C42       1.0  0.60075  0.67109  0.18973  1.0000
  H   H17       1.0  0.52357  0.67563  0.24038  1.0000
  O  Te9       1.0  0.57127  0.44802  0.19492  1.0000
  O  Te10      1.0  0.66832  0.50870  0.13543  1.0000
  H   H18       1.0  0.60817  0.72859  0.18853  1.0000
  Mg  Mg5       1.0  0.63606  0.41087  0.15031  1.0000
  C   C43       1.0  0.43194  0.33778  0.20124  1.0000
  C   C44       1.0  0.38021  0.36111  0.17239  1.0000
  C  Sn11      1.0  0.36909  0.43436  0.16609  1.0000
  C  Sn12      1.0  0.41062  0.48507  0.18914  1.0000
  C   C45       1.0  0.46227  0.46118  0.21792  1.0000
  C   C46       1.0  0.47294  0.38776  0.22398  1.0000
  H   H19       1.0  0.44023  0.28097  0.20592  1.0000
  O  Te11      1.0  0.31717  0.45675  0.13715  1.0000
  O  Te12      1.0  0.40063  0.55859  0.18345  1.0000
  H   H20       1.0  0.51303  0.36971  0.24631  1.0000
  Mg  Mg6       1.0  0.32339  0.56267  0.14045  1.0000
  C   C47       1.0  0.33802  0.56840  0.70058  1.0000
  C   C48       1.0  0.36034  0.61957  0.67104  1.0000
  C  Sn13      1.0  0.43266  0.62922  0.66288  1.0000
  C  Sn14      1.0  0.48346  0.58674  0.68474  1.0000
  C   C49       1.0  0.46058  0.53565  0.71421  1.0000
  C   C50       1.0  0.38808  0.52646  0.72215  1.0000
  H   H21       1.0  0.28193  0.56125  0.70671  1.0000
  O  Te13      1.0  0.45405  0.68060  0.63327  1.0000
  O  Te14      1.0  0.55607  0.59525  0.67718  1.0000
  H   H22       1.0  0.37082  0.48680  0.74500  1.0000
  Mg  Mg7       1.0  0.55896  0.67229  0.63392  1.0000
  C   C51       1.0  0.64165  0.45503  0.71500  1.0000
  C   C52       1.0  0.56765  0.45863  0.71780  1.0000
  C  Sn15      1.0  0.52512  0.41466  0.69201  1.0000
  C  Sn16      1.0  0.55744  0.36623  0.66291  1.0000
  C   C53       1.0  0.63153  0.36300  0.66037  1.0000
  C   C54       1.0  0.67357  0.40726  0.68632  1.0000
  H   H23       1.0  0.67419  0.48924  0.73509  1.0000
  O  Te15      1.0  0.45127  0.41896  0.69521  1.0000
  O  Te16      1.0  0.51621  0.32165  0.63677  1.0000
  H   H24       1.0  0.73087  0.40443  0.68416  1.0000
  Mg  Mg8       1.0  0.41774  0.34722  0.65282  1.0000
  C   C55       1.0  0.26802  0.78803  0.43223  1.0000
  C   C56       1.0  0.24225  0.73470  0.40473  1.0000
  C  Sn17      1.0  0.16915  0.72575  0.39882  1.0000
  C  Sn18      1.0  0.12108  0.77113  0.42090  1.0000
  C   C57       1.0  0.14739  0.82436  0.44831  1.0000
  C   C58       1.0  0.22064  0.83283  0.45400  1.0000
  H   H25       1.0  0.32470  0.79462  0.43661  1.0000
  O  Te17      1.0  0.14431  0.67218  0.37124  1.0000
  O  Te18      1.0  0.04776  0.76337  0.41557  1.0000
  H   H26       1.0  0.24058  0.87416  0.47527  1.0000
  Mg  Mg9       1.0  0.03974  0.68260  0.37455  1.0000
  C   C59       1.0  0.85655  0.27476  0.41192  1.0000
  C   C60       1.0  0.78634  0.26924  0.39760  1.0000
  C  Sn19      1.0  0.74294  0.21337  0.41172  1.0000
  C  Sn20      1.0  0.77051  0.16217  0.44073  1.0000
  C   C61       1.0  0.84081  0.16818  0.45489  1.0000
  C   C62       1.0  0.88377  0.22429  0.44054  1.0000
  H   H27       1.0  0.88979  0.31819  0.40084  1.0000
  O  Te19      1.0  0.67292  0.20865  0.39708  1.0000
  O  Te20      1.0  0.72829  0.10580  0.45537  1.0000
  H   H28       1.0  0.93812  0.22857  0.45165  1.0000
  Mg  Mg10      1.0  0.63626  0.12218  0.42622  1.0000
  C   C63       1.0  0.17540  0.25592  0.94411  1.0000
  C   C64       1.0  0.16360  0.18221  0.94785  1.0000
  C  Sn21      1.0  0.20636  0.13355  0.92569  1.0000
  C  Sn22      1.0  0.26192  0.15932  0.89934  1.0000
  C   C65       1.0  0.27332  0.23315  0.89584  1.0000
  C   C66       1.0  0.23021  0.28138  0.91813  1.0000
  H   H29       1.0  0.14207  0.29323  0.96137  1.0000
  O  Te21      1.0  0.19383  0.06009  0.92978  1.0000
  O  Te22      1.0  0.30547  0.11187  0.87686  1.0000
  H   H30       1.0  0.23938  0.33844  0.91525  1.0000
  Mg  Mg11      1.0  0.26743  0.01664  0.89276  1.0000
  C   C67       1.0  0.73872  0.86351  0.89995  1.0000
  C   C68       1.0  0.73795  0.79106  0.88832  1.0000
  C  Sn23      1.0  0.78325  0.74257  0.90858  1.0000
  C  Sn24      1.0  0.83011  0.76721  0.94109  1.0000
  C   C69       1.0  0.83044  0.83978  0.95251  1.0000
  C   C70       1.0  0.78491  0.88785  0.93202  1.0000
  H   H31       1.0  0.70347  0.90070  0.88411  1.0000
  O  Te23      1.0  0.78182  0.67038  0.89656  1.0000
  O  Te24      1.0  0.87593  0.71989  0.96188  1.0000
  H   H32       1.0  0.78548  0.94393  0.94105  1.0000
  Mg  Mg12      1.0  0.85434  0.62661  0.93424  1.0000
  C   C71       1.0  0.75781  0.18500  0.55411  1.0000
  C   C72       1.0  0.83095  0.17782  0.54788  1.0000
  C  Sn25      1.0  0.87877  0.21712  0.57297  1.0000
  C  Sn26      1.0  0.85273  0.26443  0.60488  1.0000
  C   C73       1.0  0.77946  0.27120  0.61089  1.0000
  C   C74       1.0  0.73207  0.23164  0.58559  1.0000
  H   H33       1.0  0.72114  0.15436  0.53456  1.0000
  O  Te25      1.0  0.95168  0.20932  0.56631  1.0000
  O  Te26      1.0  0.89934  0.30434  0.63042  1.0000
  H   H34       1.0  0.67544  0.23718  0.59044  1.0000
  Mg  Mg13      1.0  0.99405  0.27525  0.60919  1.0000
  C   C75       1.0  0.13824  0.72136  0.59086  1.0000
  C   C76       1.0  0.21114  0.71622  0.59890  1.0000
  C  Sn27      1.0  0.25768  0.76832  0.58338  1.0000
  C  Sn28      1.0  0.23059  0.82659  0.55938  1.0000
  C   C77       1.0  0.15756  0.83128  0.55154  1.0000
  C   C78       1.0  0.11147  0.77884  0.56721  1.0000
  H   H35       1.0  0.10257  0.68081  0.60301  1.0000
  O  Te27      1.0  0.33037  0.76235  0.59169  1.0000
  O  Te28      1.0  0.27591  0.87942  0.54350  1.0000
  H   H36       1.0  0.05503  0.78286  0.56100  1.0000
  Mg  Mg14      1.0  0.37081  0.84775  0.56324  1.0000
  C   C79       1.0  0.80866  0.75240  0.05164  1.0000
  C   C80       1.0  0.82225  0.82585  0.04833  1.0000
  C  Sn29      1.0  0.79347  0.87380  0.07799  1.0000
  C  Sn30      1.0  0.75031  0.84755  0.11155  1.0000
  C   C81       1.0  0.73707  0.77396  0.11460  1.0000
  C   C82       1.0  0.76613  0.72646  0.08475  1.0000
  H   H37       1.0  0.83117  0.71564  0.02856  1.0000
  O  Te29      1.0  0.80756  0.94702  0.07420  1.0000
  O  Te30      1.0  0.72089  0.89428  0.14164  1.0000
  H   H38       1.0  0.75563  0.66959  0.08733  1.0000
  Mg  Mg15      1.0  0.75541  0.98943  0.12300  1.0000
  C   C83       1.0  0.20307  0.27489  0.07226  1.0000
  C   C84       1.0  0.24944  0.24572  0.10246  1.0000
  C  Sn31      1.0  0.25741  0.17145  0.10554  1.0000
  C  Sn32      1.0  0.21818  0.12567  0.07783  1.0000
  C   C85       1.0  0.17196  0.15539  0.04770  1.0000
  C   C86       1.0  0.16438  0.22979  0.04490  1.0000
  H   H39       1.0  0.19723  0.33245  0.07007  1.0000
  O  Te31      1.0  0.30395  0.14319  0.13590  1.0000
  O  Te32      1.0  0.22515  0.05126  0.08021  1.0000
  H   H40       1.0  0.12851  0.25236  0.02150  1.0000
  Mg  Mg16      1.0  0.29521  0.03834  0.12684  1.0000
