data_image0
_chemical_formula_structural       H32C40S8N8SnCSn2CSnTe4Mg2SnCSn2CSnTe4Mg2SnCSn2CSnTe4Mg2SnCSn2CSnTe4Mg2SnCSn2CSnTe4Mg2SnCSn2CSnTe4Mg2SnCSn2CSnTe4Mg2SnCSn2CSnTe4Mg2
_chemical_formula_sum              "H32 C56 S8 N8 Sn32 Te32 Mg16"
_cell_length_a       21.3713
_cell_length_b       21.4838
_cell_length_c       26.012
_cell_angle_alpha    90.2239
_cell_angle_beta     89.9284
_cell_angle_gamma    90.0745

_symmetry_space_group_name_H-M    'P1'
_space_group_IT_number       1

loop_
  _space_group_symop_operation_xyz
  'x, y, z'

loop_
  _atom_site_type_symbol
  _atom_site_label
  _atom_site_symmetry_multiplicity
  _atom_site_fract_x
  _atom_site_fract_y
  _atom_site_fract_z
  _atom_site_occupancy
  H   H1        1.0  0.54609  0.33419  0.21397  1.0000
  H   H2        1.0  0.37741  0.57949  0.22677  1.0000
  H   H3        1.0  0.57403  0.54436  0.73268  1.0000
  H   H4        1.0  0.33888  0.37723  0.71445  1.0000
  H   H5        1.0  0.37962  0.58290  0.55384  1.0000
  H   H6        1.0  0.54535  0.35208  0.54037  1.0000
  H   H7        1.0  0.36152  0.39111  0.03374  1.0000
  H   H8        1.0  0.58600  0.54962  0.05760  1.0000
  H   H9        1.0  0.35926  0.41017  0.16033  1.0000
  H   H10       1.0  0.56702  0.51707  0.16607  1.0000
  H   H11       1.0  0.52286  0.36062  0.65998  1.0000
  H   H12       1.0  0.41207  0.56584  0.66249  1.0000
  H   H13       1.0  0.56943  0.51772  0.61092  1.0000
  H   H14       1.0  0.36332  0.40809  0.61552  1.0000
  H   H15       1.0  0.41187  0.56792  0.11543  1.0000
  H   H16       1.0  0.51857  0.36171  0.11402  1.0000
  H   H17       1.0  0.39987  0.36740  0.11260  1.0000
  H   H18       1.0  0.52856  0.56258  0.11929  1.0000
  H   H19       1.0  0.56507  0.40071  0.61183  1.0000
  H   H20       1.0  0.36729  0.52510  0.61607  1.0000
  H   H21       1.0  0.53098  0.56142  0.65935  1.0000
  H   H22       1.0  0.40570  0.36473  0.66158  1.0000
  H   H23       1.0  0.36512  0.52799  0.16079  1.0000
  H   H24       1.0  0.56158  0.40084  0.16262  1.0000
  H   H25       1.0  0.46800  0.42359  0.73151  1.0000
  H   H26       1.0  0.47120  0.50592  0.73007  1.0000
  H   H27       1.0  0.50187  0.45991  0.23372  1.0000
  H   H28       1.0  0.41901  0.46434  0.23151  1.0000
  H   H29       1.0  0.46882  0.50721  0.04615  1.0000
  H   H30       1.0  0.46482  0.42479  0.04479  1.0000
  H   H31       1.0  0.42270  0.46466  0.54467  1.0000
  H   H32       1.0  0.50555  0.46141  0.54277  1.0000
  C   C1        1.0  0.48459  0.10994  0.35981  1.0000
  C   C2        1.0  0.44052  0.81452  0.36380  1.0000
  C   C3        1.0  0.81648  0.48968  0.86310  1.0000
  C   C4        1.0  0.11245  0.44304  0.86015  1.0000
  C   C5        1.0  0.44216  0.81558  0.41600  1.0000
  C   C6        1.0  0.48374  0.11116  0.41204  1.0000
  C   C7        1.0  0.11419  0.44878  0.91219  1.0000
  C   C8        1.0  0.81739  0.49170  0.91538  1.0000
  C   C9        1.0  0.46151  0.46280  0.20769  1.0000
  C   C10       1.0  0.46907  0.46401  0.70580  1.0000
  C   C11       1.0  0.46493  0.46292  0.56868  1.0000
  C   C12       1.0  0.46572  0.46556  0.07043  1.0000
  C   C13       1.0  0.49766  0.32091  0.22332  1.0000
  C   C14       1.0  0.42479  0.59883  0.23167  1.0000
  C   C15       1.0  0.60068  0.50055  0.73066  1.0000
  C   C16       1.0  0.32615  0.42522  0.72505  1.0000
  C   C17       1.0  0.42739  0.60094  0.54822  1.0000
  C   C18       1.0  0.49944  0.32875  0.54216  1.0000
  C   C19       1.0  0.33428  0.43422  0.03926  1.0000
  C   C20       1.0  0.60403  0.50217  0.05151  1.0000
  C   C21       1.0  0.46207  0.93096  0.38796  1.0000
  C   C22       1.0  0.47125  0.99369  0.38719  1.0000
  C   C23       1.0  0.99611  0.45962  0.88778  1.0000
  C   C24       1.0  0.93312  0.46880  0.88832  1.0000
  C   C25       1.0  0.40579  0.46831  0.10352  1.0000
  C   C26       1.0  0.52392  0.46181  0.10543  1.0000
  C   C27       1.0  0.46331  0.40420  0.60267  1.0000
  C   C28       1.0  0.46854  0.52194  0.60270  1.0000
  C   C29       1.0  0.52719  0.46080  0.67060  1.0000
  C   C30       1.0  0.40880  0.46568  0.67319  1.0000
  C   C31       1.0  0.46614  0.52228  0.17481  1.0000
  C   C32       1.0  0.45964  0.40458  0.17260  1.0000
  C   C33       1.0  0.40211  0.40924  0.13698  1.0000
  C   C34       1.0  0.52556  0.51910  0.14121  1.0000
  C   C35       1.0  0.52290  0.40254  0.63595  1.0000
  C   C36       1.0  0.41085  0.52374  0.63840  1.0000
  C   C37       1.0  0.52807  0.51878  0.63603  1.0000
  C   C38       1.0  0.40626  0.40758  0.63872  1.0000
  C   C39       1.0  0.40910  0.52567  0.13902  1.0000
  C   C40       1.0  0.51907  0.40309  0.13903  1.0000
  S   S1        1.0  0.45752  0.88785  0.44560  1.0000
  S   S2        1.0  0.47846  0.03896  0.44377  1.0000
  S   S3        1.0  0.04191  0.45792  0.94420  1.0000
  S   S4        1.0  0.88969  0.47798  0.94559  1.0000
  S   S5        1.0  0.47984  0.03655  0.32974  1.0000
  S   S6        1.0  0.45392  0.88535  0.33170  1.0000
  S   S7        1.0  0.88798  0.47404  0.83176  1.0000
  S   S8        1.0  0.03867  0.44594  0.83061  1.0000
  N   N1        1.0  0.44990  0.35011  0.20581  1.0000
  N   N2        1.0  0.47324  0.57660  0.20890  1.0000
  N   N3        1.0  0.58436  0.45465  0.70182  1.0000
  N   N4        1.0  0.35537  0.47333  0.70830  1.0000
  N   N5        1.0  0.47570  0.57672  0.56945  1.0000
  N   N6        1.0  0.45434  0.34812  0.57064  1.0000
  N   N7        1.0  0.34950  0.47669  0.07173  1.0000
  N   N8        1.0  0.57956  0.45396  0.07254  1.0000
  C  Sn1       1.0  0.43044  0.18726  0.28321  1.0000
  C   C41       1.0  0.47986  0.15851  0.30898  1.0000
  C  Sn2       1.0  0.53774  0.18832  0.31337  1.0000
  C  Sn3       1.0  0.54641  0.24814  0.29158  1.0000
  C   C42       1.0  0.49701  0.27686  0.26584  1.0000
  C  Sn4       1.0  0.43911  0.24708  0.26142  1.0000
  O  Te1       1.0  0.37297  0.15660  0.27928  1.0000
  O  Te2       1.0  0.58646  0.15863  0.33930  1.0000
  O  Te3       1.0  0.60394  0.27879  0.29553  1.0000
  O  Te4       1.0  0.39041  0.27674  0.23552  1.0000
  Mg  Mg1       1.0  0.65602  0.21930  0.33453  1.0000
  Mg  Mg2       1.0  0.32083  0.21613  0.24029  1.0000
  C  Sn5       1.0  0.36753  0.69611  0.28761  1.0000
  C   C43       1.0  0.41600  0.66793  0.25997  1.0000
  C  Sn6       1.0  0.47833  0.68220  0.27109  1.0000
  C  Sn7       1.0  0.49252  0.72551  0.31069  1.0000
  C   C44       1.0  0.44407  0.75366  0.33832  1.0000
  C  Sn8       1.0  0.38172  0.73942  0.32722  1.0000
  O  Te5       1.0  0.30556  0.68114  0.27584  1.0000
  O  Te6       1.0  0.52598  0.65344  0.24291  1.0000
  O  Te7       1.0  0.55455  0.74046  0.32244  1.0000
  O  Te8       1.0  0.33409  0.76814  0.35538  1.0000
  Mg  Mg3       1.0  0.60307  0.68904  0.27331  1.0000
  Mg  Mg4       1.0  0.25699  0.73255  0.32503  1.0000
  C  Sn9       1.0  0.69091  0.55954  0.79353  1.0000
  C   C45       1.0  0.66915  0.51355  0.75985  1.0000
  C  Sn10      1.0  0.69101  0.45249  0.76365  1.0000
  C  Sn11      1.0  0.73552  0.43707  0.80192  1.0000
  C   C46       1.0  0.75726  0.48304  0.83557  1.0000
  C  Sn12      1.0  0.73543  0.54411  0.83180  1.0000
  O  Te9       1.0  0.66841  0.62027  0.78904  1.0000
  O  Te10      1.0  0.66858  0.40732  0.72953  1.0000
  O  Te11      1.0  0.75802  0.37627  0.80639  1.0000
  O  Te12      1.0  0.75783  0.58927  0.86589  1.0000
  Mg  Mg5       1.0  0.71333  0.33111  0.75102  1.0000
  Mg  Mg6       1.0  0.71309  0.66547  0.84446  1.0000
  C  Sn13      1.0  0.19571  0.49576  0.78745  1.0000
  C   C47       1.0  0.16293  0.44704  0.81066  1.0000
  C  Sn14      1.0  0.18854  0.38728  0.81219  1.0000
  C  Sn15      1.0  0.24818  0.37600  0.79008  1.0000
  C   C48       1.0  0.28093  0.42471  0.76690  1.0000
  C  Sn16      1.0  0.25535  0.48448  0.76534  1.0000
  O  Te13      1.0  0.16921  0.55513  0.78637  1.0000
  O  Te14      1.0  0.15488  0.33931  0.83559  1.0000
  O  Te15      1.0  0.27466  0.31658  0.79118  1.0000
  O  Te16      1.0  0.28898  0.53243  0.74197  1.0000
  Mg  Mg7       1.0  0.21070  0.26646  0.82742  1.0000
  Mg  Mg8       1.0  0.23322  0.60531  0.75014  1.0000
  C  Sn17      1.0  0.49007  0.71004  0.51408  1.0000
  C   C49       1.0  0.43823  0.67213  0.52380  1.0000
  C  Sn18      1.0  0.38522  0.67550  0.49258  1.0000
  C  Sn19      1.0  0.38400  0.71763  0.45074  1.0000
  C   C50       1.0  0.43581  0.75550  0.44103  1.0000
  C  Sn20      1.0  0.48885  0.75216  0.47224  1.0000
  O  Te17      1.0  0.54256  0.70588  0.54579  1.0000
  O  Te18      1.0  0.33396  0.63715  0.50307  1.0000
  O  Te19      1.0  0.33144  0.72176  0.41903  1.0000
  O  Te20      1.0  0.54008  0.79049  0.46176  1.0000
  Mg  Mg9       1.0  0.27328  0.65986  0.44886  1.0000
  Mg  Mg10      1.0  0.60080  0.76779  0.51592  1.0000
  C  Sn21      1.0  0.53976  0.25751  0.45754  1.0000
  C   C51       1.0  0.49540  0.27884  0.49295  1.0000
  C  Sn22      1.0  0.44665  0.24004  0.50888  1.0000
  C  Sn23      1.0  0.44217  0.17861  0.48903  1.0000
  C   C52       1.0  0.48653  0.15731  0.45365  1.0000
  C  Sn24      1.0  0.53529  0.19609  0.43769  1.0000
  O  Te21      1.0  0.58811  0.29711  0.44217  1.0000
  O  Te22      1.0  0.40284  0.26241  0.54430  1.0000
  O  Te23      1.0  0.39378  0.13902  0.50444  1.0000
  O  Te24      1.0  0.57908  0.17374  0.40230  1.0000
  Mg  Mg11      1.0  0.34553  0.19082  0.55348  1.0000
  Mg  Mg12      1.0  0.63642  0.24527  0.39311  1.0000
  C  Sn25      1.0  0.20361  0.50601  0.97816  1.0000
  C   C53       1.0  0.18249  0.46289  0.94173  1.0000
  C  Sn26      1.0  0.20715  0.40273  0.94036  1.0000
  C  Sn27      1.0  0.25387  0.38527  0.97618  1.0000
  C   C54       1.0  0.27647  0.42364  0.01259  1.0000
  C  Sn28      1.0  0.25184  0.48382  0.01398  1.0000
  O  Te25      1.0  0.17829  0.56590  0.97883  1.0000
  O  Te26      1.0  0.18530  0.36044  0.90357  1.0000
  O  Te27      1.0  0.27918  0.32532  0.97549  1.0000
  O  Te28      1.0  0.27365  0.52609  0.05075  1.0000
  Mg  Mg13      1.0  0.23422  0.28433  0.91810  1.0000
  Mg  Mg14      1.0  0.22474  0.60220  0.03627  1.0000
  C  Sn29      1.0  0.71215  0.44044  0.01269  1.0000
  C   C55       1.0  0.67482  0.49163  0.02535  1.0000
  C  Sn30      1.0  0.67654  0.55085  0.99634  1.0000
  C  Sn31      1.0  0.71791  0.55424  0.95377  1.0000
  C   C56       1.0  0.75520  0.50307  0.94112  1.0000
  C  Sn32      1.0  0.75201  0.44856  0.97012  1.0000
  O  Te29      1.0  0.70815  0.38644  0.04223  1.0000
  O  Te30      1.0  0.64029  0.59669  0.00975  1.0000
  O  Te31      1.0  0.72189  0.60831  0.92423  1.0000
  O  Te32      1.0  0.78974  0.39801  0.95672  1.0000
  Mg  Mg15      1.0  0.66098  0.66477  0.95773  1.0000
  Mg  Mg16      1.0  0.76906  0.32990  0.00870  1.0000
