data_image0
_chemical_formula_structural       H40C70S8N8C2Sn2C2HTe2HMgC2Sn2C2HTe2HMgC2Sn2C2HTe2HMgC2Sn2C2HTe2HMgC2Sn2C2HTe2HMgC2Sn2C2HTe2HMgC2Sn2C2HTe2HMgC2Sn2C2HTe2HMg
_chemical_formula_sum              "H56 C102 S8 N8 Sn16 Te16 Mg8"
_cell_length_a       18.819
_cell_length_b       18.6484
_cell_length_c       31.3138
_cell_angle_alpha    90.2836
_cell_angle_beta     90.1882
_cell_angle_gamma    90.0969

_symmetry_space_group_name_H-M    'P1'
_space_group_IT_number       1

loop_
  _space_group_symop_operation_xyz
  'x, y, z'

loop_
  _atom_site_type_symbol
  _atom_site_label
  _atom_site_symmetry_multiplicity
  _atom_site_fract_x
  _atom_site_fract_y
  _atom_site_fract_z
  _atom_site_occupancy
  H   H1        1.0  0.40201  0.27935  0.79941  1.0000
  H   H2        1.0  0.57908  0.72095  0.80453  1.0000
  H   H3        1.0  0.58169  0.72205  0.19485  1.0000
  H   H4        1.0  0.72273  0.43019  0.69033  1.0000
  H   H5        1.0  0.48197  0.34679  0.75315  1.0000
  H   H6        1.0  0.50483  0.64832  0.75678  1.0000
  H   H7        1.0  0.51160  0.65078  0.24452  1.0000
  H   H8        1.0  0.64898  0.49887  0.73985  1.0000
  H   H9        1.0  0.41809  0.54376  0.81350  1.0000
  H   H10       1.0  0.59105  0.45566  0.81065  1.0000
  H   H11       1.0  0.58822  0.45705  0.18618  1.0000
  H   H12       1.0  0.46079  0.40125  0.68730  1.0000
  H   H13       1.0  0.33663  0.47522  0.86062  1.0000
  H   H14       1.0  0.66851  0.52947  0.85827  1.0000
  H   H15       1.0  0.66247  0.52926  0.13724  1.0000
  H   H16       1.0  0.53615  0.32861  0.63842  1.0000
  H   H17       1.0  0.12871  0.26800  0.96621  1.0000
  H   H18       1.0  0.87202  0.73973  0.96019  1.0000
  H   H19       1.0  0.25664  0.87349  0.54347  1.0000
  H   H20       1.0  0.13307  0.26891  0.03406  1.0000
  H   H21       1.0  0.21364  0.33306  0.91916  1.0000
  H   H22       1.0  0.78860  0.67511  0.91113  1.0000
  H   H23       1.0  0.32208  0.78491  0.58826  1.0000
  H   H24       1.0  0.21688  0.33178  0.08354  1.0000
  H   H25       1.0  0.30036  0.13118  0.87786  1.0000
  H   H26       1.0  0.69645  0.87654  0.87489  1.0000
  H   H27       1.0  0.12707  0.67009  0.60939  1.0000
  H   H28       1.0  0.29593  0.12818  0.12609  1.0000
  H   H29       1.0  0.21647  0.06642  0.92535  1.0000
  H   H30       1.0  0.77673  0.94055  0.92558  1.0000
  H   H31       1.0  0.06205  0.75770  0.56442  1.0000
  H   H32       1.0  0.21493  0.06531  0.07530  1.0000
  H   H33       1.0  0.23692  0.65281  0.34231  1.0000
  H   H34       1.0  0.75762  0.36500  0.36090  1.0000
  H   H35       1.0  0.35075  0.23529  0.85115  1.0000
  H   H36       1.0  0.65516  0.76983  0.84092  1.0000
  H   H37       1.0  0.77306  0.34513  0.65860  1.0000
  H   H38       1.0  0.23621  0.62349  0.63912  1.0000
  H   H39       1.0  0.67254  0.76602  0.16635  1.0000
  H   H40       1.0  0.33876  0.23308  0.15977  1.0000
  C   C1        1.0  0.87477  0.88275  0.97803  1.0000
  C   C2        1.0  0.11929  0.12393  0.97826  1.0000
  C   C3        1.0  0.11514  0.86851  0.47842  1.0000
  C   C4        1.0  0.88612  0.12383  0.47845  1.0000
  C   C5        1.0  0.11966  0.12426  0.02175  1.0000
  C   C6        1.0  0.87381  0.88342  0.02164  1.0000
  C   C7        1.0  0.88870  0.12602  0.52187  1.0000
  C   C8        1.0  0.11671  0.87083  0.52183  1.0000
  C   C9        1.0  0.40479  0.33734  0.80302  1.0000
  C   C10       1.0  0.58388  0.66289  0.80563  1.0000
  C   C11       1.0  0.58653  0.66397  0.19381  1.0000
  C   C12       1.0  0.66557  0.42129  0.69019  1.0000
  C   C13       1.0  0.44998  0.37586  0.77625  1.0000
  C   C14       1.0  0.54128  0.62158  0.77843  1.0000
  C   C15       1.0  0.54613  0.62324  0.22209  1.0000
  C   C16       1.0  0.62345  0.46080  0.71835  1.0000
  C   C17       1.0  0.45462  0.45080  0.77866  1.0000
  C   C18       1.0  0.54467  0.54650  0.77856  1.0000
  C   C19       1.0  0.54827  0.54801  0.22153  1.0000
  C   C20       1.0  0.54922  0.45287  0.71921  1.0000
  C   C21       1.0  0.41409  0.48579  0.81018  1.0000
  C   C22       1.0  0.58968  0.51389  0.80866  1.0000
  C   C23       1.0  0.58953  0.51512  0.18959  1.0000
  C   C24       1.0  0.51836  0.40584  0.68910  1.0000
  C   C25       1.0  0.36873  0.44787  0.83677  1.0000
  C   C26       1.0  0.63285  0.55470  0.83547  1.0000
  C   C27       1.0  0.63060  0.55532  0.16167  1.0000
  C   C28       1.0  0.56003  0.36559  0.66132  1.0000
  C   C29       1.0  0.36291  0.37270  0.83374  1.0000
  C   C30       1.0  0.63206  0.63022  0.83393  1.0000
  C   C31       1.0  0.63158  0.63082  0.16387  1.0000
  C   C32       1.0  0.63472  0.37132  0.66181  1.0000
  C   C33       1.0  0.16821  0.16302  0.94986  1.0000
  C   C34       1.0  0.82708  0.84394  0.94818  1.0000
  C   C35       1.0  0.15534  0.82040  0.54998  1.0000
  C   C36       1.0  0.16917  0.16281  0.05059  1.0000
  C   C37       1.0  0.16728  0.23844  0.94736  1.0000
  C   C38       1.0  0.83141  0.76905  0.94281  1.0000
  C   C39       1.0  0.22869  0.82840  0.55758  1.0000
  C   C40       1.0  0.16999  0.23828  0.05345  1.0000
  C   C41       1.0  0.21403  0.27480  0.92083  1.0000
  C   C42       1.0  0.78593  0.73301  0.91501  1.0000
  C   C43       1.0  0.26529  0.77948  0.58265  1.0000
  C   C44       1.0  0.21616  0.27355  0.08125  1.0000
  C   C45       1.0  0.26292  0.23649  0.89557  1.0000
  C   C46       1.0  0.73583  0.77116  0.89063  1.0000
  C   C47       1.0  0.22950  0.72120  0.60129  1.0000
  C   C48       1.0  0.26228  0.23427  0.10779  1.0000
  C   C49       1.0  0.26299  0.16106  0.89754  1.0000
  C   C50       1.0  0.73409  0.84644  0.89423  1.0000
  C   C51       1.0  0.15573  0.71435  0.59474  1.0000
  C   C52       1.0  0.26043  0.15887  0.10564  1.0000
  C   C53       1.0  0.21607  0.12469  0.92404  1.0000
  C   C54       1.0  0.77883  0.88242  0.92270  1.0000
  C   C55       1.0  0.11901  0.76349  0.56952  1.0000
  C   C56       1.0  0.21496  0.12357  0.07732  1.0000
  C   C57       1.0  0.27011  0.68075  0.36614  1.0000
  C   C58       1.0  0.72740  0.31807  0.37188  1.0000
  C   C59       1.0  0.31337  0.27177  0.86722  1.0000
  C   C60       1.0  0.68633  0.73453  0.86183  1.0000
  C   C61       1.0  0.73901  0.31809  0.63479  1.0000
  C   C62       1.0  0.26775  0.66897  0.62732  1.0000
  C   C63       1.0  0.69170  0.73328  0.13941  1.0000
  C   C64       1.0  0.31165  0.26930  0.13735  1.0000
  C   C65       1.0  0.02639  0.97062  0.49957  1.0000
  C   C66       1.0  0.97888  0.02561  0.49959  1.0000
  C   C67       1.0  0.02289  0.02927  0.99989  1.0000
  C   C68       1.0  0.97162  0.97764  0.99992  1.0000
  C   C69       1.0  0.50355  0.49986  0.25128  1.0000
  C   C70       1.0  0.50034  0.49760  0.74872  1.0000
  S   S1        1.0  0.05927  0.93049  0.45243  1.0000
  S   S2        1.0  0.94152  0.06161  0.45252  1.0000
  S   S3        1.0  0.05830  0.06612  0.95264  1.0000
  S   S4        1.0  0.93666  0.93910  0.95279  1.0000
  S   S5        1.0  0.94745  0.06582  0.54710  1.0000
  S   S6        1.0  0.06269  0.93499  0.54707  1.0000
  S   S7        1.0  0.93576  0.94108  0.04708  1.0000
  S   S8        1.0  0.05898  0.06649  0.04718  1.0000
  N   N1        1.0  0.33841  0.67412  0.36768  1.0000
  N   N2        1.0  0.66104  0.30943  0.36242  1.0000
  N   N3        1.0  0.31419  0.34035  0.86172  1.0000
  N   N4        1.0  0.67994  0.66552  0.86155  1.0000
  N   N5        1.0  0.67090  0.32653  0.63298  1.0000
  N   N6        1.0  0.33468  0.67619  0.63553  1.0000
  N   N7        1.0  0.67594  0.66614  0.13470  1.0000
  N   N8        1.0  0.32202  0.33777  0.13672  1.0000
  C   C71       1.0  0.85655  0.27476  0.41192  1.0000
  C   C72       1.0  0.78634  0.26924  0.39760  1.0000
  C  Sn1       1.0  0.74294  0.21337  0.41172  1.0000
  C  Sn2       1.0  0.77051  0.16217  0.44073  1.0000
  C   C73       1.0  0.84081  0.16818  0.45489  1.0000
  C   C74       1.0  0.88377  0.22429  0.44054  1.0000
  H   H41       1.0  0.88979  0.31819  0.40084  1.0000
  O  Te1       1.0  0.67292  0.20865  0.39708  1.0000
  O  Te2       1.0  0.72829  0.10580  0.45537  1.0000
  H   H42       1.0  0.93812  0.22857  0.45165  1.0000
  Mg  Mg1       1.0  0.63626  0.12218  0.42622  1.0000
  C   C75       1.0  0.43194  0.33778  0.20124  1.0000
  C   C76       1.0  0.38021  0.36111  0.17239  1.0000
  C  Sn3       1.0  0.36909  0.43436  0.16609  1.0000
  C  Sn4       1.0  0.41062  0.48507  0.18914  1.0000
  C   C77       1.0  0.46227  0.46118  0.21792  1.0000
  C   C78       1.0  0.47294  0.38776  0.22398  1.0000
  H   H43       1.0  0.44023  0.28097  0.20592  1.0000
  O  Te3       1.0  0.31717  0.45675  0.13715  1.0000
  O  Te4       1.0  0.40063  0.55859  0.18345  1.0000
  H   H44       1.0  0.51303  0.36971  0.24631  1.0000
  Mg  Mg2       1.0  0.32339  0.56267  0.14045  1.0000
  C   C79       1.0  0.13935  0.73316  0.39947  1.0000
  C   C80       1.0  0.21263  0.72902  0.39283  1.0000
  C  Sn5       1.0  0.25923  0.77003  0.41778  1.0000
  C  Sn6       1.0  0.23180  0.81599  0.44997  1.0000
  C   C81       1.0  0.15841  0.81971  0.45639  1.0000
  C   C82       1.0  0.11226  0.77845  0.43123  1.0000
  H   H45       1.0  0.10364  0.70121  0.38002  1.0000
  O  Te5       1.0  0.33229  0.76527  0.41071  1.0000
  O  Te6       1.0  0.27718  0.85755  0.47538  1.0000
  H   H46       1.0  0.05553  0.78164  0.43640  1.0000
  Mg  Mg3       1.0  0.37264  0.83253  0.45355  1.0000
  C   C83       1.0  0.64066  0.43507  0.27922  1.0000
  C   C84       1.0  0.56771  0.44879  0.27781  1.0000
  C  Sn7       1.0  0.52230  0.41736  0.30758  1.0000
  C  Sn8       1.0  0.55060  0.37139  0.33932  1.0000
  C   C85       1.0  0.62366  0.35804  0.34048  1.0000
  C   C86       1.0  0.66862  0.38975  0.31053  1.0000
  H   H47       1.0  0.67546  0.45963  0.25606  1.0000
  O  Te7       1.0  0.44955  0.43163  0.30571  1.0000
  O  Te8       1.0  0.50642  0.33929  0.36948  1.0000
  H   H48       1.0  0.72511  0.37916  0.31164  1.0000
  Mg  Mg4       1.0  0.41093  0.37522  0.35380  1.0000
  C   C87       1.0  0.75775  0.86205  0.11003  1.0000
  C   C88       1.0  0.73761  0.78989  0.11032  1.0000
  C  Sn9       1.0  0.76576  0.74207  0.08037  1.0000
  C  Sn10      1.0  0.81500  0.76712  0.04961  1.0000
  C   C89       1.0  0.83484  0.83940  0.04961  1.0000
  C   C90       1.0  0.80633  0.88679  0.07971  1.0000
  H   H49       1.0  0.73572  0.89872  0.13333  1.0000
  O  Te9       1.0  0.74505  0.67016  0.08109  1.0000
  O  Te10      1.0  0.84398  0.72047  0.01932  1.0000
  H   H50       1.0  0.82196  0.94265  0.07950  1.0000
  Mg  Mg5       1.0  0.79924  0.62734  0.03325  1.0000
  C   C91       1.0  0.86798  0.25768  0.60329  1.0000
  C   C92       1.0  0.79528  0.27253  0.60505  1.0000
  C  Sn11      1.0  0.74751  0.23410  0.57944  1.0000
  C  Sn12      1.0  0.77315  0.17982  0.55160  1.0000
  C   C93       1.0  0.84597  0.16534  0.55010  1.0000
  C   C94       1.0  0.89331  0.20413  0.57585  1.0000
  H   H51       1.0  0.90460  0.28766  0.62323  1.0000
  O  Te11      1.0  0.67505  0.24965  0.58158  1.0000
  O  Te12      1.0  0.72657  0.14058  0.52567  1.0000
  H   H52       1.0  0.94958  0.19259  0.57450  1.0000
  Mg  Mg6       1.0  0.63256  0.18154  0.53998  1.0000
  C   C95       1.0  0.34192  0.56906  0.30019  1.0000
  C   C96       1.0  0.36415  0.61368  0.33366  1.0000
  C  Sn13      1.0  0.43645  0.62680  0.34037  1.0000
  C  Sn14      1.0  0.48732  0.59458  0.31302  1.0000
  C   C97       1.0  0.46453  0.55006  0.27961  1.0000
  C   C98       1.0  0.39205  0.53729  0.27319  1.0000
  H   H53       1.0  0.28583  0.55921  0.29520  1.0000
  O  Te13      1.0  0.45775  0.67149  0.37397  1.0000
  O  Te14      1.0  0.55991  0.60679  0.31900  1.0000
  H   H54       1.0  0.37485  0.50278  0.24726  1.0000
  Mg  Mg7       1.0  0.56268  0.67176  0.36918  1.0000
  C   C99       1.0  0.33802  0.56840  0.70058  1.0000
  C   C100      1.0  0.36034  0.61957  0.67104  1.0000
  C  Sn15      1.0  0.43266  0.62922  0.66288  1.0000
  C  Sn16      1.0  0.48346  0.58674  0.68474  1.0000
  C   C101      1.0  0.46058  0.53565  0.71421  1.0000
  C   C102      1.0  0.38808  0.52646  0.72215  1.0000
  H   H55       1.0  0.28193  0.56125  0.70671  1.0000
  O  Te15      1.0  0.45405  0.68060  0.63327  1.0000
  O  Te16      1.0  0.55607  0.59525  0.67718  1.0000
  H   H56       1.0  0.37082  0.48680  0.74500  1.0000
  Mg  Mg8       1.0  0.55896  0.67229  0.63392  1.0000
