data_image0
_chemical_formula_structural       H104C200N32C2Sn2C2HTe2HMgC2Sn2C2HTe2HMgC2Sn2C2HTe2HMgC2Sn2C2HTe2HMgC2Sn2C2HTe2HMgC2Sn2C2HTe2HMgC2Sn2C2HTe2HMgC2Sn2C2HTe2HMgC2Sn2C2HTe2HMgC2Sn2C2HTe2HMgC2Sn2C2HTe2HMgC2Sn2C2HTe2HMgC2Sn2C2HTe2HMgC2Sn2C2HTe2HMgC2Sn2C2HTe2HMgC2Sn2C2HTe2HMg
_chemical_formula_sum              "H136 C264 N32 Sn32 Te32 Mg16"
_cell_length_a       31.8012
_cell_length_b       31.6543
_cell_length_c       9.37534
_cell_angle_alpha    91.0524
_cell_angle_beta     91.9367
_cell_angle_gamma    83.4928

_symmetry_space_group_name_H-M    'P1'
_space_group_IT_number       1

loop_
  _space_group_symop_operation_xyz
  'x, y, z'

loop_
  _atom_site_type_symbol
  _atom_site_label
  _atom_site_symmetry_multiplicity
  _atom_site_fract_x
  _atom_site_fract_y
  _atom_site_fract_z
  _atom_site_occupancy
  H   H1        1.0  0.15355  0.29213  0.03343  1.0000
  H   H2        1.0  0.15277  0.12396  0.07500  1.0000
  H   H3        1.0  0.20950  0.05696  0.01663  1.0000
  H   H4        1.0  0.43869  0.08476  0.06903  1.0000
  H   H5        1.0  0.43976  0.25540  0.06925  1.0000
  H   H6        1.0  0.38081  0.32122  0.01605  1.0000
  H   H7        1.0  0.27334  0.16754  0.03541  1.0000
  H   H8        1.0  0.32022  0.20860  0.01557  1.0000
  H   H9        1.0  0.46121  0.20591  0.25634  1.0000
  H   H10       1.0  0.53974  0.19899  0.24605  1.0000
  H   H11       1.0  0.19735  0.34526  0.53334  1.0000
  H   H12       1.0  0.38110  0.04617  0.47396  1.0000
  H   H13       1.0  0.47262  0.14787  0.44554  1.0000
  H   H14       1.0  0.54607  0.16153  0.51503  1.0000
  H   H15       1.0  0.31423  0.32931  0.25481  1.0000
  H   H16       1.0  0.32792  0.40318  0.19734  1.0000
  H   H17       1.0  0.24863  0.05494  0.27644  1.0000
  H   H18       1.0  0.23946  0.97887  0.22526  1.0000
  H   H19       1.0  0.37268  0.53045  0.09313  1.0000
  H   H20       1.0  0.37173  0.60523  0.15775  1.0000
  H   H21       1.0  0.36908  0.62464  0.42136  1.0000
  H   H22       1.0  0.44120  0.63560  0.36602  1.0000
  H   H23       1.0  0.34238  0.74291  0.43241  1.0000
  H   H24       1.0  0.20990  0.74838  0.44633  1.0000
  H   H25       1.0  0.34340  0.81681  0.36456  1.0000
  H   H26       1.0  0.13558  0.74146  0.49247  1.0000
  H   H27       1.0  0.94146  0.60675  0.10040  1.0000
  H   H28       1.0  0.93669  0.77812  0.06862  1.0000
  H   H29       1.0  0.87586  0.84062  0.00143  1.0000
  H   H30       1.0  0.65180  0.80369  0.10361  1.0000
  H   H31       1.0  0.65553  0.63406  0.02942  1.0000
  H   H32       1.0  0.71592  0.57152  0.96502  1.0000
  H   H33       1.0  0.81954  0.72605  0.03739  1.0000
  H   H34       1.0  0.77363  0.68441  0.04841  1.0000
  H   H35       1.0  0.93725  0.74064  0.30869  1.0000
  H   H36       1.0  0.01296  0.74418  0.37949  1.0000
  H   H37       1.0  0.83622  0.52435  0.10819  1.0000
  H   H38       1.0  0.75298  0.88792  0.11585  1.0000
  H   H39       1.0  0.76169  0.96160  0.05069  1.0000
  H   H40       1.0  0.88125  0.55247  0.45926  1.0000
  H   H41       1.0  0.71288  0.85947  0.48673  1.0000
  H   H42       1.0  0.62697  0.77087  0.39175  1.0000
  H   H43       1.0  0.54993  0.76927  0.38819  1.0000
  H   H44       1.0  0.73117  0.36888  0.08624  1.0000
  H   H45       1.0  0.73161  0.29466  0.15636  1.0000
  H   H46       1.0  0.84732  0.25987  0.18814  1.0000
  H   H47       1.0  0.92119  0.26515  0.25918  1.0000
  H   H48       1.0  0.83598  0.32326  0.30730  1.0000
  H   H49       1.0  0.83206  0.24975  0.38063  1.0000
  H   H50       1.0  0.87657  0.14687  0.42473  1.0000
  H   H51       1.0  0.95081  0.15331  0.49142  1.0000
  H   H52       1.0  0.82381  0.45061  0.03914  1.0000
  H   H53       1.0  0.14513  0.29229  0.62787  1.0000
  H   H54       1.0  0.15089  0.12077  0.57735  1.0000
  H   H55       1.0  0.21070  0.05849  0.50762  1.0000
  H   H56       1.0  0.43768  0.09967  0.54742  1.0000
  H   H57       1.0  0.42801  0.26890  0.52429  1.0000
  H   H58       1.0  0.36545  0.33097  0.47130  1.0000
  H   H59       1.0  0.26706  0.17361  0.54952  1.0000
  H   H60       1.0  0.31115  0.21661  0.53694  1.0000
  H   H61       1.0  0.42517  0.23153  0.78558  1.0000
  H   H62       1.0  0.49882  0.24543  0.85279  1.0000
  H   H63       1.0  0.25045  0.37695  0.63291  1.0000
  H   H64       1.0  0.33726  0.01671  0.61898  1.0000
  H   H65       1.0  0.32935  0.94080  0.56387  1.0000
  H   H66       1.0  0.21015  0.33899  0.93388  1.0000
  H   H67       1.0  0.37949  0.03356  0.00721  1.0000
  H   H68       1.0  0.45507  0.12781  0.87798  1.0000
  H   H69       1.0  0.53379  0.11816  0.87402  1.0000
  H   H70       1.0  0.25988  0.45087  0.56498  1.0000
  H   H71       1.0  0.36304  0.73076  0.71577  1.0000
  H   H72       1.0  0.43580  0.74224  0.65853  1.0000
  H   H73       1.0  0.23582  0.77818  0.69640  1.0000
  H   H74       1.0  0.25063  0.64956  0.74416  1.0000
  H   H75       1.0  0.23558  0.85277  0.63323  1.0000
  H   H76       1.0  0.17681  0.64335  0.80284  1.0000
  H   H77       1.0  0.25472  0.55982  0.84751  1.0000
  H   H78       1.0  0.25266  0.63335  0.92653  1.0000
  H   H79       1.0  0.93960  0.60159  0.55355  1.0000
  H   H80       1.0  0.93956  0.77102  0.58081  1.0000
  H   H81       1.0  0.88214  0.83644  0.51051  1.0000
  H   H82       1.0  0.65520  0.80973  0.56120  1.0000
  H   H83       1.0  0.65222  0.63932  0.52706  1.0000
  H   H84       1.0  0.71051  0.57335  0.47805  1.0000
  H   H85       1.0  0.82014  0.72463  0.52044  1.0000
  H   H86       1.0  0.77209  0.68544  0.51316  1.0000
  H   H87       1.0  0.64182  0.68287  0.73874  1.0000
  H   H88       1.0  0.56381  0.67967  0.72905  1.0000
  H   H89       1.0  0.88619  0.55473  0.00519  1.0000
  H   H90       1.0  0.70541  0.85612  0.01868  1.0000
  H   H91       1.0  0.97567  0.64851  0.98165  1.0000
  H   H92       1.0  0.05078  0.65089  0.05684  1.0000
  H   H93       1.0  0.76048  0.57170  0.74396  1.0000
  H   H94       1.0  0.74582  0.49781  0.68086  1.0000
  H   H95       1.0  0.83205  0.84063  0.77118  1.0000
  H   H96       1.0  0.84304  0.91480  0.71301  1.0000
  H   H97       1.0  0.73481  0.36611  0.59538  1.0000
  H   H98       1.0  0.73048  0.29204  0.65911  1.0000
  H   H99       1.0  0.83593  0.25120  0.70456  1.0000
  H   H100      1.0  0.90963  0.25684  0.78420  1.0000
  H   H101      1.0  0.83967  0.33168  0.82251  1.0000
  H   H102      1.0  0.84061  0.25853  0.90417  1.0000
  H   H103      1.0  0.88423  0.14679  0.93988  1.0000
  H   H104      1.0  0.95878  0.15227  0.00232  1.0000
  C   C1        1.0  0.18686  0.28243  0.01922  1.0000
  C   C2        1.0  0.20914  0.24020  0.04370  1.0000
  C   C3        1.0  0.18910  0.20423  0.07825  1.0000
  C   C4        1.0  0.20795  0.16163  0.06430  1.0000
  C   C5        1.0  0.18628  0.12428  0.05960  1.0000
  C   C6        1.0  0.21523  0.08988  0.02818  1.0000
  C   C7        1.0  0.25565  0.10481  0.01485  1.0000
  C   C8        1.0  0.40516  0.09392  0.05050  1.0000
  C   C9        1.0  0.33454  0.09482  0.01455  1.0000
  C   C10       1.0  0.40519  0.17392  0.06186  1.0000
  C   C11       1.0  0.38570  0.21632  0.05005  1.0000
  C   C12       1.0  0.40619  0.25423  0.05038  1.0000
  C   C13       1.0  0.37599  0.28802  0.02076  1.0000
  C   C14       1.0  0.33594  0.27202  0.99915  1.0000
  C   C15       1.0  0.29467  0.07950  0.99612  1.0000
  C   C16       1.0  0.38367  0.13727  0.05145  1.0000
  C   C17       1.0  0.45230  0.16760  0.06723  1.0000
  C   C18       1.0  0.47703  0.18728  0.17093  1.0000
  C   C19       1.0  0.52112  0.18325  0.16598  1.0000
  C   C20       1.0  0.54157  0.15852  0.05705  1.0000
  C   C21       1.0  0.24448  0.28581  0.52638  1.0000
  C   C22       1.0  0.20412  0.31135  0.54867  1.0000
  C   C23       1.0  0.37484  0.06775  0.02088  1.0000
  C   C24       1.0  0.28183  0.30288  0.49075  1.0000
  C   C25       1.0  0.47807  0.16843  0.53694  1.0000
  C   C26       1.0  0.51930  0.17627  0.57454  1.0000
  C   C27       1.0  0.28145  0.34784  0.44794  1.0000
  C   C28       1.0  0.30249  0.35595  0.32308  1.0000
  C   C29       1.0  0.30989  0.39701  0.28964  1.0000
  C   C30       1.0  0.26601  0.02999  0.34026  1.0000
  C   C31       1.0  0.26077  0.98765  0.31111  1.0000
  C   C32       1.0  0.29422  0.43111  0.37662  1.0000
  C   C33       1.0  0.11221  0.69231  0.20732  1.0000
  C   C34       1.0  0.34800  0.55351  0.04887  1.0000
  C   C35       1.0  0.34721  0.59563  0.08458  1.0000
  C   C36       1.0  0.31476  0.62798  0.03319  1.0000
  C   C37       1.0  0.31724  0.67216  0.05707  1.0000
  C   C38       1.0  0.28049  0.70443  0.04965  1.0000
  C   C39       1.0  0.38359  0.64993  0.47703  1.0000
  C   C40       1.0  0.42453  0.65633  0.44450  1.0000
  C   C41       1.0  0.31883  0.76680  0.47392  1.0000
  C   C42       1.0  0.20248  0.72677  0.52831  1.0000
  C   C43       1.0  0.31972  0.80832  0.43665  1.0000
  C   C44       1.0  0.16079  0.72314  0.55354  1.0000
  C   C45       1.0  0.29668  0.50557  0.40579  1.0000
  C   C46       1.0  0.48292  0.70684  0.28056  1.0000
  C   C47       1.0  0.28574  0.87384  0.87767  1.0000
  C   C48       1.0  0.90850  0.61536  0.07086  1.0000
  C   C49       1.0  0.88582  0.65809  0.07172  1.0000
  C   C50       1.0  0.90520  0.69591  0.09309  1.0000
  C   C51       1.0  0.88407  0.73706  0.06719  1.0000
  C   C52       1.0  0.90321  0.77554  0.05388  1.0000
  C   C53       1.0  0.87190  0.80762  0.01795  1.0000
  C   C54       1.0  0.83215  0.79019  0.00931  1.0000
  C   C55       1.0  0.68446  0.79537  0.07595  1.0000
  C   C56       1.0  0.75285  0.79650  0.01819  1.0000
  C   C57       1.0  0.68775  0.71469  0.08729  1.0000
  C   C58       1.0  0.70886  0.67384  0.05671  1.0000
  C   C59       1.0  0.68921  0.63601  0.02719  1.0000
  C   C60       1.0  0.72028  0.60406  0.99219  1.0000
  C   C61       1.0  0.76015  0.62118  0.99811  1.0000
  C   C62       1.0  0.79137  0.81318  0.99094  1.0000
  C   C63       1.0  0.70711  0.75269  0.07301  1.0000
  C   C64       1.0  0.95049  0.69424  0.13966  1.0000
  C   C65       1.0  0.96200  0.72122  0.25228  1.0000
  C   C66       1.0  0.00421  0.72322  0.29297  1.0000
  C   C67       1.0  0.03642  0.69783  0.22326  1.0000
  C   C68       1.0  0.81790  0.51860  0.01118  1.0000
  C   C69       1.0  0.81068  0.47725  0.97366  1.0000
  C   C70       1.0  0.79180  0.85828  0.94843  1.0000
  C   C71       1.0  0.77115  0.89338  0.02317  1.0000
  C   C72       1.0  0.77636  0.93500  0.98807  1.0000
  C   C73       1.0  0.80312  0.94287  0.87779  1.0000
  C   C74       1.0  0.83568  0.61241  0.48970  1.0000
  C   C75       1.0  0.87624  0.58571  0.48994  1.0000
  C   C76       1.0  0.71216  0.82224  0.03438  1.0000
  C   C77       1.0  0.79586  0.59708  0.46710  1.0000
  C   C78       1.0  0.61346  0.75173  0.46958  1.0000
  C   C79       1.0  0.56986  0.74994  0.46392  1.0000
  C   C80       1.0  0.98643  0.20516  0.19783  1.0000
  C   C81       1.0  0.87153  0.23533  0.15381  1.0000
  C   C82       1.0  0.91293  0.23895  0.19121  1.0000
  C   C83       1.0  0.78335  0.35065  0.43604  1.0000
  C   C84       1.0  0.81293  0.31630  0.38420  1.0000
  C   C85       1.0  0.75343  0.34429  0.03982  1.0000
  C   C86       1.0  0.81023  0.27518  0.42415  1.0000
  C   C87       1.0  0.75392  0.30272  0.07858  1.0000
  C   C88       1.0  0.78348  0.26921  0.02404  1.0000
  C   C89       1.0  0.77938  0.22532  0.05239  1.0000
  C   C90       1.0  0.81498  0.19189  0.05155  1.0000
  C   C91       1.0  0.85848  0.19971  0.07418  1.0000
  C   C92       1.0  0.88393  0.16949  0.50797  1.0000
  C   C93       1.0  0.92549  0.17278  0.54458  1.0000
  C   C94       1.0  0.94585  0.20650  0.14880  1.0000
  C   C95       1.0  0.78119  0.39100  0.38695  1.0000
  C   C96       1.0  0.61493  0.17350  0.08113  1.0000
  C   C97       1.0  0.80384  0.01908  0.89901  1.0000
  C   C98       1.0  0.17729  0.28422  0.59445  1.0000
  C   C99       1.0  0.20038  0.24168  0.58886  1.0000
  C   C100      1.0  0.18202  0.20356  0.60792  1.0000
  C   C101      1.0  0.20309  0.16245  0.57891  1.0000
  C   C102      1.0  0.18403  0.12367  0.56359  1.0000
  C   C103      1.0  0.21481  0.09160  0.52623  1.0000
  C   C104      1.0  0.25402  0.10944  0.51667  1.0000
  C   C105      1.0  0.40366  0.10703  0.53602  1.0000
  C   C106      1.0  0.33314  0.10443  0.50495  1.0000
  C   C107      1.0  0.39827  0.18735  0.56731  1.0000
  C   C108      1.0  0.37590  0.22790  0.54358  1.0000
  C   C109      1.0  0.39440  0.26631  0.52093  1.0000
  C   C110      1.0  0.36221  0.29808  0.49229  1.0000
  C   C111      1.0  0.32278  0.28034  0.49789  1.0000
  C   C112      1.0  0.29423  0.08697  0.49070  1.0000
  C   C113      1.0  0.37988  0.14895  0.55012  1.0000
  C   C114      1.0  0.44337  0.18909  0.61009  1.0000
  C   C115      1.0  0.45161  0.21640  0.72570  1.0000
  C   C116      1.0  0.49255  0.22436  0.76362  1.0000
  C   C117      1.0  0.52655  0.20488  0.68665  1.0000
  C   C118      1.0  0.26521  0.38265  0.53311  1.0000
  C   C119      1.0  0.27102  0.42398  0.49690  1.0000
  C   C120      1.0  0.29342  0.04135  0.45209  1.0000
  C   C121      1.0  0.31698  0.00847  0.52948  1.0000
  C   C122      1.0  0.31232  0.96596  0.49989  1.0000
  C   C123      1.0  0.28337  0.95542  0.39230  1.0000
  C   C124      1.0  0.25682  0.28046  0.98000  1.0000
  C   C125      1.0  0.21598  0.30664  0.97086  1.0000
  C   C126      1.0  0.37474  0.07968  0.50017  1.0000
  C   C127      1.0  0.29643  0.29606  0.96474  1.0000
  C   C128      1.0  0.47359  0.14219  0.96127  1.0000
  C   C129      1.0  0.51750  0.13702  0.95773  1.0000
  C   C130      1.0  0.10939  0.69601  0.70210  1.0000
  C   C131      1.0  0.38008  0.70926  0.64094  1.0000
  C   C132      1.0  0.42108  0.71625  0.60703  1.0000
  C   C133      1.0  0.44290  0.69163  0.50082  1.0000
  C   C134      1.0  0.28662  0.75320  0.55876  1.0000
  C   C135      1.0  0.25806  0.78655  0.61896  1.0000
  C   C136      1.0  0.22525  0.67028  0.69363  1.0000
  C   C137      1.0  0.25780  0.82852  0.58476  1.0000
  C   C138      1.0  0.18410  0.66606  0.72412  1.0000
  C   C139      1.0  0.28732  0.84078  0.48335  1.0000
  C   C140      1.0  0.31599  0.53887  0.95197  1.0000
  C   C141      1.0  0.28046  0.56988  0.91442  1.0000
  C   C142      1.0  0.27998  0.61140  0.95643  1.0000
  C   C143      1.0  0.31304  0.67330  0.57550  1.0000
  C   C144      1.0  0.35906  0.67744  0.57118  1.0000
  C   C145      1.0  0.28051  0.70909  0.57925  1.0000
  C   C146      1.0  0.23671  0.70216  0.60202  1.0000
  C   C147      1.0  0.15008  0.69437  0.66117  1.0000
  C   C148      1.0  0.31911  0.49891  0.89763  1.0000
  C   C149      1.0  0.48309  0.70409  0.44349  1.0000
  C   C150      1.0  0.28382  0.88087  0.43231  1.0000
  C   C151      1.0  0.90610  0.61096  0.53558  1.0000
  C   C152      1.0  0.88421  0.65371  0.55110  1.0000
  C   C153      1.0  0.90459  0.69044  0.58128  1.0000
  C   C154      1.0  0.88509  0.73240  0.56161  1.0000
  C   C155      1.0  0.90613  0.77009  0.55875  1.0000
  C   C156      1.0  0.87673  0.80358  0.52123  1.0000
  C   C157      1.0  0.83640  0.78786  0.50149  1.0000
  C   C158      1.0  0.68791  0.80004  0.53670  1.0000
  C   C159      1.0  0.75742  0.79803  0.49229  1.0000
  C   C160      1.0  0.68734  0.72030  0.54642  1.0000
  C   C161      1.0  0.70673  0.67792  0.53039  1.0000
  C   C162      1.0  0.68590  0.64017  0.51815  1.0000
  C   C163      1.0  0.71586  0.60630  0.49188  1.0000
  C   C164      1.0  0.75634  0.62185  0.48656  1.0000
  C   C165      1.0  0.79727  0.81275  0.47520  1.0000
  C   C166      1.0  0.70897  0.75665  0.53557  1.0000
  C   C167      1.0  0.64076  0.72541  0.56058  1.0000
  C   C168      1.0  0.62185  0.70079  0.65917  1.0000
  C   C169      1.0  0.57856  0.69885  0.65442  1.0000
  C   C170      1.0  0.55201  0.72050  0.54797  1.0000
  C   C171      1.0  0.83935  0.61462  0.00932  1.0000
  C   C172      1.0  0.88009  0.58865  0.02430  1.0000
  C   C173      1.0  0.71756  0.82549  0.50143  1.0000
  C   C174      1.0  0.80047  0.59829  0.97900  1.0000
  C   C175      1.0  0.98338  0.66826  0.07270  1.0000
  C   C176      1.0  0.02571  0.66979  0.11363  1.0000
  C   C177      1.0  0.79894  0.55344  0.93170  1.0000
  C   C178      1.0  0.77400  0.54520  0.80948  1.0000
  C   C179      1.0  0.76588  0.50403  0.77324  1.0000
  C   C180      1.0  0.81695  0.86705  0.83376  1.0000
  C   C181      1.0  0.82311  0.90851  0.80026  1.0000
  C   C182      1.0  0.78378  0.46994  0.85624  1.0000
  C   C183      1.0  0.97702  0.20019  0.70439  1.0000
  C   C184      1.0  0.86124  0.22898  0.66355  1.0000
  C   C185      1.0  0.90240  0.23270  0.70595  1.0000
  C   C186      1.0  0.78310  0.35599  0.93790  1.0000
  C   C187      1.0  0.81598  0.32347  0.89503  1.0000
  C   C188      1.0  0.75452  0.34049  0.54308  1.0000
  C   C189      1.0  0.81591  0.28248  0.93886  1.0000
  C   C190      1.0  0.75240  0.29891  0.57833  1.0000
  C   C191      1.0  0.77834  0.26406  0.51523  1.0000
  C   C192      1.0  0.77139  0.22038  0.54273  1.0000
  C   C193      1.0  0.80627  0.18633  0.54812  1.0000
  C   C194      1.0  0.84968  0.19525  0.57300  1.0000
  C   C195      1.0  0.89223  0.17116  0.01608  1.0000
  C   C196      1.0  0.93401  0.17397  0.04980  1.0000
  C   C197      1.0  0.93622  0.20263  0.65488  1.0000
  C   C198      1.0  0.78013  0.39573  0.88507  1.0000
  C   C199      1.0  0.60097  0.20769  0.66675  1.0000
  C   C200      1.0  0.81062  0.01534  0.37651  1.0000
  N   N1        1.0  0.25161  0.23977  0.01975  1.0000
  N   N2        1.0  0.24971  0.14824  0.03682  1.0000
  N   N3        1.0  0.34064  0.13690  0.03322  1.0000
  N   N4        1.0  0.34311  0.22878  0.02203  1.0000
  N   N5        1.0  0.27507  0.90858  0.82450  1.0000
  N   N6        1.0  0.58534  0.15534  0.03341  1.0000
  N   N7        1.0  0.02090  0.19712  0.25971  1.0000
  N   N8        1.0  0.30477  0.47178  0.34099  1.0000
  N   N9        1.0  0.84366  0.65670  0.03764  1.0000
  N   N10       1.0  0.84126  0.74748  0.03916  1.0000
  N   N11       1.0  0.74891  0.75433  0.04150  1.0000
  N   N12       1.0  0.75162  0.66336  0.03819  1.0000
  N   N13       1.0  0.81274  0.98402  0.84348  1.0000
  N   N14       1.0  0.51230  0.71054  0.19013  1.0000
  N   N15       1.0  0.07861  0.70356  0.26524  1.0000
  N   N16       1.0  0.77163  0.42471  0.32494  1.0000
  N   N17       1.0  0.24149  0.24357  0.55084  1.0000
  N   N18       1.0  0.24529  0.15227  0.54889  1.0000
  N   N19       1.0  0.33717  0.14660  0.53268  1.0000
  N   N20       1.0  0.33276  0.23781  0.52759  1.0000
  N   N21       1.0  0.27468  0.91321  0.36208  1.0000
  N   N22       1.0  0.56707  0.21647  0.72550  1.0000
  N   N23       1.0  0.01182  0.18961  0.76103  1.0000
  N   N24       1.0  0.32597  0.46572  0.82773  1.0000
  N   N25       1.0  0.84151  0.65383  0.52350  1.0000
  N   N26       1.0  0.84306  0.74476  0.52675  1.0000
  N   N27       1.0  0.75145  0.75631  0.51250  1.0000
  N   N28       1.0  0.74929  0.66518  0.51178  1.0000
  N   N29       1.0  0.82133  0.98160  0.31359  1.0000
  N   N30       1.0  0.51111  0.71023  0.54405  1.0000
  N   N31       1.0  0.07527  0.70566  0.75825  1.0000
  N   N32       1.0  0.77260  0.42896  0.81882  1.0000
  C   C201      1.0  0.25620  0.79481  0.08495  1.0000
  C   C202      1.0  0.27763  0.75688  0.03368  1.0000
  C  Sn1       1.0  0.31804  0.76205  0.93176  1.0000
  C  Sn2       1.0  0.32764  0.80163  0.88044  1.0000
  C   C203      1.0  0.30605  0.83941  0.93248  1.0000
  C   C204      1.0  0.26567  0.83387  0.03443  1.0000
  H   H105      1.0  0.23230  0.79391  0.16389  1.0000
  O  Te1       1.0  0.33913  0.72385  0.88164  1.0000
  O  Te2       1.0  0.35843  0.80336  0.77861  1.0000
  H   H106      1.0  0.24911  0.86325  0.07417  1.0000
  Mg  Mg1       1.0  0.37852  0.74270  0.74297  1.0000
  C   C205      1.0  0.66025  0.24340  0.50729  1.0000
  C   C206      1.0  0.64289  0.21273  0.58504  1.0000
  C  Sn3       1.0  0.66930  0.18105  0.65625  1.0000
  C  Sn4       1.0  0.71389  0.18016  0.64934  1.0000
  C   C207      1.0  0.73094  0.21100  0.57136  1.0000
  C   C208      1.0  0.70423  0.24255  0.50047  1.0000
  H   H107      1.0  0.63958  0.26782  0.45250  1.0000
  O  Te3       1.0  0.65143  0.15065  0.73340  1.0000
  O  Te4       1.0  0.74101  0.14887  0.71955  1.0000
  H   H108      1.0  0.71767  0.26630  0.44036  1.0000
  Mg  Mg2       1.0  0.70153  0.11437  0.81094  1.0000
  C   C209      1.0  0.99515  0.66378  0.55066  1.0000
  C   C210      1.0  0.95767  0.67986  0.61579  1.0000
  C  Sn5       1.0  0.95894  0.70600  0.73723  1.0000
  C  Sn6       1.0  0.99851  0.71617  0.79424  1.0000
  C   C211      1.0  0.03583  0.69995  0.72823  1.0000
  C   C212      1.0  0.03419  0.67382  0.60679  1.0000
  H   H109      1.0  0.99389  0.64358  0.45665  1.0000
  O  Te5       1.0  0.92120  0.72178  0.80101  1.0000
  O  Te6       1.0  0.00069  0.74223  0.91547  1.0000
  H   H110      1.0  0.06322  0.66139  0.55633  1.0000
  Mg  Mg3       1.0  0.94055  0.75599  0.96435  1.0000
  C   C213      1.0  0.09848  0.23308  0.04811  1.0000
  C   C214      1.0  0.13684  0.21613  0.11242  1.0000
  C  Sn7       1.0  0.13710  0.19136  0.23433  1.0000
  C  Sn8       1.0  0.09820  0.18345  0.29266  1.0000
  C   C215      1.0  0.06000  0.20052  0.22746  1.0000
  C   C216      1.0  0.06010  0.22528  0.10554  1.0000
  H   H111      1.0  0.10803  0.25658  0.95373  1.0000
  O  Te7       1.0  0.17571  0.17468  0.29727  1.0000
  O  Te8       1.0  0.09755  0.15879  0.41438  1.0000
  H   H112      1.0  0.03040  0.23838  0.05571  1.0000
  Mg  Mg4       1.0  0.15839  0.14304  0.46174  1.0000
  C   C217      1.0  0.83601  0.09822  0.59153  1.0000
  C   C218      1.0  0.80920  0.13361  0.54450  1.0000
  C  Sn9       1.0  0.77592  0.12857  0.44679  1.0000
  C  Sn10      1.0  0.76944  0.08729  0.39543  1.0000
  C   C219      1.0  0.79642  0.05208  0.44322  1.0000
  C   C220      1.0  0.82963  0.05749  0.54098  1.0000
  H   H113      1.0  0.86170  0.10240  0.66723  1.0000
  O  Te9       1.0  0.74944  0.16428  0.40087  1.0000
  O  Te10      1.0  0.73642  0.08134  0.29777  1.0000
  H   H114      1.0  0.85037  0.03008  0.57744  1.0000
  Mg  Mg5       1.0  0.70881  0.13988  0.26696  1.0000
  C   C221      1.0  0.76079  0.53402  0.28886  1.0000
  C   C222      1.0  0.78513  0.54999  0.39988  1.0000
  C  Sn11      1.0  0.81008  0.52222  0.49079  1.0000
  C  Sn12      1.0  0.81061  0.47766  0.46987  1.0000
  C   C223      1.0  0.78617  0.46200  0.35843  1.0000
  C   C224      1.0  0.76131  0.49007  0.26811  1.0000
  H   H115      1.0  0.74157  0.55573  0.21892  1.0000
  O  Te11      1.0  0.83419  0.53871  0.60121  1.0000
  O  Te12      1.0  0.83527  0.44920  0.55912  1.0000
  H   H116      1.0  0.74249  0.47770  0.18211  1.0000
  Mg  Mg6       1.0  0.86269  0.48709  0.69469  1.0000
  C   C225      1.0  0.57572  0.74456  0.06141  1.0000
  C   C226      1.0  0.55792  0.71640  0.14844  1.0000
  C  Sn13      1.0  0.58394  0.68722  0.23139  1.0000
  C  Sn14      1.0  0.62859  0.68631  0.22694  1.0000
  C   C227      1.0  0.64608  0.71463  0.13961  1.0000
  C   C228      1.0  0.61975  0.74369  0.05700  1.0000
  H   H117      1.0  0.56482  0.77142  0.99756  1.0000
  O  Te13      1.0  0.56564  0.65930  0.31771  1.0000
  O  Te14      1.0  0.65532  0.65748  0.30879  1.0000
  H   H118      1.0  0.64301  0.76987  0.98970  1.0000
  Mg  Mg7       1.0  0.61532  0.62584  0.40966  1.0000
  C   C229      1.0  0.27608  0.41038  0.96612  1.0000
  C   C230      1.0  0.30661  0.42405  0.87934  1.0000
  C  Sn15      1.0  0.33325  0.39453  0.80217  1.0000
  C  Sn16      1.0  0.32918  0.35052  0.81226  1.0000
  C   C231      1.0  0.29853  0.33716  0.89930  1.0000
  C   C232      1.0  0.27204  0.36698  0.97609  1.0000
  H   H119      1.0  0.24610  0.42909  0.02548  1.0000
  O  Te15      1.0  0.36358  0.40873  0.71601  1.0000
  O  Te16      1.0  0.35538  0.32032  0.73626  1.0000
  H   H120      1.0  0.23892  0.35202  0.04320  1.0000
  Mg  Mg8       1.0  0.39191  0.35536  0.63318  1.0000
  C   C233      1.0  0.26110  0.01831  0.80923  1.0000
  C   C234      1.0  0.28281  0.03317  0.92862  1.0000
  C  Sn17      1.0  0.29699  0.00017  0.02000  1.0000
  C  Sn18      1.0  0.19557  0.96022  0.99102  1.0000
  C   C235      1.0  0.17376  0.94567  0.87125  1.0000
  C   C236      1.0  0.15017  0.97460  0.78054  1.0000
  H   H121      1.0  0.24286  0.04069  0.73900  1.0000
  O  Te17      1.0  0.31848  0.01556  0.13884  1.0000
  O  Te18      1.0  0.20952  0.92654  0.08056  1.0000
  H   H122      1.0  0.13338  0.96309  0.68806  1.0000
  Mg  Mg9       1.0  0.23334  0.96306  0.22920  1.0000
  C   C237      1.0  0.25903  0.59077  0.42194  1.0000
  C   C238      1.0  0.28637  0.55373  0.44745  1.0000
  C  Sn19      1.0  0.32109  0.55451  0.54247  1.0000
  C  Sn20      1.0  0.32848  0.59313  0.61312  1.0000
  C   C239      1.0  0.30093  0.63000  0.58694  1.0000
  C   C240      1.0  0.26629  0.62887  0.49161  1.0000
  H   H123      1.0  0.23222  0.58989  0.34825  1.0000
  O  Te19      1.0  0.34810  0.51722  0.56669  1.0000
  O  Te20      1.0  0.36293  0.59480  0.70865  1.0000
  H   H124      1.0  0.24511  0.65755  0.47195  1.0000
  Mg  Mg10      1.0  0.39077  0.53559  0.70631  1.0000
  C   C241      1.0  0.83201  0.87147  0.29631  1.0000
  C   C242      1.0  0.80929  0.85817  0.40904  1.0000
  C  Sn21      1.0  0.78609  0.88807  0.49557  1.0000
  C  Sn22      1.0  0.78568  0.93207  0.46844  1.0000
  C   C243      1.0  0.80849  0.94504  0.35533  1.0000
  C   C244      1.0  0.83161  0.91486  0.26944  1.0000
  H   H125      1.0  0.84988  0.84811  0.22980  1.0000
  O  Te21      1.0  0.76358  0.87424  0.60779  1.0000
  O  Te22      1.0  0.76275  0.96263  0.55322  1.0000
  H   H126      1.0  0.84917  0.92516  0.18211  1.0000
  Mg  Mg11      1.0  0.73712  0.92803  0.69349  1.0000
  C   C245      1.0  0.83751  0.07949  0.07645  1.0000
  C   C246      1.0  0.81737  0.06658  0.98582  1.0000
  C  Sn23      1.0  0.78716  0.09323  0.90849  1.0000
  C  Sn24      1.0  0.78667  0.13799  0.92234  1.0000
  C   C247      1.0  0.80697  0.15060  0.01321  1.0000
  C   C248      1.0  0.83705  0.12364  0.09013  1.0000
  H   H127      1.0  0.86080  0.05864  0.13591  1.0000
  O  Te23      1.0  0.75781  0.07544  0.81847  1.0000
  O  Te24      1.0  0.75683  0.16536  0.84625  1.0000
  H   H128      1.0  0.85999  0.13703  0.16022  1.0000
  Mg  Mg12      1.0  0.72337  0.12589  0.73714  1.0000
  C   C249      1.0  0.67734  0.23620  0.99204  1.0000
  C   C250      1.0  0.65506  0.19697  0.06137  1.0000
  C  Sn25      1.0  0.68392  0.17131  0.14701  1.0000
  C  Sn26      1.0  0.72637  0.18082  0.16338  1.0000
  C   C251      1.0  0.73887  0.21579  0.09365  1.0000
  C   C252      1.0  0.70973  0.24125  0.00817  1.0000
  H   H129      1.0  0.65479  0.25591  0.92595  1.0000
  O  Te25      1.0  0.67059  0.13659  0.21548  1.0000
  O  Te26      1.0  0.75586  0.15572  0.24839  1.0000
  H   H130      1.0  0.72912  0.27262  0.95457  1.0000
  Mg  Mg13      1.0  0.72250  0.11184  0.31991  1.0000
  C   C253      1.0  0.19059  0.72634  0.01205  1.0000
  C   C254      1.0  0.22863  0.70438  0.06246  1.0000
  C  Sn27      1.0  0.22832  0.67151  0.15972  1.0000
  C  Sn28      1.0  0.18915  0.66048  0.20718  1.0000
  C   C255      1.0  0.15127  0.68262  0.15604  1.0000
  C   C256      1.0  0.15194  0.71547  0.05877  1.0000
  H   H131      1.0  0.20057  0.75610  0.93673  1.0000
  O  Te27      1.0  0.26662  0.64991  0.20905  1.0000
  O  Te28      1.0  0.18793  0.62775  0.30431  1.0000
  H   H132      1.0  0.12248  0.73245  0.01969  1.0000
  Mg  Mg14      1.0  0.24854  0.60769  0.34069  1.0000
  C   C257      1.0  0.09158  0.23247  0.57764  1.0000
  C   C258      1.0  0.12933  0.21307  0.63943  1.0000
  C  Sn29      1.0  0.12842  0.18357  0.74801  1.0000
  C  Sn30      1.0  0.08894  0.17336  0.79537  1.0000
  C   C259      1.0  0.05135  0.19292  0.73280  1.0000
  C   C260      1.0  0.05262  0.22241  0.62425  1.0000
  H   H133      1.0  0.09256  0.25526  0.49360  1.0000
  O  Te29      1.0  0.16644  0.16450  0.80861  1.0000
  O  Te30      1.0  0.08711  0.14398  0.90367  1.0000
  H   H134      1.0  0.02339  0.23740  0.57637  1.0000
  Mg  Mg15      1.0  0.14753  0.12646  0.95302  1.0000
  C   C261      1.0  0.36980  0.72516  0.22068  1.0000
  C   C262      1.0  0.36047  0.69786  0.10808  1.0000
  C  Sn31      1.0  0.39295  0.67188  0.04259  1.0000
  C  Sn32      1.0  0.43553  0.67332  0.09097  1.0000
  C   C263      1.0  0.44453  0.70073  0.20376  1.0000
  C   C264      1.0  0.41179  0.72660  0.26850  1.0000
  H   H135      1.0  0.34447  0.74516  0.27084  1.0000
  O  Te31      1.0  0.39254  0.64916  0.93019  1.0000
  O  Te32      1.0  0.46860  0.64769  0.02746  1.0000
  H   H136      1.0  0.41902  0.74772  0.35574  1.0000
  Mg  Mg16      1.0  0.44861  0.62038  0.87794  1.0000
