data_image0
_chemical_formula_structural       H104C200N32SnCSn2CSnTe4Mg2SnCSn2CSnTe4Mg2SnCSn2CSnTe4Mg2SnCSn2CSnTe4Mg2SnCSn2CSnTe4Mg2SnCSn2CSnTe4Mg2SnCSn2CSnTe4Mg2SnCSn2CSnTe4Mg2SnCSn2CSnTe4Mg2SnCSn2CSnTe4Mg2SnCSn2CSnTe4Mg2SnCSn2CSnTe4Mg2SnCSn2CSnTe4Mg2SnCSn2CSnTe4Mg2SnCSn2CSnTe4Mg2SnCSn2CSnTe4Mg2
_chemical_formula_sum              "H104 C232 N32 Sn64 Te64 Mg32"
_cell_length_a       31.8012
_cell_length_b       31.6543
_cell_length_c       9.37534
_cell_angle_alpha    91.0524
_cell_angle_beta     91.9367
_cell_angle_gamma    83.4928

_symmetry_space_group_name_H-M    'P1'
_space_group_IT_number       1

loop_
  _space_group_symop_operation_xyz
  'x, y, z'

loop_
  _atom_site_type_symbol
  _atom_site_label
  _atom_site_symmetry_multiplicity
  _atom_site_fract_x
  _atom_site_fract_y
  _atom_site_fract_z
  _atom_site_occupancy
  H   H1        1.0  0.15355  0.29213  0.03343  1.0000
  H   H2        1.0  0.15277  0.12396  0.07500  1.0000
  H   H3        1.0  0.20950  0.05696  0.01663  1.0000
  H   H4        1.0  0.43869  0.08476  0.06903  1.0000
  H   H5        1.0  0.43976  0.25540  0.06925  1.0000
  H   H6        1.0  0.38081  0.32122  0.01605  1.0000
  H   H7        1.0  0.27334  0.16754  0.03541  1.0000
  H   H8        1.0  0.32022  0.20860  0.01557  1.0000
  H   H9        1.0  0.16354  0.16844  0.31022  1.0000
  H   H10       1.0  0.08975  0.16388  0.38412  1.0000
  H   H11       1.0  0.46121  0.20591  0.25634  1.0000
  H   H12       1.0  0.53974  0.19899  0.24605  1.0000
  H   H13       1.0  0.33221  0.00586  0.12465  1.0000
  H   H14       1.0  0.32470  0.93156  0.04786  1.0000
  H   H15       1.0  0.19735  0.34526  0.53334  1.0000
  H   H16       1.0  0.38110  0.04617  0.47396  1.0000
  H   H17       1.0  0.31423  0.32931  0.25481  1.0000
  H   H18       1.0  0.32792  0.40318  0.19734  1.0000
  H   H19       1.0  0.37268  0.53045  0.09313  1.0000
  H   H20       1.0  0.37173  0.60523  0.15775  1.0000
  H   H21       1.0  0.33513  0.73808  0.22853  1.0000
  H   H22       1.0  0.40421  0.75362  0.32837  1.0000
  H   H23       1.0  0.36908  0.62464  0.42136  1.0000
  H   H24       1.0  0.44120  0.63560  0.36602  1.0000
  H   H25       1.0  0.94146  0.60675  0.10040  1.0000
  H   H26       1.0  0.93669  0.77812  0.06862  1.0000
  H   H27       1.0  0.87586  0.84062  0.00143  1.0000
  H   H28       1.0  0.65180  0.80369  0.10361  1.0000
  H   H29       1.0  0.65553  0.63406  0.02942  1.0000
  H   H30       1.0  0.71592  0.57152  0.96502  1.0000
  H   H31       1.0  0.81954  0.72605  0.03739  1.0000
  H   H32       1.0  0.77363  0.68441  0.04841  1.0000
  H   H33       1.0  0.93725  0.74064  0.30869  1.0000
  H   H34       1.0  0.01296  0.74418  0.37949  1.0000
  H   H35       1.0  0.65437  0.66476  0.27563  1.0000
  H   H36       1.0  0.57969  0.65991  0.32554  1.0000
  H   H37       1.0  0.83622  0.52435  0.10819  1.0000
  H   H38       1.0  0.88125  0.55247  0.45926  1.0000
  H   H39       1.0  0.71288  0.85947  0.48673  1.0000
  H   H40       1.0  0.97731  0.64806  0.46136  1.0000
  H   H41       1.0  0.05167  0.65427  0.54106  1.0000
  H   H42       1.0  0.74874  0.56737  0.25156  1.0000
  H   H43       1.0  0.73737  0.49239  0.19480  1.0000
  H   H44       1.0  0.73117  0.36888  0.08624  1.0000
  H   H45       1.0  0.73161  0.29466  0.15636  1.0000
  H   H46       1.0  0.85620  0.12113  0.17728  1.0000
  H   H47       1.0  0.84732  0.25987  0.18814  1.0000
  H   H48       1.0  0.85119  0.04639  0.11306  1.0000
  H   H49       1.0  0.92119  0.26515  0.25918  1.0000
  H   H50       1.0  0.70135  0.26312  0.41914  1.0000
  H   H51       1.0  0.62724  0.25796  0.47022  1.0000
  H   H52       1.0  0.82381  0.45061  0.03914  1.0000
  H   H53       1.0  0.14513  0.29229  0.62787  1.0000
  H   H54       1.0  0.15089  0.12077  0.57735  1.0000
  H   H55       1.0  0.21070  0.05849  0.50762  1.0000
  H   H56       1.0  0.43768  0.09967  0.54742  1.0000
  H   H57       1.0  0.42801  0.26890  0.52429  1.0000
  H   H58       1.0  0.36545  0.33097  0.47130  1.0000
  H   H59       1.0  0.26706  0.17361  0.54952  1.0000
  H   H60       1.0  0.31115  0.21661  0.53694  1.0000
  H   H61       1.0  0.25045  0.37695  0.63291  1.0000
  H   H62       1.0  0.21015  0.33899  0.93388  1.0000
  H   H63       1.0  0.37949  0.03356  0.00721  1.0000
  H   H64       1.0  0.11488  0.24696  0.95764  1.0000
  H   H65       1.0  0.04208  0.24470  0.03916  1.0000
  H   H66       1.0  0.45507  0.12781  0.87798  1.0000
  H   H67       1.0  0.53379  0.11816  0.87402  1.0000
  H   H68       1.0  0.24899  0.05211  0.77586  1.0000
  H   H69       1.0  0.24033  0.97749  0.70224  1.0000
  H   H70       1.0  0.25988  0.45087  0.56498  1.0000
  H   H71       1.0  0.36304  0.73076  0.71577  1.0000
  H   H72       1.0  0.43580  0.74224  0.65853  1.0000
  H   H73       1.0  0.25472  0.55982  0.84751  1.0000
  H   H74       1.0  0.25266  0.63335  0.92653  1.0000
  H   H75       1.0  0.39608  0.64206  0.95479  1.0000
  H   H76       1.0  0.46583  0.65775  0.05261  1.0000
  H   H77       1.0  0.93960  0.60159  0.55355  1.0000
  H   H78       1.0  0.93956  0.77102  0.58081  1.0000
  H   H79       1.0  0.88214  0.83644  0.51051  1.0000
  H   H80       1.0  0.65520  0.80973  0.56120  1.0000
  H   H81       1.0  0.65222  0.63932  0.52706  1.0000
  H   H82       1.0  0.71051  0.57335  0.47805  1.0000
  H   H83       1.0  0.82014  0.72463  0.52044  1.0000
  H   H84       1.0  0.77209  0.68544  0.51316  1.0000
  H   H85       1.0  0.93320  0.72853  0.81333  1.0000
  H   H86       1.0  0.00784  0.73708  0.88596  1.0000
  H   H87       1.0  0.83668  0.52438  0.59104  1.0000
  H   H88       1.0  0.88619  0.55473  0.00519  1.0000
  H   H89       1.0  0.70541  0.85612  0.01868  1.0000
  H   H90       1.0  0.97567  0.64851  0.98165  1.0000
  H   H91       1.0  0.05078  0.65089  0.05684  1.0000
  H   H92       1.0  0.61755  0.76232  0.96785  1.0000
  H   H93       1.0  0.54268  0.75785  0.01912  1.0000
  H   H94       1.0  0.76048  0.57170  0.74396  1.0000
  H   H95       1.0  0.74582  0.49781  0.68086  1.0000
  H   H96       1.0  0.74077  0.15648  0.68922  1.0000
  H   H97       1.0  0.66731  0.15120  0.74857  1.0000
  H   H98       1.0  0.83967  0.33168  0.82251  1.0000
  H   H99       1.0  0.84061  0.25853  0.90417  1.0000
  H   H100      1.0  0.75456  0.16085  0.87907  1.0000
  H   H101      1.0  0.88423  0.14679  0.93988  1.0000
  H   H102      1.0  0.74982  0.08675  0.80414  1.0000
  H   H103      1.0  0.95878  0.15227  0.00232  1.0000
  H   H104      1.0  0.82751  0.44966  0.52713  1.0000
  C   C1        1.0  0.18686  0.28243  0.01922  1.0000
  C   C2        1.0  0.20914  0.24020  0.04370  1.0000
  C   C3        1.0  0.18910  0.20423  0.07825  1.0000
  C   C4        1.0  0.20795  0.16163  0.06430  1.0000
  C   C5        1.0  0.18628  0.12428  0.05960  1.0000
  C   C6        1.0  0.21523  0.08988  0.02818  1.0000
  C   C7        1.0  0.25565  0.10481  0.01485  1.0000
  C   C8        1.0  0.40516  0.09392  0.05050  1.0000
  C   C9        1.0  0.33454  0.09482  0.01455  1.0000
  C   C10       1.0  0.40519  0.17392  0.06186  1.0000
  C   C11       1.0  0.38570  0.21632  0.05005  1.0000
  C   C12       1.0  0.40619  0.25423  0.05038  1.0000
  C   C13       1.0  0.37599  0.28802  0.02076  1.0000
  C   C14       1.0  0.33594  0.27202  0.99915  1.0000
  C   C15       1.0  0.29467  0.07950  0.99612  1.0000
  C   C16       1.0  0.38367  0.13727  0.05145  1.0000
  C   C17       1.0  0.14503  0.20818  0.12834  1.0000
  C   C18       1.0  0.13708  0.18510  0.25008  1.0000
  C   C19       1.0  0.09605  0.18250  0.29260  1.0000
  C   C20       1.0  0.06177  0.20403  0.21674  1.0000
  C   C21       1.0  0.45230  0.16760  0.06723  1.0000
  C   C22       1.0  0.47703  0.18728  0.17093  1.0000
  C   C23       1.0  0.52112  0.18325  0.16598  1.0000
  C   C24       1.0  0.54157  0.15852  0.05705  1.0000
  C   C25       1.0  0.29157  0.03449  0.95482  1.0000
  C   C26       1.0  0.31318  0.99983  0.02946  1.0000
  C   C27       1.0  0.30883  0.95813  0.98738  1.0000
  C   C28       1.0  0.28223  0.95016  0.86957  1.0000
  C   C29       1.0  0.24448  0.28581  0.52638  1.0000
  C   C30       1.0  0.20412  0.31135  0.54867  1.0000
  C   C31       1.0  0.37484  0.06775  0.02088  1.0000
  C   C32       1.0  0.28183  0.30288  0.49075  1.0000
  C   C33       1.0  0.28145  0.34784  0.44794  1.0000
  C   C34       1.0  0.30249  0.35595  0.32308  1.0000
  C   C35       1.0  0.30989  0.39701  0.28964  1.0000
  C   C36       1.0  0.29422  0.43111  0.37662  1.0000
  C   C37       1.0  0.11221  0.69231  0.20732  1.0000
  C   C38       1.0  0.36368  0.71962  0.19269  1.0000
  C   C39       1.0  0.40286  0.72874  0.24726  1.0000
  C   C40       1.0  0.44034  0.70423  0.20682  1.0000
  C   C41       1.0  0.34800  0.55351  0.04887  1.0000
  C   C42       1.0  0.34721  0.59563  0.08458  1.0000
  C   C43       1.0  0.31476  0.62798  0.03319  1.0000
  C   C44       1.0  0.31724  0.67216  0.05707  1.0000
  C   C45       1.0  0.35948  0.68565  0.09600  1.0000
  C   C46       1.0  0.28049  0.70443  0.04965  1.0000
  C   C47       1.0  0.38359  0.64993  0.47703  1.0000
  C   C48       1.0  0.42453  0.65633  0.44450  1.0000
  C   C49       1.0  0.29668  0.50557  0.40579  1.0000
  C   C50       1.0  0.48292  0.70684  0.28056  1.0000
  C   C51       1.0  0.28574  0.87384  0.87767  1.0000
  C   C52       1.0  0.90850  0.61536  0.07086  1.0000
  C   C53       1.0  0.88582  0.65809  0.07172  1.0000
  C   C54       1.0  0.90520  0.69591  0.09309  1.0000
  C   C55       1.0  0.88407  0.73706  0.06719  1.0000
  C   C56       1.0  0.90321  0.77554  0.05388  1.0000
  C   C57       1.0  0.87190  0.80762  0.01795  1.0000
  C   C58       1.0  0.83215  0.79019  0.00931  1.0000
  C   C59       1.0  0.68446  0.79537  0.07595  1.0000
  C   C60       1.0  0.75285  0.79650  0.01819  1.0000
  C   C61       1.0  0.68775  0.71469  0.08729  1.0000
  C   C62       1.0  0.70886  0.67384  0.05671  1.0000
  C   C63       1.0  0.68921  0.63601  0.02719  1.0000
  C   C64       1.0  0.72028  0.60406  0.99219  1.0000
  C   C65       1.0  0.76015  0.62118  0.99811  1.0000
  C   C66       1.0  0.79137  0.81318  0.99094  1.0000
  C   C67       1.0  0.70711  0.75269  0.07301  1.0000
  C   C68       1.0  0.95049  0.69424  0.13966  1.0000
  C   C69       1.0  0.96200  0.72122  0.25228  1.0000
  C   C70       1.0  0.00421  0.72322  0.29297  1.0000
  C   C71       1.0  0.03642  0.69783  0.22326  1.0000
  C   C72       1.0  0.64252  0.71499  0.12184  1.0000
  C   C73       1.0  0.62996  0.68541  0.21891  1.0000
  C   C74       1.0  0.58772  0.68275  0.24849  1.0000
  C   C75       1.0  0.55521  0.71038  0.18126  1.0000
  C   C76       1.0  0.81790  0.51860  0.01118  1.0000
  C   C77       1.0  0.81068  0.47725  0.97366  1.0000
  C   C78       1.0  0.83568  0.61241  0.48970  1.0000
  C   C79       1.0  0.87624  0.58571  0.48994  1.0000
  C   C80       1.0  0.71216  0.82224  0.03438  1.0000
  C   C81       1.0  0.79586  0.59708  0.46710  1.0000
  C   C82       1.0  0.98363  0.66588  0.55848  1.0000
  C   C83       1.0  0.02543  0.66970  0.60149  1.0000
  C   C84       1.0  0.79338  0.55178  0.42633  1.0000
  C   C85       1.0  0.76553  0.54170  0.31376  1.0000
  C   C86       1.0  0.75919  0.49980  0.28095  1.0000
  C   C87       1.0  0.78137  0.46641  0.35804  1.0000
  C   C88       1.0  0.98643  0.20516  0.19783  1.0000
  C   C89       1.0  0.80814  0.14768  0.02415  1.0000
  C   C90       1.0  0.83403  0.11350  0.09233  1.0000
  C   C91       1.0  0.87153  0.23533  0.15381  1.0000
  C   C92       1.0  0.83146  0.07153  0.05717  1.0000
  C   C93       1.0  0.91293  0.23895  0.19121  1.0000
  C   C94       1.0  0.80219  0.06026  0.94515  1.0000
  C   C95       1.0  0.75343  0.34429  0.03982  1.0000
  C   C96       1.0  0.75392  0.30272  0.07858  1.0000
  C   C97       1.0  0.78348  0.26921  0.02404  1.0000
  C   C98       1.0  0.77938  0.22532  0.05239  1.0000
  C   C99       1.0  0.81498  0.19189  0.05155  1.0000
  C   C100      1.0  0.69385  0.24003  0.49609  1.0000
  C   C101      1.0  0.65228  0.23718  0.52324  1.0000
  C   C102      1.0  0.85848  0.19971  0.07418  1.0000
  C   C103      1.0  0.94585  0.20650  0.14880  1.0000
  C   C104      1.0  0.78119  0.39100  0.38695  1.0000
  C   C105      1.0  0.61493  0.17350  0.08113  1.0000
  C   C106      1.0  0.80384  0.01908  0.89901  1.0000
  C   C107      1.0  0.17729  0.28422  0.59445  1.0000
  C   C108      1.0  0.20038  0.24168  0.58886  1.0000
  C   C109      1.0  0.18202  0.20356  0.60792  1.0000
  C   C110      1.0  0.20309  0.16245  0.57891  1.0000
  C   C111      1.0  0.18403  0.12367  0.56359  1.0000
  C   C112      1.0  0.21481  0.09160  0.52623  1.0000
  C   C113      1.0  0.25402  0.10944  0.51667  1.0000
  C   C114      1.0  0.40366  0.10703  0.53602  1.0000
  C   C115      1.0  0.33314  0.10443  0.50495  1.0000
  C   C116      1.0  0.39827  0.18735  0.56731  1.0000
  C   C117      1.0  0.37590  0.22790  0.54358  1.0000
  C   C118      1.0  0.39440  0.26631  0.52093  1.0000
  C   C119      1.0  0.36221  0.29808  0.49229  1.0000
  C   C120      1.0  0.32278  0.28034  0.49789  1.0000
  C   C121      1.0  0.29423  0.08697  0.49070  1.0000
  C   C122      1.0  0.37988  0.14895  0.55012  1.0000
  C   C123      1.0  0.26521  0.38265  0.53311  1.0000
  C   C124      1.0  0.27102  0.42398  0.49690  1.0000
  C   C125      1.0  0.25682  0.28046  0.98000  1.0000
  C   C126      1.0  0.21598  0.30664  0.97086  1.0000
  C   C127      1.0  0.37474  0.07968  0.50017  1.0000
  C   C128      1.0  0.29643  0.29606  0.96474  1.0000
  C   C129      1.0  0.11013  0.23058  0.05563  1.0000
  C   C130      1.0  0.06897  0.22884  0.09948  1.0000
  C   C131      1.0  0.47359  0.14219  0.96127  1.0000
  C   C132      1.0  0.51750  0.13702  0.95773  1.0000
  C   C133      1.0  0.26516  0.02573  0.83660  1.0000
  C   C134      1.0  0.26032  0.98415  0.79456  1.0000
  C   C135      1.0  0.10939  0.69601  0.70210  1.0000
  C   C136      1.0  0.38008  0.70926  0.64094  1.0000
  C   C137      1.0  0.42108  0.71625  0.60703  1.0000
  C   C138      1.0  0.44290  0.69163  0.50082  1.0000
  C   C139      1.0  0.31599  0.53887  0.95197  1.0000
  C   C140      1.0  0.28046  0.56988  0.91442  1.0000
  C   C141      1.0  0.27998  0.61140  0.95643  1.0000
  C   C142      1.0  0.31304  0.67330  0.57550  1.0000
  C   C143      1.0  0.35906  0.67744  0.57118  1.0000
  C   C144      1.0  0.28051  0.70909  0.57925  1.0000
  C   C145      1.0  0.39756  0.66559  0.04016  1.0000
  C   C146      1.0  0.43699  0.67464  0.09429  1.0000
  C   C147      1.0  0.31911  0.49891  0.89763  1.0000
  C   C148      1.0  0.48309  0.70409  0.44349  1.0000
  C   C149      1.0  0.28382  0.88087  0.43231  1.0000
  C   C150      1.0  0.90610  0.61096  0.53558  1.0000
  C   C151      1.0  0.88421  0.65371  0.55110  1.0000
  C   C152      1.0  0.90459  0.69044  0.58128  1.0000
  C   C153      1.0  0.88509  0.73240  0.56161  1.0000
  C   C154      1.0  0.90613  0.77009  0.55875  1.0000
  C   C155      1.0  0.87673  0.80358  0.52123  1.0000
  C   C156      1.0  0.83640  0.78786  0.50149  1.0000
  C   C157      1.0  0.68791  0.80004  0.53670  1.0000
  C   C158      1.0  0.75742  0.79803  0.49229  1.0000
  C   C159      1.0  0.68734  0.72030  0.54642  1.0000
  C   C160      1.0  0.70673  0.67792  0.53039  1.0000
  C   C161      1.0  0.68590  0.64017  0.51815  1.0000
  C   C162      1.0  0.71586  0.60630  0.49188  1.0000
  C   C163      1.0  0.75634  0.62185  0.48656  1.0000
  C   C164      1.0  0.79727  0.81275  0.47520  1.0000
  C   C165      1.0  0.70897  0.75665  0.53557  1.0000
  C   C166      1.0  0.94961  0.68793  0.63154  1.0000
  C   C167      1.0  0.95910  0.71243  0.75305  1.0000
  C   C168      1.0  0.00066  0.71719  0.79457  1.0000
  C   C169      1.0  0.03404  0.69633  0.71774  1.0000
  C   C170      1.0  0.81632  0.51762  0.49998  1.0000
  C   C171      1.0  0.81081  0.47558  0.46586  1.0000
  C   C172      1.0  0.83935  0.61462  0.00932  1.0000
  C   C173      1.0  0.88009  0.58865  0.02430  1.0000
  C   C174      1.0  0.71756  0.82549  0.50143  1.0000
  C   C175      1.0  0.80047  0.59829  0.97900  1.0000
  C   C176      1.0  0.98338  0.66826  0.07270  1.0000
  C   C177      1.0  0.02571  0.66979  0.11363  1.0000
  C   C178      1.0  0.60981  0.74151  0.05168  1.0000
  C   C179      1.0  0.56766  0.73884  0.07903  1.0000
  C   C180      1.0  0.79894  0.55344  0.93170  1.0000
  C   C181      1.0  0.77400  0.54520  0.80948  1.0000
  C   C182      1.0  0.76588  0.50403  0.77324  1.0000
  C   C183      1.0  0.78378  0.46994  0.85624  1.0000
  C   C184      1.0  0.97702  0.20019  0.70439  1.0000
  C   C185      1.0  0.71597  0.17934  0.64579  1.0000
  C   C186      1.0  0.67484  0.17564  0.67673  1.0000
  C   C187      1.0  0.64120  0.20636  0.62364  1.0000
  C   C188      1.0  0.78310  0.35599  0.93790  1.0000
  C   C189      1.0  0.81598  0.32347  0.89503  1.0000
  C   C190      1.0  0.81591  0.28248  0.93886  1.0000
  C   C191      1.0  0.77139  0.22038  0.54273  1.0000
  C   C192      1.0  0.72809  0.21311  0.56235  1.0000
  C   C193      1.0  0.80627  0.18633  0.54812  1.0000
  C   C194      1.0  0.77610  0.13564  0.92671  1.0000
  C   C195      1.0  0.89223  0.17116  0.01608  1.0000
  C   C196      1.0  0.77295  0.09417  0.88629  1.0000
  C   C197      1.0  0.93401  0.17397  0.04980  1.0000
  C   C198      1.0  0.78013  0.39573  0.88507  1.0000
  C   C199      1.0  0.60097  0.20769  0.66675  1.0000
  C   C200      1.0  0.81062  0.01534  0.37651  1.0000
  N   N1        1.0  0.25161  0.23977  0.01975  1.0000
  N   N2        1.0  0.24971  0.14824  0.03682  1.0000
  N   N3        1.0  0.34064  0.13690  0.03322  1.0000
  N   N4        1.0  0.34311  0.22878  0.02203  1.0000
  N   N5        1.0  0.27507  0.90858  0.82450  1.0000
  N   N6        1.0  0.58534  0.15534  0.03341  1.0000
  N   N7        1.0  0.02090  0.19712  0.25971  1.0000
  N   N8        1.0  0.30477  0.47178  0.34099  1.0000
  N   N9        1.0  0.84366  0.65670  0.03764  1.0000
  N   N10       1.0  0.84126  0.74748  0.03916  1.0000
  N   N11       1.0  0.74891  0.75433  0.04150  1.0000
  N   N12       1.0  0.75162  0.66336  0.03819  1.0000
  N   N13       1.0  0.81274  0.98402  0.84348  1.0000
  N   N14       1.0  0.51230  0.71054  0.19013  1.0000
  N   N15       1.0  0.07861  0.70356  0.26524  1.0000
  N   N16       1.0  0.77163  0.42471  0.32494  1.0000
  N   N17       1.0  0.24149  0.24357  0.55084  1.0000
  N   N18       1.0  0.24529  0.15227  0.54889  1.0000
  N   N19       1.0  0.33717  0.14660  0.53268  1.0000
  N   N20       1.0  0.33276  0.23781  0.52759  1.0000
  N   N21       1.0  0.27468  0.91321  0.36208  1.0000
  N   N22       1.0  0.56707  0.21647  0.72550  1.0000
  N   N23       1.0  0.01182  0.18961  0.76103  1.0000
  N   N24       1.0  0.32597  0.46572  0.82773  1.0000
  N   N25       1.0  0.84151  0.65383  0.52350  1.0000
  N   N26       1.0  0.84306  0.74476  0.52675  1.0000
  N   N27       1.0  0.75145  0.75631  0.51250  1.0000
  N   N28       1.0  0.74929  0.66518  0.51178  1.0000
  N   N29       1.0  0.82133  0.98160  0.31359  1.0000
  N   N30       1.0  0.51111  0.71023  0.54405  1.0000
  N   N31       1.0  0.07527  0.70566  0.75825  1.0000
  N   N32       1.0  0.77260  0.42896  0.81882  1.0000
  C  Sn1       1.0  0.09424  0.24046  0.61669  1.0000
  C   C201      1.0  0.13133  0.21741  0.67012  1.0000
  C  Sn2       1.0  0.12939  0.18061  0.74850  1.0000
  C  Sn3       1.0  0.08956  0.16655  0.77395  1.0000
  C   C202      1.0  0.05251  0.18959  0.72051  1.0000
  C  Sn4       1.0  0.05441  0.22640  0.64213  1.0000
  O  Te1       1.0  0.09692  0.27716  0.53860  1.0000
  O  Te2       1.0  0.16690  0.15810  0.80087  1.0000
  O  Te3       1.0  0.08691  0.12982  0.85211  1.0000
  O  Te4       1.0  0.01693  0.24890  0.58976  1.0000
  Mg  Mg1       1.0  0.14684  0.11003  0.90118  1.0000
  Mg  Mg2       1.0  0.03695  0.29696  0.48939  1.0000
  C  Sn5       1.0  0.89326  0.15961  0.54147  1.0000
  C   C203      1.0  0.85665  0.18387  0.58788  1.0000
  C  Sn6       1.0  0.85927  0.22270  0.65895  1.0000
  C  Sn7       1.0  0.89931  0.23762  0.68409  1.0000
  C   C204      1.0  0.93588  0.21338  0.63767  1.0000
  C  Sn8       1.0  0.93329  0.17453  0.56660  1.0000
  O  Te5       1.0  0.88989  0.12089  0.47063  1.0000
  O  Te6       1.0  0.82224  0.24638  0.70439  1.0000
  O  Te7       1.0  0.90265  0.27638  0.75500  1.0000
  O  Te8       1.0  0.97030  0.15087  0.52116  1.0000
  Mg  Mg3       1.0  0.84317  0.29714  0.79626  1.0000
  Mg  Mg4       1.0  0.94940  0.10011  0.42922  1.0000
  C  Sn9       1.0  0.33967  0.58634  0.57486  1.0000
  C   C205      1.0  0.31470  0.62370  0.53491  1.0000
  C  Sn10      1.0  0.27487  0.62196  0.46897  1.0000
  C  Sn11      1.0  0.25967  0.58203  0.44247  1.0000
  C   C206      1.0  0.28462  0.54470  0.48243  1.0000
  C  Sn12      1.0  0.32446  0.54641  0.54837  1.0000
  O  Te9       1.0  0.37939  0.58884  0.64066  1.0000
  O  Te10      1.0  0.25049  0.65974  0.42995  1.0000
  O  Te11      1.0  0.21991  0.57956  0.37662  1.0000
  O  Te12      1.0  0.34883  0.50866  0.58739  1.0000
  Mg  Mg5       1.0  0.19847  0.63985  0.34329  1.0000
  Mg  Mg6       1.0  0.40084  0.52851  0.67412  1.0000
  C  Sn13      1.0  0.32920  0.77680  0.49369  1.0000
  C   C207      1.0  0.30141  0.75907  0.58157  1.0000
  C  Sn14      1.0  0.26315  0.78221  0.61814  1.0000
  C  Sn15      1.0  0.25242  0.82392  0.56572  1.0000
  C   C208      1.0  0.28019  0.84162  0.47788  1.0000
  C  Sn16      1.0  0.31847  0.81851  0.44127  1.0000
  O  Te13      1.0  0.36728  0.75310  0.45849  1.0000
  O  Te14      1.0  0.23589  0.76381  0.70620  1.0000
  O  Te15      1.0  0.21430  0.84762  0.60100  1.0000
  O  Te16      1.0  0.34571  0.83688  0.35325  1.0000
  Mg  Mg7       1.0  0.18765  0.80877  0.72413  1.0000
  Mg  Mg8       1.0  0.39394  0.79195  0.33519  1.0000
  C  Sn17      1.0  0.26683  0.81814  0.08653  1.0000
  C   C209      1.0  0.30261  0.83728  0.98667  1.0000
  C  Sn18      1.0  0.32451  0.80896  0.89176  1.0000
  C  Sn19      1.0  0.31999  0.76495  0.89668  1.0000
  C   C210      1.0  0.29369  0.75019  0.99647  1.0000
  C  Sn20      1.0  0.26232  0.77413  0.09145  1.0000
  O  Te17      1.0  0.24525  0.84702  0.18037  1.0000
  O  Te18      1.0  0.35064  0.82448  0.79292  1.0000
  O  Te19      1.0  0.34161  0.73606  0.80273  1.0000
  O  Te20      1.0  0.23619  0.75862  0.19023  1.0000
  Mg  Mg9       1.0  0.37344  0.77261  0.68740  1.0000
  Mg  Mg10      1.0  0.21336  0.81047  0.29574  1.0000
  C  Sn21      1.0  0.26948  0.99675  0.28191  1.0000
  C   C211      1.0  0.28812  0.96083  0.35430  1.0000
  C  Sn22      1.0  0.30765  0.96500  0.48874  1.0000
  C  Sn23      1.0  0.42134  0.00592  0.55222  1.0000
  C   C212      1.0  0.40270  0.04181  0.47986  1.0000
  C  Sn24      1.0  0.38317  0.03767  0.34538  1.0000
  O  Te21      1.0  0.25013  0.99183  0.14761  1.0000
  O  Te22      1.0  0.32608  0.92863  0.55902  1.0000
  O  Te23      1.0  0.44070  0.01081  0.68663  1.0000
  O  Te24      1.0  0.36473  0.07401  0.27514  1.0000
  Mg  Mg11      1.0  0.34862  0.95171  0.74007  1.0000
  Mg  Mg12      1.0  0.34217  0.05096  0.09413  1.0000
  C  Sn25      1.0  0.84073  0.87169  0.33536  1.0000
  C   C213      1.0  0.81432  0.85927  0.43928  1.0000
  C  Sn26      1.0  0.78313  0.88864  0.49714  1.0000
  C  Sn27      1.0  0.77821  0.93129  0.45011  1.0000
  C   C214      1.0  0.80460  0.94369  0.34625  1.0000
  C  Sn28      1.0  0.83581  0.91434  0.28833  1.0000
  O  Te25      1.0  0.87170  0.84179  0.27899  1.0000
  O  Te26      1.0  0.75711  0.87548  0.60094  1.0000
  O  Te27      1.0  0.74720  0.96119  0.50659  1.0000
  O  Te28      1.0  0.86181  0.92748  0.18458  1.0000
  Mg  Mg13      1.0  0.71950  0.92793  0.64546  1.0000
  Mg  Mg14      1.0  0.89942  0.87505  0.13994  1.0000
  C  Sn29      1.0  0.60277  0.76326  0.49041  1.0000
  C   C215      1.0  0.63361  0.74006  0.57620  1.0000
  C  Sn30      1.0  0.62376  0.70492  0.65110  1.0000
  C  Sn31      1.0  0.58221  0.69269  0.63997  1.0000
  C   C216      1.0  0.55139  0.71587  0.55421  1.0000
  C  Sn32      1.0  0.56122  0.75102  0.47928  1.0000
  O  Te29      1.0  0.61333  0.79827  0.41648  1.0000
  O  Te30      1.0  0.65512  0.68224  0.73623  1.0000
  O  Te31      1.0  0.57167  0.65764  0.71400  1.0000
  O  Te32      1.0  0.52989  0.77369  0.39418  1.0000
  Mg  Mg15      1.0  0.62530  0.63687  0.81618  1.0000
  Mg  Mg16      1.0  0.55967  0.81905  0.31413  1.0000
  C  Sn33      1.0  0.82153  0.28454  0.44109  1.0000
  C   C217      1.0  0.79419  0.26902  0.53594  1.0000
  C  Sn34      1.0  0.75785  0.29443  0.57859  1.0000
  C  Sn35      1.0  0.74862  0.33621  0.52525  1.0000
  C   C218      1.0  0.77594  0.35170  0.43044  1.0000
  C  Sn36      1.0  0.81230  0.32632  0.38775  1.0000
  O  Te33      1.0  0.85768  0.25858  0.39989  1.0000
  O  Te34      1.0  0.73100  0.27823  0.67356  1.0000
  O  Te35      1.0  0.71243  0.36217  0.56654  1.0000
  O  Te36      1.0  0.83913  0.34250  0.29283  1.0000
  Mg  Mg17      1.0  0.68561  0.32579  0.69798  1.0000
  Mg  Mg18      1.0  0.88452  0.29496  0.26827  1.0000
  C  Sn37      1.0  0.69657  0.17644  0.20972  1.0000
  C   C219      1.0  0.65889  0.19291  0.14000  1.0000
  C  Sn38      1.0  0.65978  0.21872  0.02113  1.0000
  C  Sn39      1.0  0.70862  0.23262  0.97084  1.0000
  C   C220      1.0  0.73680  0.21179  0.04054  1.0000
  C  Sn40      1.0  0.73594  0.18597  0.15943  1.0000
  O  Te37      1.0  0.69494  0.15069  0.32834  1.0000
  O  Te38      1.0  0.63116  0.23919  0.95323  1.0000
  O  Te39      1.0  0.71022  0.25839  0.85212  1.0000
  O  Te40      1.0  0.77400  0.16986  0.22730  1.0000
  Mg  Mg19      1.0  0.64982  0.27275  0.79576  1.0000
  Mg  Mg20      1.0  0.75537  0.13628  0.38472  1.0000
  C  Sn41      1.0  0.76964  0.90777  0.99578  1.0000
  C   C221      1.0  0.78834  0.86996  0.93449  1.0000
  C  Sn42      1.0  0.82277  0.87028  0.84604  1.0000
  C  Sn43      1.0  0.83887  0.90921  0.81832  1.0000
  C   C222      1.0  0.82018  0.94699  0.87961  1.0000
  C  Sn44      1.0  0.78574  0.94670  0.96807  1.0000
  O  Te41      1.0  0.72577  0.90234  0.08388  1.0000
  O  Te42      1.0  0.84093  0.83208  0.78594  1.0000
  O  Te43      1.0  0.87329  0.91025  0.73014  1.0000
  O  Te44      1.0  0.75811  0.98051  0.02816  1.0000
  Mg  Mg21      1.0  0.88724  0.84990  0.67319  1.0000
  Mg  Mg22      1.0  0.71182  0.96272  0.14098  1.0000
  C  Sn45      1.0  0.28814  0.40972  0.99338  1.0000
  C   C223      1.0  0.31591  0.42267  0.89481  1.0000
  C  Sn46      1.0  0.33357  0.39406  0.79216  1.0000
  C  Sn47      1.0  0.32324  0.35161  0.78787  1.0000
  C   C224      1.0  0.29549  0.33868  0.88638  1.0000
  C  Sn48      1.0  0.27781  0.36728  0.98909  1.0000
  O  Te45      1.0  0.26139  0.43451  0.09506  1.0000
  O  Te46      1.0  0.36127  0.40774  0.69478  1.0000
  O  Te47      1.0  0.34056  0.32247  0.68607  1.0000
  O  Te48      1.0  0.24066  0.34925  0.08641  1.0000
  Mg  Mg23      1.0  0.37666  0.35624  0.57634  1.0000
  Mg  Mg24      1.0  0.22523  0.40073  0.20484  1.0000
  C  Sn49      1.0  0.48883  0.15820  0.56448  1.0000
  C   C225      1.0  0.45112  0.17590  0.62475  1.0000
  C  Sn50      1.0  0.45059  0.21176  0.71401  1.0000
  C  Sn51      1.0  0.48854  0.23034  0.74358  1.0000
  C   C226      1.0  0.52622  0.21265  0.68331  1.0000
  C  Sn52      1.0  0.52678  0.17678  0.59405  1.0000
  O  Te49      1.0  0.48861  0.12234  0.47555  1.0000
  O  Te50      1.0  0.41251  0.22888  0.77306  1.0000
  O  Te51      1.0  0.48873  0.26623  0.83260  1.0000
  O  Te52      1.0  0.56483  0.15967  0.53501  1.0000
  Mg  Mg25      1.0  0.42894  0.27792  0.88756  1.0000
  Mg  Mg26      1.0  0.54843  0.11064  0.42044  1.0000
  C  Sn53      1.0  0.19391  0.73295  0.05342  1.0000
  C   C227      1.0  0.23110  0.70764  0.09429  1.0000
  C  Sn54      1.0  0.22923  0.66854  0.15905  1.0000
  C  Sn55      1.0  0.18936  0.65441  0.18340  1.0000
  C   C228      1.0  0.15220  0.67970  0.14252  1.0000
  C  Sn56      1.0  0.15403  0.71882  0.07777  1.0000
  O  Te53      1.0  0.20599  0.77629  0.98884  1.0000
  O  Te54      1.0  0.26684  0.64381  0.19901  1.0000
  O  Te55      1.0  0.18677  0.61539  0.24804  1.0000
  O  Te56      1.0  0.11645  0.74354  0.03780  1.0000
  Mg  Mg27      1.0  0.24684  0.59309  0.28337  1.0000
  Mg  Mg28      1.0  0.14589  0.79861  0.95337  1.0000
  C  Sn57      1.0  0.75816  0.11559  0.45795  1.0000
  C   C229      1.0  0.78560  0.13444  0.55269  1.0000
  C  Sn58      1.0  0.82558  0.11356  0.58783  1.0000
  C  Sn59      1.0  0.83841  0.07298  0.52695  1.0000
  C   C230      1.0  0.81098  0.05415  0.43226  1.0000
  C  Sn60      1.0  0.77099  0.07502  0.39707  1.0000
  O  Te57      1.0  0.71834  0.13705  0.42433  1.0000
  O  Te58      1.0  0.85246  0.13304  0.68284  1.0000
  O  Te59      1.0  0.87826  0.05153  0.56066  1.0000
  O  Te60      1.0  0.74412  0.05556  0.30211  1.0000
  Mg  Mg29      1.0  0.90358  0.09114  0.69536  1.0000
  Mg  Mg30      1.0  0.69300  0.09743  0.28945  1.0000
  C  Sn61      1.0  0.19278  0.73701  0.55860  1.0000
  C   C231      1.0  0.22945  0.71429  0.61653  1.0000
  C  Sn62      1.0  0.22714  0.67650  0.68906  1.0000
  C  Sn63      1.0  0.18737  0.66109  0.70393  1.0000
  C   C232      1.0  0.15074  0.68380  0.64600  1.0000
  C  Sn64      1.0  0.15301  0.72159  0.57347  1.0000
  O  Te61      1.0  0.19583  0.77470  0.48650  1.0000
  O  Te62      1.0  0.26423  0.65436  0.74611  1.0000
  O  Te63      1.0  0.18435  0.62336  0.77610  1.0000
  O  Te64      1.0  0.11595  0.74373  0.51642  1.0000
  Mg  Mg31      1.0  0.24378  0.60456  0.83503  1.0000
  Mg  Mg32      1.0  0.13637  0.79351  0.42742  1.0000
