data_image0
_chemical_formula_structural       H40C104N32SnCSn2CSnTe4Mg2SnCSn2CSnTe4Mg2SnCSn2CSnTe4Mg2SnCSn2CSnTe4Mg2SnCSn2CSnTe4Mg2SnCSn2CSnTe4Mg2SnCSn2CSnTe4Mg2SnCSn2CSnTe4Mg2SnCSn2CSnTe4Mg2SnCSn2CSnTe4Mg2SnCSn2CSnTe4Mg2SnCSn2CSnTe4Mg2SnCSn2CSnTe4Mg2SnCSn2CSnTe4Mg2SnCSn2CSnTe4Mg2SnCSn2CSnTe4Mg2SnCSn2CSnTe4Mg2SnCSn2CSnTe4Mg2SnCSn2CSnTe4Mg2SnCSn2CSnTe4Mg2SnCSn2CSnTe4Mg2SnCSn2CSnTe4Mg2SnCSn2CSnTe4Mg2SnCSn2CSnTe4Mg2SnCSn2CSnTe4Mg2SnCSn2CSnTe4Mg2SnCSn2CSnTe4Mg2SnCSn2CSnTe4Mg2SnCSn2CSnTe4Mg2SnCSn2CSnTe4Mg2SnCSn2CSnTe4Mg2SnCSn2CSnTe4Mg2
_chemical_formula_sum              "H40 C168 N32 Sn128 Te128 Mg64"
_cell_length_a       31.8012
_cell_length_b       31.6543
_cell_length_c       9.37534
_cell_angle_alpha    91.0524
_cell_angle_beta     91.9367
_cell_angle_gamma    83.4928

_symmetry_space_group_name_H-M    'P1'
_space_group_IT_number       1

loop_
  _space_group_symop_operation_xyz
  'x, y, z'

loop_
  _atom_site_type_symbol
  _atom_site_label
  _atom_site_symmetry_multiplicity
  _atom_site_fract_x
  _atom_site_fract_y
  _atom_site_fract_z
  _atom_site_occupancy
  H   H1        1.0  0.15355  0.29213  0.03343  1.0000
  H   H2        1.0  0.15277  0.12396  0.07500  1.0000
  H   H3        1.0  0.20950  0.05696  0.01663  1.0000
  H   H4        1.0  0.43869  0.08476  0.06903  1.0000
  H   H5        1.0  0.43976  0.25540  0.06925  1.0000
  H   H6        1.0  0.38081  0.32122  0.01605  1.0000
  H   H7        1.0  0.27334  0.16754  0.03541  1.0000
  H   H8        1.0  0.32022  0.20860  0.01557  1.0000
  H   H9        1.0  0.19735  0.34526  0.53334  1.0000
  H   H10       1.0  0.38110  0.04617  0.47396  1.0000
  H   H11       1.0  0.94146  0.60675  0.10040  1.0000
  H   H12       1.0  0.93669  0.77812  0.06862  1.0000
  H   H13       1.0  0.87586  0.84062  0.00143  1.0000
  H   H14       1.0  0.65180  0.80369  0.10361  1.0000
  H   H15       1.0  0.65553  0.63406  0.02942  1.0000
  H   H16       1.0  0.71592  0.57152  0.96502  1.0000
  H   H17       1.0  0.81954  0.72605  0.03739  1.0000
  H   H18       1.0  0.77363  0.68441  0.04841  1.0000
  H   H19       1.0  0.88125  0.55247  0.45926  1.0000
  H   H20       1.0  0.71288  0.85947  0.48673  1.0000
  H   H21       1.0  0.14513  0.29229  0.62787  1.0000
  H   H22       1.0  0.15089  0.12077  0.57735  1.0000
  H   H23       1.0  0.21070  0.05849  0.50762  1.0000
  H   H24       1.0  0.43768  0.09967  0.54742  1.0000
  H   H25       1.0  0.42801  0.26890  0.52429  1.0000
  H   H26       1.0  0.36545  0.33097  0.47130  1.0000
  H   H27       1.0  0.26706  0.17361  0.54952  1.0000
  H   H28       1.0  0.31115  0.21661  0.53694  1.0000
  H   H29       1.0  0.21015  0.33899  0.93388  1.0000
  H   H30       1.0  0.37949  0.03356  0.00721  1.0000
  H   H31       1.0  0.93960  0.60159  0.55355  1.0000
  H   H32       1.0  0.93956  0.77102  0.58081  1.0000
  H   H33       1.0  0.88214  0.83644  0.51051  1.0000
  H   H34       1.0  0.65520  0.80973  0.56120  1.0000
  H   H35       1.0  0.65222  0.63932  0.52706  1.0000
  H   H36       1.0  0.71051  0.57335  0.47805  1.0000
  H   H37       1.0  0.82014  0.72463  0.52044  1.0000
  H   H38       1.0  0.77209  0.68544  0.51316  1.0000
  H   H39       1.0  0.88619  0.55473  0.00519  1.0000
  H   H40       1.0  0.70541  0.85612  0.01868  1.0000
  C   C1        1.0  0.18686  0.28243  0.01922  1.0000
  C   C2        1.0  0.20914  0.24020  0.04370  1.0000
  C   C3        1.0  0.18910  0.20423  0.07825  1.0000
  C   C4        1.0  0.20795  0.16163  0.06430  1.0000
  C   C5        1.0  0.18628  0.12428  0.05960  1.0000
  C   C6        1.0  0.21523  0.08988  0.02818  1.0000
  C   C7        1.0  0.25565  0.10481  0.01485  1.0000
  C   C8        1.0  0.40516  0.09392  0.05050  1.0000
  C   C9        1.0  0.33454  0.09482  0.01455  1.0000
  C   C10       1.0  0.40519  0.17392  0.06186  1.0000
  C   C11       1.0  0.38570  0.21632  0.05005  1.0000
  C   C12       1.0  0.40619  0.25423  0.05038  1.0000
  C   C13       1.0  0.37599  0.28802  0.02076  1.0000
  C   C14       1.0  0.33594  0.27202  0.99915  1.0000
  C   C15       1.0  0.29467  0.07950  0.99612  1.0000
  C   C16       1.0  0.38367  0.13727  0.05145  1.0000
  C   C17       1.0  0.24448  0.28581  0.52638  1.0000
  C   C18       1.0  0.20412  0.31135  0.54867  1.0000
  C   C19       1.0  0.37484  0.06775  0.02088  1.0000
  C   C20       1.0  0.28183  0.30288  0.49075  1.0000
  C   C21       1.0  0.11221  0.69231  0.20732  1.0000
  C   C22       1.0  0.31724  0.67216  0.05707  1.0000
  C   C23       1.0  0.28049  0.70443  0.04965  1.0000
  C   C24       1.0  0.29668  0.50557  0.40579  1.0000
  C   C25       1.0  0.48292  0.70684  0.28056  1.0000
  C   C26       1.0  0.28574  0.87384  0.87767  1.0000
  C   C27       1.0  0.90850  0.61536  0.07086  1.0000
  C   C28       1.0  0.88582  0.65809  0.07172  1.0000
  C   C29       1.0  0.90520  0.69591  0.09309  1.0000
  C   C30       1.0  0.88407  0.73706  0.06719  1.0000
  C   C31       1.0  0.90321  0.77554  0.05388  1.0000
  C   C32       1.0  0.87190  0.80762  0.01795  1.0000
  C   C33       1.0  0.83215  0.79019  0.00931  1.0000
  C   C34       1.0  0.68446  0.79537  0.07595  1.0000
  C   C35       1.0  0.75285  0.79650  0.01819  1.0000
  C   C36       1.0  0.68775  0.71469  0.08729  1.0000
  C   C37       1.0  0.70886  0.67384  0.05671  1.0000
  C   C38       1.0  0.68921  0.63601  0.02719  1.0000
  C   C39       1.0  0.72028  0.60406  0.99219  1.0000
  C   C40       1.0  0.76015  0.62118  0.99811  1.0000
  C   C41       1.0  0.79137  0.81318  0.99094  1.0000
  C   C42       1.0  0.70711  0.75269  0.07301  1.0000
  C   C43       1.0  0.83568  0.61241  0.48970  1.0000
  C   C44       1.0  0.87624  0.58571  0.48994  1.0000
  C   C45       1.0  0.71216  0.82224  0.03438  1.0000
  C   C46       1.0  0.79586  0.59708  0.46710  1.0000
  C   C47       1.0  0.98643  0.20516  0.19783  1.0000
  C   C48       1.0  0.77938  0.22532  0.05239  1.0000
  C   C49       1.0  0.81498  0.19189  0.05155  1.0000
  C   C50       1.0  0.78119  0.39100  0.38695  1.0000
  C   C51       1.0  0.61493  0.17350  0.08113  1.0000
  C   C52       1.0  0.80384  0.01908  0.89901  1.0000
  C   C53       1.0  0.17729  0.28422  0.59445  1.0000
  C   C54       1.0  0.20038  0.24168  0.58886  1.0000
  C   C55       1.0  0.18202  0.20356  0.60792  1.0000
  C   C56       1.0  0.20309  0.16245  0.57891  1.0000
  C   C57       1.0  0.18403  0.12367  0.56359  1.0000
  C   C58       1.0  0.21481  0.09160  0.52623  1.0000
  C   C59       1.0  0.25402  0.10944  0.51667  1.0000
  C   C60       1.0  0.40366  0.10703  0.53602  1.0000
  C   C61       1.0  0.33314  0.10443  0.50495  1.0000
  C   C62       1.0  0.39827  0.18735  0.56731  1.0000
  C   C63       1.0  0.37590  0.22790  0.54358  1.0000
  C   C64       1.0  0.39440  0.26631  0.52093  1.0000
  C   C65       1.0  0.36221  0.29808  0.49229  1.0000
  C   C66       1.0  0.32278  0.28034  0.49789  1.0000
  C   C67       1.0  0.29423  0.08697  0.49070  1.0000
  C   C68       1.0  0.37988  0.14895  0.55012  1.0000
  C   C69       1.0  0.25682  0.28046  0.98000  1.0000
  C   C70       1.0  0.21598  0.30664  0.97086  1.0000
  C   C71       1.0  0.37474  0.07968  0.50017  1.0000
  C   C72       1.0  0.29643  0.29606  0.96474  1.0000
  C   C73       1.0  0.10939  0.69601  0.70210  1.0000
  C   C74       1.0  0.31304  0.67330  0.57550  1.0000
  C   C75       1.0  0.28051  0.70909  0.57925  1.0000
  C   C76       1.0  0.31911  0.49891  0.89763  1.0000
  C   C77       1.0  0.48309  0.70409  0.44349  1.0000
  C   C78       1.0  0.28382  0.88087  0.43231  1.0000
  C   C79       1.0  0.90610  0.61096  0.53558  1.0000
  C   C80       1.0  0.88421  0.65371  0.55110  1.0000
  C   C81       1.0  0.90459  0.69044  0.58128  1.0000
  C   C82       1.0  0.88509  0.73240  0.56161  1.0000
  C   C83       1.0  0.90613  0.77009  0.55875  1.0000
  C   C84       1.0  0.87673  0.80358  0.52123  1.0000
  C   C85       1.0  0.83640  0.78786  0.50149  1.0000
  C   C86       1.0  0.68791  0.80004  0.53670  1.0000
  C   C87       1.0  0.75742  0.79803  0.49229  1.0000
  C   C88       1.0  0.68734  0.72030  0.54642  1.0000
  C   C89       1.0  0.70673  0.67792  0.53039  1.0000
  C   C90       1.0  0.68590  0.64017  0.51815  1.0000
  C   C91       1.0  0.71586  0.60630  0.49188  1.0000
  C   C92       1.0  0.75634  0.62185  0.48656  1.0000
  C   C93       1.0  0.79727  0.81275  0.47520  1.0000
  C   C94       1.0  0.70897  0.75665  0.53557  1.0000
  C   C95       1.0  0.83935  0.61462  0.00932  1.0000
  C   C96       1.0  0.88009  0.58865  0.02430  1.0000
  C   C97       1.0  0.71756  0.82549  0.50143  1.0000
  C   C98       1.0  0.80047  0.59829  0.97900  1.0000
  C   C99       1.0  0.97702  0.20019  0.70439  1.0000
  C   C100      1.0  0.77139  0.22038  0.54273  1.0000
  C   C101      1.0  0.80627  0.18633  0.54812  1.0000
  C   C102      1.0  0.78013  0.39573  0.88507  1.0000
  C   C103      1.0  0.60097  0.20769  0.66675  1.0000
  C   C104      1.0  0.81062  0.01534  0.37651  1.0000
  N   N1        1.0  0.25161  0.23977  0.01975  1.0000
  N   N2        1.0  0.24971  0.14824  0.03682  1.0000
  N   N3        1.0  0.34064  0.13690  0.03322  1.0000
  N   N4        1.0  0.34311  0.22878  0.02203  1.0000
  N   N5        1.0  0.27507  0.90858  0.82450  1.0000
  N   N6        1.0  0.58534  0.15534  0.03341  1.0000
  N   N7        1.0  0.02090  0.19712  0.25971  1.0000
  N   N8        1.0  0.30477  0.47178  0.34099  1.0000
  N   N9        1.0  0.84366  0.65670  0.03764  1.0000
  N   N10       1.0  0.84126  0.74748  0.03916  1.0000
  N   N11       1.0  0.74891  0.75433  0.04150  1.0000
  N   N12       1.0  0.75162  0.66336  0.03819  1.0000
  N   N13       1.0  0.81274  0.98402  0.84348  1.0000
  N   N14       1.0  0.51230  0.71054  0.19013  1.0000
  N   N15       1.0  0.07861  0.70356  0.26524  1.0000
  N   N16       1.0  0.77163  0.42471  0.32494  1.0000
  N   N17       1.0  0.24149  0.24357  0.55084  1.0000
  N   N18       1.0  0.24529  0.15227  0.54889  1.0000
  N   N19       1.0  0.33717  0.14660  0.53268  1.0000
  N   N20       1.0  0.33276  0.23781  0.52759  1.0000
  N   N21       1.0  0.27468  0.91321  0.36208  1.0000
  N   N22       1.0  0.56707  0.21647  0.72550  1.0000
  N   N23       1.0  0.01182  0.18961  0.76103  1.0000
  N   N24       1.0  0.32597  0.46572  0.82773  1.0000
  N   N25       1.0  0.84151  0.65383  0.52350  1.0000
  N   N26       1.0  0.84306  0.74476  0.52675  1.0000
  N   N27       1.0  0.75145  0.75631  0.51250  1.0000
  N   N28       1.0  0.74929  0.66518  0.51178  1.0000
  N   N29       1.0  0.82133  0.98160  0.31359  1.0000
  N   N30       1.0  0.51111  0.71023  0.54405  1.0000
  N   N31       1.0  0.07527  0.70566  0.75825  1.0000
  N   N32       1.0  0.77260  0.42896  0.81882  1.0000
  C  Sn1       1.0  0.10149  0.24253  0.08269  1.0000
  C   C105      1.0  0.13911  0.22164  0.14054  1.0000
  C  Sn2       1.0  0.13809  0.18844  0.23606  1.0000
  C  Sn3       1.0  0.09864  0.17585  0.27449  1.0000
  C   C106      1.0  0.06105  0.19673  0.21664  1.0000
  C  Sn4       1.0  0.06204  0.22994  0.12113  1.0000
  O  Te1       1.0  0.11273  0.27999  0.98740  1.0000
  O  Te2       1.0  0.17612  0.16804  0.29253  1.0000
  O  Te3       1.0  0.09690  0.14272  0.36987  1.0000
  O  Te4       1.0  0.02404  0.25032  0.06465  1.0000
  Mg  Mg1       1.0  0.15727  0.12472  0.41810  1.0000
  Mg  Mg2       1.0  0.05233  0.29800  0.93902  1.0000
  C  Sn5       1.0  0.48567  0.19861  0.15281  1.0000
  C   C107      1.0  0.45703  0.17943  0.06356  1.0000
  C  Sn6       1.0  0.48067  0.14976  0.97401  1.0000
  C  Sn7       1.0  0.52437  0.13454  0.97371  1.0000
  C   C108      1.0  0.54350  0.14935  0.06293  1.0000
  C  Sn8       1.0  0.52937  0.18340  0.15251  1.0000
  O  Te5       1.0  0.47080  0.23260  0.24147  1.0000
  O  Te6       1.0  0.45144  0.13111  0.88569  1.0000
  O  Te7       1.0  0.53922  0.10053  0.88494  1.0000
  O  Te8       1.0  0.55857  0.20203  0.24080  1.0000
  Mg  Mg3       1.0  0.48711  0.08565  0.78398  1.0000
  Mg  Mg4       1.0  0.52292  0.24748  0.34260  1.0000
  C  Sn9       1.0  0.26587  0.38615  0.94640  1.0000
  C   C109      1.0  0.28687  0.34787  0.89613  1.0000
  C  Sn10      1.0  0.32527  0.34738  0.82770  1.0000
  C  Sn11      1.0  0.34307  0.38594  0.80920  1.0000
  C   C110      1.0  0.32208  0.42419  0.85948  1.0000
  C  Sn12      1.0  0.28367  0.42471  0.92791  1.0000
  O  Te9       1.0  0.21805  0.38153  0.01451  1.0000
  O  Te10      1.0  0.34567  0.30872  0.77831  1.0000
  O  Te11      1.0  0.38145  0.38617  0.74103  1.0000
  O  Te12      1.0  0.26328  0.46334  0.97730  1.0000
  Mg  Mg5       1.0  0.39723  0.32546  0.69241  1.0000
  Mg  Mg6       1.0  0.20226  0.44227  0.06327  1.0000
  C  Sn13      1.0  0.29203  0.96151  0.02957  1.0000
  C   C111      1.0  0.27856  0.95182  0.91166  1.0000
  C  Sn14      1.0  0.26430  0.97979  0.80229  1.0000
  C  Sn15      1.0  0.38599  0.02269  0.81091  1.0000
  C   C112      1.0  0.40892  0.03671  0.92875  1.0000
  C  Sn16      1.0  0.41371  0.00441  0.03819  1.0000
  O  Te13      1.0  0.30597  0.93300  0.13765  1.0000
  O  Te14      1.0  0.24142  0.96501  0.68550  1.0000
  O  Te15      1.0  0.37203  0.05120  0.70270  1.0000
  O  Te16      1.0  0.43659  0.01917  0.15492  1.0000
  Mg  Mg7       1.0  0.34205  0.01598  0.56525  1.0000
  Mg  Mg8       1.0  0.33600  0.96822  0.27519  1.0000
  C  Sn17      1.0  0.11980  0.16401  0.74266  1.0000
  C   C113      1.0  0.13418  0.19130  0.64429  1.0000
  C  Sn18      1.0  0.10718  0.22572  0.59117  1.0000
  C  Sn19      1.0  0.06494  0.23304  0.63739  1.0000
  C   C114      1.0  0.05058  0.20576  0.73572  1.0000
  C  Sn20      1.0  0.07756  0.17133  0.78889  1.0000
  O  Te17      1.0  0.14735  0.12980  0.79436  1.0000
  O  Te18      1.0  0.12227  0.25255  0.49286  1.0000
  O  Te19      1.0  0.03739  0.26728  0.58560  1.0000
  O  Te20      1.0  0.06249  0.14451  0.88715  1.0000
  Mg  Mg9       1.0  0.07269  0.29490  0.45337  1.0000
  Mg  Mg10      1.0  0.11205  0.10217  0.92677  1.0000
  C  Sn21      1.0  0.51066  0.18276  0.53185  1.0000
  C   C115      1.0  0.52413  0.20789  0.64481  1.0000
  C  Sn22      1.0  0.49681  0.22120  0.75449  1.0000
  C  Sn23      1.0  0.45517  0.20913  0.75126  1.0000
  C   C116      1.0  0.44173  0.18401  0.63837  1.0000
  C  Sn24      1.0  0.46903  0.17069  0.52862  1.0000
  O  Te21      1.0  0.53851  0.16981  0.42334  1.0000
  O  Te22      1.0  0.51098  0.24632  0.86627  1.0000
  O  Te23      1.0  0.42733  0.22211  0.85989  1.0000
  O  Te24      1.0  0.45488  0.14558  0.41690  1.0000
  Mg  Mg11      1.0  0.46131  0.25600  0.98931  1.0000
  Mg  Mg12      1.0  0.50452  0.13586  0.29386  1.0000
  C  Sn25      1.0  0.25376  0.39321  0.51012  1.0000
  C   C117      1.0  0.26897  0.35531  0.44115  1.0000
  C  Sn26      1.0  0.30031  0.35497  0.34014  1.0000
  C  Sn27      1.0  0.31681  0.39332  0.30743  1.0000
  C   C118      1.0  0.30161  0.43119  0.37640  1.0000
  C  Sn28      1.0  0.27026  0.43156  0.47741  1.0000
  O  Te25      1.0  0.22242  0.39281  0.61075  1.0000
  O  Te26      1.0  0.31501  0.31668  0.27256  1.0000
  O  Te27      1.0  0.34817  0.39370  0.20671  1.0000
  O  Te28      1.0  0.25557  0.46982  0.54499  1.0000
  Mg  Mg13      1.0  0.35799  0.33350  0.14331  1.0000
  Mg  Mg14      1.0  0.21261  0.45303  0.67430  1.0000
  C  Sn29      1.0  0.25336  0.02258  0.35444  1.0000
  C   C119      1.0  0.28043  0.03898  0.45647  1.0000
  C  Sn30      1.0  0.31330  0.01244  0.52193  1.0000
  C  Sn31      1.0  0.20645  0.96860  0.48457  1.0000
  C   C120      1.0  0.17940  0.95222  0.38258  1.0000
  C  Sn32      1.0  0.14652  0.97873  0.31708  1.0000
  O  Te29      1.0  0.22072  0.04969  0.29036  1.0000
  O  Te30      1.0  0.33995  0.02957  0.62367  1.0000
  O  Te31      1.0  0.23913  0.94148  0.54875  1.0000
  O  Te32      1.0  0.11989  0.96163  0.21538  1.0000
  Mg  Mg15      1.0  0.26712  0.97979  0.68114  1.0000
  Mg  Mg16      1.0  0.19272  0.01138  0.15779  1.0000
  C  Sn33      1.0  0.39255  0.72029  0.27208  1.0000
  C   C121      1.0  0.43270  0.70181  0.23408  1.0000
  C  Sn34      1.0  0.43786  0.67806  0.10758  1.0000
  C  Sn35      1.0  0.40214  0.67268  0.01711  1.0000
  C   C122      1.0  0.36202  0.69116  0.05511  1.0000
  C  Sn36      1.0  0.35683  0.71491  0.18162  1.0000
  O  Te33      1.0  0.38813  0.74391  0.39905  1.0000
  O  Te34      1.0  0.47831  0.65989  0.07188  1.0000
  O  Te35      1.0  0.41606  0.65340  0.89007  1.0000
  O  Te36      1.0  0.31641  0.73308  0.21731  1.0000
  Mg  Mg17      1.0  0.47761  0.63490  0.88772  1.0000
  Mg  Mg18      1.0  0.32655  0.76246  0.40139  1.0000
  C  Sn37      1.0  0.32866  0.76876  0.94175  1.0000
  C   C123      1.0  0.29236  0.74952  0.03969  1.0000
  C  Sn38      1.0  0.25573  0.77484  0.08032  1.0000
  C  Sn39      1.0  0.24570  0.81588  0.02178  1.0000
  C   C124      1.0  0.28199  0.83511  0.92389  1.0000
  C  Sn40      1.0  0.31862  0.80981  0.88321  1.0000
  O  Te37      1.0  0.36511  0.74290  0.90265  1.0000
  O  Te38      1.0  0.22941  0.75927  0.17844  1.0000
  O  Te39      1.0  0.20922  0.84174  0.06097  1.0000
  O  Te40      1.0  0.34494  0.82535  0.78513  1.0000
  Mg  Mg19      1.0  0.18334  0.80641  0.19825  1.0000
  Mg  Mg20      1.0  0.39100  0.77824  0.76520  1.0000
  C  Sn41      1.0  0.19819  0.66578  0.23570  1.0000
  C   C125      1.0  0.16080  0.69003  0.19059  1.0000
  C  Sn42      1.0  0.15998  0.71503  0.06909  1.0000
  C  Sn43      1.0  0.20677  0.72017  0.99100  1.0000
  C   C126      1.0  0.23466  0.69157  0.03610  1.0000
  C  Sn44      1.0  0.23552  0.66655  0.15760  1.0000
  O  Te41      1.0  0.19828  0.64101  0.35747  1.0000
  O  Te42      1.0  0.12222  0.73901  0.02611  1.0000
  O  Te43      1.0  0.20665  0.74497  0.86915  1.0000
  O  Te44      1.0  0.27324  0.64258  0.20058  1.0000
  Mg  Mg21      1.0  0.14750  0.77209  0.85319  1.0000
  Mg  Mg22      1.0  0.25746  0.61384  0.37343  1.0000
  C  Sn45      1.0  0.32262  0.56089  0.61875  1.0000
  C   C127      1.0  0.29264  0.54601  0.52374  1.0000
  C  Sn46      1.0  0.26832  0.57402  0.43204  1.0000
  C  Sn47      1.0  0.27409  0.61781  0.43530  1.0000
  C   C128      1.0  0.30406  0.63266  0.53026  1.0000
  C  Sn48      1.0  0.32840  0.60468  0.62202  1.0000
  O  Te45      1.0  0.34659  0.53232  0.70945  1.0000
  O  Te46      1.0  0.23853  0.55841  0.33801  1.0000
  O  Te47      1.0  0.25009  0.64639  0.34450  1.0000
  O  Te48      1.0  0.35817  0.62027  0.71598  1.0000
  Mg  Mg23      1.0  0.21353  0.60983  0.23539  1.0000
  Mg  Mg24      1.0  0.38320  0.56887  0.81859  1.0000
  C  Sn49      1.0  0.27118  0.60043  0.97607  1.0000
  C   C129      1.0  0.29077  0.61562  0.06243  1.0000
  C  Sn50      1.0  0.33145  0.59517  0.08957  1.0000
  C  Sn51      1.0  0.34334  0.55434  0.02906  1.0000
  C   C130      1.0  0.32376  0.53919  0.94274  1.0000
  C  Sn52      1.0  0.28307  0.55961  0.91556  1.0000
  O  Te49      1.0  0.23068  0.62146  0.95036  1.0000
  O  Te50      1.0  0.35995  0.61534  0.17628  1.0000
  O  Te51      1.0  0.38388  0.53332  0.05484  1.0000
  O  Te52      1.0  0.25459  0.53946  0.82888  1.0000
  Mg  Mg25      1.0  0.41145  0.57383  0.17989  1.0000
  Mg  Mg26      1.0  0.20309  0.58095  0.82514  1.0000
  C  Sn53      1.0  0.41142  0.66056  0.41280  1.0000
  C   C131      1.0  0.43617  0.69079  0.47069  1.0000
  C  Sn54      1.0  0.42438  0.71311  0.59565  1.0000
  C  Sn55      1.0  0.38709  0.70502  0.66424  1.0000
  C   C132      1.0  0.36237  0.67479  0.60637  1.0000
  C  Sn56      1.0  0.37413  0.65247  0.48139  1.0000
  O  Te53      1.0  0.42380  0.63862  0.28778  1.0000
  O  Te54      1.0  0.44963  0.74320  0.65148  1.0000
  O  Te55      1.0  0.37472  0.72699  0.78934  1.0000
  O  Te56      1.0  0.34891  0.62239  0.42558  1.0000
  Mg  Mg27      1.0  0.41954  0.76488  0.82407  1.0000
  Mg  Mg28      1.0  0.37898  0.60067  0.25305  1.0000
  C  Sn57      1.0  0.26339  0.82202  0.63210  1.0000
  C   C133      1.0  0.28990  0.83947  0.53888  1.0000
  C  Sn58      1.0  0.31437  0.81331  0.44428  1.0000
  C  Sn59      1.0  0.31227  0.76878  0.44275  1.0000
  C   C134      1.0  0.28577  0.75136  0.53591  1.0000
  C  Sn60      1.0  0.26129  0.77749  0.63057  1.0000
  O  Te57      1.0  0.23921  0.84877  0.72576  1.0000
  O  Te58      1.0  0.34066  0.83149  0.35213  1.0000
  O  Te59      1.0  0.33649  0.74203  0.34898  1.0000
  O  Te60      1.0  0.23501  0.75934  0.72266  1.0000
  Mg  Mg29      1.0  0.36747  0.78183  0.24406  1.0000
  Mg  Mg30      1.0  0.20818  0.80896  0.83071  1.0000
  C  Sn61      1.0  0.21661  0.65844  0.67623  1.0000
  C   C135      1.0  0.23253  0.68575  0.58134  1.0000
  C  Sn62      1.0  0.20680  0.72109  0.52852  1.0000
  C  Sn63      1.0  0.16428  0.72932  0.57150  1.0000
  C   C136      1.0  0.14839  0.70203  0.66635  1.0000
  C  Sn64      1.0  0.17409  0.66667  0.71922  1.0000
  O  Te61      1.0  0.24289  0.62331  0.72770  1.0000
  O  Te62      1.0  0.22342  0.74793  0.43372  1.0000
  O  Te63      1.0  0.13800  0.76449  0.51994  1.0000
  O  Te64      1.0  0.15749  0.63985  0.81397  1.0000
  Mg  Mg31      1.0  0.17517  0.79173  0.39311  1.0000
  Mg  Mg32      1.0  0.20572  0.59606  0.85471  1.0000
  C  Sn65      1.0  0.99387  0.71535  0.31990  1.0000
  C   C137      1.0  0.02984  0.69395  0.25855  1.0000
  C  Sn66      1.0  0.02690  0.67438  0.12439  1.0000
  C  Sn67      1.0  0.98717  0.67626  0.04993  1.0000
  C   C138      1.0  0.95123  0.69765  0.11126  1.0000
  C  Sn68      1.0  0.95414  0.71723  0.24545  1.0000
  O  Te65      1.0  0.99755  0.73468  0.45415  1.0000
  O  Te66      1.0  0.06330  0.65316  0.06526  1.0000
  O  Te67      1.0  0.99299  0.66126  0.91559  1.0000
  O  Te68      1.0  0.91777  0.73844  0.30456  1.0000
  Mg  Mg33      1.0  0.05162  0.63617  0.87959  1.0000
  Mg  Mg34      1.0  0.93889  0.75982  0.49017  1.0000
  C  Sn69      1.0  0.60059  0.75217  0.08204  1.0000
  C   C139      1.0  0.63638  0.72789  0.13961  1.0000
  C  Sn70      1.0  0.63235  0.69053  0.21244  1.0000
  C  Sn71      1.0  0.59169  0.67714  0.22800  1.0000
  C   C140      1.0  0.55593  0.70141  0.17043  1.0000
  C  Sn72      1.0  0.55993  0.73878  0.09760  1.0000
  O  Te69      1.0  0.60537  0.78941  0.00964  1.0000
  O  Te70      1.0  0.66859  0.66680  0.26911  1.0000
  O  Te71      1.0  0.58693  0.63987  0.30048  1.0000
  O  Te72      1.0  0.52372  0.76251  0.04093  1.0000
  Mg  Mg35      1.0  0.64577  0.61839  0.35868  1.0000
  Mg  Mg36      1.0  0.55597  0.81527  0.95128  1.0000
  C  Sn73      1.0  0.77631  0.51231  0.74829  1.0000
  C   C141      1.0  0.78965  0.47488  0.82162  1.0000
  C  Sn74      1.0  0.80576  0.47660  0.96181  1.0000
  C  Sn75      1.0  0.79910  0.51220  0.03019  1.0000
  C   C142      1.0  0.79523  0.55397  0.95689  1.0000
  C  Sn76      1.0  0.77912  0.55228  0.81667  1.0000
  O  Te73      1.0  0.76030  0.50984  0.60820  1.0000
  O  Te74      1.0  0.80945  0.43438  0.03292  1.0000
  O  Te75      1.0  0.81512  0.51465  0.17040  1.0000
  O  Te76      1.0  0.76596  0.59011  0.74559  1.0000
  Mg  Mg37      1.0  0.82898  0.45426  0.22269  1.0000
  Mg  Mg38      1.0  0.74641  0.57027  0.55585  1.0000
  C  Sn77      1.0  0.77444  0.92262  0.03008  1.0000
  C   C143      1.0  0.80619  0.94077  0.91706  1.0000
  C  Sn78      1.0  0.81880  0.91287  0.80539  1.0000
  C  Sn79      1.0  0.80892  0.87030  0.80665  1.0000
  C   C144      1.0  0.78665  0.85653  0.91960  1.0000
  C  Sn80      1.0  0.76455  0.88005  0.03134  1.0000
  O  Te77      1.0  0.76214  0.95107  0.14059  1.0000
  O  Te78      1.0  0.84106  0.92739  0.69359  1.0000
  O  Te79      1.0  0.82124  0.84185  0.69601  1.0000
  O  Te80      1.0  0.74231  0.86556  0.14307  1.0000
  Mg  Mg39      1.0  0.85092  0.87663  0.56742  1.0000
  Mg  Mg40      1.0  0.73241  0.91629  0.26925  1.0000
  C  Sn81      1.0  0.96661  0.72548  0.74359  1.0000
  C   C145      1.0  0.95209  0.70038  0.63232  1.0000
  C  Sn82      1.0  0.97972  0.66891  0.56735  1.0000
  C  Sn83      1.0  0.02277  0.66236  0.61463  1.0000
  C   C146      1.0  0.03727  0.68745  0.72585  1.0000
  C  Sn84      1.0  0.00966  0.71894  0.79088  1.0000
  O  Te81      1.0  0.93842  0.75675  0.80700  1.0000
  O  Te82      1.0  0.96447  0.64422  0.45627  1.0000
  O  Te83      1.0  0.05096  0.63106  0.55112  1.0000
  O  Te84      1.0  0.02489  0.74360  0.90190  1.0000
  Mg  Mg41      1.0  0.01513  0.60557  0.40380  1.0000
  Mg  Mg42      1.0  0.97425  0.78225  0.95450  1.0000
  C  Sn85      1.0  0.61444  0.68865  0.63700  1.0000
  C   C147      1.0  0.63766  0.71367  0.55523  1.0000
  C  Sn86      1.0  0.61718  0.74778  0.47805  1.0000
  C  Sn87      1.0  0.57255  0.75711  0.48277  1.0000
  C   C148      1.0  0.54936  0.73211  0.56452  1.0000
  C  Sn88      1.0  0.56982  0.69798  0.64171  1.0000
  O  Te85      1.0  0.63558  0.65471  0.71330  1.0000
  O  Te86      1.0  0.64107  0.77232  0.39703  1.0000
  O  Te87      1.0  0.55142  0.79109  0.40637  1.0000
  O  Te88      1.0  0.54595  0.67345  0.72272  1.0000
  Mg  Mg43      1.0  0.59781  0.81523  0.31163  1.0000
  Mg  Mg44      1.0  0.58918  0.63056  0.80821  1.0000
  C  Sn89      1.0  0.80419  0.48388  0.50827  1.0000
  C   C149      1.0  0.77940  0.46875  0.39688  1.0000
  C  Sn90      1.0  0.76369  0.49553  0.28594  1.0000
  C  Sn91      1.0  0.77297  0.53831  0.28628  1.0000
  C   C150      1.0  0.79775  0.55342  0.39760  1.0000
  C  Sn92      1.0  0.81347  0.52666  0.50861  1.0000
  O  Te89      1.0  0.81957  0.45654  0.61808  1.0000
  O  Te90      1.0  0.73896  0.47969  0.17576  1.0000
  O  Te91      1.0  0.75757  0.56565  0.17635  1.0000
  O  Te92      1.0  0.83819  0.54248  0.61872  1.0000
  Mg  Mg45      1.0  0.72531  0.52926  0.05000  1.0000
  Mg  Mg46      1.0  0.85188  0.49293  0.74449  1.0000
  C  Sn93      1.0  0.84073  0.87169  0.33536  1.0000
  C   C151      1.0  0.81432  0.85927  0.43928  1.0000
  C  Sn94      1.0  0.78313  0.88864  0.49714  1.0000
  C  Sn95      1.0  0.77821  0.93129  0.45011  1.0000
  C   C152      1.0  0.80460  0.94369  0.34625  1.0000
  C  Sn96      1.0  0.83581  0.91434  0.28833  1.0000
  O  Te93      1.0  0.87170  0.84179  0.27899  1.0000
  O  Te94      1.0  0.75711  0.87548  0.60094  1.0000
  O  Te95      1.0  0.74720  0.96119  0.50659  1.0000
  O  Te96      1.0  0.86181  0.92748  0.18458  1.0000
  Mg  Mg47      1.0  0.71950  0.92793  0.64546  1.0000
  Mg  Mg48      1.0  0.89942  0.87505  0.13994  1.0000
  C  Sn97      1.0  0.69657  0.17644  0.20972  1.0000
  C   C153      1.0  0.65889  0.19291  0.14000  1.0000
  C  Sn98      1.0  0.65978  0.21872  0.02113  1.0000
  C  Sn99      1.0  0.70862  0.23262  0.97084  1.0000
  C   C154      1.0  0.73680  0.21179  0.04054  1.0000
  C  Sn100     1.0  0.73594  0.18597  0.15943  1.0000
  O  Te97      1.0  0.69494  0.15069  0.32834  1.0000
  O  Te98      1.0  0.63116  0.23919  0.95323  1.0000
  O  Te99      1.0  0.71022  0.25839  0.85212  1.0000
  O  Te100     1.0  0.77400  0.16986  0.22730  1.0000
  Mg  Mg49      1.0  0.64982  0.27275  0.79576  1.0000
  Mg  Mg50      1.0  0.75537  0.13628  0.38472  1.0000
  C  Sn101     1.0  0.77969  0.10510  0.85787  1.0000
  C   C155      1.0  0.80339  0.06851  0.91071  1.0000
  C  Sn102     1.0  0.81733  0.06575  0.03909  1.0000
  C  Sn103     1.0  0.81702  0.10472  0.11633  1.0000
  C   C156      1.0  0.79332  0.14128  0.06351  1.0000
  C  Sn104     1.0  0.77938  0.14408  0.93511  1.0000
  O  Te101     1.0  0.75652  0.10276  0.72930  1.0000
  O  Te102     1.0  0.84079  0.02875  0.08974  1.0000
  O  Te103     1.0  0.84022  0.10703  0.24499  1.0000
  O  Te104     1.0  0.75592  0.18104  0.88447  1.0000
  Mg  Mg51      1.0  0.86720  0.04804  0.27009  1.0000
  Mg  Mg52      1.0  0.72948  0.16178  0.70418  1.0000
  C  Sn105     1.0  0.92670  0.17797  0.00184  1.0000
  C   C157      1.0  0.94377  0.20812  0.09047  1.0000
  C  Sn106     1.0  0.91785  0.23407  0.18155  1.0000
  C  Sn107     1.0  0.87397  0.22978  0.18417  1.0000
  C   C158      1.0  0.85693  0.19965  0.09560  1.0000
  C  Sn108     1.0  0.88282  0.17369  0.00446  1.0000
  O  Te105     1.0  0.96267  0.15673  0.91164  1.0000
  O  Te106     1.0  0.93564  0.26398  0.26914  1.0000
  O  Te107     1.0  0.84748  0.25542  0.27447  1.0000
  O  Te108     1.0  0.87453  0.14815  0.91694  1.0000
  Mg  Mg53      1.0  0.88655  0.29149  0.37370  1.0000
  Mg  Mg54      1.0  0.92358  0.12061  0.81239  1.0000
  C  Sn109     1.0  0.74212  0.30771  0.54451  1.0000
  C   C159      1.0  0.76651  0.27079  0.49840  1.0000
  C  Sn110     1.0  0.80443  0.27336  0.42975  1.0000
  C  Sn111     1.0  0.81827  0.31366  0.40677  1.0000
  C   C160      1.0  0.79389  0.35055  0.45289  1.0000
  C  Sn112     1.0  0.75596  0.34802  0.52154  1.0000
  O  Te109     1.0  0.70432  0.30440  0.61292  1.0000
  O  Te110     1.0  0.82827  0.23601  0.38456  1.0000
  O  Te111     1.0  0.85610  0.31695  0.33830  1.0000
  O  Te112     1.0  0.73214  0.38534  0.56673  1.0000
  Mg  Mg55      1.0  0.87751  0.25700  0.29641  1.0000
  Mg  Mg56      1.0  0.68291  0.36439  0.65496  1.0000
  C  Sn113     1.0  0.82596  0.29306  0.95661  1.0000
  C   C161      1.0  0.78921  0.27168  0.04815  1.0000
  C  Sn114     1.0  0.75043  0.29444  0.08106  1.0000
  C  Sn115     1.0  0.73866  0.33506  0.02115  1.0000
  C   C162      1.0  0.77541  0.35641  0.92966  1.0000
  C  Sn116     1.0  0.81420  0.33367  0.89671  1.0000
  O  Te113     1.0  0.86457  0.26974  0.92519  1.0000
  O  Te114     1.0  0.72369  0.27677  0.17288  1.0000
  O  Te115     1.0  0.70002  0.35837  0.05266  1.0000
  O  Te116     1.0  0.84093  0.35132  0.80493  1.0000
  Mg  Mg57      1.0  0.67440  0.32081  0.18331  1.0000
  Mg  Mg58      1.0  0.89021  0.30730  0.79437  1.0000
  C  Sn117     1.0  0.65948  0.23218  0.47709  1.0000
  C   C163      1.0  0.64317  0.20382  0.56730  1.0000
  C  Sn118     1.0  0.66973  0.18042  0.66614  1.0000
  C  Sn119     1.0  0.71349  0.18548  0.67508  1.0000
  C   C164      1.0  0.72977  0.21383  0.58493  1.0000
  C  Sn120     1.0  0.70324  0.23724  0.48603  1.0000
  O  Te117     1.0  0.63235  0.25526  0.37908  1.0000
  O  Te118     1.0  0.65270  0.15225  0.75516  1.0000
  O  Te119     1.0  0.74062  0.16237  0.77319  1.0000
  O  Te120     1.0  0.72025  0.26540  0.39707  1.0000
  Mg  Mg59      1.0  0.70246  0.12797  0.87136  1.0000
  Mg  Mg60      1.0  0.67052  0.28971  0.28088  1.0000
  C  Sn121     1.0  0.82839  0.07365  0.59399  1.0000
  C   C165      1.0  0.80137  0.05494  0.49734  1.0000
  C  Sn122     1.0  0.77382  0.08017  0.40622  1.0000
  C  Sn123     1.0  0.77328  0.12504  0.41174  1.0000
  C   C166      1.0  0.80029  0.14372  0.50832  1.0000
  C  Sn124     1.0  0.82785  0.11852  0.59952  1.0000
  O  Te121     1.0  0.85568  0.04781  0.68408  1.0000
  O  Te122     1.0  0.74709  0.06074  0.31053  1.0000
  O  Te123     1.0  0.74596  0.15088  0.32154  1.0000
  O  Te124     1.0  0.85457  0.13792  0.69514  1.0000
  Mg  Mg61      1.0  0.71560  0.10950  0.20957  1.0000
  Mg  Mg62      1.0  0.88609  0.08920  0.79609  1.0000
  C  Sn125     1.0  0.87027  0.24033  0.64812  1.0000
  C   C167      1.0  0.85441  0.21186  0.55006  1.0000
  C  Sn126     1.0  0.87976  0.17528  0.50654  1.0000
  C  Sn127     1.0  0.92185  0.16695  0.56226  1.0000
  C   C168      1.0  0.93769  0.19540  0.66028  1.0000
  C  Sn128     1.0  0.91236  0.23200  0.70385  1.0000
  O  Te125     1.0  0.84436  0.27671  0.69013  1.0000
  O  Te126     1.0  0.86320  0.14730  0.40834  1.0000
  O  Te127     1.0  0.94776  0.13053  0.52016  1.0000
  O  Te128     1.0  0.92890  0.25996  0.80200  1.0000
  Mg  Mg63      1.0  0.91085  0.10204  0.38401  1.0000
  Mg  Mg64      1.0  0.88128  0.30522  0.82646  1.0000
