data_image0
_chemical_formula_structural       H40C104N32C2Sn2C2HTe2HMgC2Sn2C2HTe2HMgC2Sn2C2HTe2HMgC2Sn2C2HTe2HMgC2Sn2C2HTe2HMgC2Sn2C2HTe2HMgC2Sn2C2HTe2HMgC2Sn2C2HTe2HMgC2Sn2C2HTe2HMgC2Sn2C2HTe2HMgC2Sn2C2HTe2HMgC2Sn2C2HTe2HMgC2Sn2C2HTe2HMgC2Sn2C2HTe2HMgC2Sn2C2HTe2HMgC2Sn2C2HTe2HMgC2Sn2C2HTe2HMgC2Sn2C2HTe2HMgC2Sn2C2HTe2HMgC2Sn2C2HTe2HMgC2Sn2C2HTe2HMgC2Sn2C2HTe2HMgC2Sn2C2HTe2HMgC2Sn2C2HTe2HMgC2Sn2C2HTe2HMgC2Sn2C2HTe2HMgC2Sn2C2HTe2HMgC2Sn2C2HTe2HMgC2Sn2C2HTe2HMgC2Sn2C2HTe2HMgC2Sn2C2HTe2HMgC2Sn2C2HTe2HMg
_chemical_formula_sum              "H104 C232 N32 Sn64 Te64 Mg32"
_cell_length_a       31.8012
_cell_length_b       31.6543
_cell_length_c       9.37534
_cell_angle_alpha    91.0524
_cell_angle_beta     91.9367
_cell_angle_gamma    83.4928

_symmetry_space_group_name_H-M    'P1'
_space_group_IT_number       1

loop_
  _space_group_symop_operation_xyz
  'x, y, z'

loop_
  _atom_site_type_symbol
  _atom_site_label
  _atom_site_symmetry_multiplicity
  _atom_site_fract_x
  _atom_site_fract_y
  _atom_site_fract_z
  _atom_site_occupancy
  H   H1        1.0  0.15355  0.29213  0.03343  1.0000
  H   H2        1.0  0.15277  0.12396  0.07500  1.0000
  H   H3        1.0  0.20950  0.05696  0.01663  1.0000
  H   H4        1.0  0.43869  0.08476  0.06903  1.0000
  H   H5        1.0  0.43976  0.25540  0.06925  1.0000
  H   H6        1.0  0.38081  0.32122  0.01605  1.0000
  H   H7        1.0  0.27334  0.16754  0.03541  1.0000
  H   H8        1.0  0.32022  0.20860  0.01557  1.0000
  H   H9        1.0  0.19735  0.34526  0.53334  1.0000
  H   H10       1.0  0.38110  0.04617  0.47396  1.0000
  H   H11       1.0  0.94146  0.60675  0.10040  1.0000
  H   H12       1.0  0.93669  0.77812  0.06862  1.0000
  H   H13       1.0  0.87586  0.84062  0.00143  1.0000
  H   H14       1.0  0.65180  0.80369  0.10361  1.0000
  H   H15       1.0  0.65553  0.63406  0.02942  1.0000
  H   H16       1.0  0.71592  0.57152  0.96502  1.0000
  H   H17       1.0  0.81954  0.72605  0.03739  1.0000
  H   H18       1.0  0.77363  0.68441  0.04841  1.0000
  H   H19       1.0  0.88125  0.55247  0.45926  1.0000
  H   H20       1.0  0.71288  0.85947  0.48673  1.0000
  H   H21       1.0  0.14513  0.29229  0.62787  1.0000
  H   H22       1.0  0.15089  0.12077  0.57735  1.0000
  H   H23       1.0  0.21070  0.05849  0.50762  1.0000
  H   H24       1.0  0.43768  0.09967  0.54742  1.0000
  H   H25       1.0  0.42801  0.26890  0.52429  1.0000
  H   H26       1.0  0.36545  0.33097  0.47130  1.0000
  H   H27       1.0  0.26706  0.17361  0.54952  1.0000
  H   H28       1.0  0.31115  0.21661  0.53694  1.0000
  H   H29       1.0  0.21015  0.33899  0.93388  1.0000
  H   H30       1.0  0.37949  0.03356  0.00721  1.0000
  H   H31       1.0  0.93960  0.60159  0.55355  1.0000
  H   H32       1.0  0.93956  0.77102  0.58081  1.0000
  H   H33       1.0  0.88214  0.83644  0.51051  1.0000
  H   H34       1.0  0.65520  0.80973  0.56120  1.0000
  H   H35       1.0  0.65222  0.63932  0.52706  1.0000
  H   H36       1.0  0.71051  0.57335  0.47805  1.0000
  H   H37       1.0  0.82014  0.72463  0.52044  1.0000
  H   H38       1.0  0.77209  0.68544  0.51316  1.0000
  H   H39       1.0  0.88619  0.55473  0.00519  1.0000
  H   H40       1.0  0.70541  0.85612  0.01868  1.0000
  C   C1        1.0  0.18686  0.28243  0.01922  1.0000
  C   C2        1.0  0.20914  0.24020  0.04370  1.0000
  C   C3        1.0  0.18910  0.20423  0.07825  1.0000
  C   C4        1.0  0.20795  0.16163  0.06430  1.0000
  C   C5        1.0  0.18628  0.12428  0.05960  1.0000
  C   C6        1.0  0.21523  0.08988  0.02818  1.0000
  C   C7        1.0  0.25565  0.10481  0.01485  1.0000
  C   C8        1.0  0.40516  0.09392  0.05050  1.0000
  C   C9        1.0  0.33454  0.09482  0.01455  1.0000
  C   C10       1.0  0.40519  0.17392  0.06186  1.0000
  C   C11       1.0  0.38570  0.21632  0.05005  1.0000
  C   C12       1.0  0.40619  0.25423  0.05038  1.0000
  C   C13       1.0  0.37599  0.28802  0.02076  1.0000
  C   C14       1.0  0.33594  0.27202  0.99915  1.0000
  C   C15       1.0  0.29467  0.07950  0.99612  1.0000
  C   C16       1.0  0.38367  0.13727  0.05145  1.0000
  C   C17       1.0  0.24448  0.28581  0.52638  1.0000
  C   C18       1.0  0.20412  0.31135  0.54867  1.0000
  C   C19       1.0  0.37484  0.06775  0.02088  1.0000
  C   C20       1.0  0.28183  0.30288  0.49075  1.0000
  C   C21       1.0  0.11221  0.69231  0.20732  1.0000
  C   C22       1.0  0.31724  0.67216  0.05707  1.0000
  C   C23       1.0  0.28049  0.70443  0.04965  1.0000
  C   C24       1.0  0.29668  0.50557  0.40579  1.0000
  C   C25       1.0  0.48292  0.70684  0.28056  1.0000
  C   C26       1.0  0.28574  0.87384  0.87767  1.0000
  C   C27       1.0  0.90850  0.61536  0.07086  1.0000
  C   C28       1.0  0.88582  0.65809  0.07172  1.0000
  C   C29       1.0  0.90520  0.69591  0.09309  1.0000
  C   C30       1.0  0.88407  0.73706  0.06719  1.0000
  C   C31       1.0  0.90321  0.77554  0.05388  1.0000
  C   C32       1.0  0.87190  0.80762  0.01795  1.0000
  C   C33       1.0  0.83215  0.79019  0.00931  1.0000
  C   C34       1.0  0.68446  0.79537  0.07595  1.0000
  C   C35       1.0  0.75285  0.79650  0.01819  1.0000
  C   C36       1.0  0.68775  0.71469  0.08729  1.0000
  C   C37       1.0  0.70886  0.67384  0.05671  1.0000
  C   C38       1.0  0.68921  0.63601  0.02719  1.0000
  C   C39       1.0  0.72028  0.60406  0.99219  1.0000
  C   C40       1.0  0.76015  0.62118  0.99811  1.0000
  C   C41       1.0  0.79137  0.81318  0.99094  1.0000
  C   C42       1.0  0.70711  0.75269  0.07301  1.0000
  C   C43       1.0  0.83568  0.61241  0.48970  1.0000
  C   C44       1.0  0.87624  0.58571  0.48994  1.0000
  C   C45       1.0  0.71216  0.82224  0.03438  1.0000
  C   C46       1.0  0.79586  0.59708  0.46710  1.0000
  C   C47       1.0  0.98643  0.20516  0.19783  1.0000
  C   C48       1.0  0.77938  0.22532  0.05239  1.0000
  C   C49       1.0  0.81498  0.19189  0.05155  1.0000
  C   C50       1.0  0.78119  0.39100  0.38695  1.0000
  C   C51       1.0  0.61493  0.17350  0.08113  1.0000
  C   C52       1.0  0.80384  0.01908  0.89901  1.0000
  C   C53       1.0  0.17729  0.28422  0.59445  1.0000
  C   C54       1.0  0.20038  0.24168  0.58886  1.0000
  C   C55       1.0  0.18202  0.20356  0.60792  1.0000
  C   C56       1.0  0.20309  0.16245  0.57891  1.0000
  C   C57       1.0  0.18403  0.12367  0.56359  1.0000
  C   C58       1.0  0.21481  0.09160  0.52623  1.0000
  C   C59       1.0  0.25402  0.10944  0.51667  1.0000
  C   C60       1.0  0.40366  0.10703  0.53602  1.0000
  C   C61       1.0  0.33314  0.10443  0.50495  1.0000
  C   C62       1.0  0.39827  0.18735  0.56731  1.0000
  C   C63       1.0  0.37590  0.22790  0.54358  1.0000
  C   C64       1.0  0.39440  0.26631  0.52093  1.0000
  C   C65       1.0  0.36221  0.29808  0.49229  1.0000
  C   C66       1.0  0.32278  0.28034  0.49789  1.0000
  C   C67       1.0  0.29423  0.08697  0.49070  1.0000
  C   C68       1.0  0.37988  0.14895  0.55012  1.0000
  C   C69       1.0  0.25682  0.28046  0.98000  1.0000
  C   C70       1.0  0.21598  0.30664  0.97086  1.0000
  C   C71       1.0  0.37474  0.07968  0.50017  1.0000
  C   C72       1.0  0.29643  0.29606  0.96474  1.0000
  C   C73       1.0  0.10939  0.69601  0.70210  1.0000
  C   C74       1.0  0.31304  0.67330  0.57550  1.0000
  C   C75       1.0  0.28051  0.70909  0.57925  1.0000
  C   C76       1.0  0.31911  0.49891  0.89763  1.0000
  C   C77       1.0  0.48309  0.70409  0.44349  1.0000
  C   C78       1.0  0.28382  0.88087  0.43231  1.0000
  C   C79       1.0  0.90610  0.61096  0.53558  1.0000
  C   C80       1.0  0.88421  0.65371  0.55110  1.0000
  C   C81       1.0  0.90459  0.69044  0.58128  1.0000
  C   C82       1.0  0.88509  0.73240  0.56161  1.0000
  C   C83       1.0  0.90613  0.77009  0.55875  1.0000
  C   C84       1.0  0.87673  0.80358  0.52123  1.0000
  C   C85       1.0  0.83640  0.78786  0.50149  1.0000
  C   C86       1.0  0.68791  0.80004  0.53670  1.0000
  C   C87       1.0  0.75742  0.79803  0.49229  1.0000
  C   C88       1.0  0.68734  0.72030  0.54642  1.0000
  C   C89       1.0  0.70673  0.67792  0.53039  1.0000
  C   C90       1.0  0.68590  0.64017  0.51815  1.0000
  C   C91       1.0  0.71586  0.60630  0.49188  1.0000
  C   C92       1.0  0.75634  0.62185  0.48656  1.0000
  C   C93       1.0  0.79727  0.81275  0.47520  1.0000
  C   C94       1.0  0.70897  0.75665  0.53557  1.0000
  C   C95       1.0  0.83935  0.61462  0.00932  1.0000
  C   C96       1.0  0.88009  0.58865  0.02430  1.0000
  C   C97       1.0  0.71756  0.82549  0.50143  1.0000
  C   C98       1.0  0.80047  0.59829  0.97900  1.0000
  C   C99       1.0  0.97702  0.20019  0.70439  1.0000
  C   C100      1.0  0.77139  0.22038  0.54273  1.0000
  C   C101      1.0  0.80627  0.18633  0.54812  1.0000
  C   C102      1.0  0.78013  0.39573  0.88507  1.0000
  C   C103      1.0  0.60097  0.20769  0.66675  1.0000
  C   C104      1.0  0.81062  0.01534  0.37651  1.0000
  N   N1        1.0  0.25161  0.23977  0.01975  1.0000
  N   N2        1.0  0.24971  0.14824  0.03682  1.0000
  N   N3        1.0  0.34064  0.13690  0.03322  1.0000
  N   N4        1.0  0.34311  0.22878  0.02203  1.0000
  N   N5        1.0  0.27507  0.90858  0.82450  1.0000
  N   N6        1.0  0.58534  0.15534  0.03341  1.0000
  N   N7        1.0  0.02090  0.19712  0.25971  1.0000
  N   N8        1.0  0.30477  0.47178  0.34099  1.0000
  N   N9        1.0  0.84366  0.65670  0.03764  1.0000
  N   N10       1.0  0.84126  0.74748  0.03916  1.0000
  N   N11       1.0  0.74891  0.75433  0.04150  1.0000
  N   N12       1.0  0.75162  0.66336  0.03819  1.0000
  N   N13       1.0  0.81274  0.98402  0.84348  1.0000
  N   N14       1.0  0.51230  0.71054  0.19013  1.0000
  N   N15       1.0  0.07861  0.70356  0.26524  1.0000
  N   N16       1.0  0.77163  0.42471  0.32494  1.0000
  N   N17       1.0  0.24149  0.24357  0.55084  1.0000
  N   N18       1.0  0.24529  0.15227  0.54889  1.0000
  N   N19       1.0  0.33717  0.14660  0.53268  1.0000
  N   N20       1.0  0.33276  0.23781  0.52759  1.0000
  N   N21       1.0  0.27468  0.91321  0.36208  1.0000
  N   N22       1.0  0.56707  0.21647  0.72550  1.0000
  N   N23       1.0  0.01182  0.18961  0.76103  1.0000
  N   N24       1.0  0.32597  0.46572  0.82773  1.0000
  N   N25       1.0  0.84151  0.65383  0.52350  1.0000
  N   N26       1.0  0.84306  0.74476  0.52675  1.0000
  N   N27       1.0  0.75145  0.75631  0.51250  1.0000
  N   N28       1.0  0.74929  0.66518  0.51178  1.0000
  N   N29       1.0  0.82133  0.98160  0.31359  1.0000
  N   N30       1.0  0.51111  0.71023  0.54405  1.0000
  N   N31       1.0  0.07527  0.70566  0.75825  1.0000
  N   N32       1.0  0.77260  0.42896  0.81882  1.0000
  C   C105      1.0  0.10759  0.17863  0.29683  1.0000
  C   C106      1.0  0.06953  0.19927  0.24137  1.0000
  C  Sn1       1.0  0.06929  0.22438  0.12026  1.0000
  C  Sn2       1.0  0.10791  0.22882  0.05363  1.0000
  C   C107      1.0  0.14582  0.20801  0.10988  1.0000
  C   C108      1.0  0.14570  0.18299  0.23115  1.0000
  H   H41       1.0  0.10750  0.15924  0.39061  1.0000
  O  Te1       1.0  0.03098  0.24479  0.06628  1.0000
  O  Te2       1.0  0.11805  0.25806  0.93243  1.0000
  H   H42       1.0  0.17517  0.16698  0.27401  1.0000
  Mg  Mg1       1.0  0.05767  0.27959  0.89892  1.0000
  C   C109      1.0  0.48739  0.18916  0.18872  1.0000
  C   C110      1.0  0.45790  0.17395  0.09257  1.0000
  C  Sn3       1.0  0.48101  0.15264  0.97650  1.0000
  C  Sn4       1.0  0.52500  0.14204  0.95664  1.0000
  C   C111      1.0  0.54477  0.15303  0.05349  1.0000
  C   C112      1.0  0.53078  0.17871  0.16924  1.0000
  H   H43       1.0  0.47656  0.20901  0.27833  1.0000
  O  Te3       1.0  0.45112  0.13772  0.88142  1.0000
  O  Te4       1.0  0.53950  0.11642  0.84159  1.0000
  H   H44       1.0  0.55362  0.19046  0.24372  1.0000
  Mg  Mg2       1.0  0.48649  0.10384  0.74099  1.0000
  C   C113      1.0  0.27608  0.41038  0.96612  1.0000
  C   C114      1.0  0.30661  0.42405  0.87934  1.0000
  C  Sn5       1.0  0.33325  0.39453  0.80217  1.0000
  C  Sn6       1.0  0.32918  0.35052  0.81226  1.0000
  C   C115      1.0  0.29853  0.33716  0.89930  1.0000
  C   C116      1.0  0.27204  0.36698  0.97609  1.0000
  H   H45       1.0  0.24610  0.42909  0.02548  1.0000
  O  Te5       1.0  0.36358  0.40873  0.71601  1.0000
  O  Te6       1.0  0.35538  0.32032  0.73626  1.0000
  H   H46       1.0  0.23892  0.35202  0.04320  1.0000
  Mg  Mg3       1.0  0.39191  0.35536  0.63318  1.0000
  C   C117      1.0  0.30498  0.96119  0.01079  1.0000
  C   C118      1.0  0.28836  0.95070  0.90253  1.0000
  C  Sn7       1.0  0.26424  0.97934  0.81233  1.0000
  C  Sn8       1.0  0.37916  0.02364  0.83109  1.0000
  C   C119      1.0  0.40537  0.03817  0.93965  1.0000
  C   C120      1.0  0.41989  0.00487  0.02934  1.0000
  H   H47       1.0  0.32356  0.93880  0.08014  1.0000
  O  Te7       1.0  0.23834  0.96397  0.70474  1.0000
  O  Te8       1.0  0.35540  0.05296  0.74241  1.0000
  H   H48       1.0  0.44011  0.01637  0.11309  1.0000
  Mg  Mg4       1.0  0.32478  0.01647  0.61106  1.0000
  C   C121      1.0  0.06902  0.23211  0.60147  1.0000
  C   C122      1.0  0.05378  0.20449  0.69683  1.0000
  C  Sn9       1.0  0.08198  0.17699  0.77870  1.0000
  C  Sn10      1.0  0.12624  0.17723  0.76464  1.0000
  C   C123      1.0  0.14116  0.20501  0.66902  1.0000
  C   C124      1.0  0.11267  0.23239  0.58758  1.0000
  H   H49       1.0  0.04698  0.25331  0.53851  1.0000
  O  Te9       1.0  0.06622  0.14958  0.87342  1.0000
  O  Te10      1.0  0.15512  0.15009  0.84520  1.0000
  H   H50       1.0  0.12448  0.25379  0.51382  1.0000
  Mg  Mg5       1.0  0.11819  0.11855  0.95980  1.0000
  C   C125      1.0  0.48953  0.16720  0.52795  1.0000
  C   C126      1.0  0.45181  0.18101  0.59544  1.0000
  C  Sn11      1.0  0.45188  0.20892  0.71262  1.0000
  C  Sn12      1.0  0.49048  0.22322  0.76289  1.0000
  C   C127      1.0  0.52805  0.20924  0.69456  1.0000
  C   C128      1.0  0.52762  0.18130  0.57742  1.0000
  H   H51       1.0  0.48920  0.14560  0.43727  1.0000
  O  Te11      1.0  0.41391  0.22239  0.77884  1.0000
  O  Te12      1.0  0.49146  0.25113  0.87975  1.0000
  H   H52       1.0  0.55682  0.17064  0.52513  1.0000
  Mg  Mg6       1.0  0.43147  0.26048  0.93431  1.0000
  C   C129      1.0  0.30639  0.36326  0.29683  1.0000
  C   C130      1.0  0.28717  0.34896  0.41595  1.0000
  C  Sn13      1.0  0.26947  0.37801  0.51729  1.0000
  C  Sn14      1.0  0.27108  0.42218  0.49873  1.0000
  C   C131      1.0  0.29035  0.43617  0.37915  1.0000
  C   C132      1.0  0.30797  0.40682  0.27841  1.0000
  H   H53       1.0  0.32001  0.34056  0.21885  1.0000
  O  Te13      1.0  0.25040  0.36318  0.63570  1.0000
  O  Te14      1.0  0.25362  0.45191  0.59835  1.0000
  H   H54       1.0  0.32283  0.41790  0.18615  1.0000
  Mg  Mg7       1.0  0.23108  0.41609  0.74207  1.0000
  C   C133      1.0  0.20643  0.99709  0.54032  1.0000
  C   C134      1.0  0.30184  0.03342  0.46756  1.0000
  C  Sn15      1.0  0.27318  0.03005  0.35275  1.0000
  C  Sn16      1.0  0.14897  0.98952  0.31027  1.0000
  C   C135      1.0  0.16653  0.95337  0.38382  1.0000
  C   C136      1.0  0.19518  0.95710  0.49853  1.0000
  H   H55       1.0  0.22858  0.99998  0.62913  1.0000
  O  Te15      1.0  0.25611  0.06667  0.28119  1.0000
  O  Te16      1.0  0.12039  0.98524  0.19592  1.0000
  H   H56       1.0  0.20862  0.92897  0.55491  1.0000
  Mg  Mg8       1.0  0.21849  0.04450  0.13193  1.0000
  C   C137      1.0  0.40936  0.66404  0.03757  1.0000
  C   C138      1.0  0.36887  0.68024  0.07955  1.0000
  C  Sn17      1.0  0.36380  0.71233  0.18390  1.0000
  C  Sn18      1.0  0.39999  0.72845  0.24717  1.0000
  C   C139      1.0  0.44036  0.71206  0.20436  1.0000
  C   C140      1.0  0.44508  0.67994  0.09988  1.0000
  H   H57       1.0  0.42248  0.64357  0.95668  1.0000
  O  Te17      1.0  0.32312  0.72814  0.22463  1.0000
  O  Te18      1.0  0.39583  0.76053  0.35166  1.0000
  H   H58       1.0  0.47643  0.66742  0.06734  1.0000
  Mg  Mg9       1.0  0.33377  0.77179  0.37144  1.0000
  C   C141      1.0  0.25520  0.81670  0.05853  1.0000
  C   C142      1.0  0.29347  0.83715  0.97042  1.0000
  C  Sn19      1.0  0.32404  0.80958  0.90163  1.0000
  C  Sn20      1.0  0.32572  0.76509  0.92159  1.0000
  C   C143      1.0  0.28727  0.74495  0.00988  1.0000
  C   C144      1.0  0.25682  0.77282  0.07824  1.0000
  H   H59       1.0  0.23163  0.83827  0.11136  1.0000
  O  Te19      1.0  0.35258  0.82619  0.81401  1.0000
  O  Te20      1.0  0.35593  0.73681  0.85409  1.0000
  H   H60       1.0  0.23451  0.76036  0.14638  1.0000
  Mg  Mg10      1.0  0.38796  0.77481  0.74512  1.0000
  C   C145      1.0  0.19811  0.65454  0.20524  1.0000
  C   C146      1.0  0.16094  0.68107  0.17323  1.0000
  C  Sn21      1.0  0.16135  0.71449  0.07820  1.0000
  C  Sn22      1.0  0.19973  0.72140  0.01416  1.0000
  C   C147      1.0  0.23674  0.69466  0.04680  1.0000
  C   C148      1.0  0.23598  0.66132  0.14208  1.0000
  H   H61       1.0  0.19751  0.62872  0.27890  1.0000
  O  Te21      1.0  0.12393  0.74070  0.04745  1.0000
  O  Te22      1.0  0.21051  0.75892  0.91877  1.0000
  H   H62       1.0  0.26476  0.64077  0.16677  1.0000
  Mg  Mg11      1.0  0.15124  0.78605  0.91080  1.0000
  C   C149      1.0  0.26284  0.61267  0.44062  1.0000
  C   C150      1.0  0.28934  0.62767  0.54735  1.0000
  C  Sn23      1.0  0.32073  0.59982  0.61479  1.0000
  C  Sn24      1.0  0.32562  0.55617  0.57438  1.0000
  C   C151      1.0  0.29898  0.54148  0.46741  1.0000
  C   C152      1.0  0.26765  0.56962  0.40066  1.0000
  H   H63       1.0  0.23862  0.63444  0.38891  1.0000
  O  Te23      1.0  0.34692  0.61534  0.72125  1.0000
  O  Te24      1.0  0.35676  0.52765  0.63999  1.0000
  H   H64       1.0  0.24716  0.55800  0.31796  1.0000
  Mg  Mg12      1.0  0.38470  0.56403  0.77931  1.0000
  C   C153      1.0  0.27427  0.58063  0.91750  1.0000
  C   C154      1.0  0.30638  0.54708  0.93714  1.0000
  C  Sn25      1.0  0.33289  0.54850  0.02170  1.0000
  C  Sn26      1.0  0.33669  0.58864  0.08773  1.0000
  C   C155      1.0  0.30438  0.62199  0.06750  1.0000
  C   C156      1.0  0.27799  0.62022  0.98263  1.0000
  H   H65       1.0  0.24651  0.57588  0.85190  1.0000
  O  Te25      1.0  0.36468  0.51465  0.04016  1.0000
  O  Te26      1.0  0.37230  0.59529  0.17283  1.0000
  H   H66       1.0  0.25312  0.64619  0.96752  1.0000
  Mg  Mg13      1.0  0.40715  0.53938  0.16585  1.0000
  C   C157      1.0  0.39291  0.64727  0.45383  1.0000
  C   C158      1.0  0.36626  0.66786  0.55523  1.0000
  C  Sn27      1.0  0.37885  0.70231  0.63460  1.0000
  C  Sn28      1.0  0.41887  0.71634  0.61175  1.0000
  C   C159      1.0  0.44529  0.69555  0.50998  1.0000
  C   C160      1.0  0.43238  0.66111  0.43119  1.0000
  H   H67       1.0  0.38291  0.62064  0.39280  1.0000
  O  Te27      1.0  0.35185  0.72250  0.73552  1.0000
  O  Te28      1.0  0.43224  0.75070  0.68956  1.0000
  H   H68       1.0  0.45300  0.64519  0.35262  1.0000
  Mg  Mg14      1.0  0.38423  0.76788  0.81505  1.0000
  C   C161      1.0  0.32292  0.77477  0.45048  1.0000
  C   C162      1.0  0.29836  0.75692  0.54918  1.0000
  C  Sn29      1.0  0.26615  0.78224  0.61833  1.0000
  C  Sn30      1.0  0.25844  0.82623  0.58786  1.0000
  C   C163      1.0  0.28316  0.84378  0.48887  1.0000
  C   C164      1.0  0.31532  0.81815  0.42033  1.0000
  H   H69       1.0  0.34779  0.75494  0.39738  1.0000
  O  Te29      1.0  0.24193  0.76390  0.71668  1.0000
  O  Te30      1.0  0.22643  0.85227  0.65539  1.0000
  H   H70       1.0  0.33431  0.83197  0.34385  1.0000
  Mg  Mg15      1.0  0.20194  0.81250  0.78118  1.0000
  C   C165      1.0  0.19548  0.66153  0.72747  1.0000
  C   C166      1.0  0.15868  0.68655  0.68130  1.0000
  C  Sn31      1.0  0.16070  0.71808  0.58021  1.0000
  C  Sn32      1.0  0.20035  0.72460  0.52446  1.0000
  C   C167      1.0  0.23698  0.69938  0.57126  1.0000
  C   C168      1.0  0.23460  0.66793  0.67250  1.0000
  H   H71       1.0  0.19364  0.63718  0.80574  1.0000
  O  Te31      1.0  0.12362  0.74281  0.53529  1.0000
  O  Te32      1.0  0.20327  0.75588  0.42327  1.0000
  H   H72       1.0  0.26310  0.64855  0.70815  1.0000
  Mg  Mg16      1.0  0.14386  0.78147  0.39553  1.0000
  C   C169      1.0  0.96986  0.72512  0.27857  1.0000
  C   C170      1.0  0.95279  0.70272  0.16492  1.0000
  C  Sn33      1.0  0.97923  0.67529  0.07978  1.0000
  C  Sn34      1.0  0.02355  0.67025  0.10925  1.0000
  C   C171      1.0  0.04031  0.69278  0.22326  1.0000
  C   C172      1.0  0.01358  0.72015  0.30775  1.0000
  H   H73       1.0  0.94918  0.74628  0.34399  1.0000
  O  Te33      1.0  0.97112  0.65753  0.96662  1.0000
  O  Te34      1.0  0.05069  0.64303  0.02590  1.0000
  H   H74       1.0  0.02680  0.73747  0.39579  1.0000
  Mg  Mg17      1.0  0.02113  0.62418  0.88355  1.0000
  C   C173      1.0  0.59840  0.74461  0.04161  1.0000
  C   C174      1.0  0.63480  0.72388  0.10809  1.0000
  C  Sn35      1.0  0.63144  0.69351  0.21214  1.0000
  C  Sn36      1.0  0.59085  0.68376  0.25008  1.0000
  C   C175      1.0  0.55463  0.70465  0.18287  1.0000
  C   C176      1.0  0.55835  0.73500  0.07892  1.0000
  H   H75       1.0  0.61074  0.77243  0.96112  1.0000
  O  Te35      1.0  0.66813  0.67312  0.27755  1.0000
  O  Te36      1.0  0.58659  0.65353  0.35369  1.0000
  H   H76       1.0  0.53017  0.75102  0.02740  1.0000
  Mg  Mg18      1.0  0.64595  0.63430  0.41256  1.0000
  C   C177      1.0  0.81662  0.48444  0.99691  1.0000
  C   C178      1.0  0.79056  0.47038  0.88714  1.0000
  C  Sn37      1.0  0.76965  0.49931  0.79060  1.0000
  C  Sn38      1.0  0.77499  0.54311  0.80445  1.0000
  C   C179      1.0  0.80115  0.55686  0.91456  1.0000
  C   C180      1.0  0.81245  0.52327  0.01061  1.0000
  H   H77       1.0  0.82324  0.45748  0.07118  1.0000
  O  Te37      1.0  0.74372  0.48473  0.68159  1.0000
  O  Te38      1.0  0.75448  0.57271  0.70940  1.0000
  H   H78       1.0  0.83264  0.53417  0.09553  1.0000
  Mg  Mg19      1.0  0.72246  0.53733  0.57850  1.0000
  C   C181      1.0  0.82118  0.87444  0.80849  1.0000
  C   C182      1.0  0.79937  0.85979  0.92120  1.0000
  C  Sn39      1.0  0.76757  0.88429  0.01346  1.0000
  C  Sn40      1.0  0.77659  0.93296  0.99219  1.0000
  C   C183      1.0  0.79849  0.94729  0.87906  1.0000
  C   C184      1.0  0.82074  0.91814  0.78741  1.0000
  H   H79       1.0  0.83838  0.85189  0.73752  1.0000
  O  Te39      1.0  0.74596  0.86912  0.12556  1.0000
  O  Te40      1.0  0.74505  0.95814  0.08277  1.0000
  H   H80       1.0  0.83760  0.92948  0.70010  1.0000
  Mg  Mg20      1.0  0.72046  0.92187  0.22041  1.0000
  C   C185      1.0  0.01792  0.66436  0.57756  1.0000
  C   C186      1.0  0.03327  0.68934  0.68766  1.0000
  C  Sn41      1.0  0.00523  0.71291  0.77834  1.0000
  C  Sn42      1.0  0.96100  0.71136  0.75819  1.0000
  C   C187      1.0  0.94596  0.68625  0.64779  1.0000
  C   C188      1.0  0.97430  0.66280  0.55764  1.0000
  H   H81       1.0  0.03984  0.64620  0.50785  1.0000
  O  Te41      1.0  0.02111  0.73772  0.88778  1.0000
  O  Te42      1.0  0.93227  0.73459  0.84730  1.0000
  H   H82       1.0  0.96241  0.64344  0.47246  1.0000
  Mg  Mg21      1.0  0.96932  0.76370  0.98137  1.0000
  C   C189      1.0  0.60294  0.75473  0.45115  1.0000
  C   C190      1.0  0.63393  0.73529  0.54532  1.0000
  C  Sn43      1.0  0.62298  0.70789  0.64960  1.0000
  C  Sn44      1.0  0.58019  0.69985  0.65950  1.0000
  C   C191      1.0  0.54943  0.71943  0.56472  1.0000
  C   C192      1.0  0.56073  0.74680  0.46080  1.0000
  H   H83       1.0  0.61169  0.77589  0.37069  1.0000
  O  Te43      1.0  0.65434  0.68875  0.74286  1.0000
  O  Te44      1.0  0.56837  0.67259  0.76268  1.0000
  H   H84       1.0  0.53674  0.76183  0.38785  1.0000
  Mg  Mg22      1.0  0.62256  0.65407  0.86544  1.0000
  C   C193      1.0  0.81842  0.50611  0.50938  1.0000
  C   C194      1.0  0.80141  0.54342  0.44142  1.0000
  C  Sn45      1.0  0.77241  0.54174  0.32671  1.0000
  C  Sn46      1.0  0.76026  0.50192  0.27943  1.0000
  C   C195      1.0  0.77743  0.46477  0.34820  1.0000
  C   C196      1.0  0.80644  0.46682  0.46285  1.0000
  H   H85       1.0  0.84084  0.50769  0.59813  1.0000
  O  Te45      1.0  0.75574  0.57932  0.25999  1.0000
  O  Te46      1.0  0.73132  0.49932  0.16508  1.0000
  H   H86       1.0  0.81957  0.43793  0.51550  1.0000
  Mg  Mg23      1.0  0.71739  0.55938  0.10868  1.0000
  C   C197      1.0  0.77956  0.92696  0.48561  1.0000
  C   C198      1.0  0.80659  0.94018  0.38509  1.0000
  C  Sn47      1.0  0.83024  0.91027  0.29985  1.0000
  C  Sn48      1.0  0.82669  0.86634  0.31575  1.0000
  C   C199      1.0  0.79954  0.85344  0.41654  1.0000
  C   C200      1.0  0.77602  0.88364  0.50132  1.0000
  H   H87       1.0  0.76135  0.95032  0.55115  1.0000
  O  Te47      1.0  0.85711  0.92403  0.19999  1.0000
  O  Te48      1.0  0.84995  0.83578  0.23191  1.0000
  H   H88       1.0  0.75507  0.87339  0.57906  1.0000
  Mg  Mg24      1.0  0.88229  0.87026  0.11064  1.0000
  C   C201      1.0  0.67734  0.23620  0.99204  1.0000
  C   C202      1.0  0.65506  0.19697  0.06137  1.0000
  C  Sn49      1.0  0.68392  0.17131  0.14701  1.0000
  C  Sn50      1.0  0.72637  0.18082  0.16338  1.0000
  C   C203      1.0  0.73887  0.21579  0.09365  1.0000
  C   C204      1.0  0.70973  0.24125  0.00817  1.0000
  H   H89       1.0  0.65479  0.25591  0.92595  1.0000
  O  Te49      1.0  0.67059  0.13659  0.21548  1.0000
  O  Te50      1.0  0.75586  0.15572  0.24839  1.0000
  H   H90       1.0  0.72912  0.27262  0.95457  1.0000
  Mg  Mg25      1.0  0.72250  0.11184  0.31991  1.0000
  C   C205      1.0  0.77186  0.12786  0.90098  1.0000
  C   C206      1.0  0.78657  0.14023  0.01092  1.0000
  C  Sn51      1.0  0.81608  0.11351  0.09073  1.0000
  C  Sn52      1.0  0.82143  0.06923  0.05962  1.0000
  C   C207      1.0  0.80659  0.05716  0.94935  1.0000
  C   C208      1.0  0.77713  0.08418  0.87019  1.0000
  H   H91       1.0  0.74909  0.14876  0.83968  1.0000
  O  Te51      1.0  0.83997  0.13076  0.20023  1.0000
  O  Te52      1.0  0.85072  0.04181  0.13767  1.0000
  H   H92       1.0  0.75844  0.07122  0.78502  1.0000
  Mg  Mg26      1.0  0.87582  0.08045  0.27652  1.0000
  C   C209      1.0  0.90171  0.24403  0.19017  1.0000
  C   C210      1.0  0.93763  0.21575  0.16260  1.0000
  C  Sn53      1.0  0.93445  0.18013  0.07433  1.0000
  C  Sn54      1.0  0.89452  0.17279  0.01264  1.0000
  C   C211      1.0  0.85878  0.20129  0.04080  1.0000
  C   C212      1.0  0.86232  0.23682  0.12932  1.0000
  H   H93       1.0  0.90444  0.27154  0.25859  1.0000
  O  Te53      1.0  0.97065  0.15219  0.04795  1.0000
  O  Te54      1.0  0.89991  0.14181  0.92398  1.0000
  H   H94       1.0  0.83450  0.25872  0.15056  1.0000
  Mg  Mg27      1.0  0.95844  0.11289  0.92003  1.0000
  C   C213      1.0  0.81780  0.30496  0.38387  1.0000
  C   C214      1.0  0.79151  0.34182  0.41912  1.0000
  C  Sn55      1.0  0.75961  0.34030  0.51715  1.0000
  C  Sn56      1.0  0.75400  0.30110  0.58091  1.0000
  C   C215      1.0  0.78049  0.26441  0.54501  1.0000
  C   C216      1.0  0.81230  0.26629  0.44675  1.0000
  H   H95       1.0  0.84243  0.30642  0.30790  1.0000
  O  Te55      1.0  0.73362  0.37742  0.55112  1.0000
  O  Te56      1.0  0.72237  0.29868  0.67926  1.0000
  H   H96       1.0  0.83267  0.23775  0.41955  1.0000
  Mg  Mg28      1.0  0.69495  0.35795  0.69104  1.0000
  C   C217      1.0  0.82177  0.31251  0.89708  1.0000
  C   C218      1.0  0.79199  0.34758  0.92240  1.0000
  C  Sn57      1.0  0.74933  0.33990  0.01398  1.0000
  C  Sn58      1.0  0.74598  0.30070  0.08135  1.0000
  C   C219      1.0  0.77595  0.26580  0.05540  1.0000
  C   C220      1.0  0.81850  0.27384  0.96352  1.0000
  H   H97       1.0  0.84737  0.31535  0.82606  1.0000
  O  Te57      1.0  0.71984  0.37525  0.03805  1.0000
  O  Te58      1.0  0.71314  0.29650  0.17341  1.0000
  H   H98       1.0  0.84157  0.24668  0.94402  1.0000
  Mg  Mg29      1.0  0.68074  0.35373  0.17230  1.0000
  C   C221      1.0  0.70821  0.17475  0.66850  1.0000
  C   C222      1.0  0.72496  0.20058  0.57065  1.0000
  C  Sn59      1.0  0.69848  0.23164  0.49692  1.0000
  C  Sn60      1.0  0.65442  0.23689  0.52187  1.0000
  C   C223      1.0  0.63798  0.21091  0.62005  1.0000
  C   C224      1.0  0.66476  0.17992  0.69321  1.0000
  H   H99       1.0  0.72893  0.15078  0.72517  1.0000
  O  Te59      1.0  0.71574  0.25716  0.39949  1.0000
  O  Te60      1.0  0.62724  0.26770  0.44968  1.0000
  H   H100      1.0  0.65178  0.15995  0.76904  1.0000
  Mg  Mg30      1.0  0.66580  0.29473  0.32730  1.0000
  C   C225      1.0  0.76366  0.11853  0.41588  1.0000
  C   C226      1.0  0.78804  0.13716  0.52112  1.0000
  C  Sn61      1.0  0.82261  0.11330  0.58770  1.0000
  C  Sn62      1.0  0.83291  0.07000  0.54793  1.0000
  C   C227      1.0  0.80834  0.05166  0.44245  1.0000
  C   C228      1.0  0.77380  0.07582  0.37655  1.0000
  H   H101      1.0  0.73695  0.13723  0.36483  1.0000
  O  Te61      1.0  0.84663  0.13241  0.69268  1.0000
  O  Te62      1.0  0.86730  0.04542  0.61271  1.0000
  H   H102      1.0  0.75494  0.06140  0.29501  1.0000
  Mg  Mg31      1.0  0.89045  0.08577  0.75006  1.0000
  C   C229      1.0  0.89543  0.16656  0.50110  1.0000
  C   C230      1.0  0.85828  0.18738  0.55653  1.0000
  C  Sn63      1.0  0.86025  0.21974  0.65910  1.0000
  C  Sn64      1.0  0.90021  0.23139  0.70684  1.0000
  C   C231      1.0  0.93720  0.21039  0.65066  1.0000
  C   C232      1.0  0.93486  0.17805  0.54809  1.0000
  H   H103      1.0  0.89362  0.14155  0.42169  1.0000
  O  Te63      1.0  0.82283  0.24020  0.71340  1.0000
  O  Te64      1.0  0.90310  0.26363  0.80922  1.0000
  H   H104      1.0  0.96363  0.16195  0.50513  1.0000
  Mg  Mg32      1.0  0.84316  0.28213  0.85118  1.0000
