data_image0
_chemical_formula_structural       V6H48C96N24O18C2Sn2C2HTe2HMgC2Sn2C2HTe2HMgC2Sn2C2HTe2HMgC2Sn2C2HTe2HMgC2Sn2C2HTe2HMgC2Sn2C2HTe2HMg
_chemical_formula_sum              "V6 H60 C120 N24 O18 Sn12 Te12 Mg6"
_cell_length_a       37.1336
_cell_length_b       36.8449
_cell_length_c       7.84993
_cell_angle_alpha    110.197
_cell_angle_beta     64.9445
_cell_angle_gamma    120.738

_symmetry_space_group_name_H-M    'P1'
_space_group_IT_number       1

loop_
  _space_group_symop_operation_xyz
  'x, y, z'

loop_
  _atom_site_type_symbol
  _atom_site_label
  _atom_site_symmetry_multiplicity
  _atom_site_fract_x
  _atom_site_fract_y
  _atom_site_fract_z
  _atom_site_occupancy
  V   V1        1.0  0.52266  0.57516  0.32388  1.0000
  V   V2        1.0  0.11320  0.99996  0.23022  1.0000
  V   V3        1.0  0.95157  0.43363  0.29415  1.0000
  V   V4        1.0  0.51906  0.57657  0.97870  1.0000
  V   V5        1.0  0.10808  0.99351  0.58552  1.0000
  V   V6        1.0  0.94174  0.41885  0.94390  1.0000
  H   H1        1.0  0.03298  0.11010  0.35805  1.0000
  H   H2        1.0  0.10170  0.32249  0.13737  1.0000
  H   H3        1.0  0.20441  0.44336  0.27466  1.0000
  H   H4        1.0  0.16411  0.48146  0.28005  1.0000
  H   H5        1.0  0.06077  0.36044  0.14346  1.0000
  H   H6        1.0  0.13799  0.49635  0.11340  1.0000
  H   H7        1.0  0.13597  0.55467  0.08065  1.0000
  H   H8        1.0  0.09781  0.59511  0.09574  1.0000
  H   H9        1.0  0.28248  0.32981  0.29803  1.0000
  H   H10       1.0  0.36003  0.36755  0.30505  1.0000
  H   H11       1.0  0.37249  0.48174  0.20521  1.0000
  H   H12       1.0  0.29387  0.44365  0.20469  1.0000
  H   H13       1.0  0.43139  0.39759  0.12760  1.0000
  H   H14       1.0  0.50129  0.40074  0.05734  1.0000
  H   H15       1.0  0.57901  0.43935  0.05296  1.0000
  H   H16       1.0  0.64054  0.49966  0.10736  1.0000
  H   H17       1.0  0.85414  0.56112  0.20635  1.0000
  H   H18       1.0  0.89499  0.52289  0.19719  1.0000
  H   H19       1.0  0.95604  0.68148  0.35686  1.0000
  H   H20       1.0  0.99579  0.64367  0.35636  1.0000
  H   H21       1.0  0.96372  0.75855  0.28985  1.0000
  H   H22       1.0  0.89815  0.83866  0.21643  1.0000
  H   H23       1.0  0.85659  0.76015  0.21670  1.0000
  H   H24       1.0  0.00618  0.83794  0.29037  1.0000
  H   H25       1.0  0.92755  0.90343  0.37175  1.0000
  H   H26       1.0  0.03362  0.60300  0.16136  1.0000
  H   H27       1.0  0.93129  0.96960  0.39776  1.0000
  H   H28       1.0  0.97152  0.04727  0.38986  1.0000
  H   H29       1.0  0.02369  0.10112  0.85756  1.0000
  H   H30       1.0  0.09780  0.30882  0.63654  1.0000
  H   H31       1.0  0.20006  0.43094  0.76748  1.0000
  H   H32       1.0  0.15797  0.46764  0.77782  1.0000
  H   H33       1.0  0.05509  0.34549  0.64880  1.0000
  H   H34       1.0  0.12848  0.48316  0.63836  1.0000
  H   H35       1.0  0.12217  0.54102  0.62104  1.0000
  H   H36       1.0  0.07940  0.57679  0.63918  1.0000
  H   H37       1.0  0.28463  0.32429  0.79725  1.0000
  H   H38       1.0  0.36154  0.36758  0.81292  1.0000
  H   H39       1.0  0.36455  0.47711  0.71468  1.0000
  H   H40       1.0  0.28687  0.43324  0.70198  1.0000
  H   H41       1.0  0.43192  0.40267  0.62299  1.0000
  H   H42       1.0  0.49746  0.40418  0.57214  1.0000
  H   H43       1.0  0.57571  0.44066  0.55972  1.0000
  H   H44       1.0  0.63960  0.50132  0.59329  1.0000
  H   H45       1.0  0.92407  0.89202  0.86909  1.0000
  H   H46       1.0  0.01722  0.58008  0.68504  1.0000
  H   H47       1.0  0.92423  0.95608  0.88512  1.0000
  H   H48       1.0  0.96046  0.03355  0.87842  1.0000
  C   C1        1.0  0.88531  0.57872  0.23722  1.0000
  C   C2        1.0  0.94327  0.64686  0.31943  1.0000
  C   C3        1.0  0.03256  0.54803  0.21062  1.0000
  C   C4        1.0  0.00901  0.50803  0.27334  1.0000
  C   C5        1.0  0.07882  0.56415  0.14282  1.0000
  C   C6        1.0  0.03058  0.48392  0.25881  1.0000
  C   C7        1.0  0.10018  0.54129  0.13328  1.0000
  C   C8        1.0  0.07712  0.50052  0.18749  1.0000
  C   C9        1.0  0.10203  0.47869  0.17148  1.0000
  C   C10       1.0  0.15085  0.44671  0.24518  1.0000
  C   C11       1.0  0.09231  0.37810  0.17116  1.0000
  C   C12       1.0  0.90777  0.55756  0.23238  1.0000
  C   C13       1.0  0.96581  0.62580  0.31551  1.0000
  C   C14       1.0  0.94879  0.58076  0.26698  1.0000
  C   C15       1.0  0.44152  0.43183  0.18926  1.0000
  C   C16       1.0  0.01124  0.57194  0.21098  1.0000
  C   C17       1.0  0.57756  0.50042  0.18728  1.0000
  C   C18       1.0  0.48645  0.45521  0.19715  1.0000
  C   C19       1.0  0.51454  0.43458  0.11812  1.0000
  C   C20       1.0  0.50449  0.49886  0.27954  1.0000
  C   C21       1.0  0.55833  0.45638  0.11471  1.0000
  C   C22       1.0  0.54968  0.52169  0.27135  1.0000
  C   C23       1.0  0.62388  0.52105  0.17453  1.0000
  C   C24       1.0  0.95465  0.84373  0.25960  1.0000
  C   C25       1.0  0.91217  0.82155  0.23819  1.0000
  C   C26       1.0  0.97341  0.82045  0.27450  1.0000
  C   C27       1.0  0.88897  0.77763  0.23643  1.0000
  C   C28       1.0  0.94995  0.77671  0.27457  1.0000
  C   C29       1.0  0.90744  0.75470  0.25572  1.0000
  C   C30       1.0  0.90307  0.62366  0.27802  1.0000
  C   C31       1.0  0.17746  0.29727  0.22761  1.0000
  C   C32       1.0  0.34628  0.38373  0.27488  1.0000
  C   C33       1.0  0.17826  0.35846  0.21344  1.0000
  C   C34       1.0  0.35237  0.44852  0.22569  1.0000
  C   C35       1.0  0.23821  0.36085  0.24031  1.0000
  C   C36       1.0  0.37208  0.42671  0.24514  1.0000
  C   C37       1.0  0.88305  0.70822  0.25658  1.0000
  C   C38       1.0  0.15551  0.38069  0.20550  1.0000
  C   C39       1.0  0.05906  0.02484  0.24752  1.0000
  C   C40       1.0  0.88069  0.64622  0.27019  1.0000
  C   C41       1.0  0.17326  0.42571  0.24337  1.0000
  C   C42       1.0  0.03571  0.97990  0.24775  1.0000
  C   C43       1.0  0.82155  0.64556  0.24336  1.0000
  C   C44       1.0  0.11496  0.35723  0.16752  1.0000
  C   C45       1.0  0.98923  0.95920  0.30449  1.0000
  C   C46       1.0  0.28370  0.38425  0.24879  1.0000
  C   C47       1.0  0.96709  0.98494  0.35610  1.0000
  C   C48       1.0  0.96345  0.91378  0.31287  1.0000
  C   C49       1.0  0.10990  0.42316  0.20889  1.0000
  C   C50       1.0  0.98969  0.02857  0.35273  1.0000
  C   C51       1.0  0.03611  0.05006  0.29995  1.0000
  C   C52       1.0  0.30281  0.36287  0.27528  1.0000
  C   C53       1.0  0.05653  0.09588  0.30091  1.0000
  C   C54       1.0  0.30888  0.42747  0.22586  1.0000
  C   C55       1.0  0.01585  0.52617  0.74078  1.0000
  C   C56       1.0  0.99429  0.48426  0.78400  1.0000
  C   C57       1.0  0.06233  0.54535  0.68079  1.0000
  C   C58       1.0  0.01928  0.46303  0.76347  1.0000
  C   C59       1.0  0.08637  0.52512  0.66882  1.0000
  C   C60       1.0  0.06572  0.48354  0.71158  1.0000
  C   C61       1.0  0.09278  0.46378  0.69219  1.0000
  C   C62       1.0  0.14533  0.43295  0.74264  1.0000
  C   C63       1.0  0.08701  0.36360  0.67308  1.0000
  C   C64       1.0  0.44006  0.43598  0.69759  1.0000
  C   C65       1.0  0.99423  0.54934  0.73714  1.0000
  C   C66       1.0  0.57683  0.50305  0.68132  1.0000
  C   C67       1.0  0.48532  0.46023  0.70176  1.0000
  C   C68       1.0  0.51219  0.43831  0.62591  1.0000
  C   C69       1.0  0.50540  0.50486  0.76709  1.0000
  C   C70       1.0  0.55618  0.45879  0.61737  1.0000
  C   C71       1.0  0.55092  0.52594  0.75250  1.0000
  C   C72       1.0  0.62292  0.52260  0.66922  1.0000
  C   C73       1.0  0.17557  0.28649  0.72783  1.0000
  C   C74       1.0  0.34586  0.38156  0.78128  1.0000
  C   C75       1.0  0.17512  0.34672  0.71059  1.0000
  C   C76       1.0  0.34671  0.44365  0.73246  1.0000
  C   C77       1.0  0.23595  0.35048  0.73579  1.0000
  C   C78       1.0  0.36867  0.42490  0.75723  1.0000
  C   C79       1.0  0.88286  0.69928  0.75617  1.0000
  C   C80       1.0  0.15163  0.36783  0.70077  1.0000
  C   C81       1.0  0.05068  0.01808  0.77364  1.0000
  C   C82       1.0  0.87801  0.63532  0.75986  1.0000
  C   C83       1.0  0.16880  0.41275  0.73728  1.0000
  C   C84       1.0  0.03013  0.97302  0.76908  1.0000
  C   C85       1.0  0.82017  0.63816  0.73903  1.0000
  C   C86       1.0  0.11073  0.34350  0.66566  1.0000
  C   C87       1.0  0.98386  0.94971  0.80810  1.0000
  C   C88       1.0  0.28123  0.37600  0.74668  1.0000
  C   C89       1.0  0.95988  0.97323  0.85159  1.0000
  C   C90       1.0  0.96017  0.90390  0.81131  1.0000
  C   C91       1.0  0.10378  0.40862  0.71267  1.0000
  C   C92       1.0  0.98023  0.01699  0.84959  1.0000
  C   C93       1.0  0.02621  0.04065  0.80785  1.0000
  C   C94       1.0  0.30272  0.35749  0.77575  1.0000
  C   C95       1.0  0.04656  0.08623  0.80367  1.0000
  C   C96       1.0  0.30380  0.41939  0.72547  1.0000
  N   N1        1.0  0.96891  0.55696  0.26000  1.0000
  N   N2        1.0  0.41568  0.45017  0.24488  1.0000
  N   N3        1.0  0.21939  0.38245  0.22739  1.0000
  N   N4        1.0  0.15613  0.31565  0.20942  1.0000
  N   N5        1.0  0.21836  0.31857  0.24371  1.0000
  N   N6        1.0  0.84199  0.68816  0.24277  1.0000
  N   N7        1.0  0.90366  0.68877  0.27182  1.0000
  N   N8        1.0  0.83950  0.62313  0.25658  1.0000
  N   N9        1.0  0.08413  0.44142  0.21782  1.0000
  N   N10       1.0  0.64444  0.56132  0.23392  1.0000
  N   N11       1.0  0.98089  0.88743  0.25834  1.0000
  N   N12       1.0  0.09846  0.11879  0.24138  1.0000
  N   N13       1.0  0.95221  0.53542  0.78007  1.0000
  N   N14       1.0  0.41142  0.45144  0.76766  1.0000
  N   N15       1.0  0.21638  0.37119  0.72161  1.0000
  N   N16       1.0  0.15336  0.30427  0.71267  1.0000
  N   N17       1.0  0.21698  0.30807  0.73896  1.0000
  N   N18       1.0  0.84197  0.68076  0.74190  1.0000
  N   N19       1.0  0.90221  0.67810  0.76821  1.0000
  N   N20       1.0  0.83684  0.61395  0.74634  1.0000
  N   N21       1.0  0.07648  0.42597  0.73021  1.0000
  N   N22       1.0  0.64327  0.56197  0.74037  1.0000
  N   N23       1.0  0.97918  0.87880  0.75473  1.0000
  N   N24       1.0  0.08874  0.10776  0.74227  1.0000
  O   O1        1.0  0.48037  0.52236  0.36882  1.0000
  O   O2        1.0  0.96405  0.48971  0.35176  1.0000
  O   O3        1.0  0.10377  0.04041  0.18999  1.0000
  O   O4        1.0  0.56288  0.56390  0.35048  1.0000
  O   O5        1.0  0.00369  0.44564  0.32202  1.0000
  O   O6        1.0  0.06160  0.95885  0.18987  1.0000
  O   O7        1.0  0.51136  0.61379  0.45796  1.0000
  O   O8        1.0  0.90541  0.40342  0.41868  1.0000
  O   O9        1.0  0.15548  0.99220  0.09635  1.0000
  O   O10       1.0  0.48435  0.53080  0.83922  1.0000
  O   O11       1.0  0.94981  0.46042  0.83369  1.0000
  O   O12       1.0  0.09552  0.03756  0.73910  1.0000
  O   O13       1.0  0.56743  0.56945  0.81087  1.0000
  O   O14       1.0  0.99507  0.42112  0.79109  1.0000
  O   O15       1.0  0.05780  0.95495  0.72719  1.0000
  O   O16       1.0  0.52095  0.62243  0.01421  1.0000
  O   O17       1.0  0.90169  0.37293  0.93545  1.0000
  O   O18       1.0  0.15477  0.99697  0.55366  1.0000
  C   C97       1.0  0.90197  0.80159  0.72472  1.0000
  C   C98       1.0  0.94247  0.83021  0.75672  1.0000
  C  Sn1       1.0  0.96708  0.81527  0.78452  1.0000
  C  Sn2       1.0  0.95076  0.77084  0.78007  1.0000
  C   C99       1.0  0.91022  0.74246  0.74781  1.0000
  C   C100      1.0  0.88586  0.75776  0.72023  1.0000
  H   H49       1.0  0.88313  0.81342  0.70327  1.0000
  O  Te1       1.0  0.00747  0.84431  0.81639  1.0000
  O  Te2       1.0  0.97469  0.75504  0.80735  1.0000
  H   H50       1.0  0.85451  0.73559  0.69533  1.0000
  Mg  Mg1       1.0  0.02796  0.80726  0.84584  1.0000
  C   C101      1.0  0.74822  0.64360  0.19370  1.0000
  C   C102      1.0  0.77195  0.62923  0.23160  1.0000
  C  Sn3       1.0  0.75305  0.58718  0.26197  1.0000
  C  Sn4       1.0  0.70958  0.55906  0.25412  1.0000
  C   C103      1.0  0.68613  0.57373  0.21597  1.0000
  C   C104      1.0  0.70536  0.61588  0.18585  1.0000
  H   H51       1.0  0.76310  0.67620  0.17029  1.0000
  O  Te3       1.0  0.77721  0.57335  0.29974  1.0000
  O  Te4       1.0  0.68990  0.51686  0.28386  1.0000
  H   H52       1.0  0.68699  0.62699  0.15639  1.0000
  Mg  Mg2       1.0  0.73612  0.51298  0.33056  1.0000
  C   C105      1.0  0.95652  0.61721  0.82172  1.0000
  C   C106      1.0  0.94016  0.57274  0.79650  1.0000
  C  Sn5       1.0  0.90228  0.54607  0.74032  1.0000
  C  Sn6       1.0  0.88046  0.56434  0.70885  1.0000
  C   C107      1.0  0.89711  0.60887  0.73433  1.0000
  C   C108      1.0  0.93503  0.63526  0.79064  1.0000
  H   H53       1.0  0.98588  0.63763  0.86518  1.0000
  O  Te5       1.0  0.88636  0.50171  0.71585  1.0000
  O  Te6       1.0  0.84255  0.53843  0.65255  1.0000
  H   H54       1.0  0.94771  0.66969  0.81003  1.0000
  Mg  Mg3       1.0  0.83358  0.47977  0.63794  1.0000
  C   C109      1.0  0.71430  0.55324  0.74878  1.0000
  C   C110      1.0  0.69001  0.57175  0.74417  1.0000
  C  Sn7       1.0  0.71035  0.61452  0.72089  1.0000
  C  Sn8       1.0  0.75585  0.63912  0.70186  1.0000
  C   C111      1.0  0.77987  0.62030  0.70652  1.0000
  C   C112      1.0  0.75918  0.57749  0.72994  1.0000
  H   H55       1.0  0.69830  0.52011  0.76679  1.0000
  O  Te7       1.0  0.68560  0.63251  0.71667  1.0000
  O  Te8       1.0  0.77701  0.68193  0.67835  1.0000
  H   H56       1.0  0.77800  0.56316  0.73338  1.0000
  Mg  Mg4       1.0  0.72924  0.69209  0.68166  1.0000
  C   C113      1.0  0.10042  0.20593  0.70441  1.0000
  C   C114      1.0  0.14075  0.23514  0.73700  1.0000
  C  Sn9       1.0  0.16624  0.22084  0.76206  1.0000
  C  Sn10      1.0  0.15100  0.17645  0.75423  1.0000
  C   C115      1.0  0.11063  0.14748  0.72142  1.0000
  C   C116      1.0  0.08537  0.16214  0.69660  1.0000
  H   H57       1.0  0.08089  0.21727  0.68510  1.0000
  O  Te9       1.0  0.20644  0.25046  0.79455  1.0000
  O  Te10      1.0  0.17583  0.16128  0.77873  1.0000
  H   H58       1.0  0.05417  0.13951  0.67125  1.0000
  Mg  Mg5       1.0  0.22842  0.21416  0.81937  1.0000
  C   C117      1.0  0.10397  0.21427  0.20126  1.0000
  C   C118      1.0  0.14336  0.24555  0.23773  1.0000
  C  Sn11      1.0  0.17043  0.23387  0.26679  1.0000
  C  Sn12      1.0  0.15776  0.19004  0.25906  1.0000
  C   C119      1.0  0.11831  0.15899  0.22235  1.0000
  C   C120      1.0  0.09146  0.17103  0.19354  1.0000
  H   H59       1.0  0.08321  0.22358  0.17886  1.0000
  O  Te11      1.0  0.20966  0.26554  0.30314  1.0000
  O  Te12      1.0  0.18420  0.17748  0.28751  1.0000
  H   H60       1.0  0.06098  0.14680  0.16518  1.0000
  Mg  Mg6       1.0  0.23459  0.23246  0.33253  1.0000
