data_image0
_chemical_formula_structural       V6H24C60N24O18SnCSn2CSnTe4Mg2SnCSn2CSnTe4Mg2SnCSn2CSnTe4Mg2SnCSn2CSnTe4Mg2SnCSn2CSnTe4Mg2SnCSn2CSnTe4Mg2SnCSn2CSnTe4Mg2SnCSn2CSnTe4Mg2SnCSn2CSnTe4Mg2SnCSn2CSnTe4Mg2SnCSn2CSnTe4Mg2SnCSn2CSnTe4Mg2
_chemical_formula_sum              "V6 H24 C84 N24 O18 Sn48 Te48 Mg24"
_cell_length_a       37.1336
_cell_length_b       36.8449
_cell_length_c       7.84993
_cell_angle_alpha    110.197
_cell_angle_beta     64.9445
_cell_angle_gamma    120.738

_symmetry_space_group_name_H-M    'P1'
_space_group_IT_number       1

loop_
  _space_group_symop_operation_xyz
  'x, y, z'

loop_
  _atom_site_type_symbol
  _atom_site_label
  _atom_site_symmetry_multiplicity
  _atom_site_fract_x
  _atom_site_fract_y
  _atom_site_fract_z
  _atom_site_occupancy
  V   V1        1.0  0.52266  0.57516  0.32388  1.0000
  V   V2        1.0  0.11320  0.99996  0.23022  1.0000
  V   V3        1.0  0.95157  0.43363  0.29415  1.0000
  V   V4        1.0  0.51906  0.57657  0.97870  1.0000
  V   V5        1.0  0.10808  0.99351  0.58552  1.0000
  V   V6        1.0  0.94174  0.41885  0.94390  1.0000
  H   H1        1.0  0.03298  0.11010  0.35805  1.0000
  H   H2        1.0  0.13799  0.49635  0.11340  1.0000
  H   H3        1.0  0.13597  0.55467  0.08065  1.0000
  H   H4        1.0  0.09781  0.59511  0.09574  1.0000
  H   H5        1.0  0.43139  0.39759  0.12760  1.0000
  H   H6        1.0  0.50129  0.40074  0.05734  1.0000
  H   H7        1.0  0.57901  0.43935  0.05296  1.0000
  H   H8        1.0  0.64054  0.49966  0.10736  1.0000
  H   H9        1.0  0.92755  0.90343  0.37175  1.0000
  H   H10       1.0  0.03362  0.60300  0.16136  1.0000
  H   H11       1.0  0.93129  0.96960  0.39776  1.0000
  H   H12       1.0  0.97152  0.04727  0.38986  1.0000
  H   H13       1.0  0.02369  0.10112  0.85756  1.0000
  H   H14       1.0  0.12848  0.48316  0.63836  1.0000
  H   H15       1.0  0.12217  0.54102  0.62104  1.0000
  H   H16       1.0  0.07940  0.57679  0.63918  1.0000
  H   H17       1.0  0.43192  0.40267  0.62299  1.0000
  H   H18       1.0  0.49746  0.40418  0.57214  1.0000
  H   H19       1.0  0.57571  0.44066  0.55972  1.0000
  H   H20       1.0  0.63960  0.50132  0.59329  1.0000
  H   H21       1.0  0.92407  0.89202  0.86909  1.0000
  H   H22       1.0  0.01722  0.58008  0.68504  1.0000
  H   H23       1.0  0.92423  0.95608  0.88512  1.0000
  H   H24       1.0  0.96046  0.03355  0.87842  1.0000
  C   C1        1.0  0.03256  0.54803  0.21062  1.0000
  C   C2        1.0  0.00901  0.50803  0.27334  1.0000
  C   C3        1.0  0.07882  0.56415  0.14282  1.0000
  C   C4        1.0  0.03058  0.48392  0.25881  1.0000
  C   C5        1.0  0.10018  0.54129  0.13328  1.0000
  C   C6        1.0  0.07712  0.50052  0.18749  1.0000
  C   C7        1.0  0.10203  0.47869  0.17148  1.0000
  C   C8        1.0  0.44152  0.43183  0.18926  1.0000
  C   C9        1.0  0.01124  0.57194  0.21098  1.0000
  C   C10       1.0  0.57756  0.50042  0.18728  1.0000
  C   C11       1.0  0.48645  0.45521  0.19715  1.0000
  C   C12       1.0  0.51454  0.43458  0.11812  1.0000
  C   C13       1.0  0.50449  0.49886  0.27954  1.0000
  C   C14       1.0  0.55833  0.45638  0.11471  1.0000
  C   C15       1.0  0.54968  0.52169  0.27135  1.0000
  C   C16       1.0  0.62388  0.52105  0.17453  1.0000
  C   C17       1.0  0.17746  0.29727  0.22761  1.0000
  C   C18       1.0  0.17826  0.35846  0.21344  1.0000
  C   C19       1.0  0.23821  0.36085  0.24031  1.0000
  C   C20       1.0  0.88305  0.70822  0.25658  1.0000
  C   C21       1.0  0.05906  0.02484  0.24752  1.0000
  C   C22       1.0  0.88069  0.64622  0.27019  1.0000
  C   C23       1.0  0.03571  0.97990  0.24775  1.0000
  C   C24       1.0  0.82155  0.64556  0.24336  1.0000
  C   C25       1.0  0.98923  0.95920  0.30449  1.0000
  C   C26       1.0  0.96709  0.98494  0.35610  1.0000
  C   C27       1.0  0.96345  0.91378  0.31287  1.0000
  C   C28       1.0  0.98969  0.02857  0.35273  1.0000
  C   C29       1.0  0.03611  0.05006  0.29995  1.0000
  C   C30       1.0  0.05653  0.09588  0.30091  1.0000
  C   C31       1.0  0.01585  0.52617  0.74078  1.0000
  C   C32       1.0  0.99429  0.48426  0.78400  1.0000
  C   C33       1.0  0.06233  0.54535  0.68079  1.0000
  C   C34       1.0  0.01928  0.46303  0.76347  1.0000
  C   C35       1.0  0.08637  0.52512  0.66882  1.0000
  C   C36       1.0  0.06572  0.48354  0.71158  1.0000
  C   C37       1.0  0.09278  0.46378  0.69219  1.0000
  C   C38       1.0  0.44006  0.43598  0.69759  1.0000
  C   C39       1.0  0.99423  0.54934  0.73714  1.0000
  C   C40       1.0  0.57683  0.50305  0.68132  1.0000
  C   C41       1.0  0.48532  0.46023  0.70176  1.0000
  C   C42       1.0  0.51219  0.43831  0.62591  1.0000
  C   C43       1.0  0.50540  0.50486  0.76709  1.0000
  C   C44       1.0  0.55618  0.45879  0.61737  1.0000
  C   C45       1.0  0.55092  0.52594  0.75250  1.0000
  C   C46       1.0  0.62292  0.52260  0.66922  1.0000
  C   C47       1.0  0.17557  0.28649  0.72783  1.0000
  C   C48       1.0  0.17512  0.34672  0.71059  1.0000
  C   C49       1.0  0.23595  0.35048  0.73579  1.0000
  C   C50       1.0  0.88286  0.69928  0.75617  1.0000
  C   C51       1.0  0.05068  0.01808  0.77364  1.0000
  C   C52       1.0  0.87801  0.63532  0.75986  1.0000
  C   C53       1.0  0.03013  0.97302  0.76908  1.0000
  C   C54       1.0  0.82017  0.63816  0.73903  1.0000
  C   C55       1.0  0.98386  0.94971  0.80810  1.0000
  C   C56       1.0  0.95988  0.97323  0.85159  1.0000
  C   C57       1.0  0.96017  0.90390  0.81131  1.0000
  C   C58       1.0  0.98023  0.01699  0.84959  1.0000
  C   C59       1.0  0.02621  0.04065  0.80785  1.0000
  C   C60       1.0  0.04656  0.08623  0.80367  1.0000
  N   N1        1.0  0.96891  0.55696  0.26000  1.0000
  N   N2        1.0  0.41568  0.45017  0.24488  1.0000
  N   N3        1.0  0.21939  0.38245  0.22739  1.0000
  N   N4        1.0  0.15613  0.31565  0.20942  1.0000
  N   N5        1.0  0.21836  0.31857  0.24371  1.0000
  N   N6        1.0  0.84199  0.68816  0.24277  1.0000
  N   N7        1.0  0.90366  0.68877  0.27182  1.0000
  N   N8        1.0  0.83950  0.62313  0.25658  1.0000
  N   N9        1.0  0.08413  0.44142  0.21782  1.0000
  N   N10       1.0  0.64444  0.56132  0.23392  1.0000
  N   N11       1.0  0.98089  0.88743  0.25834  1.0000
  N   N12       1.0  0.09846  0.11879  0.24138  1.0000
  N   N13       1.0  0.95221  0.53542  0.78007  1.0000
  N   N14       1.0  0.41142  0.45144  0.76766  1.0000
  N   N15       1.0  0.21638  0.37119  0.72161  1.0000
  N   N16       1.0  0.15336  0.30427  0.71267  1.0000
  N   N17       1.0  0.21698  0.30807  0.73896  1.0000
  N   N18       1.0  0.84197  0.68076  0.74190  1.0000
  N   N19       1.0  0.90221  0.67810  0.76821  1.0000
  N   N20       1.0  0.83684  0.61395  0.74634  1.0000
  N   N21       1.0  0.07648  0.42597  0.73021  1.0000
  N   N22       1.0  0.64327  0.56197  0.74037  1.0000
  N   N23       1.0  0.97918  0.87880  0.75473  1.0000
  N   N24       1.0  0.08874  0.10776  0.74227  1.0000
  O   O1        1.0  0.48037  0.52236  0.36882  1.0000
  O   O2        1.0  0.96405  0.48971  0.35176  1.0000
  O   O3        1.0  0.10377  0.04041  0.18999  1.0000
  O   O4        1.0  0.56288  0.56390  0.35048  1.0000
  O   O5        1.0  0.00369  0.44564  0.32202  1.0000
  O   O6        1.0  0.06160  0.95885  0.18987  1.0000
  O   O7        1.0  0.51136  0.61379  0.45796  1.0000
  O   O8        1.0  0.90541  0.40342  0.41868  1.0000
  O   O9        1.0  0.15548  0.99220  0.09635  1.0000
  O   O10       1.0  0.48435  0.53080  0.83922  1.0000
  O   O11       1.0  0.94981  0.46042  0.83369  1.0000
  O   O12       1.0  0.09552  0.03756  0.73910  1.0000
  O   O13       1.0  0.56743  0.56945  0.81087  1.0000
  O   O14       1.0  0.99507  0.42112  0.79109  1.0000
  O   O15       1.0  0.05780  0.95495  0.72719  1.0000
  O   O16       1.0  0.52095  0.62243  0.01421  1.0000
  O   O17       1.0  0.90169  0.37293  0.93545  1.0000
  O   O18       1.0  0.15477  0.99697  0.55366  1.0000
  C  Sn1       1.0  0.95682  0.63236  0.37505  1.0000
  C   C61       1.0  0.94488  0.58835  0.33113  1.0000
  C  Sn2       1.0  0.91298  0.56088  0.23857  1.0000
  C  Sn3       1.0  0.89260  0.57775  0.18876  1.0000
  C   C62       1.0  0.90454  0.62173  0.23265  1.0000
  C  Sn4       1.0  0.93643  0.64923  0.32524  1.0000
  O  Te1       1.0  0.98879  0.65922  0.46762  1.0000
  O  Te2       1.0  0.90159  0.51700  0.19620  1.0000
  O  Te3       1.0  0.86060  0.55085  0.09612  1.0000
  O  Te4       1.0  0.94783  0.69308  0.36758  1.0000
  Mg  Mg1       1.0  0.85626  0.49341  0.06877  1.0000
  Mg  Mg2       1.0  0.99317  0.71671  0.49491  1.0000
  C  Sn5       1.0  0.16454  0.43244  0.30344  1.0000
  C   C63       1.0  0.15242  0.38841  0.26157  1.0000
  C  Sn6       1.0  0.11968  0.36066  0.17377  1.0000
  C  Sn7       1.0  0.09862  0.37727  0.12672  1.0000
  C   C64       1.0  0.11075  0.42127  0.16855  1.0000
  C  Sn8       1.0  0.14349  0.44905  0.25638  1.0000
  O  Te5       1.0  0.19736  0.45958  0.39124  1.0000
  O  Te6       1.0  0.10811  0.31676  0.13338  1.0000
  O  Te7       1.0  0.06578  0.35008  0.03885  1.0000
  O  Te8       1.0  0.15506  0.49292  0.29673  1.0000
  Mg  Mg3       1.0  0.06152  0.29273  0.01259  1.0000
  Mg  Mg4       1.0  0.20166  0.51698  0.41743  1.0000
  C  Sn9       1.0  0.10050  0.18819  0.15374  1.0000
  C   C65       1.0  0.11673  0.16449  0.18139  1.0000
  C  Sn10      1.0  0.15192  0.18514  0.25585  1.0000
  C  Sn11      1.0  0.17127  0.23042  0.30379  1.0000
  C   C66       1.0  0.15503  0.25409  0.27617  1.0000
  C  Sn12      1.0  0.11985  0.23347  0.20169  1.0000
  O  Te9       1.0  0.06529  0.16687  0.07913  1.0000
  O  Te10      1.0  0.16759  0.16076  0.28215  1.0000
  O  Te11      1.0  0.20650  0.25172  0.37846  1.0000
  O  Te12      1.0  0.10417  0.25783  0.17542  1.0000
  Mg  Mg5       1.0  0.21618  0.20450  0.38821  1.0000
  Mg  Mg6       1.0  0.05557  0.21412  0.06946  1.0000
  C  Sn13      1.0  0.71253  0.56356  0.31164  1.0000
  C   C67       1.0  0.68894  0.57924  0.28084  1.0000
  C  Sn14      1.0  0.71089  0.61674  0.20349  1.0000
  C  Sn15      1.0  0.75739  0.63903  0.15582  1.0000
  C   C68       1.0  0.78096  0.62334  0.18659  1.0000
  C  Sn16      1.0  0.75904  0.58584  0.26397  1.0000
  O  Te13      1.0  0.68991  0.52600  0.38911  1.0000
  O  Te14      1.0  0.68659  0.63180  0.17407  1.0000
  O  Te15      1.0  0.78001  0.67661  0.07830  1.0000
  O  Te16      1.0  0.78331  0.57078  0.29336  1.0000
  Mg  Mg7       1.0  0.73236  0.68435  0.06485  1.0000
  Mg  Mg8       1.0  0.73758  0.51823  0.40247  1.0000
  C  Sn17      1.0  0.89681  0.78477  0.17736  1.0000
  C   C69       1.0  0.90953  0.75758  0.20144  1.0000
  C  Sn18      1.0  0.94467  0.77443  0.27269  1.0000
  C  Sn19      1.0  0.96756  0.81941  0.32100  1.0000
  C   C70       1.0  0.95484  0.84658  0.29694  1.0000
  C  Sn20      1.0  0.91970  0.82975  0.22567  1.0000
  O  Te17      1.0  0.86158  0.76722  0.10592  1.0000
  O  Te18      1.0  0.95679  0.74660  0.29546  1.0000
  O  Te19      1.0  0.00281  0.83695  0.39249  1.0000
  O  Te20      1.0  0.90757  0.85755  0.20293  1.0000
  Mg  Mg9       1.0  0.00692  0.78590  0.39804  1.0000
  Mg  Mg10      1.0  0.85743  0.81829  0.10046  1.0000
  C  Sn21      1.0  0.34105  0.37291  0.21912  1.0000
  C   C71       1.0  0.37039  0.41567  0.20251  1.0000
  C  Sn22      1.0  0.35510  0.44505  0.22306  1.0000
  C  Sn23      1.0  0.30953  0.43143  0.26112  1.0000
  C   C72       1.0  0.28022  0.38869  0.27774  1.0000
  C  Sn24      1.0  0.29548  0.35928  0.25718  1.0000
  O  Te21      1.0  0.35707  0.34408  0.19805  1.0000
  O  Te22      1.0  0.38506  0.48763  0.20578  1.0000
  O  Te23      1.0  0.29352  0.46029  0.28218  1.0000
  O  Te24      1.0  0.26555  0.31673  0.27447  1.0000
  Mg  Mg11      1.0  0.34726  0.51487  0.24624  1.0000
  Mg  Mg12      1.0  0.30331  0.28947  0.23413  1.0000
  C  Sn25      1.0  0.94629  0.61336  0.87780  1.0000
  C   C73       1.0  0.93179  0.56896  0.83271  1.0000
  C  Sn26      1.0  0.90180  0.54402  0.72911  1.0000
  C  Sn27      1.0  0.88599  0.56388  0.66923  1.0000
  C   C74       1.0  0.90049  0.60826  0.71429  1.0000
  C  Sn28      1.0  0.93048  0.63322  0.81792  1.0000
  O  Te25      1.0  0.97629  0.63767  0.98149  1.0000
  O  Te26      1.0  0.88777  0.49968  0.68579  1.0000
  O  Te27      1.0  0.85596  0.53953  0.56546  1.0000
  O  Te28      1.0  0.94452  0.67753  0.86121  1.0000
  Mg  Mg13      1.0  0.84665  0.48030  0.54132  1.0000
  Mg  Mg14      1.0  0.05633  0.65981  0.00558  1.0000
  C  Sn29      1.0  0.08359  0.35596  0.72505  1.0000
  C   C75       1.0  0.09595  0.39993  0.75793  1.0000
  C  Sn30      1.0  0.13961  0.42919  0.74531  1.0000
  C  Sn31      1.0  0.17158  0.41420  0.69874  1.0000
  C   C76       1.0  0.15921  0.37026  0.66586  1.0000
  C  Sn32      1.0  0.11556  0.34097  0.67848  1.0000
  O  Te29      1.0  0.03976  0.32728  0.73842  1.0000
  O  Te30      1.0  0.15118  0.47299  0.77886  1.0000
  O  Te31      1.0  0.21544  0.44292  0.68539  1.0000
  O  Te32      1.0  0.10398  0.29719  0.64493  1.0000
  Mg  Mg15      1.0  0.21506  0.49947  0.74359  1.0000
  Mg  Mg16      1.0  0.04012  0.27068  0.68006  1.0000
  C  Sn33      1.0  0.17588  0.20768  0.69749  1.0000
  C   C77       1.0  0.16061  0.23393  0.68370  1.0000
  C  Sn34      1.0  0.11593  0.21919  0.71099  1.0000
  C  Sn35      1.0  0.08588  0.17735  0.75307  1.0000
  C   C78       1.0  0.10115  0.15113  0.76687  1.0000
  C  Sn36      1.0  0.14583  0.16585  0.73957  1.0000
  O  Te33      1.0  0.22068  0.22309  0.66967  1.0000
  O  Te34      1.0  0.10145  0.24601  0.69641  1.0000
  O  Te35      1.0  0.04105  0.16196  0.78088  1.0000
  O  Te36      1.0  0.16031  0.13905  0.75415  1.0000
  Mg  Mg17      1.0  0.03728  0.21052  0.74633  1.0000
  Mg  Mg18      1.0  0.22447  0.17451  0.70437  1.0000
  C  Sn37      1.0  0.70983  0.55964  0.80929  1.0000
  C   C79       1.0  0.68753  0.57768  0.78463  1.0000
  C  Sn38      1.0  0.71085  0.61582  0.71099  1.0000
  C  Sn39      1.0  0.75744  0.63634  0.66083  1.0000
  C   C80       1.0  0.77973  0.61829  0.68546  1.0000
  C  Sn40      1.0  0.75643  0.58016  0.75913  1.0000
  O  Te37      1.0  0.68585  0.52150  0.88313  1.0000
  O  Te38      1.0  0.68782  0.63325  0.68769  1.0000
  O  Te39      1.0  0.78142  0.67451  0.58694  1.0000
  O  Te40      1.0  0.77943  0.56273  0.78240  1.0000
  Mg  Mg19      1.0  0.73518  0.68571  0.58157  1.0000
  Mg  Mg20      1.0  0.73211  0.51026  0.88841  1.0000
  C  Sn41      1.0  0.89686  0.77487  0.67362  1.0000
  C   C81       1.0  0.90975  0.74856  0.70376  1.0000
  C  Sn42      1.0  0.94475  0.76646  0.77711  1.0000
  C  Sn43      1.0  0.96733  0.81159  0.82140  1.0000
  C   C82       1.0  0.95444  0.83787  0.79130  1.0000
  C  Sn44      1.0  0.91944  0.82001  0.71791  1.0000
  O  Te41      1.0  0.86178  0.75629  0.60017  1.0000
  O  Te42      1.0  0.95704  0.73950  0.80595  1.0000
  O  Te43      1.0  0.00243  0.83016  0.89490  1.0000
  O  Te44      1.0  0.90714  0.84694  0.68911  1.0000
  Mg  Mg21      1.0  0.00687  0.78005  0.90912  1.0000
  Mg  Mg22      1.0  0.85731  0.80643  0.58604  1.0000
  C  Sn45      1.0  0.30708  0.36366  0.83682  1.0000
  C   C83       1.0  0.28173  0.37644  0.80120  1.0000
  C  Sn46      1.0  0.30152  0.41391  0.72614  1.0000
  C  Sn47      1.0  0.34761  0.43913  0.68571  1.0000
  C   C84       1.0  0.37294  0.42634  0.72128  1.0000
  C  Sn48      1.0  0.35318  0.38888  0.79638  1.0000
  O  Te45      1.0  0.28661  0.32608  0.91189  1.0000
  O  Te46      1.0  0.27548  0.42603  0.69180  1.0000
  O  Te47      1.0  0.36808  0.47673  0.61058  1.0000
  O  Te48      1.0  0.37919  0.37675  0.83068  1.0000
  Mg  Mg23      1.0  0.31861  0.47986  0.58842  1.0000
  Mg  Mg24      1.0  0.33610  0.32292  0.93396  1.0000
