data_image0
_chemical_formula_structural       V6H24C60N24O18C2Sn2C2HTe2HMgC2Sn2C2HTe2HMgC2Sn2C2HTe2HMgC2Sn2C2HTe2HMgC2Sn2C2HTe2HMgC2Sn2C2HTe2HMgC2Sn2C2HTe2HMgC2Sn2C2HTe2HMgC2Sn2C2HTe2HMgC2Sn2C2HTe2HMgC2Sn2C2HTe2HMgC2Sn2C2HTe2HMg
_chemical_formula_sum              "V6 H48 C108 N24 O18 Sn24 Te24 Mg12"
_cell_length_a       37.1336
_cell_length_b       36.8449
_cell_length_c       7.84993
_cell_angle_alpha    110.197
_cell_angle_beta     64.9445
_cell_angle_gamma    120.738

_symmetry_space_group_name_H-M    'P1'
_space_group_IT_number       1

loop_
  _space_group_symop_operation_xyz
  'x, y, z'

loop_
  _atom_site_type_symbol
  _atom_site_label
  _atom_site_symmetry_multiplicity
  _atom_site_fract_x
  _atom_site_fract_y
  _atom_site_fract_z
  _atom_site_occupancy
  V   V1        1.0  0.52266  0.57516  0.32388  1.0000
  V   V2        1.0  0.11320  0.99996  0.23022  1.0000
  V   V3        1.0  0.95157  0.43363  0.29415  1.0000
  V   V4        1.0  0.51906  0.57657  0.97870  1.0000
  V   V5        1.0  0.10808  0.99351  0.58552  1.0000
  V   V6        1.0  0.94174  0.41885  0.94390  1.0000
  H   H1        1.0  0.03298  0.11010  0.35805  1.0000
  H   H2        1.0  0.13799  0.49635  0.11340  1.0000
  H   H3        1.0  0.13597  0.55467  0.08065  1.0000
  H   H4        1.0  0.09781  0.59511  0.09574  1.0000
  H   H5        1.0  0.43139  0.39759  0.12760  1.0000
  H   H6        1.0  0.50129  0.40074  0.05734  1.0000
  H   H7        1.0  0.57901  0.43935  0.05296  1.0000
  H   H8        1.0  0.64054  0.49966  0.10736  1.0000
  H   H9        1.0  0.92755  0.90343  0.37175  1.0000
  H   H10       1.0  0.03362  0.60300  0.16136  1.0000
  H   H11       1.0  0.93129  0.96960  0.39776  1.0000
  H   H12       1.0  0.97152  0.04727  0.38986  1.0000
  H   H13       1.0  0.02369  0.10112  0.85756  1.0000
  H   H14       1.0  0.12848  0.48316  0.63836  1.0000
  H   H15       1.0  0.12217  0.54102  0.62104  1.0000
  H   H16       1.0  0.07940  0.57679  0.63918  1.0000
  H   H17       1.0  0.43192  0.40267  0.62299  1.0000
  H   H18       1.0  0.49746  0.40418  0.57214  1.0000
  H   H19       1.0  0.57571  0.44066  0.55972  1.0000
  H   H20       1.0  0.63960  0.50132  0.59329  1.0000
  H   H21       1.0  0.92407  0.89202  0.86909  1.0000
  H   H22       1.0  0.01722  0.58008  0.68504  1.0000
  H   H23       1.0  0.92423  0.95608  0.88512  1.0000
  H   H24       1.0  0.96046  0.03355  0.87842  1.0000
  C   C1        1.0  0.03256  0.54803  0.21062  1.0000
  C   C2        1.0  0.00901  0.50803  0.27334  1.0000
  C   C3        1.0  0.07882  0.56415  0.14282  1.0000
  C   C4        1.0  0.03058  0.48392  0.25881  1.0000
  C   C5        1.0  0.10018  0.54129  0.13328  1.0000
  C   C6        1.0  0.07712  0.50052  0.18749  1.0000
  C   C7        1.0  0.10203  0.47869  0.17148  1.0000
  C   C8        1.0  0.44152  0.43183  0.18926  1.0000
  C   C9        1.0  0.01124  0.57194  0.21098  1.0000
  C   C10       1.0  0.57756  0.50042  0.18728  1.0000
  C   C11       1.0  0.48645  0.45521  0.19715  1.0000
  C   C12       1.0  0.51454  0.43458  0.11812  1.0000
  C   C13       1.0  0.50449  0.49886  0.27954  1.0000
  C   C14       1.0  0.55833  0.45638  0.11471  1.0000
  C   C15       1.0  0.54968  0.52169  0.27135  1.0000
  C   C16       1.0  0.62388  0.52105  0.17453  1.0000
  C   C17       1.0  0.17746  0.29727  0.22761  1.0000
  C   C18       1.0  0.17826  0.35846  0.21344  1.0000
  C   C19       1.0  0.23821  0.36085  0.24031  1.0000
  C   C20       1.0  0.88305  0.70822  0.25658  1.0000
  C   C21       1.0  0.05906  0.02484  0.24752  1.0000
  C   C22       1.0  0.88069  0.64622  0.27019  1.0000
  C   C23       1.0  0.03571  0.97990  0.24775  1.0000
  C   C24       1.0  0.82155  0.64556  0.24336  1.0000
  C   C25       1.0  0.98923  0.95920  0.30449  1.0000
  C   C26       1.0  0.96709  0.98494  0.35610  1.0000
  C   C27       1.0  0.96345  0.91378  0.31287  1.0000
  C   C28       1.0  0.98969  0.02857  0.35273  1.0000
  C   C29       1.0  0.03611  0.05006  0.29995  1.0000
  C   C30       1.0  0.05653  0.09588  0.30091  1.0000
  C   C31       1.0  0.01585  0.52617  0.74078  1.0000
  C   C32       1.0  0.99429  0.48426  0.78400  1.0000
  C   C33       1.0  0.06233  0.54535  0.68079  1.0000
  C   C34       1.0  0.01928  0.46303  0.76347  1.0000
  C   C35       1.0  0.08637  0.52512  0.66882  1.0000
  C   C36       1.0  0.06572  0.48354  0.71158  1.0000
  C   C37       1.0  0.09278  0.46378  0.69219  1.0000
  C   C38       1.0  0.44006  0.43598  0.69759  1.0000
  C   C39       1.0  0.99423  0.54934  0.73714  1.0000
  C   C40       1.0  0.57683  0.50305  0.68132  1.0000
  C   C41       1.0  0.48532  0.46023  0.70176  1.0000
  C   C42       1.0  0.51219  0.43831  0.62591  1.0000
  C   C43       1.0  0.50540  0.50486  0.76709  1.0000
  C   C44       1.0  0.55618  0.45879  0.61737  1.0000
  C   C45       1.0  0.55092  0.52594  0.75250  1.0000
  C   C46       1.0  0.62292  0.52260  0.66922  1.0000
  C   C47       1.0  0.17557  0.28649  0.72783  1.0000
  C   C48       1.0  0.17512  0.34672  0.71059  1.0000
  C   C49       1.0  0.23595  0.35048  0.73579  1.0000
  C   C50       1.0  0.88286  0.69928  0.75617  1.0000
  C   C51       1.0  0.05068  0.01808  0.77364  1.0000
  C   C52       1.0  0.87801  0.63532  0.75986  1.0000
  C   C53       1.0  0.03013  0.97302  0.76908  1.0000
  C   C54       1.0  0.82017  0.63816  0.73903  1.0000
  C   C55       1.0  0.98386  0.94971  0.80810  1.0000
  C   C56       1.0  0.95988  0.97323  0.85159  1.0000
  C   C57       1.0  0.96017  0.90390  0.81131  1.0000
  C   C58       1.0  0.98023  0.01699  0.84959  1.0000
  C   C59       1.0  0.02621  0.04065  0.80785  1.0000
  C   C60       1.0  0.04656  0.08623  0.80367  1.0000
  N   N1        1.0  0.96891  0.55696  0.26000  1.0000
  N   N2        1.0  0.41568  0.45017  0.24488  1.0000
  N   N3        1.0  0.21939  0.38245  0.22739  1.0000
  N   N4        1.0  0.15613  0.31565  0.20942  1.0000
  N   N5        1.0  0.21836  0.31857  0.24371  1.0000
  N   N6        1.0  0.84199  0.68816  0.24277  1.0000
  N   N7        1.0  0.90366  0.68877  0.27182  1.0000
  N   N8        1.0  0.83950  0.62313  0.25658  1.0000
  N   N9        1.0  0.08413  0.44142  0.21782  1.0000
  N   N10       1.0  0.64444  0.56132  0.23392  1.0000
  N   N11       1.0  0.98089  0.88743  0.25834  1.0000
  N   N12       1.0  0.09846  0.11879  0.24138  1.0000
  N   N13       1.0  0.95221  0.53542  0.78007  1.0000
  N   N14       1.0  0.41142  0.45144  0.76766  1.0000
  N   N15       1.0  0.21638  0.37119  0.72161  1.0000
  N   N16       1.0  0.15336  0.30427  0.71267  1.0000
  N   N17       1.0  0.21698  0.30807  0.73896  1.0000
  N   N18       1.0  0.84197  0.68076  0.74190  1.0000
  N   N19       1.0  0.90221  0.67810  0.76821  1.0000
  N   N20       1.0  0.83684  0.61395  0.74634  1.0000
  N   N21       1.0  0.07648  0.42597  0.73021  1.0000
  N   N22       1.0  0.64327  0.56197  0.74037  1.0000
  N   N23       1.0  0.97918  0.87880  0.75473  1.0000
  N   N24       1.0  0.08874  0.10776  0.74227  1.0000
  O   O1        1.0  0.48037  0.52236  0.36882  1.0000
  O   O2        1.0  0.96405  0.48971  0.35176  1.0000
  O   O3        1.0  0.10377  0.04041  0.18999  1.0000
  O   O4        1.0  0.56288  0.56390  0.35048  1.0000
  O   O5        1.0  0.00369  0.44564  0.32202  1.0000
  O   O6        1.0  0.06160  0.95885  0.18987  1.0000
  O   O7        1.0  0.51136  0.61379  0.45796  1.0000
  O   O8        1.0  0.90541  0.40342  0.41868  1.0000
  O   O9        1.0  0.15548  0.99220  0.09635  1.0000
  O   O10       1.0  0.48435  0.53080  0.83922  1.0000
  O   O11       1.0  0.94981  0.46042  0.83369  1.0000
  O   O12       1.0  0.09552  0.03756  0.73910  1.0000
  O   O13       1.0  0.56743  0.56945  0.81087  1.0000
  O   O14       1.0  0.99507  0.42112  0.79109  1.0000
  O   O15       1.0  0.05780  0.95495  0.72719  1.0000
  O   O16       1.0  0.52095  0.62243  0.01421  1.0000
  O   O17       1.0  0.90169  0.37293  0.93545  1.0000
  O   O18       1.0  0.15477  0.99697  0.55366  1.0000
  C   C61       1.0  0.89738  0.55677  0.23154  1.0000
  C   C62       1.0  0.93899  0.57410  0.25214  1.0000
  C  Sn1       1.0  0.96214  0.61836  0.29816  1.0000
  C  Sn2       1.0  0.94320  0.64570  0.32399  1.0000
  C   C63       1.0  0.90154  0.62805  0.30320  1.0000
  C   C64       1.0  0.87867  0.58371  0.25707  1.0000
  H   H25       1.0  0.87967  0.52247  0.19596  1.0000
  O  Te1       1.0  0.00369  0.63513  0.31814  1.0000
  O  Te2       1.0  0.96561  0.69004  0.37011  1.0000
  H   H26       1.0  0.84644  0.57031  0.24125  1.0000
  Mg  Mg1       1.0  0.02132  0.69764  0.38198  1.0000
  C   C65       1.0  0.10453  0.35641  0.16698  1.0000
  C   C66       1.0  0.14641  0.37389  0.18499  1.0000
  C  Sn3       1.0  0.16995  0.41822  0.22609  1.0000
  C  Sn4       1.0  0.15112  0.44549  0.24956  1.0000
  C   C67       1.0  0.10918  0.42768  0.23139  1.0000
  C   C68       1.0  0.08593  0.38327  0.19018  1.0000
  H   H27       1.0  0.08653  0.32205  0.13519  1.0000
  O  Te3       1.0  0.21176  0.43515  0.24353  1.0000
  O  Te4       1.0  0.17391  0.48991  0.29077  1.0000
  H   H28       1.0  0.05349  0.36975  0.17637  1.0000
  Mg  Mg2       1.0  0.22989  0.49772  0.30074  1.0000
  C   C69       1.0  0.16770  0.19871  0.25585  1.0000
  C   C70       1.0  0.12529  0.16857  0.25027  1.0000
  C  Sn5       1.0  0.09785  0.18038  0.22490  1.0000
  C  Sn6       1.0  0.11326  0.22319  0.20473  1.0000
  C   C71       1.0  0.15576  0.25310  0.21038  1.0000
  C   C72       1.0  0.18294  0.24094  0.23589  1.0000
  H   H29       1.0  0.18874  0.18930  0.27548  1.0000
  O  Te5       1.0  0.05556  0.14986  0.21974  1.0000
  O  Te6       1.0  0.08654  0.23585  0.17914  1.0000
  H   H30       1.0  0.21579  0.26427  0.24008  1.0000
  Mg  Mg3       1.0  0.03147  0.18263  0.18185  1.0000
  C   C73       1.0  0.71738  0.55710  0.25182  1.0000
  C   C74       1.0  0.69175  0.57330  0.24102  1.0000
  C  Sn7       1.0  0.71044  0.61556  0.21367  1.0000
  C  Sn8       1.0  0.75564  0.64201  0.19681  1.0000
  C   C75       1.0  0.78101  0.62549  0.20767  1.0000
  C   C76       1.0  0.76197  0.58316  0.23513  1.0000
  H   H31       1.0  0.70266  0.52435  0.27296  1.0000
  O  Te7       1.0  0.68436  0.63124  0.20328  1.0000
  O  Te8       1.0  0.77516  0.68436  0.16934  1.0000
  H   H32       1.0  0.78183  0.57062  0.24336  1.0000
  Mg  Mg4       1.0  0.72600  0.69107  0.16465  1.0000
  C   C77       1.0  0.97255  0.81059  0.28285  1.0000
  C   C78       1.0  0.96150  0.83803  0.24989  1.0000
  C  Sn9       1.0  0.92063  0.82276  0.22581  1.0000
  C  Sn10      1.0  0.89033  0.77919  0.23504  1.0000
  C   C79       1.0  0.90169  0.75200  0.26822  1.0000
  C   C80       1.0  0.94268  0.76761  0.29205  1.0000
  H   H33       1.0  0.00426  0.82267  0.30140  1.0000
  O  Te9       1.0  0.91012  0.85061  0.19292  1.0000
  O  Te10      1.0  0.84925  0.76308  0.21155  1.0000
  H   H34       1.0  0.95122  0.74636  0.31769  1.0000
  Mg  Mg5       1.0  0.85011  0.81358  0.16986  1.0000
  C   C81       1.0  0.33552  0.37399  0.28332  1.0000
  C   C82       1.0  0.36684  0.41525  0.24758  1.0000
  C  Sn11      1.0  0.35518  0.44238  0.21609  1.0000
  C  Sn12      1.0  0.31132  0.42786  0.22060  1.0000
  C   C83       1.0  0.28022  0.38654  0.25661  1.0000
  C   C84       1.0  0.29225  0.35965  0.28787  1.0000
  H   H35       1.0  0.34482  0.35319  0.30761  1.0000
  O  Te11      1.0  0.38688  0.48350  0.18053  1.0000
  O  Te12      1.0  0.29877  0.45432  0.18968  1.0000
  H   H36       1.0  0.26799  0.32771  0.31565  1.0000
  Mg  Mg6       1.0  0.35381  0.50766  0.14693  1.0000
  C   C85       1.0  0.87872  0.55446  0.70387  1.0000
  C   C86       1.0  0.89040  0.59833  0.76346  1.0000
  C  Sn13      1.0  0.92769  0.62493  0.82402  1.0000
  C  Sn14      1.0  0.95370  0.60719  0.82474  1.0000
  C   C87       1.0  0.94175  0.56326  0.76473  1.0000
  C   C88       1.0  0.90437  0.53694  0.70446  1.0000
  H   H37       1.0  0.84982  0.53409  0.65714  1.0000
  O  Te13      1.0  0.93888  0.66869  0.88316  1.0000
  O  Te14      1.0  0.99114  0.63304  0.88450  1.0000
  H   H38       1.0  0.89535  0.50297  0.65822  1.0000
  Mg  Mg7       1.0  0.99289  0.69078  0.95206  1.0000
  C   C89       1.0  0.10011  0.34246  0.66624  1.0000
  C   C90       1.0  0.14247  0.36068  0.68020  1.0000
  C  Sn15      1.0  0.16552  0.40512  0.72022  1.0000
  C  Sn16      1.0  0.14570  0.43173  0.74675  1.0000
  C   C91       1.0  0.10329  0.41319  0.73263  1.0000
  C   C92       1.0  0.08053  0.36868  0.69246  1.0000
  H   H39       1.0  0.08249  0.30803  0.63527  1.0000
  O  Te15      1.0  0.20782  0.42279  0.73360  1.0000
  O  Te16      1.0  0.16799  0.47623  0.78696  1.0000
  H   H40       1.0  0.04772  0.35459  0.68178  1.0000
  Mg  Mg8       1.0  0.22495  0.48517  0.79096  1.0000
  C   C93       1.0  0.16135  0.18511  0.75133  1.0000
  C   C94       1.0  0.11848  0.15690  0.74560  1.0000
  C  Sn17      1.0  0.09271  0.17131  0.72350  1.0000
  C  Sn18      1.0  0.11027  0.21479  0.70682  1.0000
  C   C95       1.0  0.15320  0.24275  0.71259  1.0000
  C   C96       1.0  0.17870  0.22799  0.73481  1.0000
  H   H41       1.0  0.18109  0.17369  0.76841  1.0000
  O  Te17      1.0  0.04994  0.14271  0.71814  1.0000
  O  Te18      1.0  0.08523  0.23004  0.68454  1.0000
  H   H42       1.0  0.21189  0.24983  0.73911  1.0000
  Mg  Mg9       1.0  0.02870  0.17872  0.68554  1.0000
  C   C97       1.0  0.74848  0.64130  0.70020  1.0000
  C   C98       1.0  0.77097  0.62455  0.73213  1.0000
  C  Sn19      1.0  0.75043  0.58198  0.75846  1.0000
  C  Sn20      1.0  0.70656  0.55577  0.75259  1.0000
  C   C99       1.0  0.68435  0.57283  0.72042  1.0000
  C   C100      1.0  0.70522  0.61548  0.69432  1.0000
  H   H43       1.0  0.76463  0.67429  0.67990  1.0000
  O  Te19      1.0  0.77338  0.56575  0.79028  1.0000
  O  Te20      1.0  0.68525  0.51312  0.77839  1.0000
  H   H44       1.0  0.68780  0.62843  0.66947  1.0000
  Mg  Mg10      1.0  0.73025  0.50567  0.81742  1.0000
  C   C101      1.0  0.97235  0.80257  0.78379  1.0000
  C   C102      1.0  0.96081  0.82930  0.74824  1.0000
  C  Sn21      1.0  0.91996  0.81320  0.72241  1.0000
  C  Sn22      1.0  0.89017  0.76953  0.73249  1.0000
  C   C103      1.0  0.90201  0.74307  0.76826  1.0000
  C   C104      1.0  0.94298  0.75950  0.79383  1.0000
  H   H45       1.0  0.00404  0.81529  0.80368  1.0000
  O  Te21      1.0  0.90896  0.84033  0.68694  1.0000
  O  Te22      1.0  0.84912  0.75261  0.70728  1.0000
  H   H46       1.0  0.95189  0.73881  0.82148  1.0000
  Mg  Mg11      1.0  0.84920  0.80233  0.66227  1.0000
  C   C105      1.0  0.33558  0.37135  0.78868  1.0000
  C   C106      1.0  0.36442  0.41330  0.75557  1.0000
  C  Sn23      1.0  0.35007  0.43787  0.72177  1.0000
  C  Sn24      1.0  0.30602  0.42002  0.72124  1.0000
  C   C107      1.0  0.27741  0.37804  0.75465  1.0000
  C   C108      1.0  0.29211  0.35373  0.78826  1.0000
  H   H47       1.0  0.34694  0.35255  0.81480  1.0000
  O  Te23      1.0  0.37933  0.47972  0.68887  1.0000
  O  Te24      1.0  0.29081  0.44387  0.68791  1.0000
  H   H48       1.0  0.26976  0.32126  0.81401  1.0000
  Mg  Mg12      1.0  0.34313  0.49947  0.65037  1.0000
