data_image0
_chemical_formula_structural       V6H48C96N24O18SnCSn2CSnTe4Mg2SnCSn2CSnTe4Mg2SnCSn2CSnTe4Mg2SnCSn2CSnTe4Mg2SnCSn2CSnTe4Mg2SnCSn2CSnTe4Mg2
_chemical_formula_sum              "V6 H48 C108 N24 O18 Sn24 Te24 Mg12"
_cell_length_a       37.1336
_cell_length_b       36.8449
_cell_length_c       7.84993
_cell_angle_alpha    110.197
_cell_angle_beta     64.9445
_cell_angle_gamma    120.738

_symmetry_space_group_name_H-M    'P1'
_space_group_IT_number       1

loop_
  _space_group_symop_operation_xyz
  'x, y, z'

loop_
  _atom_site_type_symbol
  _atom_site_label
  _atom_site_symmetry_multiplicity
  _atom_site_fract_x
  _atom_site_fract_y
  _atom_site_fract_z
  _atom_site_occupancy
  V   V1        1.0  0.52266  0.57516  0.32388  1.0000
  V   V2        1.0  0.11320  0.99996  0.23022  1.0000
  V   V3        1.0  0.95157  0.43363  0.29415  1.0000
  V   V4        1.0  0.51906  0.57657  0.97870  1.0000
  V   V5        1.0  0.10808  0.99351  0.58552  1.0000
  V   V6        1.0  0.94174  0.41885  0.94390  1.0000
  H   H1        1.0  0.03298  0.11010  0.35805  1.0000
  H   H2        1.0  0.17385  0.17338  0.27751  1.0000
  H   H3        1.0  0.20958  0.25227  0.27290  1.0000
  H   H4        1.0  0.06142  0.16138  0.18840  1.0000
  H   H5        1.0  0.09687  0.23966  0.18707  1.0000
  H   H6        1.0  0.13799  0.49635  0.11340  1.0000
  H   H7        1.0  0.13597  0.55467  0.08065  1.0000
  H   H8        1.0  0.09781  0.59511  0.09574  1.0000
  H   H9        1.0  0.43139  0.39759  0.12760  1.0000
  H   H10       1.0  0.50129  0.40074  0.05734  1.0000
  H   H11       1.0  0.57901  0.43935  0.05296  1.0000
  H   H12       1.0  0.64054  0.49966  0.10736  1.0000
  H   H13       1.0  0.85414  0.56112  0.20635  1.0000
  H   H14       1.0  0.89499  0.52289  0.19719  1.0000
  H   H15       1.0  0.95604  0.68148  0.35686  1.0000
  H   H16       1.0  0.99579  0.64367  0.35636  1.0000
  H   H17       1.0  0.92755  0.90343  0.37175  1.0000
  H   H18       1.0  0.03362  0.60300  0.16136  1.0000
  H   H19       1.0  0.93129  0.96960  0.39776  1.0000
  H   H20       1.0  0.97152  0.04727  0.38986  1.0000
  H   H21       1.0  0.02369  0.10112  0.85756  1.0000
  H   H22       1.0  0.16567  0.15806  0.76885  1.0000
  H   H23       1.0  0.20524  0.23753  0.77000  1.0000
  H   H24       1.0  0.05570  0.15434  0.69376  1.0000
  H   H25       1.0  0.09549  0.23293  0.69124  1.0000
  H   H26       1.0  0.09780  0.30882  0.63654  1.0000
  H   H27       1.0  0.20006  0.43094  0.76748  1.0000
  H   H28       1.0  0.15797  0.46764  0.77782  1.0000
  H   H29       1.0  0.05509  0.34549  0.64880  1.0000
  H   H30       1.0  0.12848  0.48316  0.63836  1.0000
  H   H31       1.0  0.12217  0.54102  0.62104  1.0000
  H   H32       1.0  0.07940  0.57679  0.63918  1.0000
  H   H33       1.0  0.43192  0.40267  0.62299  1.0000
  H   H34       1.0  0.49746  0.40418  0.57214  1.0000
  H   H35       1.0  0.57571  0.44066  0.55972  1.0000
  H   H36       1.0  0.63960  0.50132  0.59329  1.0000
  H   H37       1.0  0.84840  0.54985  0.67749  1.0000
  H   H38       1.0  0.88241  0.50637  0.68342  1.0000
  H   H39       1.0  0.95092  0.66496  0.85620  1.0000
  H   H40       1.0  0.98347  0.62215  0.87318  1.0000
  H   H41       1.0  0.96442  0.75098  0.79308  1.0000
  H   H42       1.0  0.89763  0.82803  0.70438  1.0000
  H   H43       1.0  0.85675  0.74995  0.71272  1.0000
  H   H44       1.0  0.00578  0.83033  0.79129  1.0000
  H   H45       1.0  0.92407  0.89202  0.86909  1.0000
  H   H46       1.0  0.01722  0.58008  0.68504  1.0000
  H   H47       1.0  0.92423  0.95608  0.88512  1.0000
  H   H48       1.0  0.96046  0.03355  0.87842  1.0000
  C   C1        1.0  0.88531  0.57872  0.23722  1.0000
  C   C2        1.0  0.94327  0.64686  0.31943  1.0000
  C   C3        1.0  0.03256  0.54803  0.21062  1.0000
  C   C4        1.0  0.00901  0.50803  0.27334  1.0000
  C   C5        1.0  0.07882  0.56415  0.14282  1.0000
  C   C6        1.0  0.03058  0.48392  0.25881  1.0000
  C   C7        1.0  0.10018  0.54129  0.13328  1.0000
  C   C8        1.0  0.07712  0.50052  0.18749  1.0000
  C   C9        1.0  0.10203  0.47869  0.17148  1.0000
  C   C10       1.0  0.90777  0.55756  0.23238  1.0000
  C   C11       1.0  0.96581  0.62580  0.31551  1.0000
  C   C12       1.0  0.94879  0.58076  0.26698  1.0000
  C   C13       1.0  0.44152  0.43183  0.18926  1.0000
  C   C14       1.0  0.01124  0.57194  0.21098  1.0000
  C   C15       1.0  0.57756  0.50042  0.18728  1.0000
  C   C16       1.0  0.48645  0.45521  0.19715  1.0000
  C   C17       1.0  0.51454  0.43458  0.11812  1.0000
  C   C18       1.0  0.50449  0.49886  0.27954  1.0000
  C   C19       1.0  0.55833  0.45638  0.11471  1.0000
  C   C20       1.0  0.54968  0.52169  0.27135  1.0000
  C   C21       1.0  0.62388  0.52105  0.17453  1.0000
  C   C22       1.0  0.17710  0.23195  0.25551  1.0000
  C   C23       1.0  0.15528  0.25097  0.23218  1.0000
  C   C24       1.0  0.90307  0.62366  0.27802  1.0000
  C   C25       1.0  0.17746  0.29727  0.22761  1.0000
  C   C26       1.0  0.17826  0.35846  0.21344  1.0000
  C   C27       1.0  0.23821  0.36085  0.24031  1.0000
  C   C28       1.0  0.88305  0.70822  0.25658  1.0000
  C   C29       1.0  0.05906  0.02484  0.24752  1.0000
  C   C30       1.0  0.88069  0.64622  0.27019  1.0000
  C   C31       1.0  0.03571  0.97990  0.24775  1.0000
  C   C32       1.0  0.82155  0.64556  0.24336  1.0000
  C   C33       1.0  0.98923  0.95920  0.30449  1.0000
  C   C34       1.0  0.15752  0.18838  0.25750  1.0000
  C   C35       1.0  0.96709  0.98494  0.35610  1.0000
  C   C36       1.0  0.96345  0.91378  0.31287  1.0000
  C   C37       1.0  0.98969  0.02857  0.35273  1.0000
  C   C38       1.0  0.03611  0.05006  0.29995  1.0000
  C   C39       1.0  0.11312  0.22499  0.21017  1.0000
  C   C40       1.0  0.11505  0.16226  0.23847  1.0000
  C   C41       1.0  0.05653  0.09588  0.30091  1.0000
  C   C42       1.0  0.09327  0.18125  0.21309  1.0000
  C   C43       1.0  0.87839  0.56508  0.71658  1.0000
  C   C44       1.0  0.93671  0.63033  0.81497  1.0000
  C   C45       1.0  0.01585  0.52617  0.74078  1.0000
  C   C46       1.0  0.99429  0.48426  0.78400  1.0000
  C   C47       1.0  0.06233  0.54535  0.68079  1.0000
  C   C48       1.0  0.01928  0.46303  0.76347  1.0000
  C   C49       1.0  0.08637  0.52512  0.66882  1.0000
  C   C50       1.0  0.06572  0.48354  0.71158  1.0000
  C   C51       1.0  0.09278  0.46378  0.69219  1.0000
  C   C52       1.0  0.14533  0.43295  0.74264  1.0000
  C   C53       1.0  0.08701  0.36360  0.67308  1.0000
  C   C54       1.0  0.89708  0.54108  0.72028  1.0000
  C   C55       1.0  0.95529  0.60639  0.82050  1.0000
  C   C56       1.0  0.93602  0.56137  0.77080  1.0000
  C   C57       1.0  0.44006  0.43598  0.69759  1.0000
  C   C58       1.0  0.99423  0.54934  0.73714  1.0000
  C   C59       1.0  0.57683  0.50305  0.68132  1.0000
  C   C60       1.0  0.48532  0.46023  0.70176  1.0000
  C   C61       1.0  0.51219  0.43831  0.62591  1.0000
  C   C62       1.0  0.50540  0.50486  0.76709  1.0000
  C   C63       1.0  0.55618  0.45879  0.61737  1.0000
  C   C64       1.0  0.55092  0.52594  0.75250  1.0000
  C   C65       1.0  0.62292  0.52260  0.66922  1.0000
  C   C66       1.0  0.17257  0.21897  0.75326  1.0000
  C   C67       1.0  0.15248  0.24013  0.73286  1.0000
  C   C68       1.0  0.95389  0.83486  0.75674  1.0000
  C   C69       1.0  0.91171  0.81184  0.73240  1.0000
  C   C70       1.0  0.97306  0.81230  0.77483  1.0000
  C   C71       1.0  0.88900  0.76809  0.73375  1.0000
  C   C72       1.0  0.95014  0.76847  0.77622  1.0000
  C   C73       1.0  0.90768  0.74581  0.75657  1.0000
  C   C74       1.0  0.89805  0.61004  0.76331  1.0000
  C   C75       1.0  0.17557  0.28649  0.72783  1.0000
  C   C76       1.0  0.17512  0.34672  0.71059  1.0000
  C   C77       1.0  0.23595  0.35048  0.73579  1.0000
  C   C78       1.0  0.88286  0.69928  0.75617  1.0000
  C   C79       1.0  0.15163  0.36783  0.70077  1.0000
  C   C80       1.0  0.05068  0.01808  0.77364  1.0000
  C   C81       1.0  0.87801  0.63532  0.75986  1.0000
  C   C82       1.0  0.16880  0.41275  0.73728  1.0000
  C   C83       1.0  0.03013  0.97302  0.76908  1.0000
  C   C84       1.0  0.82017  0.63816  0.73903  1.0000
  C   C85       1.0  0.11073  0.34350  0.66566  1.0000
  C   C86       1.0  0.98386  0.94971  0.80810  1.0000
  C   C87       1.0  0.15086  0.17510  0.75260  1.0000
  C   C88       1.0  0.95988  0.97323  0.85159  1.0000
  C   C89       1.0  0.96017  0.90390  0.81131  1.0000
  C   C90       1.0  0.10378  0.40862  0.71267  1.0000
  C   C91       1.0  0.98023  0.01699  0.84959  1.0000
  C   C92       1.0  0.02621  0.04065  0.80785  1.0000
  C   C93       1.0  0.11002  0.21629  0.71255  1.0000
  C   C94       1.0  0.10792  0.15136  0.73725  1.0000
  C   C95       1.0  0.04656  0.08623  0.80367  1.0000
  C   C96       1.0  0.08788  0.17256  0.71561  1.0000
  N   N1        1.0  0.96891  0.55696  0.26000  1.0000
  N   N2        1.0  0.41568  0.45017  0.24488  1.0000
  N   N3        1.0  0.21939  0.38245  0.22739  1.0000
  N   N4        1.0  0.15613  0.31565  0.20942  1.0000
  N   N5        1.0  0.21836  0.31857  0.24371  1.0000
  N   N6        1.0  0.84199  0.68816  0.24277  1.0000
  N   N7        1.0  0.90366  0.68877  0.27182  1.0000
  N   N8        1.0  0.83950  0.62313  0.25658  1.0000
  N   N9        1.0  0.08413  0.44142  0.21782  1.0000
  N   N10       1.0  0.64444  0.56132  0.23392  1.0000
  N   N11       1.0  0.98089  0.88743  0.25834  1.0000
  N   N12       1.0  0.09846  0.11879  0.24138  1.0000
  N   N13       1.0  0.95221  0.53542  0.78007  1.0000
  N   N14       1.0  0.41142  0.45144  0.76766  1.0000
  N   N15       1.0  0.21638  0.37119  0.72161  1.0000
  N   N16       1.0  0.15336  0.30427  0.71267  1.0000
  N   N17       1.0  0.21698  0.30807  0.73896  1.0000
  N   N18       1.0  0.84197  0.68076  0.74190  1.0000
  N   N19       1.0  0.90221  0.67810  0.76821  1.0000
  N   N20       1.0  0.83684  0.61395  0.74634  1.0000
  N   N21       1.0  0.07648  0.42597  0.73021  1.0000
  N   N22       1.0  0.64327  0.56197  0.74037  1.0000
  N   N23       1.0  0.97918  0.87880  0.75473  1.0000
  N   N24       1.0  0.08874  0.10776  0.74227  1.0000
  O   O1        1.0  0.48037  0.52236  0.36882  1.0000
  O   O2        1.0  0.96405  0.48971  0.35176  1.0000
  O   O3        1.0  0.10377  0.04041  0.18999  1.0000
  O   O4        1.0  0.56288  0.56390  0.35048  1.0000
  O   O5        1.0  0.00369  0.44564  0.32202  1.0000
  O   O6        1.0  0.06160  0.95885  0.18987  1.0000
  O   O7        1.0  0.51136  0.61379  0.45796  1.0000
  O   O8        1.0  0.90541  0.40342  0.41868  1.0000
  O   O9        1.0  0.15548  0.99220  0.09635  1.0000
  O   O10       1.0  0.48435  0.53080  0.83922  1.0000
  O   O11       1.0  0.94981  0.46042  0.83369  1.0000
  O   O12       1.0  0.09552  0.03756  0.73910  1.0000
  O   O13       1.0  0.56743  0.56945  0.81087  1.0000
  O   O14       1.0  0.99507  0.42112  0.79109  1.0000
  O   O15       1.0  0.05780  0.95495  0.72719  1.0000
  O   O16       1.0  0.52095  0.62243  0.01421  1.0000
  O   O17       1.0  0.90169  0.37293  0.93545  1.0000
  O   O18       1.0  0.15477  0.99697  0.55366  1.0000
  C  Sn1       1.0  0.74477  0.64290  0.76427  1.0000
  C   C97       1.0  0.76786  0.62409  0.77692  1.0000
  C  Sn2       1.0  0.75106  0.57958  0.75119  1.0000
  C  Sn3       1.0  0.71034  0.55332  0.71188  1.0000
  C   C98       1.0  0.68727  0.57213  0.69922  1.0000
  C  Sn4       1.0  0.70404  0.61664  0.72496  1.0000
  O  Te1       1.0  0.76219  0.68746  0.79049  1.0000
  O  Te2       1.0  0.77474  0.56151  0.76458  1.0000
  O  Te3       1.0  0.69293  0.50873  0.68567  1.0000
  O  Te4       1.0  0.68039  0.63470  0.71156  1.0000
  Mg  Mg1       1.0  0.73742  0.49923  0.71768  1.0000
  Mg  Mg2       1.0  0.71769  0.69697  0.75834  1.0000
  C  Sn5       1.0  0.33944  0.45051  0.28059  1.0000
  C   C99       1.0  0.36362  0.43378  0.29976  1.0000
  C  Sn6       1.0  0.34841  0.38956  0.27776  1.0000
  C  Sn7       1.0  0.30821  0.36147  0.23560  1.0000
  C   C100      1.0  0.28406  0.37820  0.21642  1.0000
  C  Sn8       1.0  0.29924  0.42242  0.23843  1.0000
  O  Te5       1.0  0.35527  0.49483  0.30316  1.0000
  O  Te6       1.0  0.37315  0.37359  0.29766  1.0000
  O  Te7       1.0  0.29239  0.31712  0.21304  1.0000
  O  Te8       1.0  0.27453  0.43839  0.21852  1.0000
  Mg  Mg3       1.0  0.33787  0.31081  0.25371  1.0000
  Mg  Mg4       1.0  0.30978  0.50116  0.26234  1.0000
  C  Sn9       1.0  0.74561  0.56817  0.19907  1.0000
  C   C101      1.0  0.77489  0.61087  0.18093  1.0000
  C  Sn10      1.0  0.75945  0.64020  0.20226  1.0000
  C  Sn11      1.0  0.71378  0.62657  0.24268  1.0000
  C   C102      1.0  0.68453  0.58389  0.26084  1.0000
  C  Sn12      1.0  0.69995  0.55453  0.23950  1.0000
  O  Te9       1.0  0.76177  0.53941  0.17719  1.0000
  O  Te10      1.0  0.78935  0.68272  0.18341  1.0000
  O  Te11      1.0  0.69764  0.65537  0.26456  1.0000
  O  Te12      1.0  0.67007  0.51204  0.25836  1.0000
  Mg  Mg5       1.0  0.75135  0.70989  0.22582  1.0000
  Mg  Mg6       1.0  0.70803  0.48485  0.21608  1.0000
  C  Sn13      1.0  0.89943  0.81446  0.29391  1.0000
  C   C103      1.0  0.94194  0.84105  0.30758  1.0000
  C  Sn14      1.0  0.97003  0.82350  0.27957  1.0000
  C  Sn15      1.0  0.95534  0.77844  0.23687  1.0000
  C   C104      1.0  0.91286  0.75187  0.22318  1.0000
  C  Sn16      1.0  0.88474  0.76940  0.25121  1.0000
  O  Te13      1.0  0.87191  0.83270  0.32245  1.0000
  O  Te14      1.0  0.01238  0.85074  0.29404  1.0000
  O  Te15      1.0  0.98290  0.76021  0.20833  1.0000
  O  Te16      1.0  0.84242  0.74219  0.23672  1.0000
  Mg  Mg7       1.0  0.03766  0.81061  0.24302  1.0000
  Mg  Mg8       1.0  0.81711  0.78228  0.28761  1.0000
  C  Sn17      1.0  0.34138  0.37044  0.72460  1.0000
  C   C105      1.0  0.36805  0.41375  0.71051  1.0000
  C  Sn18      1.0  0.34977  0.44044  0.72872  1.0000
  C  Sn19      1.0  0.30386  0.42349  0.76183  1.0000
  C   C106      1.0  0.27722  0.38021  0.77593  1.0000
  C  Sn20      1.0  0.29548  0.35350  0.75770  1.0000
  O  Te17      1.0  0.36036  0.34436  0.70594  1.0000
  O  Te18      1.0  0.37710  0.48363  0.71404  1.0000
  O  Te19      1.0  0.28489  0.44963  0.78047  1.0000
  O  Te20      1.0  0.26817  0.31034  0.77239  1.0000
  Mg  Mg9       1.0  0.33576  0.50631  0.74963  1.0000
  Mg  Mg10      1.0  0.30947  0.28763  0.73693  1.0000
  C  Sn21      1.0  0.16432  0.44556  0.19143  1.0000
  C   C107      1.0  0.12339  0.42734  0.16280  1.0000
  C  Sn22      1.0  0.09552  0.38396  0.17005  1.0000
  C  Sn23      1.0  0.10882  0.35825  0.20680  1.0000
  C   C108      1.0  0.14972  0.37647  0.23544  1.0000
  C  Sn24      1.0  0.17762  0.41985  0.22818  1.0000
  O  Te21      1.0  0.19165  0.48900  0.18356  1.0000
  O  Te22      1.0  0.05477  0.36646  0.14091  1.0000
  O  Te23      1.0  0.08145  0.31478  0.21465  1.0000
  O  Te24      1.0  0.21835  0.43735  0.25733  1.0000
  Mg  Mg11      1.0  0.02910  0.30571  0.16569  1.0000
  Mg  Mg12      1.0  0.24403  0.49810  0.23268  1.0000
