data_image0
_chemical_formula_structural       H36C96S12N24C2Sn2C2HTe2HMgC2Sn2C2HTe2HMgC2Sn2C2HTe2HMgC2Sn2C2HTe2HMgC2Sn2C2HTe2HMgC2Sn2C2HTe2HMg
_chemical_formula_sum              "H48 C120 S12 N24 Sn12 Te12 Mg6"
_cell_length_a       39.0974
_cell_length_b       40.0174
_cell_length_c       7.8559
_cell_angle_alpha    89.2951
_cell_angle_beta     103.618
_cell_angle_gamma    119.754

_symmetry_space_group_name_H-M    'P1'
_space_group_IT_number       1

loop_
  _space_group_symop_operation_xyz
  'x, y, z'

loop_
  _atom_site_type_symbol
  _atom_site_label
  _atom_site_symmetry_multiplicity
  _atom_site_fract_x
  _atom_site_fract_y
  _atom_site_fract_z
  _atom_site_occupancy
  H   H1        1.0  0.53716  0.56860  0.27466  1.0000
  H   H2        1.0  0.43027  0.96001  0.11997  1.0000
  H   H3        1.0  0.05551  0.48662  0.20603  1.0000
  H   H4        1.0  0.47460  0.43958  0.78654  1.0000
  H   H5        1.0  0.56558  0.03794  0.85190  1.0000
  H   H6        1.0  0.93399  0.51251  0.82560  1.0000
  H   H7        1.0  0.72804  0.30853  0.83820  1.0000
  H   H8        1.0  0.41723  0.74983  0.83789  1.0000
  H   H9        1.0  0.23547  0.66775  0.87515  1.0000
  H   H10       1.0  0.79530  0.33612  0.76226  1.0000
  H   H11       1.0  0.45389  0.82209  0.85092  1.0000
  H   H12       1.0  0.16105  0.62546  0.86283  1.0000
  H   H13       1.0  0.32290  0.75193  0.01865  1.0000
  H   H14       1.0  0.26040  0.58430  0.13601  1.0000
  H   H15       1.0  0.76122  0.42247  0.04440  1.0000
  H   H16       1.0  0.36154  0.82444  0.05145  1.0000
  H   H17       1.0  0.18637  0.54264  0.12971  1.0000
  H   H18       1.0  0.82934  0.44987  0.97498  1.0000
  H   H19       1.0  0.51935  0.57908  0.60183  1.0000
  H   H20       1.0  0.42206  0.93542  0.46291  1.0000
  H   H21       1.0  0.06057  0.49037  0.67758  1.0000
  H   H22       1.0  0.49788  0.43229  0.47375  1.0000
  H   H23       1.0  0.57503  0.06590  0.51214  1.0000
  H   H24       1.0  0.93771  0.52058  0.35646  1.0000
  H   H25       1.0  0.68196  0.42889  0.57338  1.0000
  H   H26       1.0  0.33534  0.57991  0.52101  1.0000
  H   H27       1.0  0.24689  0.67487  0.35960  1.0000
  H   H28       1.0  0.65336  0.47123  0.61505  1.0000
  H   H29       1.0  0.37052  0.54210  0.51008  1.0000
  H   H30       1.0  0.17325  0.63723  0.35552  1.0000
  H   H31       1.0  0.42917  0.67568  0.34435  1.0000
  H   H32       1.0  0.26575  0.58770  0.61566  1.0000
  H   H33       1.0  0.57703  0.33076  0.67612  1.0000
  H   H34       1.0  0.46309  0.63756  0.32289  1.0000
  H   H35       1.0  0.19304  0.55152  0.62649  1.0000
  H   H36       1.0  0.54889  0.37284  0.72422  1.0000
  C   C1        1.0  0.74103  0.36395  0.94630  1.0000
  C   C2        1.0  0.25190  0.62788  0.00218  1.0000
  C   C3        1.0  0.36798  0.74643  0.92980  1.0000
  C   C4        1.0  0.64749  0.29256  0.04306  1.0000
  C   C5        1.0  0.70188  0.34683  0.99289  1.0000
  C   C6        1.0  0.65189  0.35130  0.07269  1.0000
  C   C7        1.0  0.34716  0.70421  0.93357  1.0000
  C   C8        1.0  0.29374  0.64936  0.98484  1.0000
  C   C9        1.0  0.34933  0.64831  0.94982  1.0000
  C   C10       1.0  0.75055  0.33930  0.86834  1.0000
  C   C11       1.0  0.40516  0.76638  0.88310  1.0000
  C   C12       1.0  0.22432  0.64041  0.93098  1.0000
  C   C13       1.0  0.78759  0.35436  0.82672  1.0000
  C   C14       1.0  0.42588  0.80649  0.89265  1.0000
  C   C15       1.0  0.18326  0.61724  0.92478  1.0000
  C   C16       1.0  0.35187  0.76774  0.98467  1.0000
  C   C17       1.0  0.23831  0.59288  0.07650  1.0000
  C   C18       1.0  0.76921  0.40400  0.98314  1.0000
  C   C19       1.0  0.37349  0.80797  0.00443  1.0000
  C   C20       1.0  0.19748  0.56983  0.07327  1.0000
  C   C21       1.0  0.80684  0.41904  0.94610  1.0000
  C   C22       1.0  0.81598  0.39408  0.86847  1.0000
  C   C23       1.0  0.41147  0.82799  0.96268  1.0000
  C   C24       1.0  0.16981  0.58165  0.99338  1.0000
  C   C25       1.0  0.45611  0.55936  0.12494  1.0000
  C   C26       1.0  0.44522  0.89587  0.08627  1.0000
  C   C27       1.0  0.10132  0.55053  0.03286  1.0000
  C   C28       1.0  0.55480  0.44765  0.94563  1.0000
  C   C29       1.0  0.55096  0.10240  0.89304  1.0000
  C   C30       1.0  0.88637  0.43544  0.90156  1.0000
  C   C31       1.0  0.49525  0.46163  0.89779  1.0000
  C   C32       1.0  0.54147  0.03364  0.91054  1.0000
  C   C33       1.0  0.94848  0.50003  0.91799  1.0000
  C   C34       1.0  0.51618  0.54643  0.16446  1.0000
  C   C35       1.0  0.45404  0.96405  0.05951  1.0000
  C   C36       1.0  0.04142  0.50174  0.13274  1.0000
  C   C37       1.0  0.48946  0.49099  0.96034  1.0000
  C   C38       1.0  0.51225  0.99767  0.95032  1.0000
  C   C39       1.0  0.98955  0.51456  0.98275  1.0000
  C   C40       1.0  0.52206  0.51723  0.10127  1.0000
  C   C41       1.0  0.48319  0.99998  0.01935  1.0000
  C   C42       1.0  0.00071  0.48996  0.08895  1.0000
  C   C43       1.0  0.47888  0.54204  0.07475  1.0000
  C   C44       1.0  0.46148  0.93475  0.02481  1.0000
  C   C45       1.0  0.06384  0.53591  0.05369  1.0000
  C   C46       1.0  0.53208  0.46553  0.99112  1.0000
  C   C47       1.0  0.53437  0.06303  0.94812  1.0000
  C   C48       1.0  0.92539  0.46182  0.96745  1.0000
  C   C49       1.0  0.63119  0.37724  0.62119  1.0000
  C   C50       1.0  0.26122  0.63367  0.48646  1.0000
  C   C51       1.0  0.37967  0.62986  0.42985  1.0000
  C   C52       1.0  0.64052  0.29290  0.54677  1.0000
  C   C53       1.0  0.69620  0.34662  0.49853  1.0000
  C   C54       1.0  0.64702  0.35251  0.58102  1.0000
  C   C55       1.0  0.35847  0.70860  0.42314  1.0000
  C   C56       1.0  0.30351  0.65406  0.47019  1.0000
  C   C57       1.0  0.35908  0.65197  0.43914  1.0000
  C   C58       1.0  0.65312  0.41727  0.60796  1.0000
  C   C59       1.0  0.36301  0.59192  0.47649  1.0000
  C   C60       1.0  0.23486  0.64785  0.41785  1.0000
  C   C61       1.0  0.63741  0.44062  0.63159  1.0000
  C   C62       1.0  0.38218  0.57098  0.46948  1.0000
  C   C63       1.0  0.19387  0.62715  0.41712  1.0000
  C   C64       1.0  0.41630  0.64619  0.37814  1.0000
  C   C65       1.0  0.24546  0.59862  0.56077  1.0000
  C   C66       1.0  0.59361  0.36160  0.66412  1.0000
  C   C67       1.0  0.43503  0.62487  0.36462  1.0000
  C   C68       1.0  0.20488  0.57827  0.56652  1.0000
  C   C69       1.0  0.57808  0.38505  0.69259  1.0000
  C   C70       1.0  0.59979  0.42508  0.67686  1.0000
  C   C71       1.0  0.41754  0.58636  0.40628  1.0000
  C   C72       1.0  0.17838  0.59205  0.49202  1.0000
  C   C73       1.0  0.45056  0.55290  0.31181  1.0000
  C   C74       1.0  0.45067  0.89697  0.28785  1.0000
  C   C75       1.0  0.10752  0.55914  0.53186  1.0000
  C   C76       1.0  0.56520  0.45743  0.76816  1.0000
  C   C77       1.0  0.54664  0.10358  0.69248  1.0000
  C   C78       1.0  0.88817  0.44338  0.43758  1.0000
  C   C79       1.0  0.51213  0.46212  0.53190  1.0000
  C   C80       1.0  0.54353  0.04866  0.51814  1.0000
  C   C81       1.0  0.95219  0.50611  0.43327  1.0000
  C   C82       1.0  0.50499  0.54910  0.54538  1.0000
  C   C83       1.0  0.45346  0.95252  0.45554  1.0000
  C   C84       1.0  0.04590  0.50557  0.60995  1.0000
  C   C85       1.0  0.49648  0.48723  0.48859  1.0000
  C   C86       1.0  0.51768  0.00809  0.46945  1.0000
  C   C87       1.0  0.99343  0.51942  0.48274  1.0000
  C   C88       1.0  0.52066  0.52400  0.58878  1.0000
  C   C89       1.0  0.47909  0.99317  0.50151  1.0000
  C   C90       1.0  0.00499  0.49358  0.57347  1.0000
  C   C91       1.0  0.46972  0.53157  0.40849  1.0000
  C   C92       1.0  0.47229  0.93700  0.38302  1.0000
  C   C93       1.0  0.06846  0.54144  0.54171  1.0000
  C   C94       1.0  0.54714  0.47951  0.67027  1.0000
  C   C95       1.0  0.52474  0.06412  0.59132  1.0000
  C   C96       1.0  0.92871  0.46757  0.47954  1.0000
  S   S1        1.0  0.45246  0.50390  0.90169  1.0000
  S   S2        1.0  0.50200  0.95040  0.92718  1.0000
  S   S3        1.0  0.03259  0.55495  0.94687  1.0000
  S   S4        1.0  0.55851  0.50369  0.16369  1.0000
  S   S5        1.0  0.49392  0.04733  0.04626  1.0000
  S   S6        1.0  0.95770  0.44867  0.11846  1.0000
  S   S7        1.0  0.45335  0.48326  0.34420  1.0000
  S   S8        1.0  0.52269  0.97127  0.38725  1.0000
  S   S9        1.0  0.03621  0.56045  0.44715  1.0000
  S   S10       1.0  0.56330  0.52764  0.73635  1.0000
  S   S11       1.0  0.47426  0.02989  0.58587  1.0000
  S   S12       1.0  0.96208  0.45193  0.60354  1.0000
  N   N1        1.0  0.63084  0.31285  0.08361  1.0000
  N   N2        1.0  0.68254  0.30819  0.99427  1.0000
  N   N3        1.0  0.68811  0.36991  0.03145  1.0000
  N   N4        1.0  0.36744  0.68570  0.91807  1.0000
  N   N5        1.0  0.30962  0.68701  0.96090  1.0000
  N   N6        1.0  0.31304  0.62918  0.98836  1.0000
  N   N7        1.0  0.56384  0.42844  0.06466  1.0000
  N   N8        1.0  0.56242  0.12964  0.01686  1.0000
  N   N9        1.0  0.85308  0.40747  0.82361  1.0000
  N   N10       1.0  0.44305  0.57530  0.00136  1.0000
  N   N11       1.0  0.43220  0.86762  0.96504  1.0000
  N   N12       1.0  0.12807  0.55571  0.96211  1.0000
  N   N13       1.0  0.62454  0.31404  0.58661  1.0000
  N   N14       1.0  0.67591  0.30779  0.49880  1.0000
  N   N15       1.0  0.68310  0.37014  0.53912  1.0000
  N   N16       1.0  0.37844  0.68955  0.41216  1.0000
  N   N17       1.0  0.32067  0.69200  0.44817  1.0000
  N   N18       1.0  0.32207  0.63311  0.47259  1.0000
  N   N19       1.0  0.58511  0.44974  0.68057  1.0000
  N   N20       1.0  0.55842  0.13123  0.59592  1.0000
  N   N21       1.0  0.85332  0.41693  0.36528  1.0000
  N   N22       1.0  0.43357  0.56270  0.40813  1.0000
  N   N23       1.0  0.43913  0.87044  0.39031  1.0000
  N   N24       1.0  0.13671  0.56891  0.47151  1.0000
  C   C97       1.0  0.63311  0.21803  0.51378  1.0000
  C   C98       1.0  0.62199  0.24534  0.54137  1.0000
  C  Sn1       1.0  0.58787  0.23481  0.60451  1.0000
  C  Sn2       1.0  0.56451  0.19619  0.64063  1.0000
  C   C99       1.0  0.57591  0.16908  0.61271  1.0000
  C   C100      1.0  0.61010  0.17993  0.54943  1.0000
  H   H37       1.0  0.65958  0.22642  0.46491  1.0000
  O  Te1       1.0  0.57718  0.26246  0.63128  1.0000
  O  Te2       1.0  0.53027  0.18488  0.70390  1.0000
  H   H38       1.0  0.61872  0.15879  0.52819  1.0000
  Mg  Mg1       1.0  0.52795  0.23304  0.71918  1.0000
  C   C101      1.0  0.62981  0.19787  0.96957  1.0000
  C   C102      1.0  0.53262  0.14611  0.01693  1.0000
  C  Sn3       1.0  0.51143  0.16132  0.07514  1.0000
  C  Sn4       1.0  0.52667  0.20185  0.08594  1.0000
  C   C103      1.0  0.56274  0.22614  0.03814  1.0000
  C   C104      1.0  0.64485  0.23785  0.98012  1.0000
  H   H39       1.0  0.64603  0.18586  0.92459  1.0000
  O  Te3       1.0  0.47547  0.13640  0.12200  1.0000
  O  Te4       1.0  0.50608  0.21781  0.14361  1.0000
  H   H40       1.0  0.67275  0.25685  0.94335  1.0000
  Mg  Mg2       1.0  0.45836  0.17197  0.19279  1.0000
  C   C105      1.0  0.64963  0.42179  0.05847  1.0000
  C   C106      1.0  0.63962  0.38502  0.10763  1.0000
  C  Sn5       1.0  0.60192  0.36103  0.14287  1.0000
  C  Sn6       1.0  0.57378  0.37416  0.12847  1.0000
  C   C107      1.0  0.58408  0.41098  0.07907  1.0000
  C   C108      1.0  0.62189  0.43476  0.04416  1.0000
  H   H41       1.0  0.67888  0.44018  0.03136  1.0000
  O  Te5       1.0  0.59241  0.32438  0.19190  1.0000
  O  Te6       1.0  0.53588  0.35077  0.16287  1.0000
  H   H42       1.0  0.62962  0.46322  0.00599  1.0000
  Mg  Mg3       1.0  0.53697  0.30315  0.22527  1.0000
  C   C109      1.0  0.36565  0.78287  0.46892  1.0000
  C   C110      1.0  0.37316  0.75506  0.40851  1.0000
  C  Sn7       1.0  0.40716  0.76642  0.34319  1.0000
  C  Sn8       1.0  0.43408  0.80639  0.33847  1.0000
  C   C111      1.0  0.42631  0.83399  0.39933  1.0000
  C   C112      1.0  0.39219  0.82229  0.46437  1.0000
  H   H43       1.0  0.33927  0.77382  0.51934  1.0000
  O  Te7       1.0  0.41420  0.73826  0.28330  1.0000
  O  Te8       1.0  0.46829  0.81855  0.27391  1.0000
  H   H44       1.0  0.38640  0.84383  0.51124  1.0000
  Mg  Mg4       1.0  0.46490  0.76923  0.20720  1.0000
  C   C113      1.0  0.77918  0.35148  0.36195  1.0000
  C   C114      1.0  0.80769  0.39100  0.37578  1.0000
  C  Sn9       1.0  0.80065  0.41862  0.44214  1.0000
  C  Sn10      1.0  0.76437  0.40634  0.49559  1.0000
  C   C115      1.0  0.73605  0.36674  0.48135  1.0000
  C   C116      1.0  0.74340  0.33935  0.41471  1.0000
  H   H45       1.0  0.78487  0.33029  0.31048  1.0000
  O  Te9       1.0  0.82944  0.45798  0.45500  1.0000
  O  Te10      1.0  0.75657  0.43332  0.56245  1.0000
  H   H46       1.0  0.72133  0.30876  0.40413  1.0000
  Mg  Mg5       1.0  0.80504  0.48370  0.55440  1.0000
  C   C117      1.0  0.36943  0.57124  0.02629  1.0000
  C   C118      1.0  0.46738  0.61046  0.98341  1.0000
  C  Sn11      1.0  0.48772  0.64658  0.92446  1.0000
  C  Sn12      1.0  0.47084  0.67108  0.90831  1.0000
  C   C119      1.0  0.43402  0.65882  0.95165  1.0000
  C   C120      1.0  0.35277  0.59539  0.01046  1.0000
  H   H47       1.0  0.35388  0.54323  0.07188  1.0000
  O  Te11      1.0  0.52445  0.65811  0.88212  1.0000
  O  Te12      1.0  0.49054  0.70733  0.84977  1.0000
  H   H48       1.0  0.32429  0.58612  0.04376  1.0000
  Mg  Mg6       1.0  0.53985  0.71011  0.80806  1.0000
