data_image0
_chemical_formula_structural       H36C108S12N24SnCSn2CSnTe4Mg2SnCSn2CSnTe4Mg2SnCSn2CSnTe4Mg2SnCSn2CSnTe4Mg2SnCSn2CSnTe4Mg2SnCSn2CSnTe4Mg2
_chemical_formula_sum              "H36 C120 S12 N24 Sn24 Te24 Mg12"
_cell_length_a       42.3286
_cell_length_b       42.6376
_cell_length_c       8.08188
_cell_angle_alpha    84.2095
_cell_angle_beta     121.205
_cell_angle_gamma    120.169

_symmetry_space_group_name_H-M    'P1'
_space_group_IT_number       1

loop_
  _space_group_symop_operation_xyz
  'x, y, z'

loop_
  _atom_site_type_symbol
  _atom_site_label
  _atom_site_symmetry_multiplicity
  _atom_site_fract_x
  _atom_site_fract_y
  _atom_site_fract_z
  _atom_site_occupancy
  H   H1        1.0  0.49972  0.55532  0.01007  1.0000
  H   H2        1.0  0.44389  0.94208  0.99234  1.0000
  H   H3        1.0  0.05393  0.50402  0.96458  1.0000
  H   H4        1.0  0.50266  0.44460  0.01318  1.0000
  H   H5        1.0  0.55984  0.05975  0.04832  1.0000
  H   H6        1.0  0.94355  0.49935  0.01478  1.0000
  H   H7        1.0  0.73230  0.30554  0.96828  1.0000
  H   H8        1.0  0.26332  0.69299  0.98064  1.0000
  H   H9        1.0  0.80075  0.33040  0.97460  1.0000
  H   H10       1.0  0.19511  0.66890  0.97532  1.0000
  H   H11       1.0  0.24770  0.58569  0.00994  1.0000
  H   H12       1.0  0.75541  0.41531  0.01324  1.0000
  H   H13       1.0  0.17927  0.56090  0.00384  1.0000
  H   H14       1.0  0.82437  0.44084  0.02247  1.0000
  H   H15       1.0  0.50065  0.55506  0.51148  1.0000
  H   H16       1.0  0.44242  0.94110  0.50635  1.0000
  H   H17       1.0  0.05505  0.50228  0.46871  1.0000
  H   H18       1.0  0.49875  0.44210  0.50599  1.0000
  H   H19       1.0  0.55273  0.05827  0.52261  1.0000
  H   H20       1.0  0.94509  0.49720  0.52091  1.0000
  H   H21       1.0  0.68968  0.42581  0.49015  1.0000
  H   H22       1.0  0.73178  0.30388  0.46569  1.0000
  H   H23       1.0  0.31229  0.57428  0.52872  1.0000
  H   H24       1.0  0.42915  0.73717  0.48014  1.0000
  H   H25       1.0  0.66433  0.46780  0.48914  1.0000
  H   H26       1.0  0.80028  0.32842  0.47323  1.0000
  H   H27       1.0  0.33926  0.53254  0.55164  1.0000
  H   H28       1.0  0.47291  0.80422  0.48104  1.0000
  H   H29       1.0  0.41562  0.66211  0.47861  1.0000
  H   H30       1.0  0.34087  0.75661  0.49921  1.0000
  H   H31       1.0  0.58294  0.33492  0.50629  1.0000
  H   H32       1.0  0.75571  0.41393  0.51340  1.0000
  H   H33       1.0  0.44243  0.62051  0.49704  1.0000
  H   H34       1.0  0.38431  0.82385  0.50094  1.0000
  H   H35       1.0  0.55692  0.37629  0.50501  1.0000
  H   H36       1.0  0.82454  0.43907  0.52297  1.0000
  C   C1        1.0  0.51796  0.50178  0.00070  1.0000
  C   C2        1.0  0.50002  0.01680  0.03031  1.0000
  C   C3        1.0  0.98382  0.48392  0.99247  1.0000
  C   C4        1.0  0.48126  0.49713  0.99963  1.0000
  C   C5        1.0  0.50475  0.98555  0.01977  1.0000
  C   C6        1.0  0.01504  0.52064  0.99102  1.0000
  C   C7        1.0  0.54989  0.53582  0.99464  1.0000
  C   C8        1.0  0.46387  0.01344  0.01927  1.0000
  C   C9        1.0  0.98574  0.45188  0.98358  1.0000
  C   C10       1.0  0.44813  0.46281  0.99694  1.0000
  C   C11       1.0  0.54048  0.98888  0.02639  1.0000
  C   C12       1.0  0.01393  0.55304  0.00252  1.0000
  C   C13       1.0  0.73972  0.35893  0.99017  1.0000
  C   C14       1.0  0.25956  0.64077  0.99509  1.0000
  C   C15       1.0  0.64177  0.29645  0.98993  1.0000
  C   C16       1.0  0.69987  0.34448  0.98895  1.0000
  C   C17       1.0  0.65219  0.35439  0.99363  1.0000
  C   C18       1.0  0.35732  0.70306  0.99472  1.0000
  C   C19       1.0  0.29941  0.65507  0.99692  1.0000
  C   C20       1.0  0.34790  0.64546  0.99883  1.0000
  C   C21       1.0  0.75271  0.33500  0.98005  1.0000
  C   C22       1.0  0.24460  0.66423  0.98551  1.0000
  C   C23       1.0  0.79063  0.34865  0.98462  1.0000
  C   C24       1.0  0.20685  0.65099  0.98154  1.0000
  C   C25       1.0  0.23565  0.60345  0.00155  1.0000
  C   C26       1.0  0.76581  0.39715  0.00476  1.0000
  C   C27       1.0  0.19778  0.58964  0.99756  1.0000
  C   C28       1.0  0.80392  0.41135  0.01030  1.0000
  C   C29       1.0  0.81644  0.38694  0.99890  1.0000
  C   C30       1.0  0.18320  0.61355  0.98821  1.0000
  C   C31       1.0  0.42447  0.53800  0.01634  1.0000
  C   C32       1.0  0.46350  0.88583  0.98472  1.0000
  C   C33       1.0  0.11352  0.58008  0.98264  1.0000
  C   C34       1.0  0.57917  0.46296  0.01274  1.0000
  C   C35       1.0  0.53855  0.11546  0.03578  1.0000
  C   C36       1.0  0.88564  0.42245  0.00221  1.0000
  C   C37       1.0  0.52475  0.47230  0.00906  1.0000
  C   C38       1.0  0.53128  0.05341  0.04621  1.0000
  C   C39       1.0  0.94859  0.47727  0.00199  1.0000
  C   C40       1.0  0.47630  0.52729  0.00402  1.0000
  C   C41       1.0  0.47306  0.94877  0.99929  1.0000
  C   C42       1.0  0.04980  0.52659  0.97968  1.0000
  C   C43       1.0  0.43875  0.51775  0.99869  1.0000
  C   C44       1.0  0.48282  0.92221  0.99095  1.0000
  C   C45       1.0  0.07741  0.56360  0.98512  1.0000
  C   C46       1.0  0.56219  0.48209  0.01298  1.0000
  C   C47       1.0  0.52125  0.07998  0.05052  1.0000
  C   C48       1.0  0.92152  0.44011  0.99750  1.0000
  C   C49       1.0  0.51660  0.49991  0.50010  1.0000
  C   C50       1.0  0.49593  0.01597  0.52939  1.0000
  C   C51       1.0  0.98419  0.48110  0.49352  1.0000
  C   C52       1.0  0.48032  0.49638  0.49873  1.0000
  C   C53       1.0  0.50117  0.98507  0.51805  1.0000
  C   C54       1.0  0.01528  0.51795  0.49252  1.0000
  C   C55       1.0  0.54969  0.53363  0.49851  1.0000
  C   C56       1.0  0.46136  0.01283  0.53365  1.0000
  C   C57       1.0  0.98544  0.44884  0.48038  1.0000
  C   C58       1.0  0.44679  0.46258  0.49718  1.0000
  C   C59       1.0  0.53645  0.98903  0.51765  1.0000
  C   C60       1.0  0.01346  0.54996  0.50262  1.0000
  C   C61       1.0  0.73966  0.35740  0.49013  1.0000
  C   C62       1.0  0.63791  0.37778  0.49811  1.0000
  C   C63       1.0  0.36236  0.62087  0.50312  1.0000
  C   C64       1.0  0.38230  0.74277  0.48946  1.0000
  C   C65       1.0  0.64236  0.29514  0.49525  1.0000
  C   C66       1.0  0.69995  0.34302  0.49005  1.0000
  C   C67       1.0  0.65223  0.35288  0.49472  1.0000
  C   C68       1.0  0.35710  0.70350  0.49244  1.0000
  C   C69       1.0  0.29929  0.65586  0.49681  1.0000
  C   C70       1.0  0.34754  0.64587  0.49826  1.0000
  C   C71       1.0  0.66094  0.41546  0.49477  1.0000
  C   C72       1.0  0.75246  0.33336  0.47898  1.0000
  C   C73       1.0  0.34057  0.58400  0.52111  1.0000
  C   C74       1.0  0.41983  0.75642  0.48581  1.0000
  C   C75       1.0  0.64690  0.43876  0.49378  1.0000
  C   C76       1.0  0.79042  0.34687  0.48401  1.0000
  C   C77       1.0  0.35546  0.56079  0.53392  1.0000
  C   C78       1.0  0.44426  0.79359  0.48705  1.0000
  C   C79       1.0  0.39924  0.63371  0.49500  1.0000
  C   C80       1.0  0.36965  0.76740  0.49406  1.0000
  C   C81       1.0  0.60032  0.36399  0.50163  1.0000
  C   C82       1.0  0.76589  0.39559  0.50504  1.0000
  C   C83       1.0  0.41429  0.61074  0.50581  1.0000
  C   C84       1.0  0.39367  0.80463  0.49537  1.0000
  C   C85       1.0  0.58575  0.38683  0.50055  1.0000
  C   C86       1.0  0.80399  0.40963  0.51077  1.0000
  C   C87       1.0  0.60903  0.42459  0.49589  1.0000
  C   C88       1.0  0.81648  0.38520  0.49946  1.0000
  C   C89       1.0  0.39256  0.57400  0.52706  1.0000
  C   C90       1.0  0.43126  0.81797  0.49157  1.0000
  C   C91       1.0  0.42506  0.53920  0.51535  1.0000
  C   C92       1.0  0.46336  0.88601  0.49020  1.0000
  C   C93       1.0  0.11330  0.57927  0.48112  1.0000
  C   C94       1.0  0.57518  0.45864  0.50577  1.0000
  C   C95       1.0  0.53298  0.11398  0.52273  1.0000
  C   C96       1.0  0.88612  0.42021  0.50507  1.0000
  C   C97       1.0  0.52178  0.46956  0.50458  1.0000
  C   C98       1.0  0.52556  0.05219  0.53233  1.0000
  C   C99       1.0  0.94955  0.47481  0.50699  1.0000
  C   C100      1.0  0.47647  0.52725  0.50381  1.0000
  C   C101      1.0  0.47086  0.94820  0.50508  1.0000
  C   C102      1.0  0.05030  0.52455  0.48128  1.0000
  C   C103      1.0  0.43924  0.51872  0.49881  1.0000
  C   C104      1.0  0.48112  0.92223  0.49341  1.0000
  C   C105      1.0  0.07727  0.56166  0.48465  1.0000
  C   C106      1.0  0.55920  0.47835  0.51105  1.0000
  C   C107      1.0  0.51608  0.07887  0.54288  1.0000
  C   C108      1.0  0.92225  0.43767  0.50216  1.0000
  S   S1        1.0  0.41146  0.46673  0.99222  1.0000
  S   S2        1.0  0.53647  0.94924  0.01155  1.0000
  S   S3        1.0  0.05378  0.58943  0.00006  1.0000
  S   S4        1.0  0.58701  0.53241  0.00125  1.0000
  S   S5        1.0  0.46754  0.05302  0.02956  1.0000
  S   S6        1.0  0.94628  0.41504  0.98523  1.0000
  S   S7        1.0  0.41096  0.46771  0.49349  1.0000
  S   S8        1.0  0.53355  0.94995  0.50268  1.0000
  S   S9        1.0  0.05249  0.58669  0.49779  1.0000
  S   S10       1.0  0.58620  0.52898  0.50646  1.0000
  S   S11       1.0  0.46504  0.05243  0.54510  1.0000
  S   S12       1.0  0.94593  0.41221  0.48356  1.0000
  N   N1        1.0  0.62748  0.31840  0.99130  1.0000
  N   N2        1.0  0.67745  0.30803  0.98670  1.0000
  N   N3        1.0  0.68863  0.36878  0.99272  1.0000
  N   N4        1.0  0.37215  0.68129  0.99722  1.0000
  N   N5        1.0  0.32131  0.69133  0.99522  1.0000
  N   N6        1.0  0.31139  0.63103  0.99916  1.0000
  N   N7        1.0  0.60008  0.45220  0.00722  1.0000
  N   N8        1.0  0.54638  0.14616  0.00970  1.0000
  N   N9        1.0  0.85345  0.40023  0.00123  1.0000
  N   N10       1.0  0.40788  0.55056  0.04985  1.0000
  N   N11       1.0  0.45266  0.85362  0.97750  1.0000
  N   N12       1.0  0.14646  0.60069  0.98708  1.0000
  N   N13       1.0  0.62798  0.31705  0.49549  1.0000
  N   N14       1.0  0.67799  0.30667  0.49159  1.0000
  N   N15       1.0  0.68839  0.36722  0.49148  1.0000
  N   N16       1.0  0.37169  0.68157  0.49486  1.0000
  N   N17       1.0  0.32121  0.69202  0.49368  1.0000
  N   N18       1.0  0.31116  0.63167  0.49960  1.0000
  N   N19       1.0  0.59486  0.44741  0.49115  1.0000
  N   N20       1.0  0.54055  0.14435  0.48920  1.0000
  N   N21       1.0  0.85341  0.39837  0.50109  1.0000
  N   N22       1.0  0.40805  0.55143  0.54774  1.0000
  N   N23       1.0  0.45502  0.85442  0.48937  1.0000
  N   N24       1.0  0.14544  0.60131  0.48108  1.0000
  C  Sn1       1.0  0.64770  0.43609  0.93900  1.0000
  C   C109      1.0  0.61242  0.42813  0.94837  1.0000
  C  Sn2       1.0  0.47194  0.35507  0.00212  1.0000
  C  Sn3       1.0  0.48644  0.32990  0.04757  1.0000
  C   C110      1.0  0.52170  0.33787  0.03822  1.0000
  C  Sn4       1.0  0.66219  0.41092  0.98445  1.0000
  O  Te1       1.0  0.66829  0.46886  0.88493  1.0000
  O  Te2       1.0  0.43674  0.34770  0.01039  1.0000
  O  Te3       1.0  0.46581  0.29711  0.10166  1.0000
  O  Te4       1.0  0.69738  0.41829  0.97620  1.0000
  Mg  Mg1       1.0  0.41933  0.29941  0.09184  1.0000
  Mg  Mg2       1.0  0.71483  0.46658  0.89488  1.0000
  C  Sn5       1.0  0.36462  0.77265  0.93572  1.0000
  C   C111      1.0  0.37335  0.74506  0.93663  1.0000
  C  Sn6       1.0  0.41407  0.75461  0.98065  1.0000
  C  Sn7       1.0  0.32736  0.75208  0.02481  1.0000
  C   C112      1.0  0.31862  0.77965  0.02392  1.0000
  C  Sn8       1.0  0.39730  0.81057  0.97988  1.0000
  O  Te5       1.0  0.32369  0.76247  0.89131  1.0000
  O  Te6       1.0  0.42203  0.72653  0.98057  1.0000
  O  Te7       1.0  0.36831  0.76225  0.06923  1.0000
  O  Te8       1.0  0.38934  0.83862  0.97998  1.0000
  Mg  Mg3       1.0  0.36350  0.71393  0.05040  1.0000
  Mg  Mg4       1.0  0.32850  0.81081  0.91028  1.0000
  C  Sn9       1.0  0.21985  0.59630  0.43863  1.0000
  C   C113      1.0  0.24818  0.63263  0.44105  1.0000
  C  Sn10      1.0  0.24561  0.66193  0.48345  1.0000
  C  Sn11      1.0  0.21408  0.65476  0.52441  1.0000
  C   C114      1.0  0.18578  0.61845  0.52202  1.0000
  C  Sn12      1.0  0.18832  0.58913  0.47959  1.0000
  O  Te9       1.0  0.22301  0.56744  0.39588  1.0000
  O  Te10      1.0  0.27427  0.69802  0.48493  1.0000
  O  Te11      1.0  0.21094  0.68366  0.56718  1.0000
  O  Te12      1.0  0.15969  0.55306  0.47813  1.0000
  Mg  Mg5       1.0  0.25722  0.72804  0.55150  1.0000
  Mg  Mg6       1.0  0.17672  0.52302  0.41169  1.0000
  C  Sn13      1.0  0.34751  0.57926  0.07534  1.0000
  C   C115      1.0  0.36513  0.61622  0.05610  1.0000
  C  Sn14      1.0  0.39564  0.63162  0.00279  1.0000
  C  Sn15      1.0  0.52819  0.65005  0.96786  1.0000
  C   C116      1.0  0.51057  0.61312  0.98707  1.0000
  C  Sn16      1.0  0.36067  0.55726  0.04041  1.0000
  O  Te13      1.0  0.31706  0.56445  0.12876  1.0000
  O  Te14      1.0  0.53220  0.70908  0.98455  1.0000
  O  Te15      1.0  0.55867  0.66490  0.91441  1.0000
  O  Te16      1.0  0.34350  0.52026  0.05862  1.0000
  Mg  Mg7       1.0  0.57270  0.71667  0.90832  1.0000
  Mg  Mg8       1.0  0.30298  0.51264  0.13473  1.0000
  C  Sn17      1.0  0.55012  0.21217  0.44005  1.0000
  C   C117      1.0  0.55765  0.18375  0.44092  1.0000
  C  Sn18      1.0  0.59831  0.19217  0.48972  1.0000
  C  Sn19      1.0  0.63217  0.22977  0.53881  1.0000
  C   C118      1.0  0.62464  0.25816  0.53797  1.0000
  C  Sn20      1.0  0.58398  0.24977  0.48914  1.0000
  O  Te17      1.0  0.50922  0.20311  0.39080  1.0000
  O  Te18      1.0  0.60505  0.16329  0.48951  1.0000
  O  Te19      1.0  0.67310  0.23881  0.58808  1.0000
  O  Te20      1.0  0.57724  0.27863  0.48938  1.0000
  Mg  Mg9       1.0  0.66639  0.18971  0.56698  1.0000
  Mg  Mg10      1.0  0.51592  0.25224  0.41203  1.0000
  C  Sn21      1.0  0.58069  0.23882  0.06432  1.0000
  C   C119      1.0  0.61693  0.25642  0.04896  1.0000
  C  Sn22      1.0  0.74717  0.27592  0.99064  1.0000
  C  Sn23      1.0  0.72123  0.23656  0.94664  1.0000
  C   C120      1.0  0.68502  0.21899  0.96198  1.0000
  C  Sn24      1.0  0.55476  0.19947  0.02032  1.0000
  O  Te21      1.0  0.57045  0.26031  0.12288  1.0000
  O  Te22      1.0  0.78356  0.29414  0.97642  1.0000
  O  Te23      1.0  0.73150  0.21508  0.88805  1.0000
  O  Te24      1.0  0.51839  0.18127  0.03451  1.0000
  Mg  Mg11      1.0  0.78422  0.25272  0.89044  1.0000
  Mg  Mg12      1.0  0.51768  0.22265  0.12037  1.0000
