data_image0
_chemical_formula_structural       H12C72S12N24SnCSn2CSnTe4Mg2SnCSn2CSnTe4Mg2SnCSn2CSnTe4Mg2SnCSn2CSnTe4Mg2SnCSn2CSnTe4Mg2SnCSn2CSnTe4Mg2SnCSn2CSnTe4Mg2SnCSn2CSnTe4Mg2SnCSn2CSnTe4Mg2SnCSn2CSnTe4Mg2SnCSn2CSnTe4Mg2SnCSn2CSnTe4Mg2
_chemical_formula_sum              "H12 C96 S12 N24 Sn48 Te48 Mg24"
_cell_length_a       42.3286
_cell_length_b       42.6376
_cell_length_c       8.08188
_cell_angle_alpha    84.2095
_cell_angle_beta     121.205
_cell_angle_gamma    120.169

_symmetry_space_group_name_H-M    'P1'
_space_group_IT_number       1

loop_
  _space_group_symop_operation_xyz
  'x, y, z'

loop_
  _atom_site_type_symbol
  _atom_site_label
  _atom_site_symmetry_multiplicity
  _atom_site_fract_x
  _atom_site_fract_y
  _atom_site_fract_z
  _atom_site_occupancy
  H   H1        1.0  0.49972  0.55532  0.01007  1.0000
  H   H2        1.0  0.44389  0.94208  0.99234  1.0000
  H   H3        1.0  0.05393  0.50402  0.96458  1.0000
  H   H4        1.0  0.50266  0.44460  0.01318  1.0000
  H   H5        1.0  0.55984  0.05975  0.04832  1.0000
  H   H6        1.0  0.94355  0.49935  0.01478  1.0000
  H   H7        1.0  0.50065  0.55506  0.51148  1.0000
  H   H8        1.0  0.44242  0.94110  0.50635  1.0000
  H   H9        1.0  0.05505  0.50228  0.46871  1.0000
  H   H10       1.0  0.49875  0.44210  0.50599  1.0000
  H   H11       1.0  0.55273  0.05827  0.52261  1.0000
  H   H12       1.0  0.94509  0.49720  0.52091  1.0000
  C   C1        1.0  0.51796  0.50178  0.00070  1.0000
  C   C2        1.0  0.50002  0.01680  0.03031  1.0000
  C   C3        1.0  0.98382  0.48392  0.99247  1.0000
  C   C4        1.0  0.48126  0.49713  0.99963  1.0000
  C   C5        1.0  0.50475  0.98555  0.01977  1.0000
  C   C6        1.0  0.01504  0.52064  0.99102  1.0000
  C   C7        1.0  0.54989  0.53582  0.99464  1.0000
  C   C8        1.0  0.46387  0.01344  0.01927  1.0000
  C   C9        1.0  0.98574  0.45188  0.98358  1.0000
  C   C10       1.0  0.44813  0.46281  0.99694  1.0000
  C   C11       1.0  0.54048  0.98888  0.02639  1.0000
  C   C12       1.0  0.01393  0.55304  0.00252  1.0000
  C   C13       1.0  0.64177  0.29645  0.98993  1.0000
  C   C14       1.0  0.69987  0.34448  0.98895  1.0000
  C   C15       1.0  0.65219  0.35439  0.99363  1.0000
  C   C16       1.0  0.35732  0.70306  0.99472  1.0000
  C   C17       1.0  0.29941  0.65507  0.99692  1.0000
  C   C18       1.0  0.34790  0.64546  0.99883  1.0000
  C   C19       1.0  0.42447  0.53800  0.01634  1.0000
  C   C20       1.0  0.46350  0.88583  0.98472  1.0000
  C   C21       1.0  0.11352  0.58008  0.98264  1.0000
  C   C22       1.0  0.57917  0.46296  0.01274  1.0000
  C   C23       1.0  0.53855  0.11546  0.03578  1.0000
  C   C24       1.0  0.88564  0.42245  0.00221  1.0000
  C   C25       1.0  0.52475  0.47230  0.00906  1.0000
  C   C26       1.0  0.53128  0.05341  0.04621  1.0000
  C   C27       1.0  0.94859  0.47727  0.00199  1.0000
  C   C28       1.0  0.47630  0.52729  0.00402  1.0000
  C   C29       1.0  0.47306  0.94877  0.99929  1.0000
  C   C30       1.0  0.04980  0.52659  0.97968  1.0000
  C   C31       1.0  0.43875  0.51775  0.99869  1.0000
  C   C32       1.0  0.48282  0.92221  0.99095  1.0000
  C   C33       1.0  0.07741  0.56360  0.98512  1.0000
  C   C34       1.0  0.56219  0.48209  0.01298  1.0000
  C   C35       1.0  0.52125  0.07998  0.05052  1.0000
  C   C36       1.0  0.92152  0.44011  0.99750  1.0000
  C   C37       1.0  0.51660  0.49991  0.50010  1.0000
  C   C38       1.0  0.49593  0.01597  0.52939  1.0000
  C   C39       1.0  0.98419  0.48110  0.49352  1.0000
  C   C40       1.0  0.48032  0.49638  0.49873  1.0000
  C   C41       1.0  0.50117  0.98507  0.51805  1.0000
  C   C42       1.0  0.01528  0.51795  0.49252  1.0000
  C   C43       1.0  0.54969  0.53363  0.49851  1.0000
  C   C44       1.0  0.46136  0.01283  0.53365  1.0000
  C   C45       1.0  0.98544  0.44884  0.48038  1.0000
  C   C46       1.0  0.44679  0.46258  0.49718  1.0000
  C   C47       1.0  0.53645  0.98903  0.51765  1.0000
  C   C48       1.0  0.01346  0.54996  0.50262  1.0000
  C   C49       1.0  0.64236  0.29514  0.49525  1.0000
  C   C50       1.0  0.69995  0.34302  0.49005  1.0000
  C   C51       1.0  0.65223  0.35288  0.49472  1.0000
  C   C52       1.0  0.35710  0.70350  0.49244  1.0000
  C   C53       1.0  0.29929  0.65586  0.49681  1.0000
  C   C54       1.0  0.34754  0.64587  0.49826  1.0000
  C   C55       1.0  0.42506  0.53920  0.51535  1.0000
  C   C56       1.0  0.46336  0.88601  0.49020  1.0000
  C   C57       1.0  0.11330  0.57927  0.48112  1.0000
  C   C58       1.0  0.57518  0.45864  0.50577  1.0000
  C   C59       1.0  0.53298  0.11398  0.52273  1.0000
  C   C60       1.0  0.88612  0.42021  0.50507  1.0000
  C   C61       1.0  0.52178  0.46956  0.50458  1.0000
  C   C62       1.0  0.52556  0.05219  0.53233  1.0000
  C   C63       1.0  0.94955  0.47481  0.50699  1.0000
  C   C64       1.0  0.47647  0.52725  0.50381  1.0000
  C   C65       1.0  0.47086  0.94820  0.50508  1.0000
  C   C66       1.0  0.05030  0.52455  0.48128  1.0000
  C   C67       1.0  0.43924  0.51872  0.49881  1.0000
  C   C68       1.0  0.48112  0.92223  0.49341  1.0000
  C   C69       1.0  0.07727  0.56166  0.48465  1.0000
  C   C70       1.0  0.55920  0.47835  0.51105  1.0000
  C   C71       1.0  0.51608  0.07887  0.54288  1.0000
  C   C72       1.0  0.92225  0.43767  0.50216  1.0000
  S   S1        1.0  0.41146  0.46673  0.99222  1.0000
  S   S2        1.0  0.53647  0.94924  0.01155  1.0000
  S   S3        1.0  0.05378  0.58943  0.00006  1.0000
  S   S4        1.0  0.58701  0.53241  0.00125  1.0000
  S   S5        1.0  0.46754  0.05302  0.02956  1.0000
  S   S6        1.0  0.94628  0.41504  0.98523  1.0000
  S   S7        1.0  0.41096  0.46771  0.49349  1.0000
  S   S8        1.0  0.53355  0.94995  0.50268  1.0000
  S   S9        1.0  0.05249  0.58669  0.49779  1.0000
  S   S10       1.0  0.58620  0.52898  0.50646  1.0000
  S   S11       1.0  0.46504  0.05243  0.54510  1.0000
  S   S12       1.0  0.94593  0.41221  0.48356  1.0000
  N   N1        1.0  0.62748  0.31840  0.99130  1.0000
  N   N2        1.0  0.67745  0.30803  0.98670  1.0000
  N   N3        1.0  0.68863  0.36878  0.99272  1.0000
  N   N4        1.0  0.37215  0.68129  0.99722  1.0000
  N   N5        1.0  0.32131  0.69133  0.99522  1.0000
  N   N6        1.0  0.31139  0.63103  0.99916  1.0000
  N   N7        1.0  0.60008  0.45220  0.00722  1.0000
  N   N8        1.0  0.54638  0.14616  0.00970  1.0000
  N   N9        1.0  0.85345  0.40023  0.00123  1.0000
  N   N10       1.0  0.40788  0.55056  0.04985  1.0000
  N   N11       1.0  0.45266  0.85362  0.97750  1.0000
  N   N12       1.0  0.14646  0.60069  0.98708  1.0000
  N   N13       1.0  0.62798  0.31705  0.49549  1.0000
  N   N14       1.0  0.67799  0.30667  0.49159  1.0000
  N   N15       1.0  0.68839  0.36722  0.49148  1.0000
  N   N16       1.0  0.37169  0.68157  0.49486  1.0000
  N   N17       1.0  0.32121  0.69202  0.49368  1.0000
  N   N18       1.0  0.31116  0.63167  0.49960  1.0000
  N   N19       1.0  0.59486  0.44741  0.49115  1.0000
  N   N20       1.0  0.54055  0.14435  0.48920  1.0000
  N   N21       1.0  0.85341  0.39837  0.50109  1.0000
  N   N22       1.0  0.40805  0.55143  0.54774  1.0000
  N   N23       1.0  0.45502  0.85442  0.48937  1.0000
  N   N24       1.0  0.14544  0.60131  0.48108  1.0000
  C  Sn1       1.0  0.59529  0.38580  0.06222  1.0000
  C   C73       1.0  0.61452  0.42342  0.05572  1.0000
  C  Sn2       1.0  0.64468  0.43925  0.00035  1.0000
  C  Sn3       1.0  0.77524  0.45746  0.95029  1.0000
  C   C74       1.0  0.75601  0.41986  0.95677  1.0000
  C  Sn4       1.0  0.60645  0.36356  0.01216  1.0000
  O  Te1       1.0  0.56521  0.37056  0.11799  1.0000
  O  Te2       1.0  0.78288  0.51737  0.99502  1.0000
  O  Te3       1.0  0.80535  0.47273  0.89450  1.0000
  O  Te4       1.0  0.58765  0.32591  0.01747  1.0000
  Mg  Mg1       1.0  0.82210  0.52535  0.90965  1.0000
  Mg  Mg2       1.0  0.54841  0.31790  0.10271  1.0000
  C  Sn5       1.0  0.50160  0.16518  0.05247  1.0000
  C   C75       1.0  0.46393  0.14710  0.05668  1.0000
  C  Sn6       1.0  0.43979  0.16357  0.01123  1.0000
  C  Sn7       1.0  0.57297  0.23927  0.96039  1.0000
  C   C76       1.0  0.61061  0.25732  0.95617  1.0000
  C  Sn8       1.0  0.51538  0.20044  0.00163  1.0000
  O  Te5       1.0  0.52522  0.14820  0.09842  1.0000
  O  Te6       1.0  0.40226  0.14496  0.01651  1.0000
  O  Te7       1.0  0.54931  0.25624  0.91443  1.0000
  O  Te8       1.0  0.67228  0.25947  0.99633  1.0000
  Mg  Mg3       1.0  0.50044  0.21990  0.94207  1.0000
  Mg  Mg4       1.0  0.57411  0.18455  0.07065  1.0000
  C  Sn9       1.0  0.64765  0.29656  0.03958  1.0000
  C   C77       1.0  0.62967  0.31614  0.04432  1.0000
  C  Sn10      1.0  0.64394  0.35196  0.00784  1.0000
  C  Sn11      1.0  0.79625  0.40900  0.96560  1.0000
  C   C78       1.0  0.81421  0.38943  0.96083  1.0000
  C  Sn12      1.0  0.79996  0.35360  0.99734  1.0000
  O  Te9       1.0  0.63288  0.26078  0.07649  1.0000
  O  Te10      1.0  0.62549  0.37099  0.01347  1.0000
  O  Te11      1.0  0.81101  0.44482  0.92867  1.0000
  O  Te12      1.0  0.81839  0.33457  0.99168  1.0000
  Mg  Mg5       1.0  0.77583  0.45953  0.95305  1.0000
  Mg  Mg6       1.0  0.66806  0.24603  0.05198  1.0000
  C  Sn13      1.0  0.51814  0.66793  0.94550  1.0000
  C   C79       1.0  0.48207  0.65966  0.94867  1.0000
  C  Sn14      1.0  0.34262  0.58757  0.01108  1.0000
  C  Sn15      1.0  0.35897  0.56369  0.07171  1.0000
  C   C80       1.0  0.39501  0.57196  0.06855  1.0000
  C  Sn16      1.0  0.41509  0.60361  0.00613  1.0000
  O  Te13      1.0  0.53767  0.69973  0.88256  1.0000
  O  Te14      1.0  0.30660  0.57988  0.01290  1.0000
  O  Te15      1.0  0.33939  0.53187  0.13466  1.0000
  O  Te16      1.0  0.45109  0.61131  0.00432  1.0000
  Mg  Mg7       1.0  0.29119  0.53326  0.11098  1.0000
  Mg  Mg8       1.0  0.58594  0.69837  0.90637  1.0000
  C  Sn17      1.0  0.43274  0.78249  0.92319  1.0000
  C   C81       1.0  0.42526  0.81050  0.93222  1.0000
  C  Sn18      1.0  0.39763  0.80531  0.99180  1.0000
  C  Sn19      1.0  0.25766  0.73098  0.04355  1.0000
  C   C82       1.0  0.26515  0.70300  0.03455  1.0000
  C  Sn20      1.0  0.41217  0.74861  0.97495  1.0000
  O  Te17      1.0  0.46050  0.78829  0.86323  1.0000
  O  Te18      1.0  0.39064  0.83371  0.99960  1.0000
  O  Te19      1.0  0.22988  0.72520  0.10354  1.0000
  O  Te20      1.0  0.41916  0.72023  0.96717  1.0000
  Mg  Mg9       1.0  0.23067  0.77218  0.09049  1.0000
  Mg  Mg10      1.0  0.45975  0.74130  0.87640  1.0000
  C  Sn21      1.0  0.20813  0.65347  0.92151  1.0000
  C   C83       1.0  0.18143  0.61774  0.93260  1.0000
  C  Sn22      1.0  0.19620  0.59332  0.99409  1.0000
  C  Sn23      1.0  0.11917  0.56440  0.04569  1.0000
  C   C84       1.0  0.14585  0.60011  0.03462  1.0000
  C  Sn24      1.0  0.25049  0.66500  0.97311  1.0000
  O  Te21      1.0  0.19268  0.67743  0.85966  1.0000
  O  Te22      1.0  0.04951  0.51729  0.00394  1.0000
  O  Te23      1.0  0.13460  0.54041  0.10757  1.0000
  O  Te24      1.0  0.27777  0.70057  0.96329  1.0000
  Mg  Mg11      1.0  0.08529  0.49475  0.09693  1.0000
  Mg  Mg12      1.0  0.24203  0.72313  0.87042  1.0000
  C  Sn25      1.0  0.59374  0.38251  0.56110  1.0000
  C   C85       1.0  0.61175  0.41998  0.55115  1.0000
  C  Sn26      1.0  0.64174  0.43637  0.49478  1.0000
  C  Sn27      1.0  0.65397  0.41486  0.44723  1.0000
  C   C86       1.0  0.63596  0.37741  0.45715  1.0000
  C  Sn28      1.0  0.60597  0.36100  0.51355  1.0000
  O  Te25      1.0  0.56381  0.36670  0.61781  1.0000
  O  Te26      1.0  0.65931  0.47388  0.48598  1.0000
  O  Te27      1.0  0.68393  0.43070  0.39049  1.0000
  O  Te28      1.0  0.58840  0.32352  0.52232  1.0000
  Mg  Mg13      1.0  0.69882  0.48282  0.40061  1.0000
  Mg  Mg14      1.0  0.54887  0.31454  0.60758  1.0000
  C  Sn29      1.0  0.61872  0.20332  0.55606  1.0000
  C   C87       1.0  0.58029  0.18592  0.55360  1.0000
  C  Sn30      1.0  0.55706  0.20335  0.50569  1.0000
  C  Sn31      1.0  0.57254  0.23891  0.45913  1.0000
  C   C88       1.0  0.61094  0.25629  0.46156  1.0000
  C  Sn32      1.0  0.63420  0.23888  0.50950  1.0000
  O  Te29      1.0  0.64141  0.18538  0.60437  1.0000
  O  Te30      1.0  0.51874  0.18541  0.50429  1.0000
  O  Te31      1.0  0.54981  0.25685  0.41080  1.0000
  O  Te32      1.0  0.67250  0.25681  0.51088  1.0000
  Mg  Mg15      1.0  0.49931  0.22113  0.42896  1.0000
  Mg  Mg16      1.0  0.69193  0.22110  0.58608  1.0000
  C  Sn33      1.0  0.76779  0.39951  0.44744  1.0000
  C   C89       1.0  0.73866  0.36282  0.43680  1.0000
  C  Sn34      1.0  0.75071  0.33655  0.47578  1.0000
  C  Sn35      1.0  0.79276  0.34716  0.52659  1.0000
  C   C90       1.0  0.82186  0.38383  0.53724  1.0000
  C  Sn36      1.0  0.80983  0.41013  0.49825  1.0000
  O  Te33      1.0  0.75505  0.42531  0.40788  1.0000
  O  Te34      1.0  0.72103  0.30003  0.46414  1.0000
  O  Te35      1.0  0.80548  0.32132  0.56615  1.0000
  O  Te36      1.0  0.83949  0.44662  0.50990  1.0000
  Mg  Mg17      1.0  0.75357  0.27498  0.53125  1.0000
  Mg  Mg18      1.0  0.80699  0.47170  0.44293  1.0000
  C  Sn37      1.0  0.34220  0.56016  0.47263  1.0000
  C   C91       1.0  0.37874  0.56879  0.47290  1.0000
  C  Sn38      1.0  0.41056  0.60576  0.50535  1.0000
  C  Sn39      1.0  0.40577  0.63472  0.53835  1.0000
  C   C92       1.0  0.36925  0.62610  0.53811  1.0000
  C  Sn40      1.0  0.33741  0.58913  0.50564  1.0000
  O  Te37      1.0  0.31080  0.52301  0.43989  1.0000
  O  Te38      1.0  0.44680  0.61369  0.50486  1.0000
  O  Te39      1.0  0.43721  0.67190  0.57111  1.0000
  O  Te40      1.0  0.30119  0.58119  0.50614  1.0000
  Mg  Mg19      1.0  0.48077  0.66864  0.55656  1.0000
  Mg  Mg20      1.0  0.26722  0.52626  0.45456  1.0000
  C  Sn41      1.0  0.39391  0.79951  0.55563  1.0000
  C   C93       1.0  0.43089  0.81731  0.54596  1.0000
  C  Sn42      1.0  0.44201  0.79657  0.48816  1.0000
  C  Sn43      1.0  0.41561  0.75722  0.43885  1.0000
  C   C94       1.0  0.37865  0.73944  0.44849  1.0000
  C  Sn44      1.0  0.36751  0.76015  0.50632  1.0000
  O  Te41      1.0  0.38341  0.82079  0.61379  1.0000
  O  Te42      1.0  0.47915  0.81499  0.47968  1.0000
  O  Te43      1.0  0.42614  0.73594  0.38066  1.0000
  O  Te44      1.0  0.33039  0.74176  0.51477  1.0000
  Mg  Mg21      1.0  0.47991  0.77381  0.39189  1.0000
  Mg  Mg22      1.0  0.32958  0.78291  0.60243  1.0000
  C  Sn45      1.0  0.24376  0.66761  0.54439  1.0000
  C   C95       1.0  0.26256  0.64807  0.54963  1.0000
  C  Sn46      1.0  0.23845  0.60926  0.50289  1.0000
  C  Sn47      1.0  0.19462  0.58957  0.44968  1.0000
  C   C96       1.0  0.17585  0.60911  0.44443  1.0000
  C  Sn48      1.0  0.19994  0.64792  0.49118  1.0000
  O  Te45      1.0  0.26847  0.70640  0.59168  1.0000
  O  Te46      1.0  0.25795  0.59034  0.50924  1.0000
  O  Te47      1.0  0.16992  0.55075  0.40239  1.0000
  O  Te48      1.0  0.18046  0.66684  0.48482  1.0000
  Mg  Mg23      1.0  0.21093  0.53748  0.43226  1.0000
  Mg  Mg24      1.0  0.22744  0.71970  0.56167  1.0000
