data_image0
_chemical_formula_structural       H12C60S12N24C2Sn2C2HTe2HMgC2Sn2C2HTe2HMgC2Sn2C2HTe2HMgC2Sn2C2HTe2HMgC2Sn2C2HTe2HMgC2Sn2C2HTe2HMgC2Sn2C2HTe2HMgC2Sn2C2HTe2HMgC2Sn2C2HTe2HMgC2Sn2C2HTe2HMgC2Sn2C2HTe2HMgC2Sn2C2HTe2HMg
_chemical_formula_sum              "H36 C108 S12 N24 Sn24 Te24 Mg12"
_cell_length_a       39.0974
_cell_length_b       40.0174
_cell_length_c       7.8559
_cell_angle_alpha    89.2951
_cell_angle_beta     103.618
_cell_angle_gamma    119.754

_symmetry_space_group_name_H-M    'P1'
_space_group_IT_number       1

loop_
  _space_group_symop_operation_xyz
  'x, y, z'

loop_
  _atom_site_type_symbol
  _atom_site_label
  _atom_site_symmetry_multiplicity
  _atom_site_fract_x
  _atom_site_fract_y
  _atom_site_fract_z
  _atom_site_occupancy
  H   H1        1.0  0.53716  0.56860  0.27466  1.0000
  H   H2        1.0  0.43027  0.96001  0.11997  1.0000
  H   H3        1.0  0.05551  0.48662  0.20603  1.0000
  H   H4        1.0  0.47460  0.43958  0.78654  1.0000
  H   H5        1.0  0.56558  0.03794  0.85190  1.0000
  H   H6        1.0  0.93399  0.51251  0.82560  1.0000
  H   H7        1.0  0.51935  0.57908  0.60183  1.0000
  H   H8        1.0  0.42206  0.93542  0.46291  1.0000
  H   H9        1.0  0.06057  0.49037  0.67758  1.0000
  H   H10       1.0  0.49788  0.43229  0.47375  1.0000
  H   H11       1.0  0.57503  0.06590  0.51214  1.0000
  H   H12       1.0  0.93771  0.52058  0.35646  1.0000
  C   C1        1.0  0.64749  0.29256  0.04306  1.0000
  C   C2        1.0  0.70188  0.34683  0.99289  1.0000
  C   C3        1.0  0.65189  0.35130  0.07269  1.0000
  C   C4        1.0  0.34716  0.70421  0.93357  1.0000
  C   C5        1.0  0.29374  0.64936  0.98484  1.0000
  C   C6        1.0  0.34933  0.64831  0.94982  1.0000
  C   C7        1.0  0.45611  0.55936  0.12494  1.0000
  C   C8        1.0  0.44522  0.89587  0.08627  1.0000
  C   C9        1.0  0.10132  0.55053  0.03286  1.0000
  C   C10       1.0  0.55480  0.44765  0.94563  1.0000
  C   C11       1.0  0.55096  0.10240  0.89304  1.0000
  C   C12       1.0  0.88637  0.43544  0.90156  1.0000
  C   C13       1.0  0.49525  0.46163  0.89779  1.0000
  C   C14       1.0  0.54147  0.03364  0.91054  1.0000
  C   C15       1.0  0.94848  0.50003  0.91799  1.0000
  C   C16       1.0  0.51618  0.54643  0.16446  1.0000
  C   C17       1.0  0.45404  0.96405  0.05951  1.0000
  C   C18       1.0  0.04142  0.50174  0.13274  1.0000
  C   C19       1.0  0.48946  0.49099  0.96034  1.0000
  C   C20       1.0  0.51225  0.99767  0.95032  1.0000
  C   C21       1.0  0.98955  0.51456  0.98275  1.0000
  C   C22       1.0  0.52206  0.51723  0.10127  1.0000
  C   C23       1.0  0.48319  0.99998  0.01935  1.0000
  C   C24       1.0  0.00071  0.48996  0.08895  1.0000
  C   C25       1.0  0.47888  0.54204  0.07475  1.0000
  C   C26       1.0  0.46148  0.93475  0.02481  1.0000
  C   C27       1.0  0.06384  0.53591  0.05369  1.0000
  C   C28       1.0  0.53208  0.46553  0.99112  1.0000
  C   C29       1.0  0.53437  0.06303  0.94812  1.0000
  C   C30       1.0  0.92539  0.46182  0.96745  1.0000
  C   C31       1.0  0.64052  0.29290  0.54677  1.0000
  C   C32       1.0  0.69620  0.34662  0.49853  1.0000
  C   C33       1.0  0.64702  0.35251  0.58102  1.0000
  C   C34       1.0  0.35847  0.70860  0.42314  1.0000
  C   C35       1.0  0.30351  0.65406  0.47019  1.0000
  C   C36       1.0  0.35908  0.65197  0.43914  1.0000
  C   C37       1.0  0.45056  0.55290  0.31181  1.0000
  C   C38       1.0  0.45067  0.89697  0.28785  1.0000
  C   C39       1.0  0.10752  0.55914  0.53186  1.0000
  C   C40       1.0  0.56520  0.45743  0.76816  1.0000
  C   C41       1.0  0.54664  0.10358  0.69248  1.0000
  C   C42       1.0  0.88817  0.44338  0.43758  1.0000
  C   C43       1.0  0.51213  0.46212  0.53190  1.0000
  C   C44       1.0  0.54353  0.04866  0.51814  1.0000
  C   C45       1.0  0.95219  0.50611  0.43327  1.0000
  C   C46       1.0  0.50499  0.54910  0.54538  1.0000
  C   C47       1.0  0.45346  0.95252  0.45554  1.0000
  C   C48       1.0  0.04590  0.50557  0.60995  1.0000
  C   C49       1.0  0.49648  0.48723  0.48859  1.0000
  C   C50       1.0  0.51768  0.00809  0.46945  1.0000
  C   C51       1.0  0.99343  0.51942  0.48274  1.0000
  C   C52       1.0  0.52066  0.52400  0.58878  1.0000
  C   C53       1.0  0.47909  0.99317  0.50151  1.0000
  C   C54       1.0  0.00499  0.49358  0.57347  1.0000
  C   C55       1.0  0.46972  0.53157  0.40849  1.0000
  C   C56       1.0  0.47229  0.93700  0.38302  1.0000
  C   C57       1.0  0.06846  0.54144  0.54171  1.0000
  C   C58       1.0  0.54714  0.47951  0.67027  1.0000
  C   C59       1.0  0.52474  0.06412  0.59132  1.0000
  C   C60       1.0  0.92871  0.46757  0.47954  1.0000
  S   S1        1.0  0.45246  0.50390  0.90169  1.0000
  S   S2        1.0  0.50200  0.95040  0.92718  1.0000
  S   S3        1.0  0.03259  0.55495  0.94687  1.0000
  S   S4        1.0  0.55851  0.50369  0.16369  1.0000
  S   S5        1.0  0.49392  0.04733  0.04626  1.0000
  S   S6        1.0  0.95770  0.44867  0.11846  1.0000
  S   S7        1.0  0.45335  0.48326  0.34420  1.0000
  S   S8        1.0  0.52269  0.97127  0.38725  1.0000
  S   S9        1.0  0.03621  0.56045  0.44715  1.0000
  S   S10       1.0  0.56330  0.52764  0.73635  1.0000
  S   S11       1.0  0.47426  0.02989  0.58587  1.0000
  S   S12       1.0  0.96208  0.45193  0.60354  1.0000
  N   N1        1.0  0.63084  0.31285  0.08361  1.0000
  N   N2        1.0  0.68254  0.30819  0.99427  1.0000
  N   N3        1.0  0.68811  0.36991  0.03145  1.0000
  N   N4        1.0  0.36744  0.68570  0.91807  1.0000
  N   N5        1.0  0.30962  0.68701  0.96090  1.0000
  N   N6        1.0  0.31304  0.62918  0.98836  1.0000
  N   N7        1.0  0.56384  0.42844  0.06466  1.0000
  N   N8        1.0  0.56242  0.12964  0.01686  1.0000
  N   N9        1.0  0.85308  0.40747  0.82361  1.0000
  N   N10       1.0  0.44305  0.57530  0.00136  1.0000
  N   N11       1.0  0.43220  0.86762  0.96504  1.0000
  N   N12       1.0  0.12807  0.55571  0.96211  1.0000
  N   N13       1.0  0.62454  0.31404  0.58661  1.0000
  N   N14       1.0  0.67591  0.30779  0.49880  1.0000
  N   N15       1.0  0.68310  0.37014  0.53912  1.0000
  N   N16       1.0  0.37844  0.68955  0.41216  1.0000
  N   N17       1.0  0.32067  0.69200  0.44817  1.0000
  N   N18       1.0  0.32207  0.63311  0.47259  1.0000
  N   N19       1.0  0.58511  0.44974  0.68057  1.0000
  N   N20       1.0  0.55842  0.13123  0.59592  1.0000
  N   N21       1.0  0.85332  0.41693  0.36528  1.0000
  N   N22       1.0  0.43357  0.56270  0.40813  1.0000
  N   N23       1.0  0.43913  0.87044  0.39031  1.0000
  N   N24       1.0  0.13671  0.56891  0.47151  1.0000
  C   C61       1.0  0.64963  0.42179  0.05847  1.0000
  C   C62       1.0  0.63962  0.38502  0.10763  1.0000
  C  Sn1       1.0  0.60192  0.36103  0.14287  1.0000
  C  Sn2       1.0  0.57378  0.37416  0.12847  1.0000
  C   C63       1.0  0.58408  0.41098  0.07907  1.0000
  C   C64       1.0  0.62189  0.43476  0.04416  1.0000
  H   H13       1.0  0.67888  0.44018  0.03136  1.0000
  O  Te1       1.0  0.59241  0.32438  0.19190  1.0000
  O  Te2       1.0  0.53588  0.35077  0.16287  1.0000
  H   H14       1.0  0.62962  0.46322  0.00599  1.0000
  Mg  Mg1       1.0  0.53697  0.30315  0.22527  1.0000
  C   C65       1.0  0.62981  0.19787  0.96957  1.0000
  C   C66       1.0  0.53262  0.14611  0.01693  1.0000
  C  Sn3       1.0  0.51143  0.16132  0.07514  1.0000
  C  Sn4       1.0  0.52667  0.20185  0.08594  1.0000
  C   C67       1.0  0.56274  0.22614  0.03814  1.0000
  C   C68       1.0  0.64485  0.23785  0.98012  1.0000
  H   H15       1.0  0.64603  0.18586  0.92459  1.0000
  O  Te3       1.0  0.47547  0.13640  0.12200  1.0000
  O  Te4       1.0  0.50608  0.21781  0.14361  1.0000
  H   H16       1.0  0.67275  0.25685  0.94335  1.0000
  Mg  Mg2       1.0  0.45836  0.17197  0.19279  1.0000
  C   C69       1.0  0.77973  0.41251  0.98850  1.0000
  C   C70       1.0  0.74632  0.37470  0.94637  1.0000
  C  Sn5       1.0  0.74928  0.34557  0.86652  1.0000
  C  Sn6       1.0  0.78644  0.35456  0.82836  1.0000
  C   C71       1.0  0.81970  0.39247  0.87114  1.0000
  C   C72       1.0  0.81639  0.42140  0.95096  1.0000
  H   H17       1.0  0.71604  0.40766  0.05034  1.0000
  O  Te5       1.0  0.71560  0.30794  0.82525  1.0000
  O  Te6       1.0  0.79024  0.32600  0.74868  1.0000
  H   H18       1.0  0.84228  0.45067  0.98367  1.0000
  Mg  Mg3       1.0  0.73579  0.27902  0.71756  1.0000
  C   C73       1.0  0.36943  0.57124  0.02629  1.0000
  C   C74       1.0  0.46738  0.61046  0.98341  1.0000
  C  Sn7       1.0  0.48772  0.64658  0.92446  1.0000
  C  Sn8       1.0  0.47084  0.67108  0.90831  1.0000
  C   C75       1.0  0.43402  0.65882  0.95165  1.0000
  C   C76       1.0  0.35277  0.59539  0.01046  1.0000
  H   H19       1.0  0.35388  0.54323  0.07188  1.0000
  O  Te7       1.0  0.52445  0.65811  0.88212  1.0000
  O  Te8       1.0  0.49054  0.70733  0.84977  1.0000
  H   H20       1.0  0.32429  0.58612  0.04376  1.0000
  Mg  Mg4       1.0  0.53985  0.71011  0.80806  1.0000
  C   C77       1.0  0.36373  0.79885  0.00418  1.0000
  C   C78       1.0  0.46382  0.85109  0.98274  1.0000
  C  Sn9       1.0  0.48509  0.83619  0.92279  1.0000
  C  Sn10      1.0  0.46694  0.79549  0.88363  1.0000
  C   C79       1.0  0.42795  0.77072  0.90539  1.0000
  C   C80       1.0  0.40694  0.78594  0.96552  1.0000
  H   H21       1.0  0.34747  0.81063  0.05061  1.0000
  O  Te9       1.0  0.52398  0.86159  0.90217  1.0000
  O  Te10      1.0  0.48751  0.77983  0.82343  1.0000
  H   H22       1.0  0.37677  0.76657  0.98200  1.0000
  Mg  Mg5       1.0  0.53985  0.82628  0.81650  1.0000
  C   C81       1.0  0.19164  0.62687  0.91850  1.0000
  C   C82       1.0  0.17157  0.58968  0.96810  1.0000
  C  Sn11      1.0  0.13265  0.54525  0.04850  1.0000
  C  Sn12      1.0  0.17577  0.56574  0.07970  1.0000
  C   C83       1.0  0.19557  0.60295  0.02971  1.0000
  C   C84       1.0  0.23418  0.64711  0.94929  1.0000
  H   H23       1.0  0.17421  0.63998  0.85637  1.0000
  O  Te11      1.0  0.11210  0.50807  0.09715  1.0000
  O  Te12      1.0  0.19873  0.54925  0.15989  1.0000
  H   H24       1.0  0.24973  0.67591  0.91102  1.0000
  Mg  Mg6       1.0  0.15680  0.49787  0.20236  1.0000
  C   C85       1.0  0.64635  0.44000  0.62619  1.0000
  C   C86       1.0  0.60836  0.42936  0.65345  1.0000
  C  Sn13      1.0  0.58188  0.39104  0.67496  1.0000
  C  Sn14      1.0  0.59375  0.36292  0.66907  1.0000
  C   C87       1.0  0.63183  0.37386  0.64187  1.0000
  C   C88       1.0  0.65808  0.41229  0.62044  1.0000
  H   H25       1.0  0.66667  0.46973  0.60971  1.0000
  O  Te13      1.0  0.54403  0.38090  0.70201  1.0000
  O  Te14      1.0  0.56789  0.32442  0.69025  1.0000
  H   H26       1.0  0.68751  0.42052  0.59945  1.0000
  Mg  Mg7       1.0  0.51942  0.32476  0.72373  1.0000
  C   C89       1.0  0.57361  0.22475  0.62744  1.0000
  C   C90       1.0  0.60994  0.24738  0.57888  1.0000
  C  Sn15      1.0  0.63005  0.23016  0.52739  1.0000
  C  Sn16      1.0  0.61341  0.18951  0.52456  1.0000
  C   C91       1.0  0.57704  0.16712  0.57327  1.0000
  C   C92       1.0  0.55717  0.18466  0.62462  1.0000
  H   H27       1.0  0.55822  0.23831  0.66709  1.0000
  O  Te15      1.0  0.66633  0.25320  0.47934  1.0000
  O  Te16      1.0  0.63288  0.17155  0.47358  1.0000
  H   H28       1.0  0.52903  0.16712  0.66211  1.0000
  Mg  Mg8       1.0  0.68157  0.21529  0.41972  1.0000
  C   C93       1.0  0.75726  0.34214  0.36869  1.0000
  C   C94       1.0  0.74014  0.35852  0.45156  1.0000
  C  Sn17      1.0  0.76094  0.39851  0.50213  1.0000
  C  Sn18      1.0  0.79960  0.42247  0.46891  1.0000
  C   C95       1.0  0.81646  0.40581  0.38581  1.0000
  C   C96       1.0  0.79538  0.36576  0.33580  1.0000
  H   H29       1.0  0.74095  0.31115  0.32990  1.0000
  O  Te17      1.0  0.74340  0.41439  0.58485  1.0000
  O  Te18      1.0  0.82105  0.46253  0.51801  1.0000
  H   H30       1.0  0.80864  0.35309  0.27154  1.0000
  Mg  Mg9       1.0  0.78447  0.47054  0.62706  1.0000
  C   C97       1.0  0.43448  0.63379  0.35470  1.0000
  C   C98       1.0  0.42431  0.59707  0.40491  1.0000
  C  Sn19      1.0  0.38933  0.57555  0.46433  1.0000
  C  Sn20      1.0  0.36411  0.59116  0.47346  1.0000
  C   C99       1.0  0.37453  0.62792  0.42280  1.0000
  C   C100      1.0  0.40962  0.64921  0.36360  1.0000
  H   H31       1.0  0.46161  0.65026  0.30880  1.0000
  O  Te19      1.0  0.37962  0.53892  0.51405  1.0000
  O  Te20      1.0  0.32896  0.57027  0.53229  1.0000
  H   H32       1.0  0.41747  0.67763  0.32462  1.0000
  Mg  Mg10      1.0  0.32857  0.52161  0.58545  1.0000
  C   C101      1.0  0.36565  0.78287  0.46892  1.0000
  C   C102      1.0  0.37316  0.75506  0.40851  1.0000
  C  Sn21      1.0  0.40716  0.76642  0.34319  1.0000
  C  Sn22      1.0  0.43408  0.80639  0.33847  1.0000
  C   C103      1.0  0.42631  0.83399  0.39933  1.0000
  C   C104      1.0  0.39219  0.82229  0.46437  1.0000
  H   H33       1.0  0.33927  0.77382  0.51934  1.0000
  O  Te21      1.0  0.41420  0.73826  0.28330  1.0000
  O  Te22      1.0  0.46829  0.81855  0.27391  1.0000
  H   H34       1.0  0.38640  0.84383  0.51124  1.0000
  Mg  Mg11      1.0  0.46490  0.76923  0.20720  1.0000
  C   C105      1.0  0.23738  0.59069  0.57853  1.0000
  C   C106      1.0  0.25730  0.62332  0.49496  1.0000
  C  Sn23      1.0  0.23689  0.64207  0.41335  1.0000
  C  Sn24      1.0  0.19578  0.62782  0.41571  1.0000
  C   C107      1.0  0.17613  0.59517  0.49977  1.0000
  C   C108      1.0  0.19683  0.57663  0.58097  1.0000
  H   H35       1.0  0.25340  0.57635  0.64144  1.0000
  O  Te23      1.0  0.25725  0.67462  0.33040  1.0000
  O  Te24      1.0  0.17467  0.64601  0.33523  1.0000
  H   H36       1.0  0.18141  0.55138  0.64577  1.0000
  Mg  Mg12      1.0  0.21552  0.68941  0.23906  1.0000
