data_image0
_chemical_formula_structural       H12C72S12N24C2Sn2C2HTe2HMgC2Sn2C2HTe2HMgC2Sn2C2HTe2HMgC2Sn2C2HTe2HMgC2Sn2C2HTe2HMgC2Sn2C2HTe2HMgC2Sn2C2HTe2HMgC2Sn2C2HTe2HMgC2Sn2C2HTe2HMgC2Sn2C2HTe2HMgC2Sn2C2HTe2HMgC2Sn2C2HTe2HMg
_chemical_formula_sum              "H36 C120 S12 N24 Sn24 Te24 Mg12"
_cell_length_a       42.3286
_cell_length_b       42.6376
_cell_length_c       8.08188
_cell_angle_alpha    84.2095
_cell_angle_beta     121.205
_cell_angle_gamma    120.169

_symmetry_space_group_name_H-M    'P1'
_space_group_IT_number       1

loop_
  _space_group_symop_operation_xyz
  'x, y, z'

loop_
  _atom_site_type_symbol
  _atom_site_label
  _atom_site_symmetry_multiplicity
  _atom_site_fract_x
  _atom_site_fract_y
  _atom_site_fract_z
  _atom_site_occupancy
  H   H1        1.0  0.49972  0.55532  0.01007  1.0000
  H   H2        1.0  0.44389  0.94208  0.99234  1.0000
  H   H3        1.0  0.05393  0.50402  0.96458  1.0000
  H   H4        1.0  0.50266  0.44460  0.01318  1.0000
  H   H5        1.0  0.55984  0.05975  0.04832  1.0000
  H   H6        1.0  0.94355  0.49935  0.01478  1.0000
  H   H7        1.0  0.50065  0.55506  0.51148  1.0000
  H   H8        1.0  0.44242  0.94110  0.50635  1.0000
  H   H9        1.0  0.05505  0.50228  0.46871  1.0000
  H   H10       1.0  0.49875  0.44210  0.50599  1.0000
  H   H11       1.0  0.55273  0.05827  0.52261  1.0000
  H   H12       1.0  0.94509  0.49720  0.52091  1.0000
  C   C1        1.0  0.51796  0.50178  0.00070  1.0000
  C   C2        1.0  0.50002  0.01680  0.03031  1.0000
  C   C3        1.0  0.98382  0.48392  0.99247  1.0000
  C   C4        1.0  0.48126  0.49713  0.99963  1.0000
  C   C5        1.0  0.50475  0.98555  0.01977  1.0000
  C   C6        1.0  0.01504  0.52064  0.99102  1.0000
  C   C7        1.0  0.54989  0.53582  0.99464  1.0000
  C   C8        1.0  0.46387  0.01344  0.01927  1.0000
  C   C9        1.0  0.98574  0.45188  0.98358  1.0000
  C   C10       1.0  0.44813  0.46281  0.99694  1.0000
  C   C11       1.0  0.54048  0.98888  0.02639  1.0000
  C   C12       1.0  0.01393  0.55304  0.00252  1.0000
  C   C13       1.0  0.64177  0.29645  0.98993  1.0000
  C   C14       1.0  0.69987  0.34448  0.98895  1.0000
  C   C15       1.0  0.65219  0.35439  0.99363  1.0000
  C   C16       1.0  0.35732  0.70306  0.99472  1.0000
  C   C17       1.0  0.29941  0.65507  0.99692  1.0000
  C   C18       1.0  0.34790  0.64546  0.99883  1.0000
  C   C19       1.0  0.42447  0.53800  0.01634  1.0000
  C   C20       1.0  0.46350  0.88583  0.98472  1.0000
  C   C21       1.0  0.11352  0.58008  0.98264  1.0000
  C   C22       1.0  0.57917  0.46296  0.01274  1.0000
  C   C23       1.0  0.53855  0.11546  0.03578  1.0000
  C   C24       1.0  0.88564  0.42245  0.00221  1.0000
  C   C25       1.0  0.52475  0.47230  0.00906  1.0000
  C   C26       1.0  0.53128  0.05341  0.04621  1.0000
  C   C27       1.0  0.94859  0.47727  0.00199  1.0000
  C   C28       1.0  0.47630  0.52729  0.00402  1.0000
  C   C29       1.0  0.47306  0.94877  0.99929  1.0000
  C   C30       1.0  0.04980  0.52659  0.97968  1.0000
  C   C31       1.0  0.43875  0.51775  0.99869  1.0000
  C   C32       1.0  0.48282  0.92221  0.99095  1.0000
  C   C33       1.0  0.07741  0.56360  0.98512  1.0000
  C   C34       1.0  0.56219  0.48209  0.01298  1.0000
  C   C35       1.0  0.52125  0.07998  0.05052  1.0000
  C   C36       1.0  0.92152  0.44011  0.99750  1.0000
  C   C37       1.0  0.51660  0.49991  0.50010  1.0000
  C   C38       1.0  0.49593  0.01597  0.52939  1.0000
  C   C39       1.0  0.98419  0.48110  0.49352  1.0000
  C   C40       1.0  0.48032  0.49638  0.49873  1.0000
  C   C41       1.0  0.50117  0.98507  0.51805  1.0000
  C   C42       1.0  0.01528  0.51795  0.49252  1.0000
  C   C43       1.0  0.54969  0.53363  0.49851  1.0000
  C   C44       1.0  0.46136  0.01283  0.53365  1.0000
  C   C45       1.0  0.98544  0.44884  0.48038  1.0000
  C   C46       1.0  0.44679  0.46258  0.49718  1.0000
  C   C47       1.0  0.53645  0.98903  0.51765  1.0000
  C   C48       1.0  0.01346  0.54996  0.50262  1.0000
  C   C49       1.0  0.64236  0.29514  0.49525  1.0000
  C   C50       1.0  0.69995  0.34302  0.49005  1.0000
  C   C51       1.0  0.65223  0.35288  0.49472  1.0000
  C   C52       1.0  0.35710  0.70350  0.49244  1.0000
  C   C53       1.0  0.29929  0.65586  0.49681  1.0000
  C   C54       1.0  0.34754  0.64587  0.49826  1.0000
  C   C55       1.0  0.42506  0.53920  0.51535  1.0000
  C   C56       1.0  0.46336  0.88601  0.49020  1.0000
  C   C57       1.0  0.11330  0.57927  0.48112  1.0000
  C   C58       1.0  0.57518  0.45864  0.50577  1.0000
  C   C59       1.0  0.53298  0.11398  0.52273  1.0000
  C   C60       1.0  0.88612  0.42021  0.50507  1.0000
  C   C61       1.0  0.52178  0.46956  0.50458  1.0000
  C   C62       1.0  0.52556  0.05219  0.53233  1.0000
  C   C63       1.0  0.94955  0.47481  0.50699  1.0000
  C   C64       1.0  0.47647  0.52725  0.50381  1.0000
  C   C65       1.0  0.47086  0.94820  0.50508  1.0000
  C   C66       1.0  0.05030  0.52455  0.48128  1.0000
  C   C67       1.0  0.43924  0.51872  0.49881  1.0000
  C   C68       1.0  0.48112  0.92223  0.49341  1.0000
  C   C69       1.0  0.07727  0.56166  0.48465  1.0000
  C   C70       1.0  0.55920  0.47835  0.51105  1.0000
  C   C71       1.0  0.51608  0.07887  0.54288  1.0000
  C   C72       1.0  0.92225  0.43767  0.50216  1.0000
  S   S1        1.0  0.41146  0.46673  0.99222  1.0000
  S   S2        1.0  0.53647  0.94924  0.01155  1.0000
  S   S3        1.0  0.05378  0.58943  0.00006  1.0000
  S   S4        1.0  0.58701  0.53241  0.00125  1.0000
  S   S5        1.0  0.46754  0.05302  0.02956  1.0000
  S   S6        1.0  0.94628  0.41504  0.98523  1.0000
  S   S7        1.0  0.41096  0.46771  0.49349  1.0000
  S   S8        1.0  0.53355  0.94995  0.50268  1.0000
  S   S9        1.0  0.05249  0.58669  0.49779  1.0000
  S   S10       1.0  0.58620  0.52898  0.50646  1.0000
  S   S11       1.0  0.46504  0.05243  0.54510  1.0000
  S   S12       1.0  0.94593  0.41221  0.48356  1.0000
  N   N1        1.0  0.62748  0.31840  0.99130  1.0000
  N   N2        1.0  0.67745  0.30803  0.98670  1.0000
  N   N3        1.0  0.68863  0.36878  0.99272  1.0000
  N   N4        1.0  0.37215  0.68129  0.99722  1.0000
  N   N5        1.0  0.32131  0.69133  0.99522  1.0000
  N   N6        1.0  0.31139  0.63103  0.99916  1.0000
  N   N7        1.0  0.60008  0.45220  0.00722  1.0000
  N   N8        1.0  0.54638  0.14616  0.00970  1.0000
  N   N9        1.0  0.85345  0.40023  0.00123  1.0000
  N   N10       1.0  0.40788  0.55056  0.04985  1.0000
  N   N11       1.0  0.45266  0.85362  0.97750  1.0000
  N   N12       1.0  0.14646  0.60069  0.98708  1.0000
  N   N13       1.0  0.62798  0.31705  0.49549  1.0000
  N   N14       1.0  0.67799  0.30667  0.49159  1.0000
  N   N15       1.0  0.68839  0.36722  0.49148  1.0000
  N   N16       1.0  0.37169  0.68157  0.49486  1.0000
  N   N17       1.0  0.32121  0.69202  0.49368  1.0000
  N   N18       1.0  0.31116  0.63167  0.49960  1.0000
  N   N19       1.0  0.59486  0.44741  0.49115  1.0000
  N   N20       1.0  0.54055  0.14435  0.48920  1.0000
  N   N21       1.0  0.85341  0.39837  0.50109  1.0000
  N   N22       1.0  0.40805  0.55143  0.54774  1.0000
  N   N23       1.0  0.45502  0.85442  0.48937  1.0000
  N   N24       1.0  0.14544  0.60131  0.48108  1.0000
  C   C73       1.0  0.53903  0.40000  0.00404  1.0000
  C   C74       1.0  0.62093  0.43237  0.99281  1.0000
  C  Sn1       1.0  0.59219  0.39648  0.99298  1.0000
  C  Sn2       1.0  0.48186  0.32776  0.00469  1.0000
  C   C75       1.0  0.51947  0.33613  0.01602  1.0000
  C   C76       1.0  0.54800  0.37214  0.01568  1.0000
  H   H13       1.0  0.56111  0.42787  0.00389  1.0000
  O  Te1       1.0  0.55488  0.38888  0.98159  1.0000
  O  Te2       1.0  0.45370  0.29165  0.00521  1.0000
  H   H14       1.0  0.57704  0.37839  0.02451  1.0000
  Mg  Mg1       1.0  0.52644  0.33542  0.98711  1.0000
  C   C77       1.0  0.68933  0.27630  0.99979  1.0000
  C   C78       1.0  0.60874  0.25494  0.00507  1.0000
  C  Sn3       1.0  0.62724  0.23590  0.00010  1.0000
  C  Sn4       1.0  0.72582  0.23747  0.98959  1.0000
  C   C79       1.0  0.68699  0.21863  0.98423  1.0000
  C   C80       1.0  0.66877  0.23796  0.98935  1.0000
  H   H15       1.0  0.55582  0.25080  0.00364  1.0000
  O  Te3       1.0  0.66604  0.25540  0.00557  1.0000
  O  Te4       1.0  0.74359  0.21776  0.98436  1.0000
  H   H16       1.0  0.63871  0.22317  0.98513  1.0000
  Mg  Mg2       1.0  0.79695  0.25667  0.99515  1.0000
  C   C81       1.0  0.78153  0.34059  0.98701  1.0000
  C   C82       1.0  0.80955  0.37669  0.98538  1.0000
  C  Sn5       1.0  0.80287  0.40516  0.99606  1.0000
  C  Sn6       1.0  0.64808  0.35682  0.00864  1.0000
  C   C83       1.0  0.62025  0.32062  0.01030  1.0000
  C   C84       1.0  0.74661  0.33278  0.99949  1.0000
  H   H17       1.0  0.78693  0.31871  0.97875  1.0000
  O  Te5       1.0  0.83117  0.44106  0.99419  1.0000
  O  Te6       1.0  0.64066  0.38475  0.01955  1.0000
  H   H18       1.0  0.60554  0.26440  0.00088  1.0000
  Mg  Mg3       1.0  0.68818  0.42929  0.01200  1.0000
  C   C85       1.0  0.40934  0.63257  0.01037  1.0000
  C   C86       1.0  0.49046  0.66439  0.99271  1.0000
  C  Sn7       1.0  0.34348  0.58843  0.00187  1.0000
  C  Sn8       1.0  0.35451  0.56110  0.02929  1.0000
  C   C87       1.0  0.39289  0.57000  0.04693  1.0000
  C   C88       1.0  0.42026  0.60563  0.03749  1.0000
  H   H19       1.0  0.43053  0.66014  0.00317  1.0000
  O  Te7       1.0  0.42475  0.62073  0.98389  1.0000
  O  Te8       1.0  0.32754  0.52538  0.03905  1.0000
  H   H20       1.0  0.44990  0.61230  0.05129  1.0000
  Mg  Mg4       1.0  0.27911  0.52768  0.00671  1.0000
  C   C89       1.0  0.38255  0.79621  0.99017  1.0000
  C   C90       1.0  0.42166  0.81554  0.99814  1.0000
  C  Sn9       1.0  0.44043  0.79669  0.99404  1.0000
  C  Sn10      1.0  0.41956  0.75776  0.98166  1.0000
  C   C91       1.0  0.38043  0.73867  0.97361  1.0000
  C   C92       1.0  0.36194  0.75781  0.97788  1.0000
  H   H21       1.0  0.36824  0.81101  0.99336  1.0000
  O  Te9       1.0  0.36013  0.77598  0.00220  1.0000
  O  Te10      1.0  0.43759  0.73823  0.97725  1.0000
  H   H22       1.0  0.33165  0.74284  0.97157  1.0000
  Mg  Mg5       1.0  0.49132  0.77745  0.99192  1.0000
  C   C93       1.0  0.21680  0.65925  0.98612  1.0000
  C   C94       1.0  0.18722  0.62285  0.97646  1.0000
  C  Sn11      1.0  0.19571  0.59483  0.98466  1.0000
  C  Sn12      1.0  0.11519  0.56306  0.00294  1.0000
  C   C95       1.0  0.14459  0.59957  0.01264  1.0000
  C   C96       1.0  0.13576  0.62739  0.00423  1.0000
  H   H23       1.0  0.20998  0.68078  0.97973  1.0000
  O  Te11      1.0  0.16580  0.55860  0.97474  1.0000
  O  Te12      1.0  0.12450  0.53560  0.01155  1.0000
  H   H24       1.0  0.15868  0.65558  0.01184  1.0000
  Mg  Mg6       1.0  0.19303  0.53080  0.99234  1.0000
  C   C97       1.0  0.66195  0.42468  0.48865  1.0000
  C   C98       1.0  0.64582  0.38774  0.50825  1.0000
  C  Sn13      1.0  0.60843  0.36830  0.51464  1.0000
  C  Sn14      1.0  0.58685  0.38624  0.50107  1.0000
  C   C99       1.0  0.60323  0.42320  0.48136  1.0000
  C   C100      1.0  0.64068  0.44240  0.47518  1.0000
  H   H25       1.0  0.69091  0.43953  0.48376  1.0000
  O  Te13      1.0  0.59276  0.33141  0.53434  1.0000
  O  Te14      1.0  0.54941  0.36746  0.50699  1.0000
  H   H26       1.0  0.65315  0.47099  0.45988  1.0000
  Mg  Mg7       1.0  0.54064  0.31751  0.53541  1.0000
  C   C101      1.0  0.55643  0.21575  0.50568  1.0000
  C   C102      1.0  0.56072  0.18615  0.48597  1.0000
  C  Sn15      1.0  0.59595  0.19251  0.48100  1.0000
  C  Sn16      1.0  0.62741  0.22922  0.49612  1.0000
  C   C103      1.0  0.62284  0.25865  0.51593  1.0000
  C   C104      1.0  0.58745  0.25197  0.52068  1.0000
  H   H27       1.0  0.52906  0.21059  0.50946  1.0000
  O  Te15      1.0  0.59973  0.16261  0.46116  1.0000
  O  Te16      1.0  0.66295  0.23636  0.49164  1.0000
  H   H28       1.0  0.58415  0.27490  0.53607  1.0000
  Mg  Mg8       1.0  0.65388  0.18644  0.46241  1.0000
  C   C105      1.0  0.75941  0.33130  0.47242  1.0000
  C   C106      1.0  0.74327  0.35085  0.49747  1.0000
  C  Sn17      1.0  0.76434  0.38935  0.51584  1.0000
  C  Sn18      1.0  0.80226  0.40854  0.50887  1.0000
  C   C107      1.0  0.81813  0.38873  0.48361  1.0000
  C   C108      1.0  0.79680  0.35021  0.46546  1.0000
  H   H29       1.0  0.74290  0.30150  0.45826  1.0000
  O  Te17      1.0  0.74778  0.40845  0.54086  1.0000
  O  Te18      1.0  0.82394  0.44701  0.52677  1.0000
  H   H30       1.0  0.80929  0.33508  0.44593  1.0000
  Mg  Mg9       1.0  0.78881  0.46075  0.55847  1.0000
  C   C109      1.0  0.34797  0.56234  0.53857  1.0000
  C   C110      1.0  0.38161  0.56904  0.51873  1.0000
  C  Sn19      1.0  0.40753  0.60392  0.49718  1.0000
  C  Sn20      1.0  0.39956  0.63258  0.49558  1.0000
  C   C111      1.0  0.36585  0.62560  0.51567  1.0000
  C   C112      1.0  0.34010  0.59059  0.53708  1.0000
  H   H31       1.0  0.32806  0.53526  0.55525  1.0000
  O  Te19      1.0  0.44099  0.61014  0.47746  1.0000
  O  Te20      1.0  0.42499  0.66771  0.47434  1.0000
  H   H32       1.0  0.31408  0.58542  0.55257  1.0000
  Mg  Mg10      1.0  0.46675  0.66263  0.45236  1.0000
  C   C113      1.0  0.37178  0.77698  0.50045  1.0000
  C   C114      1.0  0.37686  0.74796  0.47960  1.0000
  C  Sn21      1.0  0.41211  0.75518  0.47213  1.0000
  C  Sn22      1.0  0.44278  0.79217  0.48588  1.0000
  C   C115      1.0  0.43743  0.82101  0.50685  1.0000
  C   C116      1.0  0.40203  0.81348  0.51409  1.0000
  H   H33       1.0  0.34441  0.77116  0.50617  1.0000
  O  Te21      1.0  0.41669  0.72586  0.45118  1.0000
  O  Te22      1.0  0.47832  0.80017  0.47889  1.0000
  H   H34       1.0  0.39812  0.83595  0.53036  1.0000
  Mg  Mg11      1.0  0.47050  0.75079  0.44897  1.0000
  C   C117      1.0  0.21655  0.66022  0.48539  1.0000
  C   C118      1.0  0.18653  0.62370  0.47193  1.0000
  C  Sn23      1.0  0.19492  0.59563  0.47973  1.0000
  C  Sn24      1.0  0.23412  0.60436  0.50147  1.0000
  C   C119      1.0  0.26396  0.64098  0.51495  1.0000
  C   C120      1.0  0.25523  0.66885  0.50691  1.0000
  H   H35       1.0  0.20981  0.68179  0.47929  1.0000
  O  Te23      1.0  0.16457  0.55929  0.46600  1.0000
  O  Te24      1.0  0.24334  0.57684  0.50976  1.0000
  H   H36       1.0  0.27849  0.69713  0.51747  1.0000
  Mg  Mg12      1.0  0.19183  0.53144  0.48470  1.0000
