data_image0
_chemical_formula_structural       H12C60S12N24SnCSn2CSnTe4Mg2SnCSn2CSnTe4Mg2SnCSn2CSnTe4Mg2SnCSn2CSnTe4Mg2SnCSn2CSnTe4Mg2SnCSn2CSnTe4Mg2SnCSn2CSnTe4Mg2SnCSn2CSnTe4Mg2SnCSn2CSnTe4Mg2SnCSn2CSnTe4Mg2SnCSn2CSnTe4Mg2SnCSn2CSnTe4Mg2
_chemical_formula_sum              "H12 C84 S12 N24 Sn48 Te48 Mg24"
_cell_length_a       39.0974
_cell_length_b       40.0174
_cell_length_c       7.8559
_cell_angle_alpha    89.2951
_cell_angle_beta     103.618
_cell_angle_gamma    119.754

_symmetry_space_group_name_H-M    'P1'
_space_group_IT_number       1

loop_
  _space_group_symop_operation_xyz
  'x, y, z'

loop_
  _atom_site_type_symbol
  _atom_site_label
  _atom_site_symmetry_multiplicity
  _atom_site_fract_x
  _atom_site_fract_y
  _atom_site_fract_z
  _atom_site_occupancy
  H   H1        1.0  0.53716  0.56860  0.27466  1.0000
  H   H2        1.0  0.43027  0.96001  0.11997  1.0000
  H   H3        1.0  0.05551  0.48662  0.20603  1.0000
  H   H4        1.0  0.47460  0.43958  0.78654  1.0000
  H   H5        1.0  0.56558  0.03794  0.85190  1.0000
  H   H6        1.0  0.93399  0.51251  0.82560  1.0000
  H   H7        1.0  0.51935  0.57908  0.60183  1.0000
  H   H8        1.0  0.42206  0.93542  0.46291  1.0000
  H   H9        1.0  0.06057  0.49037  0.67758  1.0000
  H   H10       1.0  0.49788  0.43229  0.47375  1.0000
  H   H11       1.0  0.57503  0.06590  0.51214  1.0000
  H   H12       1.0  0.93771  0.52058  0.35646  1.0000
  C   C1        1.0  0.64749  0.29256  0.04306  1.0000
  C   C2        1.0  0.70188  0.34683  0.99289  1.0000
  C   C3        1.0  0.65189  0.35130  0.07269  1.0000
  C   C4        1.0  0.34716  0.70421  0.93357  1.0000
  C   C5        1.0  0.29374  0.64936  0.98484  1.0000
  C   C6        1.0  0.34933  0.64831  0.94982  1.0000
  C   C7        1.0  0.45611  0.55936  0.12494  1.0000
  C   C8        1.0  0.44522  0.89587  0.08627  1.0000
  C   C9        1.0  0.10132  0.55053  0.03286  1.0000
  C   C10       1.0  0.55480  0.44765  0.94563  1.0000
  C   C11       1.0  0.55096  0.10240  0.89304  1.0000
  C   C12       1.0  0.88637  0.43544  0.90156  1.0000
  C   C13       1.0  0.49525  0.46163  0.89779  1.0000
  C   C14       1.0  0.54147  0.03364  0.91054  1.0000
  C   C15       1.0  0.94848  0.50003  0.91799  1.0000
  C   C16       1.0  0.51618  0.54643  0.16446  1.0000
  C   C17       1.0  0.45404  0.96405  0.05951  1.0000
  C   C18       1.0  0.04142  0.50174  0.13274  1.0000
  C   C19       1.0  0.48946  0.49099  0.96034  1.0000
  C   C20       1.0  0.51225  0.99767  0.95032  1.0000
  C   C21       1.0  0.98955  0.51456  0.98275  1.0000
  C   C22       1.0  0.52206  0.51723  0.10127  1.0000
  C   C23       1.0  0.48319  0.99998  0.01935  1.0000
  C   C24       1.0  0.00071  0.48996  0.08895  1.0000
  C   C25       1.0  0.47888  0.54204  0.07475  1.0000
  C   C26       1.0  0.46148  0.93475  0.02481  1.0000
  C   C27       1.0  0.06384  0.53591  0.05369  1.0000
  C   C28       1.0  0.53208  0.46553  0.99112  1.0000
  C   C29       1.0  0.53437  0.06303  0.94812  1.0000
  C   C30       1.0  0.92539  0.46182  0.96745  1.0000
  C   C31       1.0  0.64052  0.29290  0.54677  1.0000
  C   C32       1.0  0.69620  0.34662  0.49853  1.0000
  C   C33       1.0  0.64702  0.35251  0.58102  1.0000
  C   C34       1.0  0.35847  0.70860  0.42314  1.0000
  C   C35       1.0  0.30351  0.65406  0.47019  1.0000
  C   C36       1.0  0.35908  0.65197  0.43914  1.0000
  C   C37       1.0  0.45056  0.55290  0.31181  1.0000
  C   C38       1.0  0.45067  0.89697  0.28785  1.0000
  C   C39       1.0  0.10752  0.55914  0.53186  1.0000
  C   C40       1.0  0.56520  0.45743  0.76816  1.0000
  C   C41       1.0  0.54664  0.10358  0.69248  1.0000
  C   C42       1.0  0.88817  0.44338  0.43758  1.0000
  C   C43       1.0  0.51213  0.46212  0.53190  1.0000
  C   C44       1.0  0.54353  0.04866  0.51814  1.0000
  C   C45       1.0  0.95219  0.50611  0.43327  1.0000
  C   C46       1.0  0.50499  0.54910  0.54538  1.0000
  C   C47       1.0  0.45346  0.95252  0.45554  1.0000
  C   C48       1.0  0.04590  0.50557  0.60995  1.0000
  C   C49       1.0  0.49648  0.48723  0.48859  1.0000
  C   C50       1.0  0.51768  0.00809  0.46945  1.0000
  C   C51       1.0  0.99343  0.51942  0.48274  1.0000
  C   C52       1.0  0.52066  0.52400  0.58878  1.0000
  C   C53       1.0  0.47909  0.99317  0.50151  1.0000
  C   C54       1.0  0.00499  0.49358  0.57347  1.0000
  C   C55       1.0  0.46972  0.53157  0.40849  1.0000
  C   C56       1.0  0.47229  0.93700  0.38302  1.0000
  C   C57       1.0  0.06846  0.54144  0.54171  1.0000
  C   C58       1.0  0.54714  0.47951  0.67027  1.0000
  C   C59       1.0  0.52474  0.06412  0.59132  1.0000
  C   C60       1.0  0.92871  0.46757  0.47954  1.0000
  S   S1        1.0  0.45246  0.50390  0.90169  1.0000
  S   S2        1.0  0.50200  0.95040  0.92718  1.0000
  S   S3        1.0  0.03259  0.55495  0.94687  1.0000
  S   S4        1.0  0.55851  0.50369  0.16369  1.0000
  S   S5        1.0  0.49392  0.04733  0.04626  1.0000
  S   S6        1.0  0.95770  0.44867  0.11846  1.0000
  S   S7        1.0  0.45335  0.48326  0.34420  1.0000
  S   S8        1.0  0.52269  0.97127  0.38725  1.0000
  S   S9        1.0  0.03621  0.56045  0.44715  1.0000
  S   S10       1.0  0.56330  0.52764  0.73635  1.0000
  S   S11       1.0  0.47426  0.02989  0.58587  1.0000
  S   S12       1.0  0.96208  0.45193  0.60354  1.0000
  N   N1        1.0  0.63084  0.31285  0.08361  1.0000
  N   N2        1.0  0.68254  0.30819  0.99427  1.0000
  N   N3        1.0  0.68811  0.36991  0.03145  1.0000
  N   N4        1.0  0.36744  0.68570  0.91807  1.0000
  N   N5        1.0  0.30962  0.68701  0.96090  1.0000
  N   N6        1.0  0.31304  0.62918  0.98836  1.0000
  N   N7        1.0  0.56384  0.42844  0.06466  1.0000
  N   N8        1.0  0.56242  0.12964  0.01686  1.0000
  N   N9        1.0  0.85308  0.40747  0.82361  1.0000
  N   N10       1.0  0.44305  0.57530  0.00136  1.0000
  N   N11       1.0  0.43220  0.86762  0.96504  1.0000
  N   N12       1.0  0.12807  0.55571  0.96211  1.0000
  N   N13       1.0  0.62454  0.31404  0.58661  1.0000
  N   N14       1.0  0.67591  0.30779  0.49880  1.0000
  N   N15       1.0  0.68310  0.37014  0.53912  1.0000
  N   N16       1.0  0.37844  0.68955  0.41216  1.0000
  N   N17       1.0  0.32067  0.69200  0.44817  1.0000
  N   N18       1.0  0.32207  0.63311  0.47259  1.0000
  N   N19       1.0  0.58511  0.44974  0.68057  1.0000
  N   N20       1.0  0.55842  0.13123  0.59592  1.0000
  N   N21       1.0  0.85332  0.41693  0.36528  1.0000
  N   N22       1.0  0.43357  0.56270  0.40813  1.0000
  N   N23       1.0  0.43913  0.87044  0.39031  1.0000
  N   N24       1.0  0.13671  0.56891  0.47151  1.0000
  C  Sn1       1.0  0.58192  0.35328  0.08133  1.0000
  C   C61       1.0  0.62092  0.36767  0.05730  1.0000
  C  Sn2       1.0  0.64714  0.40757  0.06565  1.0000
  C  Sn3       1.0  0.63412  0.43364  0.09882  1.0000
  C   C62       1.0  0.59515  0.41925  0.12286  1.0000
  C  Sn4       1.0  0.56891  0.37935  0.11450  1.0000
  O  Te1       1.0  0.55622  0.31327  0.07244  1.0000
  O  Te2       1.0  0.68597  0.42127  0.04114  1.0000
  O  Te3       1.0  0.65986  0.47367  0.10769  1.0000
  O  Te4       1.0  0.53009  0.36566  0.13902  1.0000
  Mg  Mg1       1.0  0.70989  0.47824  0.06556  1.0000
  Mg  Mg2       1.0  0.50616  0.30869  0.11472  1.0000
  C  Sn5       1.0  0.58837  0.22330  0.14333  1.0000
  C   C63       1.0  0.62465  0.24722  0.09645  1.0000
  C  Sn6       1.0  0.70077  0.25867  0.99670  1.0000
  C  Sn7       1.0  0.67903  0.21815  0.94256  1.0000
  C   C64       1.0  0.64278  0.19426  0.98941  1.0000
  C  Sn8       1.0  0.56663  0.18278  0.08920  1.0000
  O  Te5       1.0  0.57396  0.23970  0.24311  1.0000
  O  Te6       1.0  0.73711  0.28316  0.95149  1.0000
  O  Te7       1.0  0.69348  0.20176  0.84271  1.0000
  O  Te8       1.0  0.53031  0.15831  0.13437  1.0000
  Mg  Mg3       1.0  0.74435  0.24709  0.81396  1.0000
  Mg  Mg4       1.0  0.52303  0.19436  0.27181  1.0000
  C  Sn9       1.0  0.77386  0.35010  0.78253  1.0000
  C   C65       1.0  0.80573  0.38869  0.81413  1.0000
  C  Sn10      1.0  0.80682  0.41542  0.93117  1.0000
  C  Sn11      1.0  0.71428  0.37608  0.01856  1.0000
  C   C66       1.0  0.74358  0.36474  0.98698  1.0000
  C  Sn12      1.0  0.74246  0.33799  0.86992  1.0000
  O  Te9       1.0  0.77338  0.32388  0.66499  1.0000
  O  Te10      1.0  0.83899  0.45384  0.96058  1.0000
  O  Te11      1.0  0.71478  0.40234  0.13617  1.0000
  O  Te12      1.0  0.71032  0.29959  0.84052  1.0000
  Mg  Mg5       1.0  0.76501  0.45150  0.13265  1.0000
  Mg  Mg6       1.0  0.72314  0.27467  0.66857  1.0000
  C  Sn13      1.0  0.43406  0.63725  0.96339  1.0000
  C   C67       1.0  0.36194  0.57285  0.00925  1.0000
  C  Sn14      1.0  0.32160  0.54650  0.00979  1.0000
  C  Sn15      1.0  0.35275  0.58476  0.96341  1.0000
  C   C68       1.0  0.36373  0.62191  0.91755  1.0000
  C  Sn16      1.0  0.40406  0.64828  0.91701  1.0000
  O  Te13      1.0  0.47457  0.66312  0.96375  1.0000
  O  Te14      1.0  0.31136  0.50950  0.05617  1.0000
  O  Te15      1.0  0.31222  0.55886  0.96309  1.0000
  O  Te16      1.0  0.41431  0.68526  0.87064  1.0000
  Mg  Mg7       1.0  0.25214  0.48455  0.03590  1.0000
  Mg  Mg8       1.0  0.47352  0.71023  0.89077  1.0000
  C  Sn17      1.0  0.37259  0.79973  0.05517  1.0000
  C   C69       1.0  0.40967  0.82409  0.01536  1.0000
  C  Sn18      1.0  0.48600  0.83645  0.91233  1.0000
  C  Sn19      1.0  0.46365  0.79639  0.84763  1.0000
  C   C70       1.0  0.42659  0.77206  0.88742  1.0000
  C  Sn20      1.0  0.41138  0.78691  0.99048  1.0000
  O  Te17      1.0  0.35798  0.81523  0.15840  1.0000
  O  Te18      1.0  0.52315  0.86136  0.87433  1.0000
  O  Te19      1.0  0.47829  0.78091  0.74434  1.0000
  O  Te20      1.0  0.31311  0.73479  0.02845  1.0000
  Mg  Mg9       1.0  0.53035  0.82652  0.72834  1.0000
  Mg  Mg10      1.0  0.30587  0.76960  0.17434  1.0000
  C  Sn21      1.0  0.20893  0.57837  0.12750  1.0000
  C   C71       1.0  0.17705  0.58514  0.05396  1.0000
  C  Sn22      1.0  0.24333  0.64014  0.93754  1.0000
  C  Sn23      1.0  0.28111  0.66156  0.89361  1.0000
  C   C72       1.0  0.31296  0.65478  0.96710  1.0000
  C  Sn24      1.0  0.24671  0.59979  0.08357  1.0000
  O  Te21      1.0  0.20311  0.55047  0.24358  1.0000
  O  Te22      1.0  0.21102  0.64641  0.86574  1.0000
  O  Te23      1.0  0.28691  0.68948  0.77743  1.0000
  O  Te24      1.0  0.27899  0.59352  0.15532  1.0000
  Mg  Mg11      1.0  0.23380  0.68751  0.71388  1.0000
  Mg  Mg12      1.0  0.25624  0.55241  0.30711  1.0000
  C  Sn25      1.0  0.65804  0.42691  0.66244  1.0000
  C   C73       1.0  0.64056  0.38706  0.67150  1.0000
  C  Sn26      1.0  0.59925  0.36429  0.66662  1.0000
  C  Sn27      1.0  0.57489  0.38170  0.65227  1.0000
  C   C74       1.0  0.59236  0.42152  0.64319  1.0000
  C  Sn28      1.0  0.63367  0.44432  0.64810  1.0000
  O  Te25      1.0  0.69940  0.44911  0.66754  1.0000
  O  Te26      1.0  0.58248  0.32452  0.67593  1.0000
  O  Te27      1.0  0.53350  0.35946  0.64718  1.0000
  O  Te28      1.0  0.65045  0.48406  0.63876  1.0000
  Mg  Mg13      1.0  0.52467  0.30649  0.66389  1.0000
  Mg  Mg14      1.0  0.70824  0.50212  0.65070  1.0000
  C  Sn29      1.0  0.62376  0.21663  0.46361  1.0000
  C   C75       1.0  0.61438  0.24418  0.50945  1.0000
  C  Sn30      1.0  0.58759  0.23564  0.61519  1.0000
  C  Sn31      1.0  0.56982  0.19880  0.67649  1.0000
  C   C76       1.0  0.57920  0.17127  0.63068  1.0000
  C  Sn32      1.0  0.60599  0.17978  0.52491  1.0000
  O  Te29      1.0  0.65062  0.22579  0.35777  1.0000
  O  Te30      1.0  0.57867  0.26365  0.65923  1.0000
  O  Te31      1.0  0.54294  0.18964  0.78241  1.0000
  O  Te32      1.0  0.61491  0.15180  0.48090  1.0000
  Mg  Mg15      1.0  0.54031  0.23744  0.80677  1.0000
  Mg  Mg16      1.0  0.65328  0.17799  0.33345  1.0000
  C  Sn33      1.0  0.79826  0.42093  0.52774  1.0000
  C   C77       1.0  0.81634  0.40335  0.46046  1.0000
  C  Sn34      1.0  0.79245  0.36573  0.37131  1.0000
  C  Sn35      1.0  0.74960  0.34527  0.34883  1.0000
  C   C78       1.0  0.73154  0.36285  0.41605  1.0000
  C  Sn36      1.0  0.75540  0.40047  0.50526  1.0000
  O  Te33      1.0  0.82273  0.45856  0.61640  1.0000
  O  Te34      1.0  0.81122  0.34875  0.30527  1.0000
  O  Te35      1.0  0.72513  0.30760  0.26008  1.0000
  O  Te36      1.0  0.73665  0.41745  0.57124  1.0000
  Mg  Mg17      1.0  0.76489  0.29689  0.19398  1.0000
  Mg  Mg18      1.0  0.78294  0.46931  0.68247  1.0000
  C  Sn37      1.0  0.37172  0.58978  0.52997  1.0000
  C   C79       1.0  0.38288  0.62678  0.48117  1.0000
  C  Sn38      1.0  0.41104  0.64358  0.38053  1.0000
  C  Sn39      1.0  0.42839  0.62297  0.32746  1.0000
  C   C80       1.0  0.41723  0.58599  0.37623  1.0000
  C  Sn40      1.0  0.38907  0.56916  0.47690  1.0000
  O  Te37      1.0  0.34351  0.57354  0.63060  1.0000
  O  Te38      1.0  0.42174  0.68061  0.33341  1.0000
  O  Te39      1.0  0.45662  0.63924  0.22675  1.0000
  O  Te40      1.0  0.37838  0.53215  0.52399  1.0000
  Mg  Mg19      1.0  0.46146  0.69042  0.19535  1.0000
  Mg  Mg20      1.0  0.33864  0.52231  0.66196  1.0000
  C  Sn41      1.0  0.42899  0.77912  0.39416  1.0000
  C   C81       1.0  0.39375  0.75678  0.45094  1.0000
  C  Sn42      1.0  0.36824  0.77120  0.46258  1.0000
  C  Sn43      1.0  0.37814  0.80872  0.41642  1.0000
  C   C82       1.0  0.41335  0.83103  0.35965  1.0000
  C  Sn44      1.0  0.43888  0.81664  0.34800  1.0000
  O  Te41      1.0  0.45404  0.76412  0.38351  1.0000
  O  Te42      1.0  0.33319  0.74833  0.51975  1.0000
  O  Te43      1.0  0.35305  0.82371  0.42711  1.0000
  O  Te44      1.0  0.47391  0.83948  0.29084  1.0000
  Mg  Mg21      1.0  0.30868  0.78151  0.51219  1.0000
  Mg  Mg22      1.0  0.49843  0.80632  0.29826  1.0000
  C  Sn45      1.0  0.21710  0.58657  0.61878  1.0000
  C   C83       1.0  0.18686  0.59592  0.55254  1.0000
  C  Sn46      1.0  0.19264  0.62335  0.43396  1.0000
  C  Sn47      1.0  0.22939  0.64180  0.38038  1.0000
  C   C84       1.0  0.25960  0.63244  0.44658  1.0000
  C  Sn48      1.0  0.25386  0.60502  0.56520  1.0000
  O  Te45      1.0  0.21067  0.55906  0.73718  1.0000
  O  Te46      1.0  0.16197  0.63222  0.36959  1.0000
  O  Te47      1.0  0.23580  0.66933  0.26188  1.0000
  O  Te48      1.0  0.28449  0.59614  0.62953  1.0000
  Mg  Mg23      1.0  0.18501  0.67161  0.21095  1.0000
  Mg  Mg24      1.0  0.26148  0.55674  0.78810  1.0000
