data_image0
_chemical_formula_structural       H36C96S12N24SnCSn2CSnTe4Mg2SnCSn2CSnTe4Mg2SnCSn2CSnTe4Mg2SnCSn2CSnTe4Mg2SnCSn2CSnTe4Mg2SnCSn2CSnTe4Mg2
_chemical_formula_sum              "H36 C108 S12 N24 Sn24 Te24 Mg12"
_cell_length_a       39.0974
_cell_length_b       40.0174
_cell_length_c       7.8559
_cell_angle_alpha    89.2951
_cell_angle_beta     103.618
_cell_angle_gamma    119.754

_symmetry_space_group_name_H-M    'P1'
_space_group_IT_number       1

loop_
  _space_group_symop_operation_xyz
  'x, y, z'

loop_
  _atom_site_type_symbol
  _atom_site_label
  _atom_site_symmetry_multiplicity
  _atom_site_fract_x
  _atom_site_fract_y
  _atom_site_fract_z
  _atom_site_occupancy
  H   H1        1.0  0.53716  0.56860  0.27466  1.0000
  H   H2        1.0  0.43027  0.96001  0.11997  1.0000
  H   H3        1.0  0.05551  0.48662  0.20603  1.0000
  H   H4        1.0  0.47460  0.43958  0.78654  1.0000
  H   H5        1.0  0.56558  0.03794  0.85190  1.0000
  H   H6        1.0  0.93399  0.51251  0.82560  1.0000
  H   H7        1.0  0.68071  0.42750  0.04772  1.0000
  H   H8        1.0  0.57663  0.24763  0.13251  1.0000
  H   H9        1.0  0.72804  0.30853  0.83820  1.0000
  H   H10       1.0  0.41723  0.74983  0.83789  1.0000
  H   H11       1.0  0.64194  0.46225  0.03200  1.0000
  H   H12       1.0  0.53933  0.17510  0.11974  1.0000
  H   H13       1.0  0.79530  0.33612  0.76226  1.0000
  H   H14       1.0  0.45389  0.82209  0.85092  1.0000
  H   H15       1.0  0.32290  0.75193  0.01865  1.0000
  H   H16       1.0  0.58111  0.32525  0.15975  1.0000
  H   H17       1.0  0.67166  0.24474  0.96238  1.0000
  H   H18       1.0  0.76122  0.42247  0.04440  1.0000
  H   H19       1.0  0.36154  0.82444  0.05145  1.0000
  H   H20       1.0  0.54280  0.36055  0.15286  1.0000
  H   H21       1.0  0.63332  0.17212  0.93740  1.0000
  H   H22       1.0  0.82934  0.44987  0.97498  1.0000
  H   H23       1.0  0.51935  0.57908  0.60183  1.0000
  H   H24       1.0  0.42206  0.93542  0.46291  1.0000
  H   H25       1.0  0.06057  0.49037  0.67758  1.0000
  H   H26       1.0  0.49788  0.43229  0.47375  1.0000
  H   H27       1.0  0.57503  0.06590  0.51214  1.0000
  H   H28       1.0  0.93771  0.52058  0.35646  1.0000
  H   H29       1.0  0.72974  0.31184  0.35836  1.0000
  H   H30       1.0  0.24689  0.67487  0.35960  1.0000
  H   H31       1.0  0.79853  0.34370  0.30087  1.0000
  H   H32       1.0  0.17325  0.63723  0.35552  1.0000
  H   H33       1.0  0.26575  0.58770  0.61566  1.0000
  H   H34       1.0  0.75170  0.42289  0.54349  1.0000
  H   H35       1.0  0.19304  0.55152  0.62649  1.0000
  H   H36       1.0  0.82198  0.45470  0.49952  1.0000
  C   C1        1.0  0.74103  0.36395  0.94630  1.0000
  C   C2        1.0  0.63261  0.37380  0.09721  1.0000
  C   C3        1.0  0.62607  0.25040  0.04536  1.0000
  C   C4        1.0  0.36798  0.74643  0.92980  1.0000
  C   C5        1.0  0.64749  0.29256  0.04306  1.0000
  C   C6        1.0  0.70188  0.34683  0.99289  1.0000
  C   C7        1.0  0.65189  0.35130  0.07269  1.0000
  C   C8        1.0  0.34716  0.70421  0.93357  1.0000
  C   C9        1.0  0.29374  0.64936  0.98484  1.0000
  C   C10       1.0  0.34933  0.64831  0.94982  1.0000
  C   C11       1.0  0.65048  0.41310  0.07054  1.0000
  C   C12       1.0  0.58867  0.23078  0.09006  1.0000
  C   C13       1.0  0.75055  0.33930  0.86834  1.0000
  C   C14       1.0  0.40516  0.76638  0.88310  1.0000
  C   C15       1.0  0.62874  0.43230  0.05956  1.0000
  C   C16       1.0  0.56777  0.19071  0.08142  1.0000
  C   C17       1.0  0.78759  0.35436  0.82672  1.0000
  C   C18       1.0  0.42588  0.80649  0.89265  1.0000
  C   C19       1.0  0.35187  0.76774  0.98467  1.0000
  C   C20       1.0  0.59394  0.35517  0.13163  1.0000
  C   C21       1.0  0.64251  0.22901  0.99482  1.0000
  C   C22       1.0  0.76921  0.40400  0.98314  1.0000
  C   C23       1.0  0.37349  0.80797  0.00443  1.0000
  C   C24       1.0  0.57267  0.37455  0.12663  1.0000
  C   C25       1.0  0.62108  0.18888  0.97875  1.0000
  C   C26       1.0  0.80684  0.41904  0.94610  1.0000
  C   C27       1.0  0.58852  0.41258  0.07797  1.0000
  C   C28       1.0  0.58281  0.16919  0.01744  1.0000
  C   C29       1.0  0.81598  0.39408  0.86847  1.0000
  C   C30       1.0  0.41147  0.82799  0.96268  1.0000
  C   C31       1.0  0.45611  0.55936  0.12494  1.0000
  C   C32       1.0  0.44522  0.89587  0.08627  1.0000
  C   C33       1.0  0.10132  0.55053  0.03286  1.0000
  C   C34       1.0  0.55480  0.44765  0.94563  1.0000
  C   C35       1.0  0.55096  0.10240  0.89304  1.0000
  C   C36       1.0  0.88637  0.43544  0.90156  1.0000
  C   C37       1.0  0.49525  0.46163  0.89779  1.0000
  C   C38       1.0  0.54147  0.03364  0.91054  1.0000
  C   C39       1.0  0.94848  0.50003  0.91799  1.0000
  C   C40       1.0  0.51618  0.54643  0.16446  1.0000
  C   C41       1.0  0.45404  0.96405  0.05951  1.0000
  C   C42       1.0  0.04142  0.50174  0.13274  1.0000
  C   C43       1.0  0.48946  0.49099  0.96034  1.0000
  C   C44       1.0  0.51225  0.99767  0.95032  1.0000
  C   C45       1.0  0.98955  0.51456  0.98275  1.0000
  C   C46       1.0  0.52206  0.51723  0.10127  1.0000
  C   C47       1.0  0.48319  0.99998  0.01935  1.0000
  C   C48       1.0  0.00071  0.48996  0.08895  1.0000
  C   C49       1.0  0.47888  0.54204  0.07475  1.0000
  C   C50       1.0  0.46148  0.93475  0.02481  1.0000
  C   C51       1.0  0.06384  0.53591  0.05369  1.0000
  C   C52       1.0  0.53208  0.46553  0.99112  1.0000
  C   C53       1.0  0.53437  0.06303  0.94812  1.0000
  C   C54       1.0  0.92539  0.46182  0.96745  1.0000
  C   C55       1.0  0.73635  0.36521  0.45760  1.0000
  C   C56       1.0  0.26122  0.63367  0.48646  1.0000
  C   C57       1.0  0.64052  0.29290  0.54677  1.0000
  C   C58       1.0  0.69620  0.34662  0.49853  1.0000
  C   C59       1.0  0.64702  0.35251  0.58102  1.0000
  C   C60       1.0  0.35847  0.70860  0.42314  1.0000
  C   C61       1.0  0.30351  0.65406  0.47019  1.0000
  C   C62       1.0  0.35908  0.65197  0.43914  1.0000
  C   C63       1.0  0.75001  0.34304  0.38941  1.0000
  C   C64       1.0  0.23486  0.64785  0.41785  1.0000
  C   C65       1.0  0.78849  0.36071  0.35875  1.0000
  C   C66       1.0  0.19387  0.62715  0.41712  1.0000
  C   C67       1.0  0.24546  0.59862  0.56077  1.0000
  C   C68       1.0  0.76249  0.40575  0.49273  1.0000
  C   C69       1.0  0.20488  0.57827  0.56652  1.0000
  C   C70       1.0  0.80162  0.42349  0.46824  1.0000
  C   C71       1.0  0.81525  0.40097  0.40314  1.0000
  C   C72       1.0  0.17838  0.59205  0.49202  1.0000
  C   C73       1.0  0.45056  0.55290  0.31181  1.0000
  C   C74       1.0  0.45067  0.89697  0.28785  1.0000
  C   C75       1.0  0.10752  0.55914  0.53186  1.0000
  C   C76       1.0  0.56520  0.45743  0.76816  1.0000
  C   C77       1.0  0.54664  0.10358  0.69248  1.0000
  C   C78       1.0  0.88817  0.44338  0.43758  1.0000
  C   C79       1.0  0.51213  0.46212  0.53190  1.0000
  C   C80       1.0  0.54353  0.04866  0.51814  1.0000
  C   C81       1.0  0.95219  0.50611  0.43327  1.0000
  C   C82       1.0  0.50499  0.54910  0.54538  1.0000
  C   C83       1.0  0.45346  0.95252  0.45554  1.0000
  C   C84       1.0  0.04590  0.50557  0.60995  1.0000
  C   C85       1.0  0.49648  0.48723  0.48859  1.0000
  C   C86       1.0  0.51768  0.00809  0.46945  1.0000
  C   C87       1.0  0.99343  0.51942  0.48274  1.0000
  C   C88       1.0  0.52066  0.52400  0.58878  1.0000
  C   C89       1.0  0.47909  0.99317  0.50151  1.0000
  C   C90       1.0  0.00499  0.49358  0.57347  1.0000
  C   C91       1.0  0.46972  0.53157  0.40849  1.0000
  C   C92       1.0  0.47229  0.93700  0.38302  1.0000
  C   C93       1.0  0.06846  0.54144  0.54171  1.0000
  C   C94       1.0  0.54714  0.47951  0.67027  1.0000
  C   C95       1.0  0.52474  0.06412  0.59132  1.0000
  C   C96       1.0  0.92871  0.46757  0.47954  1.0000
  S   S1        1.0  0.45246  0.50390  0.90169  1.0000
  S   S2        1.0  0.50200  0.95040  0.92718  1.0000
  S   S3        1.0  0.03259  0.55495  0.94687  1.0000
  S   S4        1.0  0.55851  0.50369  0.16369  1.0000
  S   S5        1.0  0.49392  0.04733  0.04626  1.0000
  S   S6        1.0  0.95770  0.44867  0.11846  1.0000
  S   S7        1.0  0.45335  0.48326  0.34420  1.0000
  S   S8        1.0  0.52269  0.97127  0.38725  1.0000
  S   S9        1.0  0.03621  0.56045  0.44715  1.0000
  S   S10       1.0  0.56330  0.52764  0.73635  1.0000
  S   S11       1.0  0.47426  0.02989  0.58587  1.0000
  S   S12       1.0  0.96208  0.45193  0.60354  1.0000
  N   N1        1.0  0.63084  0.31285  0.08361  1.0000
  N   N2        1.0  0.68254  0.30819  0.99427  1.0000
  N   N3        1.0  0.68811  0.36991  0.03145  1.0000
  N   N4        1.0  0.36744  0.68570  0.91807  1.0000
  N   N5        1.0  0.30962  0.68701  0.96090  1.0000
  N   N6        1.0  0.31304  0.62918  0.98836  1.0000
  N   N7        1.0  0.56384  0.42844  0.06466  1.0000
  N   N8        1.0  0.56242  0.12964  0.01686  1.0000
  N   N9        1.0  0.85308  0.40747  0.82361  1.0000
  N   N10       1.0  0.44305  0.57530  0.00136  1.0000
  N   N11       1.0  0.43220  0.86762  0.96504  1.0000
  N   N12       1.0  0.12807  0.55571  0.96211  1.0000
  N   N13       1.0  0.62454  0.31404  0.58661  1.0000
  N   N14       1.0  0.67591  0.30779  0.49880  1.0000
  N   N15       1.0  0.68310  0.37014  0.53912  1.0000
  N   N16       1.0  0.37844  0.68955  0.41216  1.0000
  N   N17       1.0  0.32067  0.69200  0.44817  1.0000
  N   N18       1.0  0.32207  0.63311  0.47259  1.0000
  N   N19       1.0  0.58511  0.44974  0.68057  1.0000
  N   N20       1.0  0.55842  0.13123  0.59592  1.0000
  N   N21       1.0  0.85332  0.41693  0.36528  1.0000
  N   N22       1.0  0.43357  0.56270  0.40813  1.0000
  N   N23       1.0  0.43913  0.87044  0.39031  1.0000
  N   N24       1.0  0.13671  0.56891  0.47151  1.0000
  C  Sn1       1.0  0.20893  0.57837  0.12750  1.0000
  C   C97       1.0  0.17705  0.58514  0.05396  1.0000
  C  Sn2       1.0  0.24333  0.64014  0.93754  1.0000
  C  Sn3       1.0  0.28111  0.66156  0.89361  1.0000
  C   C98       1.0  0.31296  0.65478  0.96710  1.0000
  C  Sn4       1.0  0.24671  0.59979  0.08357  1.0000
  O  Te1       1.0  0.20311  0.55047  0.24358  1.0000
  O  Te2       1.0  0.21102  0.64641  0.86574  1.0000
  O  Te3       1.0  0.28691  0.68948  0.77743  1.0000
  O  Te4       1.0  0.27899  0.59352  0.15532  1.0000
  Mg  Mg1       1.0  0.23380  0.68751  0.71388  1.0000
  Mg  Mg2       1.0  0.25624  0.55241  0.30711  1.0000
  C  Sn5       1.0  0.42899  0.77912  0.39416  1.0000
  C   C99       1.0  0.39375  0.75678  0.45094  1.0000
  C  Sn6       1.0  0.36824  0.77120  0.46258  1.0000
  C  Sn7       1.0  0.37814  0.80872  0.41642  1.0000
  C   C100      1.0  0.41335  0.83103  0.35965  1.0000
  C  Sn8       1.0  0.43888  0.81664  0.34800  1.0000
  O  Te5       1.0  0.45404  0.76412  0.38351  1.0000
  O  Te6       1.0  0.33319  0.74833  0.51975  1.0000
  O  Te7       1.0  0.35305  0.82371  0.42711  1.0000
  O  Te8       1.0  0.47391  0.83948  0.29084  1.0000
  Mg  Mg3       1.0  0.30868  0.78151  0.51219  1.0000
  Mg  Mg4       1.0  0.49843  0.80632  0.29826  1.0000
  C  Sn9       1.0  0.41548  0.63955  0.32103  1.0000
  C   C101      1.0  0.38083  0.62869  0.38063  1.0000
  C  Sn10      1.0  0.36614  0.59689  0.47508  1.0000
  C  Sn11      1.0  0.38654  0.57552  0.51081  1.0000
  C   C102      1.0  0.42118  0.58639  0.45126  1.0000
  C  Sn12      1.0  0.43588  0.61818  0.35676  1.0000
  O  Te9       1.0  0.42962  0.67144  0.22686  1.0000
  O  Te10      1.0  0.33143  0.58658  0.53324  1.0000
  O  Te11      1.0  0.37237  0.54361  0.60506  1.0000
  O  Te12      1.0  0.47057  0.62850  0.29864  1.0000
  Mg  Mg5       1.0  0.32394  0.54092  0.65650  1.0000
  Mg  Mg6       1.0  0.47811  0.67416  0.17546  1.0000
  C  Sn13      1.0  0.62376  0.21663  0.46361  1.0000
  C   C103      1.0  0.61438  0.24418  0.50945  1.0000
  C  Sn14      1.0  0.58759  0.23564  0.61519  1.0000
  C  Sn15      1.0  0.56982  0.19880  0.67649  1.0000
  C   C104      1.0  0.57920  0.17127  0.63068  1.0000
  C  Sn16      1.0  0.60599  0.17978  0.52491  1.0000
  O  Te13      1.0  0.65062  0.22579  0.35777  1.0000
  O  Te14      1.0  0.57867  0.26365  0.65923  1.0000
  O  Te15      1.0  0.54294  0.18964  0.78241  1.0000
  O  Te16      1.0  0.61491  0.15180  0.48090  1.0000
  Mg  Mg7       1.0  0.54031  0.23744  0.80677  1.0000
  Mg  Mg8       1.0  0.65328  0.17799  0.33345  1.0000
  C  Sn17      1.0  0.58195  0.36204  0.62033  1.0000
  C   C105      1.0  0.61883  0.37289  0.58053  1.0000
  C  Sn18      1.0  0.64924  0.41194  0.60267  1.0000
  C  Sn19      1.0  0.64266  0.44076  0.66601  1.0000
  C   C106      1.0  0.60580  0.42990  0.70580  1.0000
  C  Sn20      1.0  0.57537  0.39085  0.68367  1.0000
  O  Te17      1.0  0.55197  0.32283  0.59720  1.0000
  O  Te18      1.0  0.68585  0.42208  0.56194  1.0000
  O  Te19      1.0  0.67268  0.47999  0.68911  1.0000
  O  Te20      1.0  0.53878  0.38071  0.72439  1.0000
  Mg  Mg9       1.0  0.71742  0.47932  0.61554  1.0000
  Mg  Mg10      1.0  0.50720  0.32348  0.67093  1.0000
  C  Sn21      1.0  0.30284  0.56125  0.05619  1.0000
  C   C107      1.0  0.37315  0.62407  0.99411  1.0000
  C  Sn22      1.0  0.40352  0.64171  0.90467  1.0000
  C  Sn23      1.0  0.42518  0.62338  0.87659  1.0000
  C   C108      1.0  0.41601  0.58781  0.93862  1.0000
  C  Sn24      1.0  0.32450  0.54293  0.02811  1.0000
  O  Te21      1.0  0.27235  0.54415  0.14526  1.0000
  O  Te22      1.0  0.41215  0.67729  0.84388  1.0000
  O  Te23      1.0  0.45569  0.64052  0.78744  1.0000
  O  Te24      1.0  0.31586  0.50736  0.08885  1.0000
  Mg  Mg11      1.0  0.45633  0.68908  0.72974  1.0000
  Mg  Mg12      1.0  0.27168  0.49554  0.20292  1.0000
