data_image0
_chemical_formula_structural       H36C108S12N24C2Sn2C2HTe2HMgC2Sn2C2HTe2HMgC2Sn2C2HTe2HMgC2Sn2C2HTe2HMgC2Sn2C2HTe2HMgC2Sn2C2HTe2HMg
_chemical_formula_sum              "H48 C132 S12 N24 Sn12 Te12 Mg6"
_cell_length_a       42.3286
_cell_length_b       42.6376
_cell_length_c       8.08188
_cell_angle_alpha    84.2095
_cell_angle_beta     121.205
_cell_angle_gamma    120.169

_symmetry_space_group_name_H-M    'P1'
_space_group_IT_number       1

loop_
  _space_group_symop_operation_xyz
  'x, y, z'

loop_
  _atom_site_type_symbol
  _atom_site_label
  _atom_site_symmetry_multiplicity
  _atom_site_fract_x
  _atom_site_fract_y
  _atom_site_fract_z
  _atom_site_occupancy
  H   H1        1.0  0.49972  0.55532  0.01007  1.0000
  H   H2        1.0  0.44389  0.94208  0.99234  1.0000
  H   H3        1.0  0.05393  0.50402  0.96458  1.0000
  H   H4        1.0  0.50266  0.44460  0.01318  1.0000
  H   H5        1.0  0.55984  0.05975  0.04832  1.0000
  H   H6        1.0  0.94355  0.49935  0.01478  1.0000
  H   H7        1.0  0.69140  0.42713  0.99439  1.0000
  H   H8        1.0  0.31041  0.57303  0.01262  1.0000
  H   H9        1.0  0.42908  0.73722  0.98069  1.0000
  H   H10       1.0  0.26332  0.69299  0.98064  1.0000
  H   H11       1.0  0.66835  0.47071  0.99908  1.0000
  H   H12       1.0  0.33728  0.53114  0.03717  1.0000
  H   H13       1.0  0.47173  0.80406  0.97468  1.0000
  H   H14       1.0  0.19511  0.66890  0.97532  1.0000
  H   H15       1.0  0.41777  0.66224  0.99341  1.0000
  H   H16       1.0  0.34069  0.75609  0.00303  1.0000
  H   H17       1.0  0.24770  0.58569  0.00994  1.0000
  H   H18       1.0  0.58275  0.33761  0.00381  1.0000
  H   H19       1.0  0.44475  0.62056  0.01569  1.0000
  H   H20       1.0  0.38302  0.82313  0.99837  1.0000
  H   H21       1.0  0.17927  0.56090  0.00384  1.0000
  H   H22       1.0  0.55906  0.38062  0.00751  1.0000
  H   H23       1.0  0.50065  0.55506  0.51148  1.0000
  H   H24       1.0  0.44242  0.94110  0.50635  1.0000
  H   H25       1.0  0.05505  0.50228  0.46871  1.0000
  H   H26       1.0  0.49875  0.44210  0.50599  1.0000
  H   H27       1.0  0.55273  0.05827  0.52261  1.0000
  H   H28       1.0  0.94509  0.49720  0.52091  1.0000
  H   H29       1.0  0.31229  0.57428  0.52872  1.0000
  H   H30       1.0  0.42915  0.73717  0.48014  1.0000
  H   H31       1.0  0.33926  0.53254  0.55164  1.0000
  H   H32       1.0  0.47291  0.80422  0.48104  1.0000
  H   H33       1.0  0.41562  0.66211  0.47861  1.0000
  H   H34       1.0  0.34087  0.75661  0.49921  1.0000
  H   H35       1.0  0.44243  0.62051  0.49704  1.0000
  H   H36       1.0  0.38431  0.82385  0.50094  1.0000
  C   C1        1.0  0.51796  0.50178  0.00070  1.0000
  C   C2        1.0  0.50002  0.01680  0.03031  1.0000
  C   C3        1.0  0.98382  0.48392  0.99247  1.0000
  C   C4        1.0  0.48126  0.49713  0.99963  1.0000
  C   C5        1.0  0.50475  0.98555  0.01977  1.0000
  C   C6        1.0  0.01504  0.52064  0.99102  1.0000
  C   C7        1.0  0.54989  0.53582  0.99464  1.0000
  C   C8        1.0  0.46387  0.01344  0.01927  1.0000
  C   C9        1.0  0.98574  0.45188  0.98358  1.0000
  C   C10       1.0  0.44813  0.46281  0.99694  1.0000
  C   C11       1.0  0.54048  0.98888  0.02639  1.0000
  C   C12       1.0  0.01393  0.55304  0.00252  1.0000
  C   C13       1.0  0.63852  0.37974  0.99842  1.0000
  C   C14       1.0  0.25956  0.64077  0.99509  1.0000
  C   C15       1.0  0.36248  0.62035  0.00240  1.0000
  C   C16       1.0  0.38214  0.74241  0.99127  1.0000
  C   C17       1.0  0.64177  0.29645  0.98993  1.0000
  C   C18       1.0  0.69987  0.34448  0.98895  1.0000
  C   C19       1.0  0.65219  0.35439  0.99363  1.0000
  C   C20       1.0  0.35732  0.70306  0.99472  1.0000
  C   C21       1.0  0.29941  0.65507  0.99692  1.0000
  C   C22       1.0  0.34790  0.64546  0.99883  1.0000
  C   C23       1.0  0.66264  0.41745  0.99790  1.0000
  C   C24       1.0  0.33954  0.58305  0.01208  1.0000
  C   C25       1.0  0.41945  0.75628  0.98549  1.0000
  C   C26       1.0  0.24460  0.66423  0.98551  1.0000
  C   C27       1.0  0.64984  0.44160  0.99980  1.0000
  C   C28       1.0  0.35436  0.55975  0.02586  1.0000
  C   C29       1.0  0.44329  0.79333  0.98300  1.0000
  C   C30       1.0  0.20685  0.65099  0.98154  1.0000
  C   C31       1.0  0.40041  0.63351  0.00326  1.0000
  C   C32       1.0  0.36920  0.76685  0.99574  1.0000
  C   C33       1.0  0.23565  0.60345  0.00155  1.0000
  C   C34       1.0  0.60097  0.36670  0.00105  1.0000
  C   C35       1.0  0.41555  0.61050  0.01595  1.0000
  C   C36       1.0  0.39264  0.80403  0.99382  1.0000
  C   C37       1.0  0.19778  0.58964  0.99756  1.0000
  C   C38       1.0  0.58765  0.39045  0.00240  1.0000
  C   C39       1.0  0.61214  0.42826  0.00194  1.0000
  C   C40       1.0  0.39255  0.57330  0.02827  1.0000
  C   C41       1.0  0.42993  0.81747  0.98700  1.0000
  C   C42       1.0  0.18320  0.61355  0.98821  1.0000
  C   C43       1.0  0.42447  0.53800  0.01634  1.0000
  C   C44       1.0  0.46350  0.88583  0.98472  1.0000
  C   C45       1.0  0.11352  0.58008  0.98264  1.0000
  C   C46       1.0  0.57917  0.46296  0.01274  1.0000
  C   C47       1.0  0.53855  0.11546  0.03578  1.0000
  C   C48       1.0  0.88564  0.42245  0.00221  1.0000
  C   C49       1.0  0.52475  0.47230  0.00906  1.0000
  C   C50       1.0  0.53128  0.05341  0.04621  1.0000
  C   C51       1.0  0.94859  0.47727  0.00199  1.0000
  C   C52       1.0  0.47630  0.52729  0.00402  1.0000
  C   C53       1.0  0.47306  0.94877  0.99929  1.0000
  C   C54       1.0  0.04980  0.52659  0.97968  1.0000
  C   C55       1.0  0.43875  0.51775  0.99869  1.0000
  C   C56       1.0  0.48282  0.92221  0.99095  1.0000
  C   C57       1.0  0.07741  0.56360  0.98512  1.0000
  C   C58       1.0  0.56219  0.48209  0.01298  1.0000
  C   C59       1.0  0.52125  0.07998  0.05052  1.0000
  C   C60       1.0  0.92152  0.44011  0.99750  1.0000
  C   C61       1.0  0.51660  0.49991  0.50010  1.0000
  C   C62       1.0  0.49593  0.01597  0.52939  1.0000
  C   C63       1.0  0.98419  0.48110  0.49352  1.0000
  C   C64       1.0  0.48032  0.49638  0.49873  1.0000
  C   C65       1.0  0.50117  0.98507  0.51805  1.0000
  C   C66       1.0  0.01528  0.51795  0.49252  1.0000
  C   C67       1.0  0.54969  0.53363  0.49851  1.0000
  C   C68       1.0  0.46136  0.01283  0.53365  1.0000
  C   C69       1.0  0.98544  0.44884  0.48038  1.0000
  C   C70       1.0  0.44679  0.46258  0.49718  1.0000
  C   C71       1.0  0.53645  0.98903  0.51765  1.0000
  C   C72       1.0  0.01346  0.54996  0.50262  1.0000
  C   C73       1.0  0.36236  0.62087  0.50312  1.0000
  C   C74       1.0  0.38230  0.74277  0.48946  1.0000
  C   C75       1.0  0.64236  0.29514  0.49525  1.0000
  C   C76       1.0  0.69995  0.34302  0.49005  1.0000
  C   C77       1.0  0.65223  0.35288  0.49472  1.0000
  C   C78       1.0  0.35710  0.70350  0.49244  1.0000
  C   C79       1.0  0.29929  0.65586  0.49681  1.0000
  C   C80       1.0  0.34754  0.64587  0.49826  1.0000
  C   C81       1.0  0.34057  0.58400  0.52111  1.0000
  C   C82       1.0  0.41983  0.75642  0.48581  1.0000
  C   C83       1.0  0.35546  0.56079  0.53392  1.0000
  C   C84       1.0  0.44426  0.79359  0.48705  1.0000
  C   C85       1.0  0.39924  0.63371  0.49500  1.0000
  C   C86       1.0  0.36965  0.76740  0.49406  1.0000
  C   C87       1.0  0.41429  0.61074  0.50581  1.0000
  C   C88       1.0  0.39367  0.80463  0.49537  1.0000
  C   C89       1.0  0.39256  0.57400  0.52706  1.0000
  C   C90       1.0  0.43126  0.81797  0.49157  1.0000
  C   C91       1.0  0.42506  0.53920  0.51535  1.0000
  C   C92       1.0  0.46336  0.88601  0.49020  1.0000
  C   C93       1.0  0.11330  0.57927  0.48112  1.0000
  C   C94       1.0  0.57518  0.45864  0.50577  1.0000
  C   C95       1.0  0.53298  0.11398  0.52273  1.0000
  C   C96       1.0  0.88612  0.42021  0.50507  1.0000
  C   C97       1.0  0.52178  0.46956  0.50458  1.0000
  C   C98       1.0  0.52556  0.05219  0.53233  1.0000
  C   C99       1.0  0.94955  0.47481  0.50699  1.0000
  C   C100      1.0  0.47647  0.52725  0.50381  1.0000
  C   C101      1.0  0.47086  0.94820  0.50508  1.0000
  C   C102      1.0  0.05030  0.52455  0.48128  1.0000
  C   C103      1.0  0.43924  0.51872  0.49881  1.0000
  C   C104      1.0  0.48112  0.92223  0.49341  1.0000
  C   C105      1.0  0.07727  0.56166  0.48465  1.0000
  C   C106      1.0  0.55920  0.47835  0.51105  1.0000
  C   C107      1.0  0.51608  0.07887  0.54288  1.0000
  C   C108      1.0  0.92225  0.43767  0.50216  1.0000
  S   S1        1.0  0.41146  0.46673  0.99222  1.0000
  S   S2        1.0  0.53647  0.94924  0.01155  1.0000
  S   S3        1.0  0.05378  0.58943  0.00006  1.0000
  S   S4        1.0  0.58701  0.53241  0.00125  1.0000
  S   S5        1.0  0.46754  0.05302  0.02956  1.0000
  S   S6        1.0  0.94628  0.41504  0.98523  1.0000
  S   S7        1.0  0.41096  0.46771  0.49349  1.0000
  S   S8        1.0  0.53355  0.94995  0.50268  1.0000
  S   S9        1.0  0.05249  0.58669  0.49779  1.0000
  S   S10       1.0  0.58620  0.52898  0.50646  1.0000
  S   S11       1.0  0.46504  0.05243  0.54510  1.0000
  S   S12       1.0  0.94593  0.41221  0.48356  1.0000
  N   N1        1.0  0.62748  0.31840  0.99130  1.0000
  N   N2        1.0  0.67745  0.30803  0.98670  1.0000
  N   N3        1.0  0.68863  0.36878  0.99272  1.0000
  N   N4        1.0  0.37215  0.68129  0.99722  1.0000
  N   N5        1.0  0.32131  0.69133  0.99522  1.0000
  N   N6        1.0  0.31139  0.63103  0.99916  1.0000
  N   N7        1.0  0.60008  0.45220  0.00722  1.0000
  N   N8        1.0  0.54638  0.14616  0.00970  1.0000
  N   N9        1.0  0.85345  0.40023  0.00123  1.0000
  N   N10       1.0  0.40788  0.55056  0.04985  1.0000
  N   N11       1.0  0.45266  0.85362  0.97750  1.0000
  N   N12       1.0  0.14646  0.60069  0.98708  1.0000
  N   N13       1.0  0.62798  0.31705  0.49549  1.0000
  N   N14       1.0  0.67799  0.30667  0.49159  1.0000
  N   N15       1.0  0.68839  0.36722  0.49148  1.0000
  N   N16       1.0  0.37169  0.68157  0.49486  1.0000
  N   N17       1.0  0.32121  0.69202  0.49368  1.0000
  N   N18       1.0  0.31116  0.63167  0.49960  1.0000
  N   N19       1.0  0.59486  0.44741  0.49115  1.0000
  N   N20       1.0  0.54055  0.14435  0.48920  1.0000
  N   N21       1.0  0.85341  0.39837  0.50109  1.0000
  N   N22       1.0  0.40805  0.55143  0.54774  1.0000
  N   N23       1.0  0.45502  0.85442  0.48937  1.0000
  N   N24       1.0  0.14544  0.60131  0.48108  1.0000
  C   C109      1.0  0.61503  0.20296  0.98654  1.0000
  C   C110      1.0  0.46068  0.14473  0.01127  1.0000
  C  Sn1       1.0  0.44262  0.16392  0.01969  1.0000
  C  Sn2       1.0  0.45994  0.20161  0.00294  1.0000
  C   C111      1.0  0.61430  0.25959  0.97809  1.0000
  C   C112      1.0  0.63213  0.24013  0.96992  1.0000
  H   H37       1.0  0.62881  0.18790  0.98011  1.0000
  O  Te1       1.0  0.40771  0.14573  0.04454  1.0000
  O  Te2       1.0  0.44250  0.22144  0.01079  1.0000
  H   H38       1.0  0.65918  0.25390  0.95064  1.0000
  Mg  Mg1       1.0  0.39510  0.18453  0.04646  1.0000
  C   C113      1.0  0.56903  0.23541  0.49638  1.0000
  C   C114      1.0  0.60877  0.25385  0.51023  1.0000
  C  Sn3       1.0  0.62669  0.23401  0.50814  1.0000
  C  Sn4       1.0  0.60433  0.19500  0.49181  1.0000
  C   C115      1.0  0.56459  0.17680  0.47789  1.0000
  C   C116      1.0  0.54696  0.19693  0.48019  1.0000
  H   H39       1.0  0.55538  0.25097  0.49805  1.0000
  O  Te3       1.0  0.66642  0.25287  0.52218  1.0000
  O  Te4       1.0  0.62150  0.17449  0.48928  1.0000
  H   H40       1.0  0.51618  0.18264  0.46933  1.0000
  Mg  Mg2       1.0  0.67659  0.21274  0.51239  1.0000
  C   C117      1.0  0.58345  0.37714  0.49619  1.0000
  C   C118      1.0  0.60332  0.41543  0.50691  1.0000
  C  Sn5       1.0  0.64114  0.43503  0.50402  1.0000
  C  Sn6       1.0  0.65932  0.41586  0.49007  1.0000
  C   C119      1.0  0.63917  0.37755  0.47928  1.0000
  C   C120      1.0  0.60134  0.35822  0.48236  1.0000
  H   H41       1.0  0.55416  0.36218  0.49845  1.0000
  O  Te5       1.0  0.66059  0.47328  0.51492  1.0000
  O  Te6       1.0  0.69709  0.43476  0.48682  1.0000
  H   H42       1.0  0.58595  0.32857  0.47393  1.0000
  Mg  Mg3       1.0  0.71166  0.48679  0.50531  1.0000
  C   C121      1.0  0.77627  0.40391  0.51376  1.0000
  C   C122      1.0  0.74442  0.36701  0.48273  1.0000
  C  Sn7       1.0  0.75043  0.33831  0.46774  1.0000
  C  Sn8       1.0  0.78907  0.34678  0.48423  1.0000
  C   C123      1.0  0.82074  0.38379  0.51541  1.0000
  C   C124      1.0  0.81440  0.41230  0.53012  1.0000
  H   H43       1.0  0.77137  0.42598  0.52525  1.0000
  O  Te7       1.0  0.71827  0.30159  0.43666  1.0000
  O  Te8       1.0  0.79591  0.31863  0.46989  1.0000
  H   H44       1.0  0.83907  0.44087  0.55427  1.0000
  Mg  Mg4       1.0  0.74257  0.27292  0.42717  1.0000
  C   C125      1.0  0.75968  0.33297  0.97341  1.0000
  C   C126      1.0  0.74341  0.35241  0.99845  1.0000
  C  Sn9       1.0  0.64487  0.35044  0.01599  1.0000
  C  Sn10      1.0  0.68268  0.36973  0.00822  1.0000
  C   C127      1.0  0.81807  0.39047  0.98299  1.0000
  C   C128      1.0  0.79696  0.35198  0.96565  1.0000
  H   H45       1.0  0.74333  0.30319  0.95989  1.0000
  O  Te9       1.0  0.62820  0.36943  0.04100  1.0000
  O  Te10      1.0  0.70415  0.40818  0.02529  1.0000
  H   H46       1.0  0.80954  0.33694  0.94614  1.0000
  Mg  Mg5       1.0  0.66893  0.42174  0.05732  1.0000
  C   C129      1.0  0.22640  0.59657  0.50436  1.0000
  C   C130      1.0  0.25280  0.63167  0.48638  1.0000
  C  Sn11      1.0  0.24399  0.65958  0.47488  1.0000
  C  Sn12      1.0  0.20806  0.65213  0.48159  1.0000
  C   C131      1.0  0.18186  0.61693  0.49973  1.0000
  C   C132      1.0  0.19097  0.58920  0.51106  1.0000
  H   H47       1.0  0.23346  0.57512  0.51323  1.0000
  O  Te11      1.0  0.27069  0.69449  0.45689  1.0000
  O  Te12      1.0  0.19852  0.67952  0.47047  1.0000
  H   H48       1.0  0.17054  0.56204  0.52511  1.0000
  Mg  Mg6       1.0  0.24443  0.72272  0.44693  1.0000
