data_image0
_chemical_formula_structural       H36C40N8O2SnCSn2CSnTe4Mg2SnCSn2CSnTe4Mg2SnCSn2CSnTe4Mg2SnCSn2CSnTe4Mg2SnCSn2CSnTe4Mg2SnCSn2CSnTe4Mg2SnCSn2CSnTe4Mg2SnCSn2CSnTe4Mg2SnCSn2CSnTe4Mg2SnCSn2CSnTe4Mg2SnCSn2CSnTe4Mg2SnCSn2CSnTe4Mg2
_chemical_formula_sum              "H36 C64 N8 O2 Sn48 Te48 Mg24"
_cell_length_a       25.8315
_cell_length_b       25.9599
_cell_length_c       8.15216
_cell_angle_alpha    80.9477
_cell_angle_beta     88.1349
_cell_angle_gamma    119.368

_symmetry_space_group_name_H-M    'P1'
_space_group_IT_number       1

loop_
  _space_group_symop_operation_xyz
  'x, y, z'

loop_
  _atom_site_type_symbol
  _atom_site_label
  _atom_site_symmetry_multiplicity
  _atom_site_fract_x
  _atom_site_fract_y
  _atom_site_fract_z
  _atom_site_occupancy
  H   H1        1.0  0.30616  0.20043  0.09495  1.0000
  H   H2        1.0  0.57829  0.18544  0.27029  1.0000
  H   H3        1.0  0.75481  0.07883  0.03103  1.0000
  H   H4        1.0  0.73884  0.34758  0.31055  1.0000
  H   H5        1.0  0.85695  0.90006  0.28137  1.0000
  H   H6        1.0  0.83603  0.63959  0.06514  1.0000
  H   H7        1.0  0.57748  0.35224  0.23045  1.0000
  H   H8        1.0  0.09413  0.86688  0.06262  1.0000
  H   H9        1.0  0.00679  0.83279  0.29136  1.0000
  H   H10       1.0  0.05738  0.89167  0.38909  1.0000
  H   H11       1.0  0.17194  0.80763  0.36157  1.0000
  H   H12       1.0  0.15394  0.79178  0.16068  1.0000
  H   H13       1.0  0.06401  0.77823  0.25685  1.0000
  H   H14       1.0  0.24261  0.90756  0.21327  1.0000
  H   H15       1.0  0.20763  0.89334  0.02990  1.0000
  H   H16       1.0  0.16775  0.92874  0.33063  1.0000
  H   H17       1.0  0.17760  0.96181  0.11621  1.0000
  H   H18       1.0  0.01441  0.06881  0.28514  1.0000
  H   H19       1.0  0.30260  0.19877  0.59375  1.0000
  H   H20       1.0  0.57649  0.18640  0.76437  1.0000
  H   H21       1.0  0.75187  0.07085  0.52594  1.0000
  H   H22       1.0  0.73470  0.35021  0.80734  1.0000
  H   H23       1.0  0.85345  0.89910  0.79600  1.0000
  H   H24       1.0  0.82706  0.63941  0.56828  1.0000
  H   H25       1.0  0.57101  0.35054  0.73506  1.0000
  H   H26       1.0  0.08740  0.86028  0.56715  1.0000
  H   H27       1.0  0.00085  0.83254  0.79350  1.0000
  H   H28       1.0  0.05409  0.89164  0.88614  1.0000
  H   H29       1.0  0.15891  0.79790  0.88015  1.0000
  H   H30       1.0  0.14129  0.78267  0.67820  1.0000
  H   H31       1.0  0.05304  0.77335  0.77464  1.0000
  H   H32       1.0  0.23297  0.89696  0.73747  1.0000
  H   H33       1.0  0.20202  0.88290  0.54790  1.0000
  H   H34       1.0  0.16161  0.92577  0.82874  1.0000
  H   H35       1.0  0.17338  0.95486  0.61109  1.0000
  H   H36       1.0  0.01148  0.06958  0.78044  1.0000
  C   C1        1.0  0.02986  0.99948  0.22662  1.0000
  C   C2        1.0  0.28671  0.15258  0.15455  1.0000
  C   C3        1.0  0.56973  0.26483  0.24972  1.0000
  C   C4        1.0  0.60138  0.23351  0.27030  1.0000
  C   C5        1.0  0.99333  0.02260  0.26624  1.0000
  C   C6        1.0  0.93075  0.98698  0.28938  1.0000
  C   C7        1.0  0.78554  0.09212  0.41417  1.0000
  C   C8        1.0  0.66247  0.26303  0.28865  1.0000
  C   C9        1.0  0.69205  0.32496  0.28960  1.0000
  C   C10       1.0  0.90545  0.92717  0.26982  1.0000
  C   C11       1.0  0.93973  0.90156  0.22615  1.0000
  C   C12       1.0  0.81872  0.65016  0.17238  1.0000
  C   C13       1.0  0.66145  0.35733  0.27266  1.0000
  C   C14       1.0  0.60059  0.32673  0.25147  1.0000
  C   C15       1.0  0.00314  0.93899  0.20578  1.0000
  C   C16       1.0  0.15652  0.82118  0.24741  1.0000
  C   C17       1.0  0.09939  0.87027  0.19488  1.0000
  C   C18       1.0  0.16355  0.91927  0.20350  1.0000
  C   C19       1.0  0.19904  0.88835  0.16593  1.0000
  C   C20       1.0  0.04846  0.87662  0.26987  1.0000
  C   C21       1.0  0.02626  0.99929  0.72596  1.0000
  C   C22       1.0  0.28296  0.15094  0.65384  1.0000
  C   C23       1.0  0.56567  0.26430  0.74829  1.0000
  C   C24       1.0  0.59859  0.23429  0.76630  1.0000
  C   C25       1.0  0.99004  0.02292  0.76500  1.0000
  C   C26       1.0  0.92744  0.98725  0.79235  1.0000
  C   C27       1.0  0.78534  0.09657  0.91320  1.0000
  C   C28       1.0  0.65967  0.26475  0.78477  1.0000
  C   C29       1.0  0.68790  0.32652  0.78719  1.0000
  C   C30       1.0  0.90198  0.92681  0.77891  1.0000
  C   C31       1.0  0.93597  0.90112  0.73310  1.0000
  C   C32       1.0  0.81244  0.64982  0.68078  1.0000
  C   C33       1.0  0.65610  0.35765  0.77280  1.0000
  C   C34       1.0  0.59520  0.32603  0.75288  1.0000
  C   C35       1.0  0.99936  0.93860  0.70692  1.0000
  C   C36       1.0  0.14540  0.81280  0.76401  1.0000
  C   C37       1.0  0.09256  0.86563  0.69802  1.0000
  C   C38       1.0  0.15744  0.91337  0.70519  1.0000
  C   C39       1.0  0.19093  0.87923  0.68195  1.0000
  C   C40       1.0  0.04348  0.87544  0.76887  1.0000
  N   N1        1.0  0.31978  0.13009  0.20273  1.0000
  N   N2        1.0  0.79392  0.13890  0.30795  1.0000
  N   N3        1.0  0.77537  0.60900  0.28360  1.0000
  N   N4        1.0  0.09729  0.81574  0.29046  1.0000
  N   N5        1.0  0.31570  0.12819  0.70330  1.0000
  N   N6        1.0  0.79198  0.14149  0.80209  1.0000
  N   N7        1.0  0.77115  0.60837  0.79642  1.0000
  N   N8        1.0  0.08780  0.81110  0.80301  1.0000
  O   O1        1.0  0.04196  0.92063  0.15221  1.0000
  O   O2        1.0  0.03776  0.91994  0.65068  1.0000
  C  Sn1       1.0  0.18139  0.03971  0.26265  1.0000
  C   C41       1.0  0.21649  0.09624  0.15811  1.0000
  C  Sn2       1.0  0.19023  0.12903  0.08781  1.0000
  C  Sn3       1.0  0.12758  0.10483  0.12280  1.0000
  C   C42       1.0  0.09251  0.04834  0.22730  1.0000
  C  Sn4       1.0  0.11874  0.01551  0.29764  1.0000
  O  Te1       1.0  0.20859  0.00772  0.33157  1.0000
  O  Te2       1.0  0.18066  0.11378  0.98363  1.0000
  O  Te3       1.0  0.10039  0.13687  0.05376  1.0000
  O  Te4       1.0  0.57561  0.95914  0.40178  1.0000
  Mg  Mg1       1.0  0.12276  0.14014  0.91960  1.0000
  Mg  Mg2       1.0  0.63346  0.93276  0.46594  1.0000
  C  Sn5       1.0  0.44997  0.23601  0.33356  1.0000
  C   C43       1.0  0.49505  0.22584  0.27564  1.0000
  C  Sn6       1.0  0.48473  0.18866  0.15948  1.0000
  C  Sn7       1.0  0.42819  0.16108  0.09987  1.0000
  C   C44       1.0  0.38316  0.17126  0.15776  1.0000
  C  Sn8       1.0  0.39343  0.20843  0.27395  1.0000
  O  Te5       1.0  0.46127  0.27335  0.44968  1.0000
  O  Te6       1.0  0.53048  0.17916  0.10345  1.0000
  O  Te7       1.0  0.37133  0.05207  0.98366  1.0000
  O  Te8       1.0  0.34772  0.21794  0.32994  1.0000
  Mg  Mg3       1.0  0.44784  0.05297  0.94486  1.0000
  Mg  Mg4       1.0  0.38474  0.27250  0.48846  1.0000
  C  Sn9       1.0  0.87644  0.08921  0.22259  1.0000
  C   C45       1.0  0.82386  0.06398  0.33355  1.0000
  C  Sn10      1.0  0.80790  0.01350  0.45880  1.0000
  C  Sn11      1.0  0.84529  0.98772  0.47354  1.0000
  C   C46       1.0  0.89784  0.01295  0.36266  1.0000
  C  Sn12      1.0  0.91383  0.06342  0.23734  1.0000
  O  Te9       1.0  0.89152  0.13967  0.09834  1.0000
  O  Te10      1.0  0.75510  0.98907  0.56821  1.0000
  O  Te11      1.0  0.32302  0.93722  0.59793  1.0000
  O  Te12      1.0  0.96660  0.08786  0.12799  1.0000
  Mg  Mg5       1.0  0.24663  0.92024  0.71698  1.0000
  Mg  Mg6       1.0  0.92240  0.08505  0.97923  1.0000
  C  Sn13      1.0  0.68603  0.13743  0.39099  1.0000
  C   C47       1.0  0.74139  0.15518  0.30315  1.0000
  C  Sn14      1.0  0.77863  0.21501  0.22100  1.0000
  C  Sn15      1.0  0.76019  0.25800  0.22684  1.0000
  C   C48       1.0  0.70487  0.24024  0.31466  1.0000
  C  Sn16      1.0  0.66758  0.18042  0.39683  1.0000
  O  Te13      1.0  0.64952  0.07738  0.47220  1.0000
  O  Te14      1.0  0.83377  0.23168  0.13395  1.0000
  O  Te15      1.0  0.79675  0.31808  0.14553  1.0000
  O  Te16      1.0  0.61248  0.16374  0.48386  1.0000
  Mg  Mg7       1.0  0.86776  0.31885  0.04341  1.0000
  Mg  Mg8       1.0  0.57847  0.07660  0.57452  1.0000
  C  Sn17      1.0  0.84698  0.77965  0.33181  1.0000
  C   C49       1.0  0.90301  0.82607  0.25178  1.0000
  C  Sn18      1.0  0.93074  0.81865  0.11462  1.0000
  C  Sn19      1.0  0.90185  0.76371  0.05617  1.0000
  C   C50       1.0  0.84585  0.71733  0.13616  1.0000
  C  Sn20      1.0  0.81809  0.72471  0.27336  1.0000
  O  Te17      1.0  0.82009  0.78806  0.46870  1.0000
  O  Te18      1.0  0.98677  0.86570  0.03669  1.0000
  O  Te19      1.0  0.88321  0.68368  0.91917  1.0000
  O  Te20      1.0  0.76209  0.67771  0.35125  1.0000
  Mg  Mg9       1.0  0.95968  0.76098  0.85480  1.0000
  Mg  Mg10      1.0  0.74354  0.71073  0.53308  1.0000
  C  Sn21      1.0  0.77135  0.51359  0.14935  1.0000
  C   C51       1.0  0.74965  0.54488  0.22644  1.0000
  C  Sn22      1.0  0.69897  0.51364  0.34621  1.0000
  C  Sn23      1.0  0.66938  0.44980  0.38994  1.0000
  C   C52       1.0  0.69109  0.41855  0.31289  1.0000
  C  Sn24      1.0  0.74177  0.44976  0.19307  1.0000
  O  Te21      1.0  0.82209  0.54575  0.02995  1.0000
  O  Te22      1.0  0.67809  0.54590  0.42153  1.0000
  O  Te23      1.0  0.61860  0.41765  0.50944  1.0000
  O  Te24      1.0  0.76264  0.41753  0.11780  1.0000
  Mg  Mg11      1.0  0.60733  0.48182  0.57710  1.0000
  Mg  Mg12      1.0  0.78783  0.40991  0.96229  1.0000
  C  Sn25      1.0  0.13549  0.09913  0.55263  1.0000
  C   C53       1.0  0.10013  0.04255  0.65672  1.0000
  C  Sn26      1.0  0.12331  0.02291  0.78909  1.0000
  C  Sn27      1.0  0.18307  0.06062  0.81810  1.0000
  C   C54       1.0  0.21839  0.11716  0.71407  1.0000
  C  Sn28      1.0  0.19525  0.13684  0.58164  1.0000
  O  Te25      1.0  0.11139  0.11784  0.42105  1.0000
  O  Te26      1.0  0.08710  0.96616  0.89142  1.0000
  O  Te27      1.0  0.20715  0.04186  0.94981  1.0000
  O  Te28      1.0  0.23142  0.19356  0.47936  1.0000
  Mg  Mg13      1.0  0.18579  0.03246  0.05467  1.0000
  Mg  Mg14      1.0  0.17836  0.19897  0.31614  1.0000
  C  Sn29      1.0  0.42762  0.14020  0.68879  1.0000
  C   C55       1.0  0.38279  0.15142  0.74225  1.0000
  C  Sn30      1.0  0.39764  0.20784  0.77604  1.0000
  C  Sn31      1.0  0.45856  0.25403  0.75589  1.0000
  C   C56       1.0  0.50334  0.24281  0.70244  1.0000
  C  Sn32      1.0  0.48854  0.18639  0.66864  1.0000
  O  Te29      1.0  0.41174  0.08346  0.65572  1.0000
  O  Te30      1.0  0.35205  0.21798  0.82939  1.0000
  O  Te31      1.0  0.47441  0.31081  0.78902  1.0000
  O  Te32      1.0  0.53409  0.17625  0.61529  1.0000
  Mg  Mg15      1.0  0.39623  0.30273  0.85864  1.0000
  Mg  Mg16      1.0  0.48997  0.09153  0.58593  1.0000
  C  Sn33      1.0  0.91110  0.08832  0.76630  1.0000
  C   C57       1.0  0.90235  0.03229  0.84513  1.0000
  C  Sn34      1.0  0.84773  0.98924  0.94036  1.0000
  C  Sn35      1.0  0.80088  0.00243  0.95708  1.0000
  C   C58       1.0  0.80964  0.05842  0.87827  1.0000
  C  Sn36      1.0  0.86425  0.10151  0.78302  1.0000
  O  Te33      1.0  0.96607  0.13068  0.67170  1.0000
  O  Te34      1.0  0.88563  0.00521  0.01804  1.0000
  O  Te35      1.0  0.79147  0.03166  0.05179  1.0000
  O  Te36      1.0  0.87194  0.15716  0.70535  1.0000
  Mg  Mg17      1.0  0.29549  0.96226  0.13355  1.0000
  Mg  Mg18      1.0  0.95490  0.20012  0.58975  1.0000
  C  Sn37      1.0  0.78746  0.24588  0.75620  1.0000
  C   C59       1.0  0.76797  0.18652  0.83596  1.0000
  C  Sn38      1.0  0.70721  0.14634  0.89027  1.0000
  C  Sn39      1.0  0.66504  0.16587  0.86423  1.0000
  C   C60       1.0  0.68454  0.22519  0.78449  1.0000
  C  Sn40      1.0  0.74530  0.26541  0.73015  1.0000
  O  Te37      1.0  0.84842  0.28528  0.70293  1.0000
  O  Te38      1.0  0.68880  0.08722  0.96976  1.0000
  O  Te39      1.0  0.60404  0.12641  0.91758  1.0000
  O  Te40      1.0  0.76371  0.32449  0.65068  1.0000
  Mg  Mg19      1.0  0.64652  0.12203  0.01965  1.0000
  Mg  Mg20      1.0  0.85155  0.36136  0.60067  1.0000
  C  Sn41      1.0  0.84532  0.77904  0.84846  1.0000
  C   C61       1.0  0.89982  0.82570  0.76033  1.0000
  C  Sn42      1.0  0.92427  0.81839  0.61640  1.0000
  C  Sn43      1.0  0.89361  0.76331  0.55930  1.0000
  C   C62       1.0  0.83914  0.71669  0.64739  1.0000
  C  Sn44      1.0  0.81465  0.72395  0.79136  1.0000
  O  Te41      1.0  0.82170  0.78734  0.99203  1.0000
  O  Te42      1.0  0.97883  0.86568  0.53042  1.0000
  O  Te43      1.0  0.91728  0.75504  0.41561  1.0000
  O  Te44      1.0  0.76013  0.67671  0.87729  1.0000
  Mg  Mg21      1.0  0.99281  0.83269  0.34146  1.0000
  Mg  Mg22      1.0  0.79168  0.78132  0.06621  1.0000
  C  Sn45      1.0  0.76526  0.51421  0.65266  1.0000
  C   C63       1.0  0.74446  0.54488  0.73626  1.0000
  C  Sn46      1.0  0.69448  0.51295  0.85831  1.0000
  C  Sn47      1.0  0.66468  0.44905  0.89772  1.0000
  C   C64       1.0  0.68548  0.41842  0.81417  1.0000
  C  Sn48      1.0  0.73546  0.45031  0.69207  1.0000
  O  Te45      1.0  0.81532  0.54705  0.53110  1.0000
  O  Te46      1.0  0.67451  0.54461  0.94015  1.0000
  O  Te47      1.0  0.66017  0.48788  0.01939  1.0000
  O  Te48      1.0  0.75544  0.41869  0.61028  1.0000
  Mg  Mg23      1.0  0.65002  0.55137  0.09636  1.0000
  Mg  Mg24      1.0  0.82552  0.48353  0.45412  1.0000
