data_image0
_chemical_formula_structural       H56C80N10O2C2Sn2C2HTe2HMgC2Sn2C2HTe2HMgC2Sn2C2HTe2HMgC2Sn2C2HTe2HMgC2Sn2C2HTe2HMgC2Sn2C2HTe2HMg
_chemical_formula_sum              "H68 C104 N10 O2 Sn12 Te12 Mg6"
_cell_length_a       26.1384
_cell_length_b       25.689
_cell_length_c       7.94938
_cell_angle_alpha    79.0483
_cell_angle_beta     96.4953
_cell_angle_gamma    120.41

_symmetry_space_group_name_H-M    'P1'
_space_group_IT_number       1

loop_
  _space_group_symop_operation_xyz
  'x, y, z'

loop_
  _atom_site_type_symbol
  _atom_site_label
  _atom_site_symmetry_multiplicity
  _atom_site_fract_x
  _atom_site_fract_y
  _atom_site_fract_z
  _atom_site_occupancy
  H   H1        1.0  0.15910  0.01292  0.43163  1.0000
  H   H2        1.0  0.26670  0.07333  0.38495  1.0000
  H   H3        1.0  0.24059  0.19856  0.99331  1.0000
  H   H4        1.0  0.13172  0.13588  0.03529  1.0000
  H   H5        1.0  0.33896  0.10248  0.22540  1.0000
  H   H6        1.0  0.54541  0.18225  0.29024  1.0000
  H   H7        1.0  0.43602  0.11869  0.30379  1.0000
  H   H8        1.0  0.62887  0.22642  0.12014  1.0000
  H   H9        1.0  0.01489  0.15038  0.14535  1.0000
  H   H10       1.0  0.96286  0.20732  0.13986  1.0000
  H   H11       1.0  0.82663  0.05493  0.45514  1.0000
  H   H12       1.0  0.87943  0.99708  0.46436  1.0000
  H   H13       1.0  0.89114  0.22374  0.06412  1.0000
  H   H14       1.0  0.75747  0.15818  0.33347  1.0000
  H   H15       1.0  0.69219  0.20338  0.31913  1.0000
  H   H16       1.0  0.80913  0.35255  0.48121  1.0000
  H   H17       1.0  0.87718  0.31339  0.98605  1.0000
  H   H18       1.0  0.78083  0.40278  0.16269  1.0000
  H   H19       1.0  0.77791  0.67704  0.12342  1.0000
  H   H20       1.0  0.83542  0.57632  0.36927  1.0000
  H   H21       1.0  0.79228  0.46648  0.34211  1.0000
  H   H22       1.0  0.65546  0.47577  0.00440  1.0000
  H   H23       1.0  0.69876  0.58469  0.03153  1.0000
  H   H24       1.0  0.60520  0.37870  0.14250  1.0000
  H   H25       1.0  0.01353  0.66108  0.46336  1.0000
  H   H26       1.0  0.13432  0.72759  0.53652  1.0000
  H   H27       1.0  0.08264  0.86414  0.05355  1.0000
  H   H28       1.0  0.16300  0.93218  0.32375  1.0000
  H   H29       1.0  0.20361  0.87003  0.45543  1.0000
  H   H30       1.0  0.06783  0.11279  0.25175  1.0000
  H   H31       1.0  0.90301  0.94460  0.34911  1.0000
  H   H32       1.0  0.11390  0.96923  0.17945  1.0000
  H   H33       1.0  0.33480  0.10550  0.70184  1.0000
  H   H34       1.0  0.41773  0.26249  0.97746  1.0000
  H   H35       1.0  0.52776  0.32521  0.95606  1.0000
  H   H36       1.0  0.62443  0.22429  0.61882  1.0000
  H   H37       1.0  0.87818  0.21018  0.57015  1.0000
  H   H38       1.0  0.74976  0.15299  0.85436  1.0000
  H   H39       1.0  0.68639  0.20098  0.83199  1.0000
  H   H40       1.0  0.81335  0.35950  0.97596  1.0000
  H   H41       1.0  0.87025  0.30297  0.49574  1.0000
  H   H42       1.0  0.77866  0.39867  0.66287  1.0000
  H   H43       1.0  0.77636  0.67462  0.63197  1.0000
  H   H44       1.0  0.60498  0.37979  0.63416  1.0000
  H   H45       1.0  0.02440  0.66597  0.96710  1.0000
  H   H46       1.0  0.14514  0.73662  0.03303  1.0000
  H   H47       1.0  0.08341  0.86729  0.55576  1.0000
  H   H48       1.0  0.16816  0.94099  0.80622  1.0000
  H   H49       1.0  0.20751  0.87954  0.95476  1.0000
  H   H50       1.0  0.06411  0.11220  0.75595  1.0000
  H   H51       1.0  0.90181  0.94151  0.85899  1.0000
  H   H52       1.0  0.11294  0.97139  0.67415  1.0000
  H   H53       1.0  0.18590  0.93084  0.61320  1.0000
  H   H54       1.0  0.21564  0.86103  0.75900  1.0000
  H   H55       1.0  0.18465  0.92864  0.12665  1.0000
  H   H56       1.0  0.20786  0.85101  0.25583  1.0000
  C   C1        1.0  0.13649  0.06812  0.23241  1.0000
  C   C2        1.0  0.17652  0.05200  0.32963  1.0000
  C   C3        1.0  0.23718  0.08590  0.30292  1.0000
  C   C4        1.0  0.26133  0.13876  0.17761  1.0000
  C   C5        1.0  0.22217  0.15752  0.08866  1.0000
  C   C6        1.0  0.16136  0.12262  0.11391  1.0000
  C   C7        1.0  0.07181  0.03203  0.25647  1.0000
  C   C8        1.0  0.35578  0.15091  0.17079  1.0000
  C   C9        1.0  0.41945  0.18694  0.14483  1.0000
  C   C10       1.0  0.44618  0.24557  0.04590  1.0000
  C   C11       1.0  0.50750  0.28044  0.03538  1.0000
  C   C12       1.0  0.54450  0.25874  0.12464  1.0000
  C   C13       1.0  0.51761  0.19939  0.21818  1.0000
  C   C14       1.0  0.45615  0.16390  0.22673  1.0000
  C   C15       1.0  0.60955  0.29821  0.12835  1.0000
  C   C16       1.0  0.64748  0.27428  0.13158  1.0000
  C   C17       1.0  0.04192  0.06331  0.26304  1.0000
  C   C18       1.0  0.95078  0.06813  0.30128  1.0000
  C   C19       1.0  0.97380  0.12890  0.21494  1.0000
  C   C20       1.0  0.94395  0.16103  0.20975  1.0000
  C   C21       1.0  0.88895  0.13386  0.29079  1.0000
  C   C22       1.0  0.86738  0.07461  0.38503  1.0000
  C   C23       1.0  0.89706  0.04239  0.38859  1.0000
  C   C24       1.0  0.98081  0.03364  0.29589  1.0000
  C   C25       1.0  0.85958  0.20554  0.16874  1.0000
  C   C26       1.0  0.82204  0.23276  0.16292  1.0000
  C   C27       1.0  0.76889  0.20196  0.25444  1.0000
  C   C28       1.0  0.73250  0.22724  0.24482  1.0000
  C   C29       1.0  0.74816  0.28491  0.14697  1.0000
  C   C30       1.0  0.80141  0.31585  0.05662  1.0000
  C   C31       1.0  0.83722  0.28975  0.06194  1.0000
  C   C32       1.0  0.70933  0.31147  0.14270  1.0000
  C   C33       1.0  0.73298  0.37356  0.15240  1.0000
  C   C34       1.0  0.95023  0.96904  0.32346  1.0000
  C   C35       1.0  0.97639  0.93409  0.31593  1.0000
  C   C36       1.0  0.79518  0.65185  0.21661  1.0000
  C   C37       1.0  0.77012  0.58767  0.20241  1.0000
  C   C38       1.0  0.79644  0.55361  0.28850  1.0000
  C   C39       1.0  0.77240  0.49272  0.27164  1.0000
  C   C40       1.0  0.72096  0.46321  0.17052  1.0000
  C   C41       1.0  0.69430  0.49715  0.08677  1.0000
  C   C42       1.0  0.71889  0.55853  0.10111  1.0000
  C   C43       1.0  0.69605  0.39866  0.15169  1.0000
  C   C44       1.0  0.63446  0.36046  0.13753  1.0000
  C   C45       1.0  0.03927  0.96524  0.27698  1.0000
  C   C46       1.0  0.04484  0.70834  0.41634  1.0000
  C   C47       1.0  0.10509  0.74033  0.45529  1.0000
  C   C48       1.0  0.07548  0.79890  0.28139  1.0000
  C   C49       1.0  0.09094  0.86147  0.19236  1.0000
  C   C50       1.0  0.15810  0.90053  0.24003  1.0000
  C   C51       1.0  0.17929  0.85589  0.33559  1.0000
  C   C52       1.0  0.07090  0.93906  0.23734  1.0000
  C   C53       1.0  0.06998  0.03265  0.75776  1.0000
  C   C54       1.0  0.35240  0.15441  0.65203  1.0000
  C   C55       1.0  0.60692  0.29784  0.62243  1.0000
  C   C56       1.0  0.64370  0.27232  0.62941  1.0000
  C   C57       1.0  0.03911  0.06266  0.76797  1.0000
  C   C58       1.0  0.97820  0.03150  0.80480  1.0000
  C   C59       1.0  0.84974  0.19539  0.68107  1.0000
  C   C60       1.0  0.81404  0.22453  0.67675  1.0000
  C   C61       1.0  0.76169  0.19618  0.77116  1.0000
  C   C62       1.0  0.72651  0.22306  0.75748  1.0000
  C   C63       1.0  0.74324  0.28015  0.65440  1.0000
  C   C64       1.0  0.79634  0.30915  0.56427  1.0000
  C   C65       1.0  0.83056  0.28119  0.57228  1.0000
  C   C66       1.0  0.70559  0.30830  0.64392  1.0000
  C   C67       1.0  0.73067  0.37073  0.65134  1.0000
  C   C68       1.0  0.94895  0.96696  0.83226  1.0000
  C   C69       1.0  0.97621  0.93331  0.82204  1.0000
  C   C70       1.0  0.79540  0.65012  0.72052  1.0000
  C   C71       1.0  0.69502  0.39743  0.64739  1.0000
  C   C72       1.0  0.63330  0.36033  0.63103  1.0000
  C   C73       1.0  0.03880  0.96586  0.77976  1.0000
  C   C74       1.0  0.05412  0.71362  0.91902  1.0000
  C   C75       1.0  0.11444  0.74772  0.95427  1.0000
  C   C76       1.0  0.08106  0.80337  0.78264  1.0000
  C   C77       1.0  0.09376  0.86513  0.69367  1.0000
  C   C78       1.0  0.16147  0.90611  0.73199  1.0000
  C   C79       1.0  0.18480  0.86413  0.83427  1.0000
  C   C80       1.0  0.07115  0.94071  0.73825  1.0000
  N   N1        1.0  0.32124  0.17431  0.13689  1.0000
  N   N2        1.0  0.85404  0.16099  0.28831  1.0000
  N   N3        1.0  0.83581  0.67667  0.33100  1.0000
  N   N4        1.0  0.12377  0.79865  0.36840  1.0000
  N   N5        1.0  0.02680  0.74491  0.30720  1.0000
  N   N6        1.0  0.31818  0.17822  0.62157  1.0000
  N   N7        1.0  0.84595  0.15265  0.80454  1.0000
  N   N8        1.0  0.83747  0.67566  0.83065  1.0000
  N   N9        1.0  0.13078  0.80541  0.86628  1.0000
  N   N10       1.0  0.03374  0.74840  0.81141  1.0000
  O   O1        1.0  0.05224  0.87840  0.25924  1.0000
  O   O2        1.0  0.05494  0.88058  0.76697  1.0000
  C   C81       1.0  0.92879  0.77471  0.96226  1.0000
  C   C82       1.0  0.87573  0.74296  0.87223  1.0000
  C  Sn1       1.0  0.85288  0.77478  0.75684  1.0000
  C  Sn2       1.0  0.88383  0.83960  0.73135  1.0000
  C   C83       1.0  0.93689  0.87094  0.82195  1.0000
  C   C84       1.0  0.95935  0.83864  0.93714  1.0000
  H   H57       1.0  0.93925  0.80494  0.05132  1.0000
  O  Te1       1.0  0.79980  0.74234  0.66799  1.0000
  O  Te2       1.0  0.86199  0.87255  0.61676  1.0000
  H   H58       1.0  0.99352  0.91846  0.00675  1.0000
  Mg  Mg1       1.0  0.78794  0.80774  0.52575  1.0000
  C   C85       1.0  0.49114  0.28160  0.51221  1.0000
  C   C86       1.0  0.53359  0.26757  0.59625  1.0000
  C  Sn3       1.0  0.51600  0.21051  0.69652  1.0000
  C  Sn4       1.0  0.45474  0.16677  0.71267  1.0000
  C   C87       1.0  0.41262  0.18124  0.62799  1.0000
  C   C88       1.0  0.43071  0.23848  0.52803  1.0000
  H   H59       1.0  0.50514  0.32588  0.43479  1.0000
  O  Te3       1.0  0.55899  0.19725  0.77966  1.0000
  O  Te4       1.0  0.43593  0.10939  0.81202  1.0000
  H   H60       1.0  0.39784  0.24931  0.46289  1.0000
  Mg  Mg2       1.0  0.51132  0.11282  0.90052  1.0000
  C   C89       1.0  0.69334  0.51061  0.57643  1.0000
  C   C90       1.0  0.71483  0.47051  0.63911  1.0000
  C  Sn5       1.0  0.76508  0.48866  0.74677  1.0000
  C  Sn6       1.0  0.79424  0.54810  0.79235  1.0000
  C   C91       1.0  0.77237  0.58787  0.72907  1.0000
  C   C92       1.0  0.72207  0.56924  0.62138  1.0000
  H   H61       1.0  0.65441  0.49619  0.49318  1.0000
  O  Te5       1.0  0.78597  0.44803  0.80820  1.0000
  O  Te6       1.0  0.84453  0.56742  0.89980  1.0000
  H   H62       1.0  0.70542  0.60029  0.57297  1.0000
  Mg  Mg3       1.0  0.85608  0.49551  0.95080  1.0000
  C   C93       1.0  0.20271  0.15610  0.56344  1.0000
  C   C94       1.0  0.24959  0.15110  0.65315  1.0000
  C  Sn7       1.0  0.23816  0.10229  0.78497  1.0000
  C  Sn8       1.0  0.17865  0.05772  0.82744  1.0000
  C   C95       1.0  0.13207  0.06310  0.73685  1.0000
  C   C96       1.0  0.14401  0.11214  0.60521  1.0000
  H   H63       1.0  0.21194  0.19402  0.46153  1.0000
  O  Te7       1.0  0.28551  0.09800  0.87334  1.0000
  O  Te8       1.0  0.16597  0.00845  0.95858  1.0000
  H   H64       1.0  0.10771  0.11598  0.53570  1.0000
  Mg  Mg4       1.0  0.23869  0.07775  0.04185  1.0000
  C   C97       1.0  0.84839  0.79630  0.23002  1.0000
  C   C98       1.0  0.85694  0.74830  0.31471  1.0000
  C  Sn9       1.0  0.90611  0.76003  0.42398  1.0000
  C  Sn10      1.0  0.94740  0.82098  0.44870  1.0000
  C   C99       1.0  0.93842  0.86867  0.36348  1.0000
  C   C100      1.0  0.88908  0.85643  0.25438  1.0000
  H   H65       1.0  0.81019  0.78683  0.14568  1.0000
  O  Te9       1.0  0.91399  0.71154  0.50754  1.0000
  O  Te10      1.0  0.99691  0.83398  0.55724  1.0000
  H   H66       1.0  0.88245  0.89359  0.18891  1.0000
  Mg  Mg5       1.0  0.98837  0.75242  0.64251  1.0000
  C   C101      1.0  0.96548  0.13786  0.70583  1.0000
  C   C102      1.0  0.95453  0.08118  0.79717  1.0000
  C  Sn11      1.0  0.90371  0.04480  0.89570  1.0000
  C  Sn12      1.0  0.86316  0.06568  0.90262  1.0000
  C   C103      1.0  0.87450  0.12244  0.81068  1.0000
  C   C104      1.0  0.92550  0.15848  0.71254  1.0000
  H   H67       1.0  0.00492  0.16574  0.62982  1.0000
  O  Te11      1.0  0.89346  0.98830  0.98622  1.0000
  O  Te12      1.0  0.80508  0.08545  0.00004  1.0000
  H   H68       1.0  0.93394  0.20234  0.64174  1.0000
  Mg  Mg6       1.0  0.81060  0.01177  0.10093  1.0000
