data_image0
_chemical_formula_structural       H32C44N10O2SnCSn2CSnTe4Mg2SnCSn2CSnTe4Mg2SnCSn2CSnTe4Mg2SnCSn2CSnTe4Mg2SnCSn2CSnTe4Mg2SnCSn2CSnTe4Mg2SnCSn2CSnTe4Mg2SnCSn2CSnTe4Mg2SnCSn2CSnTe4Mg2SnCSn2CSnTe4Mg2SnCSn2CSnTe4Mg2SnCSn2CSnTe4Mg2
_chemical_formula_sum              "H32 C68 N10 O2 Sn48 Te48 Mg24"
_cell_length_a       26.1384
_cell_length_b       25.689
_cell_length_c       7.94938
_cell_angle_alpha    79.0483
_cell_angle_beta     96.4953
_cell_angle_gamma    120.41

_symmetry_space_group_name_H-M    'P1'
_space_group_IT_number       1

loop_
  _space_group_symop_operation_xyz
  'x, y, z'

loop_
  _atom_site_type_symbol
  _atom_site_label
  _atom_site_symmetry_multiplicity
  _atom_site_fract_x
  _atom_site_fract_y
  _atom_site_fract_z
  _atom_site_occupancy
  H   H1        1.0  0.33896  0.10248  0.22540  1.0000
  H   H2        1.0  0.62887  0.22642  0.12014  1.0000
  H   H3        1.0  0.89114  0.22374  0.06412  1.0000
  H   H4        1.0  0.78083  0.40278  0.16269  1.0000
  H   H5        1.0  0.77791  0.67704  0.12342  1.0000
  H   H6        1.0  0.60520  0.37870  0.14250  1.0000
  H   H7        1.0  0.01353  0.66108  0.46336  1.0000
  H   H8        1.0  0.13432  0.72759  0.53652  1.0000
  H   H9        1.0  0.08264  0.86414  0.05355  1.0000
  H   H10       1.0  0.16300  0.93218  0.32375  1.0000
  H   H11       1.0  0.20361  0.87003  0.45543  1.0000
  H   H12       1.0  0.06783  0.11279  0.25175  1.0000
  H   H13       1.0  0.90301  0.94460  0.34911  1.0000
  H   H14       1.0  0.11390  0.96923  0.17945  1.0000
  H   H15       1.0  0.33480  0.10550  0.70184  1.0000
  H   H16       1.0  0.62443  0.22429  0.61882  1.0000
  H   H17       1.0  0.87818  0.21018  0.57015  1.0000
  H   H18       1.0  0.77866  0.39867  0.66287  1.0000
  H   H19       1.0  0.77636  0.67462  0.63197  1.0000
  H   H20       1.0  0.60498  0.37979  0.63416  1.0000
  H   H21       1.0  0.02440  0.66597  0.96710  1.0000
  H   H22       1.0  0.14514  0.73662  0.03303  1.0000
  H   H23       1.0  0.08341  0.86729  0.55576  1.0000
  H   H24       1.0  0.16816  0.94099  0.80622  1.0000
  H   H25       1.0  0.20751  0.87954  0.95476  1.0000
  H   H26       1.0  0.06411  0.11220  0.75595  1.0000
  H   H27       1.0  0.90181  0.94151  0.85899  1.0000
  H   H28       1.0  0.11294  0.97139  0.67415  1.0000
  H   H29       1.0  0.18590  0.93084  0.61320  1.0000
  H   H30       1.0  0.21564  0.86103  0.75900  1.0000
  H   H31       1.0  0.18465  0.92864  0.12665  1.0000
  H   H32       1.0  0.20786  0.85101  0.25583  1.0000
  C   C1        1.0  0.07181  0.03203  0.25647  1.0000
  C   C2        1.0  0.35578  0.15091  0.17079  1.0000
  C   C3        1.0  0.60955  0.29821  0.12835  1.0000
  C   C4        1.0  0.64748  0.27428  0.13158  1.0000
  C   C5        1.0  0.04192  0.06331  0.26304  1.0000
  C   C6        1.0  0.98081  0.03364  0.29589  1.0000
  C   C7        1.0  0.85958  0.20554  0.16874  1.0000
  C   C8        1.0  0.70933  0.31147  0.14270  1.0000
  C   C9        1.0  0.73298  0.37356  0.15240  1.0000
  C   C10       1.0  0.95023  0.96904  0.32346  1.0000
  C   C11       1.0  0.97639  0.93409  0.31593  1.0000
  C   C12       1.0  0.79518  0.65185  0.21661  1.0000
  C   C13       1.0  0.69605  0.39866  0.15169  1.0000
  C   C14       1.0  0.63446  0.36046  0.13753  1.0000
  C   C15       1.0  0.03927  0.96524  0.27698  1.0000
  C   C16       1.0  0.04484  0.70834  0.41634  1.0000
  C   C17       1.0  0.10509  0.74033  0.45529  1.0000
  C   C18       1.0  0.07548  0.79890  0.28139  1.0000
  C   C19       1.0  0.09094  0.86147  0.19236  1.0000
  C   C20       1.0  0.15810  0.90053  0.24003  1.0000
  C   C21       1.0  0.17929  0.85589  0.33559  1.0000
  C   C22       1.0  0.07090  0.93906  0.23734  1.0000
  C   C23       1.0  0.06998  0.03265  0.75776  1.0000
  C   C24       1.0  0.35240  0.15441  0.65203  1.0000
  C   C25       1.0  0.60692  0.29784  0.62243  1.0000
  C   C26       1.0  0.64370  0.27232  0.62941  1.0000
  C   C27       1.0  0.03911  0.06266  0.76797  1.0000
  C   C28       1.0  0.97820  0.03150  0.80480  1.0000
  C   C29       1.0  0.84974  0.19539  0.68107  1.0000
  C   C30       1.0  0.70559  0.30830  0.64392  1.0000
  C   C31       1.0  0.73067  0.37073  0.65134  1.0000
  C   C32       1.0  0.94895  0.96696  0.83226  1.0000
  C   C33       1.0  0.97621  0.93331  0.82204  1.0000
  C   C34       1.0  0.79540  0.65012  0.72052  1.0000
  C   C35       1.0  0.69502  0.39743  0.64739  1.0000
  C   C36       1.0  0.63330  0.36033  0.63103  1.0000
  C   C37       1.0  0.03880  0.96586  0.77976  1.0000
  C   C38       1.0  0.05412  0.71362  0.91902  1.0000
  C   C39       1.0  0.11444  0.74772  0.95427  1.0000
  C   C40       1.0  0.08106  0.80337  0.78264  1.0000
  C   C41       1.0  0.09376  0.86513  0.69367  1.0000
  C   C42       1.0  0.16147  0.90611  0.73199  1.0000
  C   C43       1.0  0.18480  0.86413  0.83427  1.0000
  C   C44       1.0  0.07115  0.94071  0.73825  1.0000
  N   N1        1.0  0.32124  0.17431  0.13689  1.0000
  N   N2        1.0  0.85404  0.16099  0.28831  1.0000
  N   N3        1.0  0.83581  0.67667  0.33100  1.0000
  N   N4        1.0  0.12377  0.79865  0.36840  1.0000
  N   N5        1.0  0.02680  0.74491  0.30720  1.0000
  N   N6        1.0  0.31818  0.17822  0.62157  1.0000
  N   N7        1.0  0.84595  0.15265  0.80454  1.0000
  N   N8        1.0  0.83747  0.67566  0.83065  1.0000
  N   N9        1.0  0.13078  0.80541  0.86628  1.0000
  N   N10       1.0  0.03374  0.74840  0.81141  1.0000
  O   O1        1.0  0.05224  0.87840  0.25924  1.0000
  O   O2        1.0  0.05494  0.88058  0.76697  1.0000
  C  Sn1       1.0  0.20995  0.16297  0.12006  1.0000
  C   C45       1.0  0.25452  0.15232  0.20376  1.0000
  C  Sn2       1.0  0.24029  0.09513  0.29823  1.0000
  C  Sn3       1.0  0.18026  0.04758  0.30918  1.0000
  C   C46       1.0  0.13573  0.05825  0.22549  1.0000
  C  Sn4       1.0  0.14992  0.11543  0.13101  1.0000
  O  Te1       1.0  0.22520  0.22050  0.02633  1.0000
  O  Te2       1.0  0.28561  0.08558  0.38085  1.0000
  O  Te3       1.0  0.16504  0.99003  0.40301  1.0000
  O  Te4       1.0  0.10464  0.12499  0.04840  1.0000
  Mg  Mg1       1.0  0.24254  0.99935  0.49289  1.0000
  Mg  Mg2       1.0  0.15459  0.15596  0.93625  1.0000
  C  Sn5       1.0  0.46974  0.17553  0.27383  1.0000
  C   C47       1.0  0.42708  0.18919  0.18963  1.0000
  C  Sn6       1.0  0.44292  0.23729  0.05303  1.0000
  C  Sn7       1.0  0.50959  0.21723  0.99940  1.0000
  C   C48       1.0  0.54528  0.25878  0.08356  1.0000
  C  Sn8       1.0  0.52947  0.21069  0.22019  1.0000
  O  Te5       1.0  0.45291  0.12723  0.41007  1.0000
  O  Te6       1.0  0.40642  0.19488  0.97088  1.0000
  O  Te7       1.0  0.52640  0.26556  0.86305  1.0000
  O  Te8       1.0  0.57286  0.19787  0.30230  1.0000
  Mg  Mg3       1.0  0.45119  0.26522  0.79179  1.0000
  Mg  Mg4       1.0  0.52814  0.12753  0.48134  1.0000
  C  Sn9       1.0  0.97975  0.14596  0.24982  1.0000
  C   C49       1.0  0.96273  0.08619  0.32841  1.0000
  C  Sn10      1.0  0.90463  0.04642  0.38342  1.0000
  C  Sn11      1.0  0.86264  0.06680  0.35928  1.0000
  C   C50       1.0  0.87966  0.12654  0.28070  1.0000
  C  Sn12      1.0  0.93776  0.16635  0.22567  1.0000
  O  Te9       1.0  0.03807  0.18493  0.19582  1.0000
  O  Te10      1.0  0.88867  0.98687  0.46171  1.0000
  O  Te11      1.0  0.80428  0.02777  0.41335  1.0000
  O  Te12      1.0  0.95372  0.22586  0.14740  1.0000
  Mg  Mg5       1.0  0.30137  0.95089  0.51324  1.0000
  Mg  Mg6       1.0  0.03847  0.26187  0.09575  1.0000
  C  Sn13      1.0  0.74948  0.19532  0.21990  1.0000
  C   C51       1.0  0.80385  0.22031  0.14077  1.0000
  C  Sn14      1.0  0.83455  0.28228  0.07220  1.0000
  C  Sn15      1.0  0.81042  0.32007  0.08304  1.0000
  C   C52       1.0  0.75609  0.29508  0.16216  1.0000
  C  Sn16      1.0  0.72535  0.23311  0.23074  1.0000
  O  Te13      1.0  0.71956  0.13325  0.28757  1.0000
  O  Te14      1.0  0.89577  0.25100  0.99365  1.0000
  O  Te15      1.0  0.84040  0.38218  0.01528  1.0000
  O  Te16      1.0  0.67111  0.20917  0.30927  1.0000
  Mg  Mg7       1.0  0.91979  0.33828  0.92077  1.0000
  Mg  Mg8       1.0  0.64706  0.12191  0.38227  1.0000
  C  Sn17      1.0  0.86044  0.79505  0.19635  1.0000
  C   C53       1.0  0.86689  0.74758  0.29595  1.0000
  C  Sn18      1.0  0.90644  0.75886  0.43602  1.0000
  C  Sn19      1.0  0.94022  0.81883  0.47749  1.0000
  C   C54       1.0  0.93376  0.86626  0.37795  1.0000
  C  Sn20      1.0  0.89423  0.85502  0.23782  1.0000
  O  Te17      1.0  0.82064  0.78272  0.05691  1.0000
  O  Te18      1.0  0.91213  0.71068  0.53365  1.0000
  O  Te19      1.0  0.98005  0.83113  0.61706  1.0000
  O  Te20      1.0  0.88852  0.90316  0.14025  1.0000
  Mg  Mg9       1.0  0.97215  0.75037  0.71122  1.0000
  Mg  Mg10      1.0  0.83544  0.80830  0.96271  1.0000
  C  Sn21      1.0  0.70671  0.51522  0.04150  1.0000
  C   C55       1.0  0.72580  0.47457  0.12250  1.0000
  C  Sn22      1.0  0.76539  0.48892  0.26231  1.0000
  C  Sn23      1.0  0.78631  0.54504  0.32251  1.0000
  C   C56       1.0  0.76721  0.58565  0.24155  1.0000
  C  Sn24      1.0  0.72763  0.57134  0.10170  1.0000
  O  Te21      1.0  0.67404  0.44471  0.90195  1.0000
  O  Te22      1.0  0.78385  0.44756  0.34115  1.0000
  O  Te23      1.0  0.82593  0.56030  0.46217  1.0000
  O  Te24      1.0  0.70916  0.61266  0.02290  1.0000
  Mg  Mg11      1.0  0.83814  0.48900  0.52684  1.0000
  Mg  Mg12      1.0  0.66178  0.51603  0.83727  1.0000
  C  Sn25      1.0  0.22214  0.06957  0.77310  1.0000
  C   C57       1.0  0.25175  0.12316  0.65641  1.0000
  C  Sn26      1.0  0.22304  0.15543  0.58063  1.0000
  C  Sn27      1.0  0.16349  0.13370  0.62243  1.0000
  C   C58       1.0  0.13392  0.08016  0.73907  1.0000
  C  Sn28      1.0  0.16260  0.04785  0.81490  1.0000
  O  Te25      1.0  0.25172  0.03806  0.84731  1.0000
  O  Te26      1.0  0.25355  0.20887  0.46429  1.0000
  O  Te27      1.0  0.13392  0.16527  0.54810  1.0000
  O  Te28      1.0  0.13212  0.99445  0.93119  1.0000
  Mg  Mg13      1.0  0.19426  0.23575  0.39711  1.0000
  Mg  Mg14      1.0  0.19137  0.96755  0.99851  1.0000
  C  Sn29      1.0  0.50050  0.18242  0.67037  1.0000
  C   C59       1.0  0.53525  0.24268  0.59120  1.0000
  C  Sn30      1.0  0.51011  0.27996  0.53697  1.0000
  C  Sn31      1.0  0.44895  0.25654  0.56249  1.0000
  C   C60       1.0  0.41424  0.19632  0.64164  1.0000
  C  Sn32      1.0  0.43934  0.15900  0.69589  1.0000
  O  Te29      1.0  0.52657  0.14597  0.72357  1.0000
  O  Te30      1.0  0.54575  0.34004  0.45808  1.0000
  O  Te31      1.0  0.42290  0.29305  0.50921  1.0000
  O  Te32      1.0  0.40374  0.09896  0.77476  1.0000
  Mg  Mg15      1.0  0.48979  0.37184  0.40806  1.0000
  Mg  Mg16      1.0  0.45966  0.06712  0.82492  1.0000
  C  Sn33      1.0  0.87458  0.06462  0.94914  1.0000
  C   C61       1.0  0.88748  0.12224  0.86060  1.0000
  C  Sn34      1.0  0.92893  0.15101  0.72992  1.0000
  C  Sn35      1.0  0.95807  0.12156  0.68676  1.0000
  C   C62       1.0  0.94516  0.06397  0.77525  1.0000
  C  Sn36      1.0  0.90372  0.03516  0.90597  1.0000
  O  Te33      1.0  0.82605  0.09192  0.07931  1.0000
  O  Te34      1.0  0.94110  0.20864  0.64327  1.0000
  O  Te35      1.0  0.99969  0.14953  0.55647  1.0000
  O  Te36      1.0  0.89154  0.97758  0.99258  1.0000
  Mg  Mg17      1.0  0.00118  0.22806  0.47559  1.0000
  Mg  Mg18      1.0  0.82451  0.01331  0.16021  1.0000
  C  Sn37      1.0  0.74229  0.18960  0.73658  1.0000
  C   C63       1.0  0.79641  0.21262  0.65804  1.0000
  C  Sn38      1.0  0.82808  0.27407  0.58512  1.0000
  C  Sn39      1.0  0.80522  0.31334  0.59091  1.0000
  C   C64       1.0  0.75114  0.29032  0.66944  1.0000
  C  Sn40      1.0  0.71942  0.22887  0.74237  1.0000
  O  Te37      1.0  0.71138  0.12801  0.80866  1.0000
  O  Te38      1.0  0.88208  0.29603  0.50725  1.0000
  O  Te39      1.0  0.83618  0.37497  0.51874  1.0000
  O  Te40      1.0  0.66547  0.20691  0.82023  1.0000
  Mg  Mg19      1.0  0.90778  0.38338  0.42717  1.0000
  Mg  Mg20      1.0  0.63975  0.11958  0.90042  1.0000
  C  Sn41      1.0  0.86496  0.82901  0.76711  1.0000
  C   C65       1.0  0.91798  0.85964  0.85850  1.0000
  C  Sn42      1.0  0.94811  0.82916  0.93709  1.0000
  C  Sn43      1.0  0.92479  0.76676  0.92399  1.0000
  C   C66       1.0  0.87181  0.73617  0.83262  1.0000
  C  Sn44      1.0  0.84163  0.76662  0.75400  1.0000
  O  Te41      1.0  0.83558  0.86040  0.68955  1.0000
  O  Te42      1.0  0.99410  0.91596  0.02782  1.0000
  O  Te43      1.0  0.94728  0.79061  0.00165  1.0000
  O  Te44      1.0  0.78875  0.73507  0.66330  1.0000
  Mg  Mg21      1.0  0.01784  0.85338  0.11107  1.0000
  Mg  Mg22      1.0  0.76499  0.79760  0.57993  1.0000
  C  Sn45      1.0  0.80520  0.54363  0.75083  1.0000
  C   C67       1.0  0.78447  0.58380  0.67972  1.0000
  C  Sn46      1.0  0.72707  0.56157  0.60974  1.0000
  C  Sn47      1.0  0.68958  0.49785  0.61094  1.0000
  C   C68       1.0  0.71031  0.45772  0.68204  1.0000
  C  Sn48      1.0  0.76772  0.47992  0.75203  1.0000
  O  Te45      1.0  0.86274  0.56686  0.82009  1.0000
  O  Te46      1.0  0.70734  0.60262  0.53932  1.0000
  O  Te47      1.0  0.63200  0.47464  0.54160  1.0000
  O  Te48      1.0  0.78744  0.43890  0.82244  1.0000
  Mg  Mg23      1.0  0.62538  0.54881  0.46052  1.0000
  Mg  Mg24      1.0  0.86937  0.49265  0.90136  1.0000
