data_image0
_chemical_formula_structural       H60C76N8O2SnCSn2CSnTe4Mg2SnCSn2CSnTe4Mg2SnCSn2CSnTe4Mg2SnCSn2CSnTe4Mg2SnCSn2CSnTe4Mg2SnCSn2CSnTe4Mg2
_chemical_formula_sum              "H60 C88 N8 O2 Sn24 Te24 Mg12"
_cell_length_a       25.8315
_cell_length_b       25.9599
_cell_length_c       8.15216
_cell_angle_alpha    80.9477
_cell_angle_beta     88.1349
_cell_angle_gamma    119.368

_symmetry_space_group_name_H-M    'P1'
_space_group_IT_number       1

loop_
  _space_group_symop_operation_xyz
  'x, y, z'

loop_
  _atom_site_type_symbol
  _atom_site_label
  _atom_site_symmetry_multiplicity
  _atom_site_fract_x
  _atom_site_fract_y
  _atom_site_fract_z
  _atom_site_occupancy
  H   H1        1.0  0.30616  0.20043  0.09495  1.0000
  H   H2        1.0  0.57829  0.18544  0.27029  1.0000
  H   H3        1.0  0.95095  0.09768  0.15632  1.0000
  H   H4        1.0  0.88783  0.14278  0.20874  1.0000
  H   H5        1.0  0.75481  0.07883  0.03103  1.0000
  H   H6        1.0  0.68635  0.09945  0.50643  1.0000
  H   H7        1.0  0.63089  0.15463  0.49148  1.0000
  H   H8        1.0  0.76802  0.29680  0.11509  1.0000
  H   H9        1.0  0.82322  0.24008  0.12712  1.0000
  H   H10       1.0  0.73884  0.34758  0.31055  1.0000
  H   H11       1.0  0.85695  0.90006  0.28137  1.0000
  H   H12       1.0  0.82758  0.81222  0.36935  1.0000
  H   H13       1.0  0.77540  0.70560  0.34513  1.0000
  H   H14       1.0  0.91639  0.73878  0.50605  1.0000
  H   H15       1.0  0.97680  0.84568  0.03323  1.0000
  H   H16       1.0  0.83603  0.63959  0.06514  1.0000
  H   H17       1.0  0.57748  0.35224  0.23045  1.0000
  H   H18       1.0  0.09413  0.86688  0.06262  1.0000
  H   H19       1.0  0.00679  0.83279  0.29136  1.0000
  H   H20       1.0  0.05738  0.89167  0.38909  1.0000
  H   H21       1.0  0.17194  0.80763  0.36157  1.0000
  H   H22       1.0  0.15394  0.79178  0.16068  1.0000
  H   H23       1.0  0.06401  0.77823  0.25685  1.0000
  H   H24       1.0  0.24261  0.90756  0.21327  1.0000
  H   H25       1.0  0.20763  0.89334  0.02990  1.0000
  H   H26       1.0  0.16775  0.92874  0.33063  1.0000
  H   H27       1.0  0.17760  0.96181  0.11621  1.0000
  H   H28       1.0  0.76768  0.98772  0.07770  1.0000
  H   H29       1.0  0.01441  0.06881  0.28514  1.0000
  H   H30       1.0  0.82733  0.93544  0.50658  1.0000
  H   H31       1.0  0.10563  0.97910  0.89448  1.0000
  H   H32       1.0  0.21642  0.04382  0.85749  1.0000
  H   H33       1.0  0.20422  0.17668  0.50098  1.0000
  H   H34       1.0  0.09398  0.11007  0.52754  1.0000
  H   H35       1.0  0.30260  0.19877  0.59375  1.0000
  H   H36       1.0  0.57649  0.18640  0.76437  1.0000
  H   H37       1.0  0.94304  0.09384  0.63652  1.0000
  H   H38       1.0  0.88141  0.14058  0.68819  1.0000
  H   H39       1.0  0.75187  0.07085  0.52594  1.0000
  H   H40       1.0  0.73470  0.35021  0.80734  1.0000
  H   H41       1.0  0.85345  0.89910  0.79600  1.0000
  H   H42       1.0  0.82695  0.81147  0.89410  1.0000
  H   H43       1.0  0.77352  0.70457  0.87075  1.0000
  H   H44       1.0  0.92556  0.73883  0.01159  1.0000
  H   H45       1.0  0.96926  0.84604  0.52698  1.0000
  H   H46       1.0  0.82706  0.63941  0.56828  1.0000
  H   H47       1.0  0.57101  0.35054  0.73506  1.0000
  H   H48       1.0  0.08740  0.86028  0.56715  1.0000
  H   H49       1.0  0.00085  0.83254  0.79350  1.0000
  H   H50       1.0  0.05409  0.89164  0.88614  1.0000
  H   H51       1.0  0.15891  0.79790  0.88015  1.0000
  H   H52       1.0  0.14129  0.78267  0.67820  1.0000
  H   H53       1.0  0.05304  0.77335  0.77464  1.0000
  H   H54       1.0  0.23297  0.89696  0.73747  1.0000
  H   H55       1.0  0.20202  0.88290  0.54790  1.0000
  H   H56       1.0  0.16161  0.92577  0.82874  1.0000
  H   H57       1.0  0.17338  0.95486  0.61109  1.0000
  H   H58       1.0  0.76562  0.98134  0.56252  1.0000
  H   H59       1.0  0.01148  0.06958  0.78044  1.0000
  H   H60       1.0  0.82792  0.94036  0.02368  1.0000
  C   C1        1.0  0.02986  0.99948  0.22662  1.0000
  C   C2        1.0  0.28671  0.15258  0.15455  1.0000
  C   C3        1.0  0.56973  0.26483  0.24972  1.0000
  C   C4        1.0  0.60138  0.23351  0.27030  1.0000
  C   C5        1.0  0.99333  0.02260  0.26624  1.0000
  C   C6        1.0  0.89339  0.01310  0.32687  1.0000
  C   C7        1.0  0.91062  0.07240  0.24641  1.0000
  C   C8        1.0  0.87559  0.09772  0.27432  1.0000
  C   C9        1.0  0.82242  0.06508  0.38720  1.0000
  C   C10       1.0  0.80571  0.00645  0.47112  1.0000
  C   C11       1.0  0.84030  0.98054  0.43940  1.0000
  C   C12       1.0  0.93075  0.98698  0.28938  1.0000
  C   C13       1.0  0.78554  0.09212  0.41417  1.0000
  C   C14       1.0  0.75962  0.16677  0.31861  1.0000
  C   C15       1.0  0.70461  0.14263  0.42049  1.0000
  C   C16       1.0  0.67318  0.17364  0.41154  1.0000
  C   C17       1.0  0.69572  0.22997  0.30313  1.0000
  C   C18       1.0  0.75092  0.25423  0.20331  1.0000
  C   C19       1.0  0.78178  0.22282  0.20914  1.0000
  C   C20       1.0  0.66247  0.26303  0.28865  1.0000
  C   C21       1.0  0.69205  0.32496  0.28960  1.0000
  C   C22       1.0  0.90545  0.92717  0.26982  1.0000
  C   C23       1.0  0.90760  0.83800  0.20434  1.0000
  C   C24       1.0  0.84919  0.79713  0.28764  1.0000
  C   C25       1.0  0.81971  0.73665  0.27657  1.0000
  C   C26       1.0  0.84728  0.71385  0.18156  1.0000
  C   C27       1.0  0.90417  0.75461  0.09221  1.0000
  C   C28       1.0  0.93334  0.81505  0.10396  1.0000
  C   C29       1.0  0.93973  0.90156  0.22615  1.0000
  C   C30       1.0  0.81872  0.65016  0.17238  1.0000
  C   C31       1.0  0.66145  0.35733  0.27266  1.0000
  C   C32       1.0  0.60059  0.32673  0.25147  1.0000
  C   C33       1.0  0.00314  0.93899  0.20578  1.0000
  C   C34       1.0  0.15652  0.82118  0.24741  1.0000
  C   C35       1.0  0.09939  0.87027  0.19488  1.0000
  C   C36       1.0  0.16355  0.91927  0.20350  1.0000
  C   C37       1.0  0.19904  0.88835  0.16593  1.0000
  C   C38       1.0  0.04846  0.87662  0.26987  1.0000
  C   C39       1.0  0.09219  0.03869  0.70777  1.0000
  C   C40       1.0  0.12739  0.02088  0.80195  1.0000
  C   C41       1.0  0.18907  0.05734  0.78441  1.0000
  C   C42       1.0  0.21783  0.11364  0.67397  1.0000
  C   C43       1.0  0.18265  0.13305  0.58614  1.0000
  C   C44       1.0  0.12064  0.09578  0.60162  1.0000
  C   C45       1.0  0.02626  0.99929  0.72596  1.0000
  C   C46       1.0  0.28296  0.15094  0.65384  1.0000
  C   C47       1.0  0.56567  0.26430  0.74829  1.0000
  C   C48       1.0  0.59859  0.23429  0.76630  1.0000
  C   C49       1.0  0.99004  0.02292  0.76500  1.0000
  C   C50       1.0  0.89019  0.01386  0.82748  1.0000
  C   C51       1.0  0.90518  0.07105  0.73501  1.0000
  C   C52       1.0  0.87083  0.09717  0.76221  1.0000
  C   C53       1.0  0.82060  0.06776  0.88558  1.0000
  C   C54       1.0  0.80560  0.01083  0.97915  1.0000
  C   C55       1.0  0.83941  0.98395  0.94860  1.0000
  C   C56       1.0  0.92744  0.98725  0.79235  1.0000
  C   C57       1.0  0.78534  0.09657  0.91320  1.0000
  C   C58       1.0  0.65967  0.26475  0.78477  1.0000
  C   C59       1.0  0.68790  0.32652  0.78719  1.0000
  C   C60       1.0  0.90198  0.92681  0.77891  1.0000
  C   C61       1.0  0.90337  0.83740  0.71351  1.0000
  C   C62       1.0  0.84652  0.79640  0.80595  1.0000
  C   C63       1.0  0.81643  0.73592  0.79514  1.0000
  C   C64       1.0  0.84179  0.71351  0.69100  1.0000
  C   C65       1.0  0.89707  0.75452  0.59314  1.0000
  C   C66       1.0  0.92710  0.81502  0.60471  1.0000
  C   C67       1.0  0.93597  0.90112  0.73310  1.0000
  C   C68       1.0  0.81244  0.64982  0.68078  1.0000
  C   C69       1.0  0.65610  0.35765  0.77280  1.0000
  C   C70       1.0  0.59520  0.32603  0.75288  1.0000
  C   C71       1.0  0.99936  0.93860  0.70692  1.0000
  C   C72       1.0  0.14540  0.81280  0.76401  1.0000
  C   C73       1.0  0.09256  0.86563  0.69802  1.0000
  C   C74       1.0  0.15744  0.91337  0.70519  1.0000
  C   C75       1.0  0.19093  0.87923  0.68195  1.0000
  C   C76       1.0  0.04348  0.87544  0.76887  1.0000
  N   N1        1.0  0.31978  0.13009  0.20273  1.0000
  N   N2        1.0  0.79392  0.13890  0.30795  1.0000
  N   N3        1.0  0.77537  0.60900  0.28360  1.0000
  N   N4        1.0  0.09729  0.81574  0.29046  1.0000
  N   N5        1.0  0.31570  0.12819  0.70330  1.0000
  N   N6        1.0  0.79198  0.14149  0.80209  1.0000
  N   N7        1.0  0.77115  0.60837  0.79642  1.0000
  N   N8        1.0  0.08780  0.81110  0.80301  1.0000
  O   O1        1.0  0.04196  0.92063  0.15221  1.0000
  O   O2        1.0  0.03776  0.91994  0.65068  1.0000
  C  Sn1       1.0  0.42057  0.23942  0.23674  1.0000
  C   C77       1.0  0.38970  0.18847  0.16603  1.0000
  C  Sn2       1.0  0.41644  0.15501  0.13348  1.0000
  C  Sn3       1.0  0.47525  0.17282  0.17251  1.0000
  C   C78       1.0  0.50608  0.22373  0.24320  1.0000
  C  Sn4       1.0  0.47938  0.25723  0.27577  1.0000
  O  Te1       1.0  0.39296  0.27220  0.26822  1.0000
  O  Te2       1.0  0.38469  0.10425  0.06267  1.0000
  O  Te3       1.0  0.50284  0.13999  0.14096  1.0000
  O  Te4       1.0  0.51109  0.30796  0.34656  1.0000
  Mg  Mg1       1.0  0.44141  0.07426  0.04330  1.0000
  Mg  Mg2       1.0  0.45441  0.33796  0.36606  1.0000
  C  Sn5       1.0  0.68818  0.49197  0.40517  1.0000
  C   C79       1.0  0.74558  0.53679  0.32983  1.0000
  C  Sn6       1.0  0.77636  0.52560  0.20908  1.0000
  C  Sn7       1.0  0.74920  0.46843  0.16257  1.0000
  C   C80       1.0  0.69184  0.42365  0.23787  1.0000
  C  Sn8       1.0  0.66102  0.43480  0.35866  1.0000
  O  Te5       1.0  0.65823  0.50415  0.52558  1.0000
  O  Te6       1.0  0.83371  0.57111  0.13555  1.0000
  O  Te7       1.0  0.77921  0.45628  0.04206  1.0000
  O  Te8       1.0  0.60371  0.38933  0.43214  1.0000
  Mg  Mg3       1.0  0.81086  0.46112  0.97763  1.0000
  Mg  Mg4       1.0  0.58092  0.42762  0.59000  1.0000
  C  Sn9       1.0  0.68391  0.49096  0.91602  1.0000
  C   C81       1.0  0.74100  0.53602  0.83916  1.0000
  C  Sn10      1.0  0.77074  0.52569  0.71335  1.0000
  C  Sn11      1.0  0.74282  0.46913  0.66324  1.0000
  C   C82       1.0  0.68576  0.42411  0.74006  1.0000
  C  Sn12      1.0  0.65599  0.43441  0.86591  1.0000
  O  Te9       1.0  0.70061  0.57394  0.04151  1.0000
  O  Te10      1.0  0.82780  0.57143  0.63839  1.0000
  O  Te11      1.0  0.77176  0.45783  0.53765  1.0000
  O  Te12      1.0  0.59897  0.38871  0.94083  1.0000
  Mg  Mg5       1.0  0.84900  0.53433  0.47312  1.0000
  Mg  Mg6       1.0  0.62330  0.49741  0.10604  1.0000
  C  Sn13      1.0  0.41667  0.23825  0.73156  1.0000
  C   C83       1.0  0.38558  0.18633  0.66500  1.0000
  C  Sn14      1.0  0.41194  0.15200  0.63830  1.0000
  C  Sn15      1.0  0.47058  0.16992  0.67907  1.0000
  C   C84       1.0  0.50163  0.22181  0.74561  1.0000
  C  Sn16      1.0  0.47531  0.25617  0.77233  1.0000
  O  Te13      1.0  0.38945  0.27188  0.75721  1.0000
  O  Te14      1.0  0.37998  0.10028  0.57157  1.0000
  O  Te15      1.0  0.49779  0.13624  0.65335  1.0000
  O  Te16      1.0  0.50723  0.30786  0.83904  1.0000
  Mg  Mg7       1.0  0.43618  0.06936  0.55962  1.0000
  Mg  Mg8       1.0  0.45107  0.33880  0.85113  1.0000
  C  Sn17      1.0  0.68294  0.13889  0.86300  1.0000
  C   C85       1.0  0.74130  0.15977  0.79080  1.0000
  C  Sn18      1.0  0.78039  0.22141  0.73227  1.0000
  C  Sn19      1.0  0.76076  0.26305  0.74630  1.0000
  C   C86       1.0  0.70244  0.24217  0.81849  1.0000
  C  Sn20      1.0  0.66331  0.18053  0.87703  1.0000
  O  Te17      1.0  0.64463  0.07707  0.92067  1.0000
  O  Te18      1.0  0.83852  0.24121  0.66050  1.0000
  O  Te19      1.0  0.79913  0.32491  0.68855  1.0000
  O  Te20      1.0  0.60522  0.16073  0.94878  1.0000
  Mg  Mg9       1.0  0.87408  0.32983  0.60045  1.0000
  Mg  Mg10      1.0  0.61523  0.14378  0.00895  1.0000
  C  Sn21      1.0  0.14338  0.03489  0.34488  1.0000
  C   C87       1.0  0.10176  0.04527  0.26252  1.0000
  C  Sn22      1.0  0.12052  0.08966  0.11723  1.0000
  C  Sn23      1.0  0.18215  0.12439  0.05285  1.0000
  C   C88       1.0  0.22372  0.11399  0.13517  1.0000
  C  Sn24      1.0  0.20501  0.06961  0.28049  1.0000
  O  Te21      1.0  0.12362  0.99027  0.48993  1.0000
  O  Te22      1.0  0.07808  0.09923  0.03712  1.0000
  O  Te23      1.0  0.15629  0.09738  0.90767  1.0000
  O  Te24      1.0  0.24740  0.06003  0.36057  1.0000
  Mg  Mg11      1.0  0.08142  0.09351  0.84335  1.0000
  Mg  Mg12      1.0  0.19853  0.99409  0.55429  1.0000
