data_image0
_chemical_formula_structural       H56C80N10O2SnCSn2CSnTe4Mg2SnCSn2CSnTe4Mg2SnCSn2CSnTe4Mg2SnCSn2CSnTe4Mg2SnCSn2CSnTe4Mg2SnCSn2CSnTe4Mg2
_chemical_formula_sum              "H56 C92 N10 O2 Sn24 Te24 Mg12"
_cell_length_a       26.1384
_cell_length_b       25.689
_cell_length_c       7.94938
_cell_angle_alpha    79.0483
_cell_angle_beta     96.4953
_cell_angle_gamma    120.41

_symmetry_space_group_name_H-M    'P1'
_space_group_IT_number       1

loop_
  _space_group_symop_operation_xyz
  'x, y, z'

loop_
  _atom_site_type_symbol
  _atom_site_label
  _atom_site_symmetry_multiplicity
  _atom_site_fract_x
  _atom_site_fract_y
  _atom_site_fract_z
  _atom_site_occupancy
  H   H1        1.0  0.33896  0.10248  0.22540  1.0000
  H   H2        1.0  0.41673  0.26756  0.46871  1.0000
  H   H3        1.0  0.52709  0.32862  0.45237  1.0000
  H   H4        1.0  0.62887  0.22642  0.12014  1.0000
  H   H5        1.0  0.01489  0.15038  0.14535  1.0000
  H   H6        1.0  0.96286  0.20732  0.13986  1.0000
  H   H7        1.0  0.82663  0.05493  0.45514  1.0000
  H   H8        1.0  0.87943  0.99708  0.46436  1.0000
  H   H9        1.0  0.89114  0.22374  0.06412  1.0000
  H   H10       1.0  0.75747  0.15818  0.33347  1.0000
  H   H11       1.0  0.69219  0.20338  0.31913  1.0000
  H   H12       1.0  0.87718  0.31339  0.98605  1.0000
  H   H13       1.0  0.78083  0.40278  0.16269  1.0000
  H   H14       1.0  0.77791  0.67704  0.12342  1.0000
  H   H15       1.0  0.83542  0.57632  0.36927  1.0000
  H   H16       1.0  0.79228  0.46648  0.34211  1.0000
  H   H17       1.0  0.65546  0.47577  0.00440  1.0000
  H   H18       1.0  0.69876  0.58469  0.03153  1.0000
  H   H19       1.0  0.60520  0.37870  0.14250  1.0000
  H   H20       1.0  0.01353  0.66108  0.46336  1.0000
  H   H21       1.0  0.13432  0.72759  0.53652  1.0000
  H   H22       1.0  0.08264  0.86414  0.05355  1.0000
  H   H23       1.0  0.16300  0.93218  0.32375  1.0000
  H   H24       1.0  0.20361  0.87003  0.45543  1.0000
  H   H25       1.0  0.06783  0.11279  0.25175  1.0000
  H   H26       1.0  0.90301  0.94460  0.34911  1.0000
  H   H27       1.0  0.11390  0.96923  0.17945  1.0000
  H   H28       1.0  0.33480  0.10550  0.70184  1.0000
  H   H29       1.0  0.54012  0.18121  0.77631  1.0000
  H   H30       1.0  0.43050  0.11929  0.78294  1.0000
  H   H31       1.0  0.62443  0.22429  0.61882  1.0000
  H   H32       1.0  0.00811  0.14691  0.65216  1.0000
  H   H33       1.0  0.95341  0.20095  0.65105  1.0000
  H   H34       1.0  0.82092  0.04630  0.97082  1.0000
  H   H35       1.0  0.87689  0.99184  0.97762  1.0000
  H   H36       1.0  0.87818  0.21018  0.57015  1.0000
  H   H37       1.0  0.81335  0.35950  0.97596  1.0000
  H   H38       1.0  0.77866  0.39867  0.66287  1.0000
  H   H39       1.0  0.87402  0.87384  0.65070  1.0000
  H   H40       1.0  0.81000  0.76381  0.65280  1.0000
  H   H41       1.0  0.92617  0.73009  0.03000  1.0000
  H   H42       1.0  0.98734  0.84065  0.03687  1.0000
  H   H43       1.0  0.77636  0.67462  0.63197  1.0000
  H   H44       1.0  0.60498  0.37979  0.63416  1.0000
  H   H45       1.0  0.02440  0.66597  0.96710  1.0000
  H   H46       1.0  0.14514  0.73662  0.03303  1.0000
  H   H47       1.0  0.08341  0.86729  0.55576  1.0000
  H   H48       1.0  0.16816  0.94099  0.80622  1.0000
  H   H49       1.0  0.20751  0.87954  0.95476  1.0000
  H   H50       1.0  0.06411  0.11220  0.75595  1.0000
  H   H51       1.0  0.90181  0.94151  0.85899  1.0000
  H   H52       1.0  0.11294  0.97139  0.67415  1.0000
  H   H53       1.0  0.18590  0.93084  0.61320  1.0000
  H   H54       1.0  0.21564  0.86103  0.75900  1.0000
  H   H55       1.0  0.18465  0.92864  0.12665  1.0000
  H   H56       1.0  0.20786  0.85101  0.25583  1.0000
  C   C1        1.0  0.07181  0.03203  0.25647  1.0000
  C   C2        1.0  0.35578  0.15091  0.17079  1.0000
  C   C3        1.0  0.60955  0.29821  0.12835  1.0000
  C   C4        1.0  0.64748  0.27428  0.13158  1.0000
  C   C5        1.0  0.04192  0.06331  0.26304  1.0000
  C   C6        1.0  0.95078  0.06813  0.30128  1.0000
  C   C7        1.0  0.97380  0.12890  0.21494  1.0000
  C   C8        1.0  0.94395  0.16103  0.20975  1.0000
  C   C9        1.0  0.88895  0.13386  0.29079  1.0000
  C   C10       1.0  0.86738  0.07461  0.38503  1.0000
  C   C11       1.0  0.89706  0.04239  0.38859  1.0000
  C   C12       1.0  0.98081  0.03364  0.29589  1.0000
  C   C13       1.0  0.85958  0.20554  0.16874  1.0000
  C   C14       1.0  0.82204  0.23276  0.16292  1.0000
  C   C15       1.0  0.76889  0.20196  0.25444  1.0000
  C   C16       1.0  0.73250  0.22724  0.24482  1.0000
  C   C17       1.0  0.74816  0.28491  0.14697  1.0000
  C   C18       1.0  0.80141  0.31585  0.05662  1.0000
  C   C19       1.0  0.83722  0.28975  0.06194  1.0000
  C   C20       1.0  0.70933  0.31147  0.14270  1.0000
  C   C21       1.0  0.73298  0.37356  0.15240  1.0000
  C   C22       1.0  0.95023  0.96904  0.32346  1.0000
  C   C23       1.0  0.97639  0.93409  0.31593  1.0000
  C   C24       1.0  0.79518  0.65185  0.21661  1.0000
  C   C25       1.0  0.77012  0.58767  0.20241  1.0000
  C   C26       1.0  0.79644  0.55361  0.28850  1.0000
  C   C27       1.0  0.77240  0.49272  0.27164  1.0000
  C   C28       1.0  0.72096  0.46321  0.17052  1.0000
  C   C29       1.0  0.69430  0.49715  0.08677  1.0000
  C   C30       1.0  0.71889  0.55853  0.10111  1.0000
  C   C31       1.0  0.69605  0.39866  0.15169  1.0000
  C   C32       1.0  0.63446  0.36046  0.13753  1.0000
  C   C33       1.0  0.03927  0.96524  0.27698  1.0000
  C   C34       1.0  0.04484  0.70834  0.41634  1.0000
  C   C35       1.0  0.10509  0.74033  0.45529  1.0000
  C   C36       1.0  0.07548  0.79890  0.28139  1.0000
  C   C37       1.0  0.09094  0.86147  0.19236  1.0000
  C   C38       1.0  0.15810  0.90053  0.24003  1.0000
  C   C39       1.0  0.17929  0.85589  0.33559  1.0000
  C   C40       1.0  0.07090  0.93906  0.23734  1.0000
  C   C41       1.0  0.06998  0.03265  0.75776  1.0000
  C   C42       1.0  0.35240  0.15441  0.65203  1.0000
  C   C43       1.0  0.41624  0.18992  0.62940  1.0000
  C   C44       1.0  0.44437  0.24935  0.53551  1.0000
  C   C45       1.0  0.50584  0.28322  0.52816  1.0000
  C   C46       1.0  0.54166  0.25979  0.61626  1.0000
  C   C47       1.0  0.51331  0.19972  0.70504  1.0000
  C   C48       1.0  0.45173  0.16517  0.70977  1.0000
  C   C49       1.0  0.60692  0.29784  0.62243  1.0000
  C   C50       1.0  0.64370  0.27232  0.62941  1.0000
  C   C51       1.0  0.03911  0.06266  0.76797  1.0000
  C   C52       1.0  0.94644  0.06412  0.81162  1.0000
  C   C53       1.0  0.96743  0.12442  0.72417  1.0000
  C   C54       1.0  0.93602  0.15482  0.72112  1.0000
  C   C55       1.0  0.88138  0.12623  0.80477  1.0000
  C   C56       1.0  0.86154  0.06724  0.89923  1.0000
  C   C57       1.0  0.89290  0.03685  0.90102  1.0000
  C   C58       1.0  0.97820  0.03150  0.80480  1.0000
  C   C59       1.0  0.84974  0.19539  0.68107  1.0000
  C   C60       1.0  0.70559  0.30830  0.64392  1.0000
  C   C61       1.0  0.73067  0.37073  0.65134  1.0000
  C   C62       1.0  0.94895  0.96696  0.83226  1.0000
  C   C63       1.0  0.93772  0.86623  0.83668  1.0000
  C   C64       1.0  0.88483  0.84232  0.73716  1.0000
  C   C65       1.0  0.84883  0.77986  0.73761  1.0000
  C   C66       1.0  0.86486  0.73837  0.83717  1.0000
  C   C67       1.0  0.91484  0.76181  0.94710  1.0000
  C   C68       1.0  0.95012  0.82432  0.94755  1.0000
  C   C69       1.0  0.97621  0.93331  0.82204  1.0000
  C   C70       1.0  0.79540  0.65012  0.72052  1.0000
  C   C71       1.0  0.69502  0.39743  0.64739  1.0000
  C   C72       1.0  0.63330  0.36033  0.63103  1.0000
  C   C73       1.0  0.03880  0.96586  0.77976  1.0000
  C   C74       1.0  0.05412  0.71362  0.91902  1.0000
  C   C75       1.0  0.11444  0.74772  0.95427  1.0000
  C   C76       1.0  0.08106  0.80337  0.78264  1.0000
  C   C77       1.0  0.09376  0.86513  0.69367  1.0000
  C   C78       1.0  0.16147  0.90611  0.73199  1.0000
  C   C79       1.0  0.18480  0.86413  0.83427  1.0000
  C   C80       1.0  0.07115  0.94071  0.73825  1.0000
  N   N1        1.0  0.32124  0.17431  0.13689  1.0000
  N   N2        1.0  0.85404  0.16099  0.28831  1.0000
  N   N3        1.0  0.83581  0.67667  0.33100  1.0000
  N   N4        1.0  0.12377  0.79865  0.36840  1.0000
  N   N5        1.0  0.02680  0.74491  0.30720  1.0000
  N   N6        1.0  0.31818  0.17822  0.62157  1.0000
  N   N7        1.0  0.84595  0.15265  0.80454  1.0000
  N   N8        1.0  0.83747  0.67566  0.83065  1.0000
  N   N9        1.0  0.13078  0.80541  0.86628  1.0000
  N   N10       1.0  0.03374  0.74840  0.81141  1.0000
  O   O1        1.0  0.05224  0.87840  0.25924  1.0000
  O   O2        1.0  0.05494  0.88058  0.76697  1.0000
  C  Sn1       1.0  0.46974  0.17553  0.27383  1.0000
  C   C81       1.0  0.42708  0.18919  0.18963  1.0000
  C  Sn2       1.0  0.44292  0.23729  0.05303  1.0000
  C  Sn3       1.0  0.50959  0.21723  0.99940  1.0000
  C   C82       1.0  0.54528  0.25878  0.08356  1.0000
  C  Sn4       1.0  0.52947  0.21069  0.22019  1.0000
  O  Te1       1.0  0.45291  0.12723  0.41007  1.0000
  O  Te2       1.0  0.40642  0.19488  0.97088  1.0000
  O  Te3       1.0  0.52640  0.26556  0.86305  1.0000
  O  Te4       1.0  0.57286  0.19787  0.30230  1.0000
  Mg  Mg1       1.0  0.45119  0.26522  0.79179  1.0000
  Mg  Mg2       1.0  0.52814  0.12753  0.48134  1.0000
  C  Sn5       1.0  0.22313  0.06548  0.28237  1.0000
  C   C83       1.0  0.25419  0.11921  0.16745  1.0000
  C  Sn6       1.0  0.22687  0.15273  0.09012  1.0000
  C  Sn7       1.0  0.16728  0.13214  0.12852  1.0000
  C   C84       1.0  0.13626  0.07845  0.24340  1.0000
  C  Sn8       1.0  0.16354  0.04489  0.32077  1.0000
  O  Te5       1.0  0.25133  0.03271  0.35818  1.0000
  O  Te6       1.0  0.26575  0.15108  0.97560  1.0000
  O  Te7       1.0  0.13909  0.16497  0.05259  1.0000
  O  Te8       1.0  0.13163  0.99137  0.43525  1.0000
  Mg  Mg3       1.0  0.20802  0.17989  0.90513  1.0000
  Mg  Mg4       1.0  0.68679  0.96254  0.50585  1.0000
  C  Sn9       1.0  0.79668  0.29783  0.51849  1.0000
  C   C85       1.0  0.74537  0.27744  0.60885  1.0000
  C  Sn10      1.0  0.73012  0.23143  0.75106  1.0000
  C  Sn11      1.0  0.76695  0.20527  0.80413  1.0000
  C   C86       1.0  0.81823  0.22566  0.71382  1.0000
  C  Sn12      1.0  0.83351  0.27167  0.57157  1.0000
  O  Te9       1.0  0.81106  0.34389  0.37671  1.0000
  O  Te10      1.0  0.67859  0.21178  0.83931  1.0000
  O  Te11      1.0  0.75253  0.15918  0.94603  1.0000
  O  Te12      1.0  0.88501  0.29132  0.48335  1.0000
  Mg  Mg5       1.0  0.67090  0.20307  0.02452  1.0000
  Mg  Mg6       1.0  0.88583  0.35527  0.29820  1.0000
  C  Sn13      1.0  0.70743  0.51496  0.53949  1.0000
  C   C87       1.0  0.72628  0.47387  0.61793  1.0000
  C  Sn14      1.0  0.76563  0.48720  0.75842  1.0000
  C  Sn15      1.0  0.78655  0.54276  0.82192  1.0000
  C   C88       1.0  0.76769  0.58381  0.74351  1.0000
  C  Sn16      1.0  0.72834  0.57051  0.60299  1.0000
  O  Te13      1.0  0.66807  0.50068  0.39921  1.0000
  O  Te14      1.0  0.78386  0.44542  0.83467  1.0000
  O  Te15      1.0  0.82594  0.55701  0.96231  1.0000
  O  Te16      1.0  0.71011  0.61226  0.52677  1.0000
  Mg  Mg7       1.0  0.83094  0.54068  0.02261  1.0000
  Mg  Mg8       1.0  0.65607  0.57225  0.33890  1.0000
  C  Sn17      1.0  0.22214  0.06957  0.77310  1.0000
  C   C89       1.0  0.25175  0.12316  0.65641  1.0000
  C  Sn18      1.0  0.22304  0.15543  0.58063  1.0000
  C  Sn19      1.0  0.16349  0.13370  0.62243  1.0000
  C   C90       1.0  0.13392  0.08016  0.73907  1.0000
  C  Sn20      1.0  0.16260  0.04785  0.81490  1.0000
  O  Te17      1.0  0.25172  0.03806  0.84731  1.0000
  O  Te18      1.0  0.25355  0.20887  0.46429  1.0000
  O  Te19      1.0  0.13392  0.16527  0.54810  1.0000
  O  Te20      1.0  0.13212  0.99445  0.93119  1.0000
  Mg  Mg9       1.0  0.19426  0.23575  0.39711  1.0000
  Mg  Mg10      1.0  0.19137  0.96755  0.99851  1.0000
  C  Sn21      1.0  0.91531  0.77397  0.49010  1.0000
  C   C91       1.0  0.86402  0.74355  0.39179  1.0000
  C  Sn22      1.0  0.84953  0.77579  0.25101  1.0000
  C  Sn23      1.0  0.88710  0.83976  0.20751  1.0000
  C   C92       1.0  0.93835  0.87014  0.30577  1.0000
  C  Sn24      1.0  0.95288  0.83794  0.44660  1.0000
  O  Te21      1.0  0.92893  0.74082  0.63028  1.0000
  O  Te22      1.0  0.79800  0.74438  0.15469  1.0000
  O  Te23      1.0  0.87343  0.87290  0.06721  1.0000
  O  Te24      1.0  0.00437  0.86931  0.54287  1.0000
  Mg  Mg11      1.0  0.80536  0.75444  0.97541  1.0000
  Mg  Mg12      1.0  0.00401  0.80408  0.72211  1.0000
