data_image0
_chemical_formula_structural       H60C76N8O2C2Sn2C2HTe2HMgC2Sn2C2HTe2HMgC2Sn2C2HTe2HMgC2Sn2C2HTe2HMgC2Sn2C2HTe2HMgC2Sn2C2HTe2HMg
_chemical_formula_sum              "H72 C100 N8 O2 Sn12 Te12 Mg6"
_cell_length_a       25.8315
_cell_length_b       25.9599
_cell_length_c       8.15216
_cell_angle_alpha    80.9477
_cell_angle_beta     88.1349
_cell_angle_gamma    119.368

_symmetry_space_group_name_H-M    'P1'
_space_group_IT_number       1

loop_
  _space_group_symop_operation_xyz
  'x, y, z'

loop_
  _atom_site_type_symbol
  _atom_site_label
  _atom_site_symmetry_multiplicity
  _atom_site_fract_x
  _atom_site_fract_y
  _atom_site_fract_z
  _atom_site_occupancy
  H   H1        1.0  0.10955  0.98024  0.39668  1.0000
  H   H2        1.0  0.22041  0.04551  0.35927  1.0000
  H   H3        1.0  0.20723  0.17720  0.99964  1.0000
  H   H4        1.0  0.09721  0.10985  0.02630  1.0000
  H   H5        1.0  0.30616  0.20043  0.09495  1.0000
  H   H6        1.0  0.57829  0.18544  0.27029  1.0000
  H   H7        1.0  0.95095  0.09768  0.15632  1.0000
  H   H8        1.0  0.88783  0.14278  0.20874  1.0000
  H   H9        1.0  0.75481  0.07883  0.03103  1.0000
  H   H10       1.0  0.68635  0.09945  0.50643  1.0000
  H   H11       1.0  0.63089  0.15463  0.49148  1.0000
  H   H12       1.0  0.76802  0.29680  0.11509  1.0000
  H   H13       1.0  0.82322  0.24008  0.12712  1.0000
  H   H14       1.0  0.73884  0.34758  0.31055  1.0000
  H   H15       1.0  0.85695  0.90006  0.28137  1.0000
  H   H16       1.0  0.91639  0.73878  0.50605  1.0000
  H   H17       1.0  0.83603  0.63959  0.06514  1.0000
  H   H18       1.0  0.82615  0.55207  0.13957  1.0000
  H   H19       1.0  0.77502  0.44337  0.13658  1.0000
  H   H20       1.0  0.61776  0.41732  0.41872  1.0000
  H   H21       1.0  0.66933  0.52735  0.42051  1.0000
  H   H22       1.0  0.57748  0.35224  0.23045  1.0000
  H   H23       1.0  0.09413  0.86688  0.06262  1.0000
  H   H24       1.0  0.00679  0.83279  0.29136  1.0000
  H   H25       1.0  0.05738  0.89167  0.38909  1.0000
  H   H26       1.0  0.17194  0.80763  0.36157  1.0000
  H   H27       1.0  0.15394  0.79178  0.16068  1.0000
  H   H28       1.0  0.06401  0.77823  0.25685  1.0000
  H   H29       1.0  0.24261  0.90756  0.21327  1.0000
  H   H30       1.0  0.20763  0.89334  0.02990  1.0000
  H   H31       1.0  0.16775  0.92874  0.33063  1.0000
  H   H32       1.0  0.17760  0.96181  0.11621  1.0000
  H   H33       1.0  0.01441  0.06881  0.28514  1.0000
  H   H34       1.0  0.82733  0.93544  0.50658  1.0000
  H   H35       1.0  0.30260  0.19877  0.59375  1.0000
  H   H36       1.0  0.37134  0.23133  0.81930  1.0000
  H   H37       1.0  0.47917  0.28788  0.84565  1.0000
  H   H38       1.0  0.50664  0.16562  0.60480  1.0000
  H   H39       1.0  0.39741  0.10574  0.59371  1.0000
  H   H40       1.0  0.57649  0.18640  0.76437  1.0000
  H   H41       1.0  0.75187  0.07085  0.52594  1.0000
  H   H42       1.0  0.73470  0.35021  0.80734  1.0000
  H   H43       1.0  0.85345  0.89910  0.79600  1.0000
  H   H44       1.0  0.82695  0.81147  0.89410  1.0000
  H   H45       1.0  0.77352  0.70457  0.87075  1.0000
  H   H46       1.0  0.96926  0.84604  0.52698  1.0000
  H   H47       1.0  0.82706  0.63941  0.56828  1.0000
  H   H48       1.0  0.57101  0.35054  0.73506  1.0000
  H   H49       1.0  0.08740  0.86028  0.56715  1.0000
  H   H50       1.0  0.00085  0.83254  0.79350  1.0000
  H   H51       1.0  0.05409  0.89164  0.88614  1.0000
  H   H52       1.0  0.15891  0.79790  0.88015  1.0000
  H   H53       1.0  0.14129  0.78267  0.67820  1.0000
  H   H54       1.0  0.05304  0.77335  0.77464  1.0000
  H   H55       1.0  0.23297  0.89696  0.73747  1.0000
  H   H56       1.0  0.20202  0.88290  0.54790  1.0000
  H   H57       1.0  0.16161  0.92577  0.82874  1.0000
  H   H58       1.0  0.17338  0.95486  0.61109  1.0000
  H   H59       1.0  0.76562  0.98134  0.56252  1.0000
  H   H60       1.0  0.01148  0.06958  0.78044  1.0000
  C   C1        1.0  0.09580  0.03922  0.20911  1.0000
  C   C2        1.0  0.13124  0.02199  0.30397  1.0000
  C   C3        1.0  0.19292  0.05884  0.28615  1.0000
  C   C4        1.0  0.22146  0.11500  0.17495  1.0000
  C   C5        1.0  0.18600  0.13380  0.08602  1.0000
  C   C6        1.0  0.12401  0.09607  0.10154  1.0000
  C   C7        1.0  0.02986  0.99948  0.22662  1.0000
  C   C8        1.0  0.28671  0.15258  0.15455  1.0000
  C   C9        1.0  0.56973  0.26483  0.24972  1.0000
  C   C10       1.0  0.60138  0.23351  0.27030  1.0000
  C   C11       1.0  0.99333  0.02260  0.26624  1.0000
  C   C12       1.0  0.89339  0.01310  0.32687  1.0000
  C   C13       1.0  0.91062  0.07240  0.24641  1.0000
  C   C14       1.0  0.87559  0.09772  0.27432  1.0000
  C   C15       1.0  0.82242  0.06508  0.38720  1.0000
  C   C16       1.0  0.80571  0.00645  0.47112  1.0000
  C   C17       1.0  0.84030  0.98054  0.43940  1.0000
  C   C18       1.0  0.93075  0.98698  0.28938  1.0000
  C   C19       1.0  0.78554  0.09212  0.41417  1.0000
  C   C20       1.0  0.75962  0.16677  0.31861  1.0000
  C   C21       1.0  0.70461  0.14263  0.42049  1.0000
  C   C22       1.0  0.67318  0.17364  0.41154  1.0000
  C   C23       1.0  0.69572  0.22997  0.30313  1.0000
  C   C24       1.0  0.75092  0.25423  0.20331  1.0000
  C   C25       1.0  0.78178  0.22282  0.20914  1.0000
  C   C26       1.0  0.66247  0.26303  0.28865  1.0000
  C   C27       1.0  0.69205  0.32496  0.28960  1.0000
  C   C28       1.0  0.90545  0.92717  0.26982  1.0000
  C   C29       1.0  0.93973  0.90156  0.22615  1.0000
  C   C30       1.0  0.81872  0.65016  0.17238  1.0000
  C   C31       1.0  0.75019  0.54785  0.27520  1.0000
  C   C32       1.0  0.78023  0.52302  0.19929  1.0000
  C   C33       1.0  0.75172  0.46152  0.19977  1.0000
  C   C34       1.0  0.69226  0.42237  0.27542  1.0000
  C   C35       1.0  0.66288  0.44718  0.35377  1.0000
  C   C36       1.0  0.69147  0.50848  0.35582  1.0000
  C   C37       1.0  0.66145  0.35733  0.27266  1.0000
  C   C38       1.0  0.60059  0.32673  0.25147  1.0000
  C   C39       1.0  0.00314  0.93899  0.20578  1.0000
  C   C40       1.0  0.15652  0.82118  0.24741  1.0000
  C   C41       1.0  0.09939  0.87027  0.19488  1.0000
  C   C42       1.0  0.16355  0.91927  0.20350  1.0000
  C   C43       1.0  0.19904  0.88835  0.16593  1.0000
  C   C44       1.0  0.04846  0.87662  0.26987  1.0000
  C   C45       1.0  0.02626  0.99929  0.72596  1.0000
  C   C46       1.0  0.28296  0.15094  0.65384  1.0000
  C   C47       1.0  0.37716  0.16497  0.70302  1.0000
  C   C48       1.0  0.40140  0.21802  0.76825  1.0000
  C   C49       1.0  0.46233  0.24999  0.78191  1.0000
  C   C50       1.0  0.50164  0.23167  0.72584  1.0000
  C   C51       1.0  0.47713  0.17961  0.65551  1.0000
  C   C52       1.0  0.41605  0.14604  0.64747  1.0000
  C   C53       1.0  0.56567  0.26430  0.74829  1.0000
  C   C54       1.0  0.59859  0.23429  0.76630  1.0000
  C   C55       1.0  0.99004  0.02292  0.76500  1.0000
  C   C56       1.0  0.92744  0.98725  0.79235  1.0000
  C   C57       1.0  0.78534  0.09657  0.91320  1.0000
  C   C58       1.0  0.65967  0.26475  0.78477  1.0000
  C   C59       1.0  0.68790  0.32652  0.78719  1.0000
  C   C60       1.0  0.90198  0.92681  0.77891  1.0000
  C   C61       1.0  0.90337  0.83740  0.71351  1.0000
  C   C62       1.0  0.84652  0.79640  0.80595  1.0000
  C   C63       1.0  0.81643  0.73592  0.79514  1.0000
  C   C64       1.0  0.84179  0.71351  0.69100  1.0000
  C   C65       1.0  0.89707  0.75452  0.59314  1.0000
  C   C66       1.0  0.92710  0.81502  0.60471  1.0000
  C   C67       1.0  0.93597  0.90112  0.73310  1.0000
  C   C68       1.0  0.81244  0.64982  0.68078  1.0000
  C   C69       1.0  0.65610  0.35765  0.77280  1.0000
  C   C70       1.0  0.59520  0.32603  0.75288  1.0000
  C   C71       1.0  0.99936  0.93860  0.70692  1.0000
  C   C72       1.0  0.14540  0.81280  0.76401  1.0000
  C   C73       1.0  0.09256  0.86563  0.69802  1.0000
  C   C74       1.0  0.15744  0.91337  0.70519  1.0000
  C   C75       1.0  0.19093  0.87923  0.68195  1.0000
  C   C76       1.0  0.04348  0.87544  0.76887  1.0000
  N   N1        1.0  0.31978  0.13009  0.20273  1.0000
  N   N2        1.0  0.79392  0.13890  0.30795  1.0000
  N   N3        1.0  0.77537  0.60900  0.28360  1.0000
  N   N4        1.0  0.09729  0.81574  0.29046  1.0000
  N   N5        1.0  0.31570  0.12819  0.70330  1.0000
  N   N6        1.0  0.79198  0.14149  0.80209  1.0000
  N   N7        1.0  0.77115  0.60837  0.79642  1.0000
  N   N8        1.0  0.08780  0.81110  0.80301  1.0000
  O   O1        1.0  0.04196  0.92063  0.15221  1.0000
  O   O2        1.0  0.03776  0.91994  0.65068  1.0000
  C   C77       1.0  0.33459  0.98378  0.97625  1.0000
  C   C78       1.0  0.38194  0.00327  0.85039  1.0000
  C  Sn1       1.0  0.40443  0.05889  0.74137  1.0000
  C  Sn2       1.0  0.37896  0.09559  0.75903  1.0000
  C   C79       1.0  0.33162  0.07570  0.88543  1.0000
  C   C80       1.0  0.30946  0.01996  0.99380  1.0000
  H   H61       1.0  0.36304  0.01232  0.06017  1.0000
  O  Te1       1.0  0.45174  0.07766  0.61627  1.0000
  O  Te2       1.0  0.40058  0.15138  0.65182  1.0000
  H   H62       1.0  0.31841  0.07656  0.09131  1.0000
  Mg  Mg1       1.0  0.46568  0.15727  0.50080  1.0000
  C   C81       1.0  0.82036  0.74858  0.29837  1.0000
  C   C82       1.0  0.83712  0.71962  0.19531  1.0000
  C  Sn3       1.0  0.89278  0.75097  0.09621  1.0000
  C  Sn4       1.0  0.93231  0.81244  0.10067  1.0000
  C   C83       1.0  0.91514  0.84100  0.20429  1.0000
  C   C84       1.0  0.85933  0.80921  0.30290  1.0000
  H   H63       1.0  0.77720  0.72398  0.37475  1.0000
  O  Te3       1.0  0.86322  0.64970  0.99390  1.0000
  O  Te4       1.0  0.98821  0.84484  0.00296  1.0000
  H   H64       1.0  0.84639  0.83163  0.38277  1.0000
  Mg  Mg2       1.0  0.94416  0.71304  0.88370  1.0000
  C   C85       1.0  0.68642  0.14276  0.91496  1.0000
  C   C86       1.0  0.74219  0.16034  0.83009  1.0000
  C  Sn5       1.0  0.77657  0.21809  0.73137  1.0000
  C  Sn6       1.0  0.75461  0.25891  0.71763  1.0000
  C   C87       1.0  0.69878  0.24090  0.80313  1.0000
  C   C88       1.0  0.66474  0.18299  0.90153  1.0000
  H   H65       1.0  0.66009  0.09797  0.99117  1.0000
  O  Te5       1.0  0.83218  0.23492  0.64737  1.0000
  O  Te6       1.0  0.78806  0.31690  0.61986  1.0000
  H   H66       1.0  0.62158  0.16941  0.96731  1.0000
  Mg  Mg3       1.0  0.86118  0.31881  0.52935  1.0000
  C   C89       1.0  0.43599  0.15242  0.12682  1.0000
  C   C90       1.0  0.38954  0.15813  0.19783  1.0000
  C  Sn7       1.0  0.40230  0.20552  0.28036  1.0000
  C  Sn8       1.0  0.46273  0.24792  0.29176  1.0000
  C   C91       1.0  0.50888  0.24184  0.22020  1.0000
  C   C92       1.0  0.49561  0.19423  0.13795  1.0000
  H   H67       1.0  0.42573  0.11561  0.06309  1.0000
  O  Te7       1.0  0.35535  0.21054  0.35067  1.0000
  O  Te8       1.0  0.47675  0.29573  0.37348  1.0000
  H   H68       1.0  0.53158  0.18985  0.08288  1.0000
  Mg  Mg4       1.0  0.39717  0.28342  0.44928  1.0000
  C   C93       1.0  0.75870  0.47736  0.68360  1.0000
  C   C94       1.0  0.70280  0.43110  0.76490  1.0000
  C  Sn9       1.0  0.66604  0.44426  0.85836  1.0000
  C  Sn10      1.0  0.68572  0.50490  0.87039  1.0000
  C   C95       1.0  0.74170  0.55086  0.78849  1.0000
  C   C96       1.0  0.77814  0.53719  0.69534  1.0000
  H   H69       1.0  0.78689  0.46679  0.61145  1.0000
  O  Te9       1.0  0.61033  0.39749  0.93885  1.0000
  O  Te10      1.0  0.64986  0.51931  0.96292  1.0000
  H   H70       1.0  0.82140  0.57302  0.63232  1.0000
  Mg  Mg5       1.0  0.62319  0.51150  0.05014  1.0000
  C   C97       1.0  0.16821  0.12978  0.56967  1.0000
  C   C98       1.0  0.20972  0.12256  0.66168  1.0000
  C  Sn11      1.0  0.19148  0.06973  0.77987  1.0000
  C  Sn12      1.0  0.13051  0.02334  0.80612  1.0000
  C   C99       1.0  0.08933  0.03097  0.71334  1.0000
  C   C100      1.0  0.10807  0.08403  0.59543  1.0000
  H   H71       1.0  0.18271  0.17081  0.47836  1.0000
  O  Te11      1.0  0.23353  0.06327  0.87076  1.0000
  O  Te12      1.0  0.11106  0.97007  0.92341  1.0000
  H   H72       1.0  0.07592  0.08959  0.52413  1.0000
  Mg  Mg6       1.0  0.23084  0.05408  0.01650  1.0000
