data_image0
_chemical_formula_structural       H36C40N8O2C2Sn2C2HTe2HMgC2Sn2C2HTe2HMgC2Sn2C2HTe2HMgC2Sn2C2HTe2HMgC2Sn2C2HTe2HMgC2Sn2C2HTe2HMgC2Sn2C2HTe2HMgC2Sn2C2HTe2HMgC2Sn2C2HTe2HMgC2Sn2C2HTe2HMgC2Sn2C2HTe2HMgC2Sn2C2HTe2HMg
_chemical_formula_sum              "H60 C88 N8 O2 Sn24 Te24 Mg12"
_cell_length_a       25.8315
_cell_length_b       25.9599
_cell_length_c       8.15216
_cell_angle_alpha    80.9477
_cell_angle_beta     88.1349
_cell_angle_gamma    119.368

_symmetry_space_group_name_H-M    'P1'
_space_group_IT_number       1

loop_
  _space_group_symop_operation_xyz
  'x, y, z'

loop_
  _atom_site_type_symbol
  _atom_site_label
  _atom_site_symmetry_multiplicity
  _atom_site_fract_x
  _atom_site_fract_y
  _atom_site_fract_z
  _atom_site_occupancy
  H   H1        1.0  0.30616  0.20043  0.09495  1.0000
  H   H2        1.0  0.57829  0.18544  0.27029  1.0000
  H   H3        1.0  0.75481  0.07883  0.03103  1.0000
  H   H4        1.0  0.73884  0.34758  0.31055  1.0000
  H   H5        1.0  0.85695  0.90006  0.28137  1.0000
  H   H6        1.0  0.83603  0.63959  0.06514  1.0000
  H   H7        1.0  0.57748  0.35224  0.23045  1.0000
  H   H8        1.0  0.09413  0.86688  0.06262  1.0000
  H   H9        1.0  0.00679  0.83279  0.29136  1.0000
  H   H10       1.0  0.05738  0.89167  0.38909  1.0000
  H   H11       1.0  0.17194  0.80763  0.36157  1.0000
  H   H12       1.0  0.15394  0.79178  0.16068  1.0000
  H   H13       1.0  0.06401  0.77823  0.25685  1.0000
  H   H14       1.0  0.24261  0.90756  0.21327  1.0000
  H   H15       1.0  0.20763  0.89334  0.02990  1.0000
  H   H16       1.0  0.16775  0.92874  0.33063  1.0000
  H   H17       1.0  0.17760  0.96181  0.11621  1.0000
  H   H18       1.0  0.01441  0.06881  0.28514  1.0000
  H   H19       1.0  0.30260  0.19877  0.59375  1.0000
  H   H20       1.0  0.57649  0.18640  0.76437  1.0000
  H   H21       1.0  0.75187  0.07085  0.52594  1.0000
  H   H22       1.0  0.73470  0.35021  0.80734  1.0000
  H   H23       1.0  0.85345  0.89910  0.79600  1.0000
  H   H24       1.0  0.82706  0.63941  0.56828  1.0000
  H   H25       1.0  0.57101  0.35054  0.73506  1.0000
  H   H26       1.0  0.08740  0.86028  0.56715  1.0000
  H   H27       1.0  0.00085  0.83254  0.79350  1.0000
  H   H28       1.0  0.05409  0.89164  0.88614  1.0000
  H   H29       1.0  0.15891  0.79790  0.88015  1.0000
  H   H30       1.0  0.14129  0.78267  0.67820  1.0000
  H   H31       1.0  0.05304  0.77335  0.77464  1.0000
  H   H32       1.0  0.23297  0.89696  0.73747  1.0000
  H   H33       1.0  0.20202  0.88290  0.54790  1.0000
  H   H34       1.0  0.16161  0.92577  0.82874  1.0000
  H   H35       1.0  0.17338  0.95486  0.61109  1.0000
  H   H36       1.0  0.01148  0.06958  0.78044  1.0000
  C   C1        1.0  0.02986  0.99948  0.22662  1.0000
  C   C2        1.0  0.28671  0.15258  0.15455  1.0000
  C   C3        1.0  0.56973  0.26483  0.24972  1.0000
  C   C4        1.0  0.60138  0.23351  0.27030  1.0000
  C   C5        1.0  0.99333  0.02260  0.26624  1.0000
  C   C6        1.0  0.93075  0.98698  0.28938  1.0000
  C   C7        1.0  0.78554  0.09212  0.41417  1.0000
  C   C8        1.0  0.66247  0.26303  0.28865  1.0000
  C   C9        1.0  0.69205  0.32496  0.28960  1.0000
  C   C10       1.0  0.90545  0.92717  0.26982  1.0000
  C   C11       1.0  0.93973  0.90156  0.22615  1.0000
  C   C12       1.0  0.81872  0.65016  0.17238  1.0000
  C   C13       1.0  0.66145  0.35733  0.27266  1.0000
  C   C14       1.0  0.60059  0.32673  0.25147  1.0000
  C   C15       1.0  0.00314  0.93899  0.20578  1.0000
  C   C16       1.0  0.15652  0.82118  0.24741  1.0000
  C   C17       1.0  0.09939  0.87027  0.19488  1.0000
  C   C18       1.0  0.16355  0.91927  0.20350  1.0000
  C   C19       1.0  0.19904  0.88835  0.16593  1.0000
  C   C20       1.0  0.04846  0.87662  0.26987  1.0000
  C   C21       1.0  0.02626  0.99929  0.72596  1.0000
  C   C22       1.0  0.28296  0.15094  0.65384  1.0000
  C   C23       1.0  0.56567  0.26430  0.74829  1.0000
  C   C24       1.0  0.59859  0.23429  0.76630  1.0000
  C   C25       1.0  0.99004  0.02292  0.76500  1.0000
  C   C26       1.0  0.92744  0.98725  0.79235  1.0000
  C   C27       1.0  0.78534  0.09657  0.91320  1.0000
  C   C28       1.0  0.65967  0.26475  0.78477  1.0000
  C   C29       1.0  0.68790  0.32652  0.78719  1.0000
  C   C30       1.0  0.90198  0.92681  0.77891  1.0000
  C   C31       1.0  0.93597  0.90112  0.73310  1.0000
  C   C32       1.0  0.81244  0.64982  0.68078  1.0000
  C   C33       1.0  0.65610  0.35765  0.77280  1.0000
  C   C34       1.0  0.59520  0.32603  0.75288  1.0000
  C   C35       1.0  0.99936  0.93860  0.70692  1.0000
  C   C36       1.0  0.14540  0.81280  0.76401  1.0000
  C   C37       1.0  0.09256  0.86563  0.69802  1.0000
  C   C38       1.0  0.15744  0.91337  0.70519  1.0000
  C   C39       1.0  0.19093  0.87923  0.68195  1.0000
  C   C40       1.0  0.04348  0.87544  0.76887  1.0000
  N   N1        1.0  0.31978  0.13009  0.20273  1.0000
  N   N2        1.0  0.79392  0.13890  0.30795  1.0000
  N   N3        1.0  0.77537  0.60900  0.28360  1.0000
  N   N4        1.0  0.09729  0.81574  0.29046  1.0000
  N   N5        1.0  0.31570  0.12819  0.70330  1.0000
  N   N6        1.0  0.79198  0.14149  0.80209  1.0000
  N   N7        1.0  0.77115  0.60837  0.79642  1.0000
  N   N8        1.0  0.08780  0.81110  0.80301  1.0000
  O   O1        1.0  0.04196  0.92063  0.15221  1.0000
  O   O2        1.0  0.03776  0.91994  0.65068  1.0000
  C   C41       1.0  0.17923  0.04536  0.31097  1.0000
  C   C42       1.0  0.21569  0.09889  0.19536  1.0000
  C  Sn1       1.0  0.19013  0.12526  0.08885  1.0000
  C  Sn2       1.0  0.12688  0.09742  0.09858  1.0000
  C   C43       1.0  0.09080  0.04390  0.21475  1.0000
  C   C44       1.0  0.11684  0.01788  0.32070  1.0000
  H   H37       1.0  0.19937  0.02525  0.39302  1.0000
  O  Te1       1.0  0.18163  0.10709  0.97403  1.0000
  O  Te2       1.0  0.05457  0.05117  0.99367  1.0000
  H   H38       1.0  0.08860  0.97646  0.41027  1.0000
  Mg  Mg1       1.0  0.12404  0.12435  0.85782  1.0000
  C   C45       1.0  0.43599  0.15242  0.12682  1.0000
  C   C46       1.0  0.38954  0.15813  0.19783  1.0000
  C  Sn3       1.0  0.40230  0.20552  0.28036  1.0000
  C  Sn4       1.0  0.46273  0.24792  0.29176  1.0000
  C   C47       1.0  0.50888  0.24184  0.22020  1.0000
  C   C48       1.0  0.49561  0.19423  0.13795  1.0000
  H   H39       1.0  0.42573  0.11561  0.06309  1.0000
  O  Te3       1.0  0.35535  0.21054  0.35067  1.0000
  O  Te4       1.0  0.47675  0.29573  0.37348  1.0000
  H   H40       1.0  0.53158  0.18985  0.08288  1.0000
  Mg  Mg2       1.0  0.39717  0.28342  0.44928  1.0000
  C   C49       1.0  0.89007  0.09994  0.25504  1.0000
  C   C50       1.0  0.83434  0.07345  0.35189  1.0000
  C  Sn5       1.0  0.80888  0.01503  0.44700  1.0000
  C  Sn6       1.0  0.83990  0.98265  0.44489  1.0000
  C   C51       1.0  0.89566  0.00957  0.34769  1.0000
  C   C52       1.0  0.92071  0.06805  0.25294  1.0000
  H   H41       1.0  0.90948  0.14519  0.18180  1.0000
  O  Te5       1.0  0.75315  0.98923  0.54302  1.0000
  O  Te6       1.0  0.30835  0.92421  0.53882  1.0000
  H   H42       1.0  0.96388  0.08856  0.17806  1.0000
  Mg  Mg3       1.0  0.23122  0.90841  0.64980  1.0000
  C   C53       1.0  0.69199  0.14403  0.43888  1.0000
  C   C54       1.0  0.74412  0.15777  0.34043  1.0000
  C  Sn7       1.0  0.77472  0.21158  0.22191  1.0000
  C  Sn8       1.0  0.75263  0.25230  0.20191  1.0000
  C   C55       1.0  0.70047  0.23815  0.30110  1.0000
  C   C56       1.0  0.67018  0.18418  0.41928  1.0000
  H   H43       1.0  0.66857  0.10228  0.53039  1.0000
  O  Te7       1.0  0.82672  0.22459  0.12454  1.0000
  O  Te8       1.0  0.78235  0.30640  0.08445  1.0000
  H   H44       1.0  0.62985  0.17357  0.49556  1.0000
  Mg  Mg4       1.0  0.80580  0.23232  0.98127  1.0000
  C   C57       1.0  0.82036  0.74858  0.29837  1.0000
  C   C58       1.0  0.83712  0.71962  0.19531  1.0000
  C  Sn9       1.0  0.89278  0.75097  0.09621  1.0000
  C  Sn10      1.0  0.93231  0.81244  0.10067  1.0000
  C   C59       1.0  0.91514  0.84100  0.20429  1.0000
  C   C60       1.0  0.85933  0.80921  0.30290  1.0000
  H   H45       1.0  0.77720  0.72398  0.37475  1.0000
  O  Te9       1.0  0.86322  0.64970  0.99390  1.0000
  O  Te10      1.0  0.98821  0.84484  0.00296  1.0000
  H   H46       1.0  0.84639  0.83163  0.38277  1.0000
  Mg  Mg5       1.0  0.94416  0.71304  0.88370  1.0000
  C   C61       1.0  0.67722  0.49357  0.36460  1.0000
  C   C62       1.0  0.73647  0.53811  0.30539  1.0000
  C  Sn11      1.0  0.77441  0.52422  0.22031  1.0000
  C  Sn12      1.0  0.75248  0.46461  0.19418  1.0000
  C   C63       1.0  0.69312  0.42038  0.25380  1.0000
  C   C64       1.0  0.65555  0.43477  0.33882  1.0000
  H   H47       1.0  0.64814  0.50470  0.43031  1.0000
  O  Te11      1.0  0.83349  0.56926  0.16204  1.0000
  O  Te12      1.0  0.78942  0.44950  0.10949  1.0000
  H   H48       1.0  0.60967  0.40029  0.38456  1.0000
  Mg  Mg6       1.0  0.86652  0.52653  0.05383  1.0000
  C   C65       1.0  0.14220  0.02238  0.81017  1.0000
  C   C66       1.0  0.09958  0.03495  0.74309  1.0000
  C  Sn13      1.0  0.11768  0.08848  0.62816  1.0000
  C  Sn14      1.0  0.17963  0.13011  0.57970  1.0000
  C   C67       1.0  0.22192  0.11710  0.64744  1.0000
  C   C68       1.0  0.20331  0.06340  0.76240  1.0000
  H   H49       1.0  0.12781  0.98083  0.89905  1.0000
  O  Te13      1.0  0.07451  0.10034  0.56240  1.0000
  O  Te14      1.0  0.19896  0.18394  0.46502  1.0000
  H   H50       1.0  0.23632  0.05367  0.81423  1.0000
  Mg  Mg7       1.0  0.12307  0.17981  0.41027  1.0000
  C   C69       1.0  0.43146  0.14909  0.63404  1.0000
  C   C70       1.0  0.38523  0.15578  0.70189  1.0000
  C  Sn15      1.0  0.39831  0.20452  0.77878  1.0000
  C  Sn16      1.0  0.45885  0.24729  0.78769  1.0000
  C   C71       1.0  0.50478  0.24022  0.71932  1.0000
  C   C72       1.0  0.49118  0.19127  0.64271  1.0000
  H   H51       1.0  0.42094  0.11124  0.57467  1.0000
  O  Te15      1.0  0.35158  0.21051  0.84598  1.0000
  O  Te16      1.0  0.47319  0.29644  0.86378  1.0000
  H   H52       1.0  0.52698  0.18612  0.59009  1.0000
  Mg  Mg8       1.0  0.39381  0.28508  0.93709  1.0000
  C   C73       1.0  0.33459  0.98378  0.97625  1.0000
  C   C74       1.0  0.38194  0.00327  0.85039  1.0000
  C  Sn17      1.0  0.40443  0.05889  0.74137  1.0000
  C  Sn18      1.0  0.37896  0.09559  0.75903  1.0000
  C   C75       1.0  0.33162  0.07570  0.88543  1.0000
  C   C76       1.0  0.30946  0.01996  0.99380  1.0000
  H   H53       1.0  0.36304  0.01232  0.06017  1.0000
  O  Te17      1.0  0.45174  0.07766  0.61627  1.0000
  O  Te18      1.0  0.40058  0.15138  0.65182  1.0000
  H   H54       1.0  0.31841  0.07656  0.09131  1.0000
  Mg  Mg9       1.0  0.46568  0.15727  0.50080  1.0000
  C   C77       1.0  0.66797  0.15836  0.90255  1.0000
  C   C78       1.0  0.68734  0.21837  0.83001  1.0000
  C  Sn19      1.0  0.74408  0.25471  0.73783  1.0000
  C  Sn20      1.0  0.78202  0.23041  0.71808  1.0000
  C   C79       1.0  0.76221  0.17031  0.79104  1.0000
  C   C80       1.0  0.70535  0.13434  0.88308  1.0000
  H   H55       1.0  0.62396  0.13052  0.97369  1.0000
  O  Te19      1.0  0.76273  0.31458  0.66624  1.0000
  O  Te20      1.0  0.83894  0.26572  0.62652  1.0000
  H   H56       1.0  0.69035  0.08788  0.93914  1.0000
  Mg  Mg10      1.0  0.84418  0.34473  0.55287  1.0000
  C   C81       1.0  0.92748  0.80242  0.58882  1.0000
  C   C82       1.0  0.90852  0.83322  0.67812  1.0000
  C  Sn21      1.0  0.85431  0.80180  0.78410  1.0000
  C  Sn22      1.0  0.81852  0.73836  0.80078  1.0000
  C   C83       1.0  0.83790  0.70796  0.71099  1.0000
  C   C84       1.0  0.89221  0.73985  0.60525  1.0000
  H   H57       1.0  0.96952  0.82709  0.50707  1.0000
  O  Te21      1.0  0.83603  0.83327  0.87235  1.0000
  O  Te22      1.0  0.76415  0.70584  0.90588  1.0000
  H   H58       1.0  0.90690  0.71599  0.53621  1.0000
  Mg  Mg11      1.0  0.75842  0.76895  0.99995  1.0000
  C   C85       1.0  0.67267  0.49292  0.87679  1.0000
  C   C86       1.0  0.73174  0.53757  0.81585  1.0000
  C  Sn23      1.0  0.76886  0.52423  0.72468  1.0000
  C  Sn24      1.0  0.74630  0.46506  0.69411  1.0000
  C   C87       1.0  0.68713  0.42072  0.75551  1.0000
  C   C88       1.0  0.65038  0.43455  0.84664  1.0000
  H   H59       1.0  0.64423  0.50362  0.94723  1.0000
  O  Te23      1.0  0.82776  0.56937  0.66475  1.0000
  O  Te24      1.0  0.78242  0.45051  0.60329  1.0000
  H   H60       1.0  0.60464  0.39998  0.89372  1.0000
  Mg  Mg12      1.0  0.85958  0.52747  0.54762  1.0000
