data_image0
_chemical_formula_structural       H32C44N10O2C2Sn2C2HTe2HMgC2Sn2C2HTe2HMgC2Sn2C2HTe2HMgC2Sn2C2HTe2HMgC2Sn2C2HTe2HMgC2Sn2C2HTe2HMgC2Sn2C2HTe2HMgC2Sn2C2HTe2HMgC2Sn2C2HTe2HMgC2Sn2C2HTe2HMgC2Sn2C2HTe2HMgC2Sn2C2HTe2HMg
_chemical_formula_sum              "H56 C92 N10 O2 Sn24 Te24 Mg12"
_cell_length_a       26.1384
_cell_length_b       25.689
_cell_length_c       7.94938
_cell_angle_alpha    79.0483
_cell_angle_beta     96.4953
_cell_angle_gamma    120.41

_symmetry_space_group_name_H-M    'P1'
_space_group_IT_number       1

loop_
  _space_group_symop_operation_xyz
  'x, y, z'

loop_
  _atom_site_type_symbol
  _atom_site_label
  _atom_site_symmetry_multiplicity
  _atom_site_fract_x
  _atom_site_fract_y
  _atom_site_fract_z
  _atom_site_occupancy
  H   H1        1.0  0.33896  0.10248  0.22540  1.0000
  H   H2        1.0  0.62887  0.22642  0.12014  1.0000
  H   H3        1.0  0.89114  0.22374  0.06412  1.0000
  H   H4        1.0  0.78083  0.40278  0.16269  1.0000
  H   H5        1.0  0.77791  0.67704  0.12342  1.0000
  H   H6        1.0  0.60520  0.37870  0.14250  1.0000
  H   H7        1.0  0.01353  0.66108  0.46336  1.0000
  H   H8        1.0  0.13432  0.72759  0.53652  1.0000
  H   H9        1.0  0.08264  0.86414  0.05355  1.0000
  H   H10       1.0  0.16300  0.93218  0.32375  1.0000
  H   H11       1.0  0.20361  0.87003  0.45543  1.0000
  H   H12       1.0  0.06783  0.11279  0.25175  1.0000
  H   H13       1.0  0.90301  0.94460  0.34911  1.0000
  H   H14       1.0  0.11390  0.96923  0.17945  1.0000
  H   H15       1.0  0.33480  0.10550  0.70184  1.0000
  H   H16       1.0  0.62443  0.22429  0.61882  1.0000
  H   H17       1.0  0.87818  0.21018  0.57015  1.0000
  H   H18       1.0  0.77866  0.39867  0.66287  1.0000
  H   H19       1.0  0.77636  0.67462  0.63197  1.0000
  H   H20       1.0  0.60498  0.37979  0.63416  1.0000
  H   H21       1.0  0.02440  0.66597  0.96710  1.0000
  H   H22       1.0  0.14514  0.73662  0.03303  1.0000
  H   H23       1.0  0.08341  0.86729  0.55576  1.0000
  H   H24       1.0  0.16816  0.94099  0.80622  1.0000
  H   H25       1.0  0.20751  0.87954  0.95476  1.0000
  H   H26       1.0  0.06411  0.11220  0.75595  1.0000
  H   H27       1.0  0.90181  0.94151  0.85899  1.0000
  H   H28       1.0  0.11294  0.97139  0.67415  1.0000
  H   H29       1.0  0.18590  0.93084  0.61320  1.0000
  H   H30       1.0  0.21564  0.86103  0.75900  1.0000
  H   H31       1.0  0.18465  0.92864  0.12665  1.0000
  H   H32       1.0  0.20786  0.85101  0.25583  1.0000
  C   C1        1.0  0.07181  0.03203  0.25647  1.0000
  C   C2        1.0  0.35578  0.15091  0.17079  1.0000
  C   C3        1.0  0.60955  0.29821  0.12835  1.0000
  C   C4        1.0  0.64748  0.27428  0.13158  1.0000
  C   C5        1.0  0.04192  0.06331  0.26304  1.0000
  C   C6        1.0  0.98081  0.03364  0.29589  1.0000
  C   C7        1.0  0.85958  0.20554  0.16874  1.0000
  C   C8        1.0  0.70933  0.31147  0.14270  1.0000
  C   C9        1.0  0.73298  0.37356  0.15240  1.0000
  C   C10       1.0  0.95023  0.96904  0.32346  1.0000
  C   C11       1.0  0.97639  0.93409  0.31593  1.0000
  C   C12       1.0  0.79518  0.65185  0.21661  1.0000
  C   C13       1.0  0.69605  0.39866  0.15169  1.0000
  C   C14       1.0  0.63446  0.36046  0.13753  1.0000
  C   C15       1.0  0.03927  0.96524  0.27698  1.0000
  C   C16       1.0  0.04484  0.70834  0.41634  1.0000
  C   C17       1.0  0.10509  0.74033  0.45529  1.0000
  C   C18       1.0  0.07548  0.79890  0.28139  1.0000
  C   C19       1.0  0.09094  0.86147  0.19236  1.0000
  C   C20       1.0  0.15810  0.90053  0.24003  1.0000
  C   C21       1.0  0.17929  0.85589  0.33559  1.0000
  C   C22       1.0  0.07090  0.93906  0.23734  1.0000
  C   C23       1.0  0.06998  0.03265  0.75776  1.0000
  C   C24       1.0  0.35240  0.15441  0.65203  1.0000
  C   C25       1.0  0.60692  0.29784  0.62243  1.0000
  C   C26       1.0  0.64370  0.27232  0.62941  1.0000
  C   C27       1.0  0.03911  0.06266  0.76797  1.0000
  C   C28       1.0  0.97820  0.03150  0.80480  1.0000
  C   C29       1.0  0.84974  0.19539  0.68107  1.0000
  C   C30       1.0  0.70559  0.30830  0.64392  1.0000
  C   C31       1.0  0.73067  0.37073  0.65134  1.0000
  C   C32       1.0  0.94895  0.96696  0.83226  1.0000
  C   C33       1.0  0.97621  0.93331  0.82204  1.0000
  C   C34       1.0  0.79540  0.65012  0.72052  1.0000
  C   C35       1.0  0.69502  0.39743  0.64739  1.0000
  C   C36       1.0  0.63330  0.36033  0.63103  1.0000
  C   C37       1.0  0.03880  0.96586  0.77976  1.0000
  C   C38       1.0  0.05412  0.71362  0.91902  1.0000
  C   C39       1.0  0.11444  0.74772  0.95427  1.0000
  C   C40       1.0  0.08106  0.80337  0.78264  1.0000
  C   C41       1.0  0.09376  0.86513  0.69367  1.0000
  C   C42       1.0  0.16147  0.90611  0.73199  1.0000
  C   C43       1.0  0.18480  0.86413  0.83427  1.0000
  C   C44       1.0  0.07115  0.94071  0.73825  1.0000
  N   N1        1.0  0.32124  0.17431  0.13689  1.0000
  N   N2        1.0  0.85404  0.16099  0.28831  1.0000
  N   N3        1.0  0.83581  0.67667  0.33100  1.0000
  N   N4        1.0  0.12377  0.79865  0.36840  1.0000
  N   N5        1.0  0.02680  0.74491  0.30720  1.0000
  N   N6        1.0  0.31818  0.17822  0.62157  1.0000
  N   N7        1.0  0.84595  0.15265  0.80454  1.0000
  N   N8        1.0  0.83747  0.67566  0.83065  1.0000
  N   N9        1.0  0.13078  0.80541  0.86628  1.0000
  N   N10       1.0  0.03374  0.74840  0.81141  1.0000
  O   O1        1.0  0.05224  0.87840  0.25924  1.0000
  O   O2        1.0  0.05494  0.88058  0.76697  1.0000
  C   C45       1.0  0.22466  0.07339  0.33011  1.0000
  C   C46       1.0  0.25607  0.12346  0.20458  1.0000
  C  Sn1       1.0  0.22656  0.14880  0.09184  1.0000
  C  Sn2       1.0  0.16446  0.12345  0.10538  1.0000
  C   C47       1.0  0.13345  0.07338  0.23149  1.0000
  C   C48       1.0  0.16342  0.04838  0.34360  1.0000
  H   H33       1.0  0.24785  0.05406  0.41693  1.0000
  O  Te1       1.0  0.26554  0.14359  0.96712  1.0000
  O  Te2       1.0  0.14080  0.09268  0.99440  1.0000
  H   H34       1.0  0.13910  0.00963  0.44086  1.0000
  Mg  Mg1       1.0  0.20400  0.16081  0.84558  1.0000
  C   C49       1.0  0.50442  0.18528  0.23849  1.0000
  C   C50       1.0  0.53881  0.24239  0.14086  1.0000
  C  Sn3       1.0  0.51180  0.27347  0.04300  1.0000
  C  Sn4       1.0  0.44918  0.24678  0.04317  1.0000
  C   C51       1.0  0.41516  0.18964  0.14137  1.0000
  C   C52       1.0  0.44265  0.15893  0.23878  1.0000
  H   H35       1.0  0.52568  0.16152  0.31394  1.0000
  O  Te3       1.0  0.55376  0.27527  0.94615  1.0000
  O  Te4       1.0  0.42797  0.22164  0.94658  1.0000
  H   H36       1.0  0.41601  0.11473  0.31444  1.0000
  Mg  Mg2       1.0  0.49480  0.29839  0.83540  1.0000
  C   C53       1.0  0.86730  0.05975  0.39671  1.0000
  C   C54       1.0  0.88449  0.12018  0.32498  1.0000
  C  Sn5       1.0  0.93643  0.15568  0.23087  1.0000
  C  Sn6       1.0  0.97173  0.13006  0.20834  1.0000
  C   C55       1.0  0.95413  0.06954  0.28051  1.0000
  C   C56       1.0  0.90208  0.03444  0.37449  1.0000
  H   H37       1.0  0.82701  0.03257  0.46935  1.0000
  O  Te5       1.0  0.95297  0.21599  0.16013  1.0000
  O  Te6       1.0  0.02385  0.16451  0.11482  1.0000
  H   H38       1.0  0.88877  0.98764  0.42992  1.0000
  Mg  Mg3       1.0  0.02778  0.24459  0.04332  1.0000
  C   C57       1.0  0.75584  0.20138  0.27176  1.0000
  C   C58       1.0  0.80710  0.22241  0.18037  1.0000
  C  Sn7       1.0  0.83086  0.27857  0.07190  1.0000
  C  Sn8       1.0  0.80270  0.31425  0.05492  1.0000
  C   C59       1.0  0.75147  0.29282  0.14700  1.0000
  C   C60       1.0  0.72805  0.23655  0.25514  1.0000
  H   H39       1.0  0.73774  0.15786  0.35551  1.0000
  O  Te7       1.0  0.88902  0.24367  0.98148  1.0000
  O  Te8       1.0  0.83246  0.31534  0.94746  1.0000
  H   H40       1.0  0.68839  0.22029  0.32597  1.0000
  Mg  Mg4       1.0  0.90319  0.32344  0.85096  1.0000
  C   C61       1.0  0.86948  0.83024  0.22307  1.0000
  C   C62       1.0  0.92097  0.86180  0.31937  1.0000
  C  Sn9       1.0  0.94489  0.83007  0.43041  1.0000
  C  Sn10      1.0  0.91664  0.76555  0.44499  1.0000
  C   C63       1.0  0.86517  0.73440  0.34800  1.0000
  C   C64       1.0  0.84160  0.76660  0.23732  1.0000
  H   H41       1.0  0.85125  0.85515  0.13736  1.0000
  O  Te9       1.0  0.99635  0.86231  0.52573  1.0000
  O  Te10      1.0  0.93961  0.73271  0.55494  1.0000
  H   H42       1.0  0.80176  0.74216  0.16269  1.0000
  Mg  Mg5       1.0  0.01065  0.79716  0.65808  1.0000
  C   C65       1.0  0.78503  0.50670  0.28693  1.0000
  C   C66       1.0  0.73278  0.46898  0.20263  1.0000
  C  Sn11      1.0  0.69934  0.49310  0.10622  1.0000
  C  Sn12      1.0  0.71867  0.55617  0.09419  1.0000
  C   C67       1.0  0.77102  0.59354  0.17891  1.0000
  C   C68       1.0  0.80414  0.56892  0.27508  1.0000
  H   H43       1.0  0.81067  0.48767  0.36127  1.0000
  O  Te11      1.0  0.64724  0.45476  0.02285  1.0000
  O  Te12      1.0  0.69304  0.52626  0.99864  1.0000
  H   H44       1.0  0.84460  0.59815  0.34024  1.0000
  Mg  Mg6       1.0  0.62505  0.45542  0.90819  1.0000
  C   C69       1.0  0.22379  0.07757  0.82078  1.0000
  C   C70       1.0  0.25377  0.12751  0.69345  1.0000
  C  Sn13      1.0  0.22281  0.15153  0.58237  1.0000
  C  Sn14      1.0  0.16070  0.12497  0.59944  1.0000
  C   C71       1.0  0.13112  0.07505  0.72732  1.0000
  C   C72       1.0  0.16253  0.05136  0.83774  1.0000
  H   H45       1.0  0.24809  0.05926  0.90628  1.0000
  O  Te13      1.0  0.25345  0.20143  0.45582  1.0000
  O  Te14      1.0  0.12867  0.14809  0.49019  1.0000
  H   H46       1.0  0.13931  0.01271  0.93639  1.0000
  Mg  Mg7       1.0  0.19026  0.21662  0.33776  1.0000
  C   C73       1.0  0.46638  0.16584  0.71989  1.0000
  C   C74       1.0  0.42407  0.18245  0.65176  1.0000
  C  Sn15      1.0  0.44167  0.23976  0.55300  1.0000
  C  Sn16      1.0  0.50280  0.28109  0.52204  1.0000
  C   C75       1.0  0.54478  0.26402  0.59066  1.0000
  C   C76       1.0  0.52668  0.20657  0.68936  1.0000
  H   H47       1.0  0.45237  0.12138  0.79618  1.0000
  O  Te15      1.0  0.39882  0.25563  0.48595  1.0000
  O  Te16      1.0  0.52162  0.33864  0.42372  1.0000
  H   H48       1.0  0.55944  0.19371  0.74199  1.0000
  Mg  Mg8       1.0  0.44644  0.33925  0.36005  1.0000
  C   C77       1.0  0.86204  0.05268  0.91097  1.0000
  C   C78       1.0  0.87709  0.11251  0.83826  1.0000
  C  Sn17      1.0  0.92835  0.14922  0.74172  1.0000
  C  Sn18      1.0  0.96513  0.12547  0.71771  1.0000
  C   C79       1.0  0.94967  0.06554  0.79088  1.0000
  C   C80       1.0  0.89829  0.02920  0.88729  1.0000
  H   H49       1.0  0.82227  0.02455  0.98549  1.0000
  O  Te17      1.0  0.94274  0.20890  0.67003  1.0000
  O  Te18      1.0  0.01660  0.16116  0.62175  1.0000
  H   H50       1.0  0.88663  0.98287  0.94348  1.0000
  Mg  Mg9       1.0  0.01745  0.23972  0.54980  1.0000
  C   C81       1.0  0.81052  0.31042  0.55321  1.0000
  C   C82       1.0  0.75597  0.28806  0.62833  1.0000
  C  Sn19      1.0  0.73101  0.23242  0.73916  1.0000
  C  Sn20      1.0  0.76135  0.19867  0.77524  1.0000
  C   C83       1.0  0.81592  0.22146  0.69953  1.0000
  C   C84       1.0  0.84048  0.27717  0.58878  1.0000
  H   H51       1.0  0.82954  0.35354  0.46759  1.0000
  O  Te19      1.0  0.67646  0.21073  0.81307  1.0000
  O  Te20      1.0  0.73743  0.14295  0.88558  1.0000
  H   H52       1.0  0.88274  0.29449  0.53072  1.0000
  Mg  Mg10      1.0  0.66194  0.13244  0.95494  1.0000
  C   C85       1.0  0.87215  0.82956  0.71725  1.0000
  C   C86       1.0  0.92183  0.86093  0.81993  1.0000
  C  Sn21      1.0  0.94440  0.82908  0.93639  1.0000
  C  Sn22      1.0  0.91662  0.76462  0.94998  1.0000
  C   C87       1.0  0.86696  0.73367  0.84660  1.0000
  C   C88       1.0  0.84474  0.76599  0.73053  1.0000
  H   H53       1.0  0.85497  0.85457  0.62738  1.0000
  O  Te21      1.0  0.98713  0.91635  0.03805  1.0000
  O  Te22      1.0  0.93134  0.78687  0.06526  1.0000
  H   H54       1.0  0.80629  0.74170  0.65097  1.0000
  Mg  Mg11      1.0  0.00012  0.85108  0.17608  1.0000
  C   C89       1.0  0.70882  0.54479  0.57847  1.0000
  C   C90       1.0  0.75570  0.57925  0.68490  1.0000
  C  Sn23      1.0  0.78830  0.55426  0.78214  1.0000
  C  Sn24      1.0  0.77359  0.49363  0.77233  1.0000
  C   C91       1.0  0.72664  0.45954  0.66538  1.0000
  C   C92       1.0  0.69431  0.48499  0.56868  1.0000
  H   H55       1.0  0.68382  0.56449  0.50358  1.0000
  O  Te23      1.0  0.83498  0.58932  0.88786  1.0000
  O  Te24      1.0  0.80546  0.46753  0.86807  1.0000
  H   H56       1.0  0.65804  0.45831  0.48620  1.0000
  Mg  Mg12      1.0  0.86525  0.53356  0.99353  1.0000
