data_image0
_chemical_formula_structural       H24C60N36O12C2Sn2C2HTe2HMgC2Sn2C2HTe2HMgC2Sn2C2HTe2HMgC2Sn2C2HTe2HMgC2Sn2C2HTe2HMgC2Sn2C2HTe2HMgC2Sn2C2HTe2HMgC2Sn2C2HTe2HMgC2Sn2C2HTe2HMgC2Sn2C2HTe2HMgC2Sn2C2HTe2HMgC2Sn2C2HTe2HMg
_chemical_formula_sum              "H48 C108 N36 O12 Sn24 Te24 Mg12"
_cell_length_a       38.0133
_cell_length_b       38.1777
_cell_length_c       7.93676
_cell_angle_alpha    118.543
_cell_angle_beta     83.8749
_cell_angle_gamma    120.436

_symmetry_space_group_name_H-M    'P1'
_space_group_IT_number       1

loop_
  _space_group_symop_operation_xyz
  'x, y, z'

loop_
  _atom_site_type_symbol
  _atom_site_label
  _atom_site_symmetry_multiplicity
  _atom_site_fract_x
  _atom_site_fract_y
  _atom_site_fract_z
  _atom_site_occupancy
  H   H1        1.0  0.41580  0.91605  0.41496  1.0000
  H   H2        1.0  0.43923  0.43741  0.39699  1.0000
  H   H3        1.0  0.56237  0.56976  0.32121  1.0000
  H   H4        1.0  0.00924  0.44237  0.37840  1.0000
  H   H5        1.0  0.56789  0.00346  0.26467  1.0000
  H   H6        1.0  0.99151  0.56099  0.32482  1.0000
  H   H7        1.0  0.43207  0.99931  0.41093  1.0000
  H   H8        1.0  0.90525  0.49161  0.29433  1.0000
  H   H9        1.0  0.09544  0.51130  0.40597  1.0000
  H   H10       1.0  0.49649  0.58757  0.31138  1.0000
  H   H11       1.0  0.50531  0.42002  0.40744  1.0000
  H   H12       1.0  0.58532  0.08847  0.27202  1.0000
  H   H13       1.0  0.41379  0.90944  0.90818  1.0000
  H   H14       1.0  0.43756  0.43180  0.90482  1.0000
  H   H15       1.0  0.55973  0.56297  0.81874  1.0000
  H   H16       1.0  0.00884  0.43872  0.87796  1.0000
  H   H17       1.0  0.56665  0.99803  0.76454  1.0000
  H   H18       1.0  0.99104  0.55690  0.82009  1.0000
  H   H19       1.0  0.43068  0.99350  0.90944  1.0000
  H   H20       1.0  0.90483  0.48773  0.79165  1.0000
  H   H21       1.0  0.09499  0.50782  0.90676  1.0000
  H   H22       1.0  0.49365  0.57984  0.80651  1.0000
  H   H23       1.0  0.50354  0.41379  0.91015  1.0000
  H   H24       1.0  0.58383  0.08257  0.77030  1.0000
  C   C1        1.0  0.66692  0.37119  0.36153  1.0000
  C   C2        1.0  0.63180  0.30472  0.37408  1.0000
  C   C3        1.0  0.70010  0.33766  0.37326  1.0000
  C   C4        1.0  0.33441  0.63475  0.34400  1.0000
  C   C5        1.0  0.36898  0.70123  0.33134  1.0000
  C   C6        1.0  0.30089  0.66837  0.33778  1.0000
  C   C7        1.0  0.56091  0.46468  0.34293  1.0000
  C   C8        1.0  0.53544  0.10059  0.35112  1.0000
  C   C9        1.0  0.90150  0.43880  0.33908  1.0000
  C   C10       1.0  0.44053  0.54208  0.37039  1.0000
  C   C11       1.0  0.46465  0.90242  0.32581  1.0000
  C   C12       1.0  0.09939  0.56495  0.36660  1.0000
  C   C13       1.0  0.53903  0.50699  0.34048  1.0000
  C   C14       1.0  0.49441  0.03678  0.36118  1.0000
  C   C15       1.0  0.96676  0.46231  0.35015  1.0000
  C   C16       1.0  0.46240  0.50006  0.37613  1.0000
  C   C17       1.0  0.50545  0.96582  0.31221  1.0000
  C   C18       1.0  0.03399  0.54080  0.35085  1.0000
  C   C19       1.0  0.50414  0.46981  0.36013  1.0000
  C   C20       1.0  0.53268  0.03794  0.32420  1.0000
  C   C21       1.0  0.96230  0.49613  0.33705  1.0000
  C   C22       1.0  0.49738  0.53734  0.35713  1.0000
  C   C23       1.0  0.46743  0.96510  0.35282  1.0000
  C   C24       1.0  0.03845  0.50698  0.36387  1.0000
  C   C25       1.0  0.46542  0.46519  0.37887  1.0000
  C   C26       1.0  0.53924  0.00305  0.29729  1.0000
  C   C27       1.0  0.99503  0.53570  0.33667  1.0000
  C   C28       1.0  0.53610  0.54200  0.33898  1.0000
  C   C29       1.0  0.46071  0.99972  0.37790  1.0000
  C   C30       1.0  0.00571  0.46744  0.36443  1.0000
  C   C31       1.0  0.66573  0.36551  0.85932  1.0000
  C   C32       1.0  0.63138  0.29965  0.87657  1.0000
  C   C33       1.0  0.69973  0.33324  0.87604  1.0000
  C   C34       1.0  0.33360  0.62954  0.84411  1.0000
  C   C35       1.0  0.36849  0.69586  0.83033  1.0000
  C   C36       1.0  0.30061  0.66399  0.84126  1.0000
  C   C37       1.0  0.55888  0.45859  0.84541  1.0000
  C   C38       1.0  0.53426  0.09508  0.85245  1.0000
  C   C39       1.0  0.90103  0.43491  0.83680  1.0000
  C   C40       1.0  0.43806  0.53517  0.87063  1.0000
  C   C41       1.0  0.46346  0.89683  0.82626  1.0000
  C   C42       1.0  0.09890  0.56111  0.86510  1.0000
  C   C43       1.0  0.53691  0.50074  0.84236  1.0000
  C   C44       1.0  0.49310  0.03111  0.86140  1.0000
  C   C45       1.0  0.96637  0.45874  0.85028  1.0000
  C   C46       1.0  0.46027  0.49372  0.87933  1.0000
  C   C47       1.0  0.50415  0.96012  0.81196  1.0000
  C   C48       1.0  0.03352  0.53703  0.84922  1.0000
  C   C49       1.0  0.50220  0.46380  0.86427  1.0000
  C   C50       1.0  0.53138  0.03229  0.82451  1.0000
  C   C51       1.0  0.96188  0.49244  0.83619  1.0000
  C   C52       1.0  0.49501  0.53069  0.85782  1.0000
  C   C53       1.0  0.46606  0.95926  0.85161  1.0000
  C   C54       1.0  0.03798  0.50330  0.86314  1.0000
  C   C55       1.0  0.46352  0.45921  0.88404  1.0000
  C   C56       1.0  0.53793  0.99742  0.79714  1.0000
  C   C57       1.0  0.99455  0.53186  0.83445  1.0000
  C   C58       1.0  0.53374  0.53542  0.83882  1.0000
  C   C59       1.0  0.45935  0.99394  0.87693  1.0000
  C   C60       1.0  0.00531  0.46384  0.86449  1.0000
  N   N1        1.0  0.63033  0.33824  0.36390  1.0000
  N   N2        1.0  0.66530  0.30235  0.38035  1.0000
  N   N3        1.0  0.70330  0.37313  0.36553  1.0000
  N   N4        1.0  0.37076  0.66759  0.33924  1.0000
  N   N5        1.0  0.33537  0.70359  0.32856  1.0000
  N   N6        1.0  0.29799  0.63290  0.34406  1.0000
  N   N7        1.0  0.57320  0.50237  0.32888  1.0000
  N   N8        1.0  0.49727  0.07576  0.37552  1.0000
  N   N9        1.0  0.92870  0.42769  0.35136  1.0000
  N   N10       1.0  0.42816  0.50447  0.38543  1.0000
  N   N11       1.0  0.50243  0.92660  0.29604  1.0000
  N   N12       1.0  0.07210  0.57579  0.35255  1.0000
  N   N13       1.0  0.51891  0.44265  0.35530  1.0000
  N   N14       1.0  0.55841  0.07984  0.32424  1.0000
  N   N15       1.0  0.92028  0.48029  0.33349  1.0000
  N   N16       1.0  0.48258  0.56433  0.36034  1.0000
  N   N17       1.0  0.44185  0.92354  0.35570  1.0000
  N   N18       1.0  0.08057  0.52321  0.37004  1.0000
  N   N19       1.0  0.62946  0.33285  0.86557  1.0000
  N   N20       1.0  0.66517  0.29785  0.88422  1.0000
  N   N21       1.0  0.70233  0.36797  0.86392  1.0000
  N   N22       1.0  0.36999  0.66197  0.83730  1.0000
  N   N23       1.0  0.33514  0.69887  0.83068  1.0000
  N   N24       1.0  0.29742  0.62832  0.84680  1.0000
  N   N25       1.0  0.57107  0.49610  0.83002  1.0000
  N   N26       1.0  0.49607  0.07024  0.87663  1.0000
  N   N27       1.0  0.92829  0.42397  0.85038  1.0000
  N   N28       1.0  0.42590  0.49792  0.88810  1.0000
  N   N29       1.0  0.50129  0.92112  0.79709  1.0000
  N   N30       1.0  0.07165  0.57194  0.85042  1.0000
  N   N31       1.0  0.51709  0.43681  0.86001  1.0000
  N   N32       1.0  0.55727  0.07433  0.82547  1.0000
  N   N33       1.0  0.91981  0.47642  0.83128  1.0000
  N   N34       1.0  0.48009  0.55740  0.85957  1.0000
  N   N35       1.0  0.44064  0.91786  0.85557  1.0000
  N   N36       1.0  0.08008  0.51947  0.86928  1.0000
  O   O1        1.0  0.67149  0.40761  0.35176  1.0000
  O   O2        1.0  0.59416  0.27227  0.37821  1.0000
  O   O3        1.0  0.73309  0.33321  0.37542  1.0000
  O   O4        1.0  0.32987  0.59806  0.35127  1.0000
  O   O5        1.0  0.40636  0.73355  0.32443  1.0000
  O   O6        1.0  0.26792  0.67308  0.34025  1.0000
  O   O7        1.0  0.66964  0.40104  0.84400  1.0000
  O   O8        1.0  0.59380  0.26690  0.87946  1.0000
  O   O9        1.0  0.73311  0.32967  0.88183  1.0000
  O   O10       1.0  0.32866  0.59261  0.85064  1.0000
  O   O11       1.0  0.40575  0.72771  0.82053  1.0000
  O   O12       1.0  0.26787  0.66921  0.84604  1.0000
  C   C61       1.0  0.64045  0.47519  0.33621  1.0000
  C   C62       1.0  0.59759  0.45328  0.32961  1.0000
  C  Sn1       1.0  0.57607  0.41215  0.34023  1.0000
  C  Sn2       1.0  0.59795  0.39270  0.35783  1.0000
  C   C63       1.0  0.64084  0.41491  0.36445  1.0000
  C   C64       1.0  0.66207  0.45604  0.35364  1.0000
  H   H25       1.0  0.65688  0.50703  0.32796  1.0000
  O  Te1       1.0  0.53324  0.39069  0.33336  1.0000
  O  Te2       1.0  0.57722  0.35163  0.36881  1.0000
  H   H26       1.0  0.69526  0.47302  0.35888  1.0000
  Mg  Mg1       1.0  0.51878  0.33531  0.35339  1.0000
  C   C65       1.0  0.52343  0.16498  0.31929  1.0000
  C   C66       1.0  0.54511  0.14604  0.33748  1.0000
  C  Sn3       1.0  0.58837  0.17242  0.38532  1.0000
  C  Sn4       1.0  0.61023  0.21862  0.41547  1.0000
  C   C67       1.0  0.58824  0.23727  0.39706  1.0000
  C   C68       1.0  0.54496  0.21056  0.34907  1.0000
  H   H27       1.0  0.48994  0.14433  0.28227  1.0000
  O  Te3       1.0  0.60955  0.15295  0.40284  1.0000
  O  Te4       1.0  0.65345  0.24577  0.46349  1.0000
  H   H28       1.0  0.52818  0.22525  0.33512  1.0000
  Mg  Mg2       1.0  0.66844  0.20376  0.47070  1.0000
  C   C69       1.0  0.81007  0.34696  0.35415  1.0000
  C   C70       1.0  0.77957  0.35811  0.37191  1.0000
  C  Sn5       1.0  0.78838  0.39776  0.36633  1.0000
  C  Sn6       1.0  0.82850  0.42669  0.34244  1.0000
  C   C71       1.0  0.85878  0.41521  0.32466  1.0000
  C   C72       1.0  0.84963  0.37547  0.33051  1.0000
  H   H29       1.0  0.80298  0.31620  0.35856  1.0000
  O  Te5       1.0  0.75756  0.40840  0.38437  1.0000
  O  Te6       1.0  0.83814  0.46651  0.33629  1.0000
  H   H30       1.0  0.87324  0.36683  0.31662  1.0000
  Mg  Mg3       1.0  0.78571  0.46640  0.36720  1.0000
  C   C73       1.0  0.36104  0.53147  0.37520  1.0000
  C   C74       1.0  0.40290  0.55036  0.35855  1.0000
  C  Sn7       1.0  0.42453  0.59168  0.34946  1.0000
  C  Sn8       1.0  0.40378  0.61445  0.35727  1.0000
  C   C75       1.0  0.36191  0.59528  0.37407  1.0000
  C   C76       1.0  0.34056  0.55391  0.38298  1.0000
  H   H31       1.0  0.34453  0.49947  0.38220  1.0000
  O  Te7       1.0  0.46633  0.61007  0.33277  1.0000
  O  Te8       1.0  0.42466  0.65580  0.34855  1.0000
  H   H32       1.0  0.30816  0.53931  0.39600  1.0000
  Mg  Mg4       1.0  0.48144  0.66718  0.32603  1.0000
  C   C77       1.0  0.38760  0.79845  0.33218  1.0000
  C   C78       1.0  0.40798  0.77538  0.31584  1.0000
  C  Sn9       1.0  0.45042  0.79591  0.31114  1.0000
  C  Sn10      1.0  0.47279  0.84036  0.32310  1.0000
  C   C79       1.0  0.45212  0.86316  0.33955  1.0000
  C   C80       1.0  0.40964  0.84230  0.34406  1.0000
  H   H33       1.0  0.35475  0.78232  0.33577  1.0000
  O  Te9       1.0  0.47029  0.77238  0.29469  1.0000
  O  Te10      1.0  0.51522  0.86168  0.31881  1.0000
  H   H34       1.0  0.39388  0.86018  0.35684  1.0000
  Mg  Mg5       1.0  0.52849  0.81576  0.29481  1.0000
  C   C81       1.0  0.20502  0.59514  0.38319  1.0000
  C   C82       1.0  0.22495  0.63256  0.34655  1.0000
  C  Sn11      1.0  0.20330  0.65152  0.32825  1.0000
  C  Sn12      1.0  0.16091  0.63260  0.34711  1.0000
  C   C83       1.0  0.14126  0.59518  0.38391  1.0000
  C   C84       1.0  0.16322  0.57647  0.40189  1.0000
  H   H35       1.0  0.22201  0.58068  0.39722  1.0000
  O  Te11      1.0  0.22369  0.68889  0.29157  1.0000
  O  Te12      1.0  0.13854  0.65089  0.32956  1.0000
  H   H36       1.0  0.14778  0.54752  0.43039  1.0000
  Mg  Mg6       1.0  0.17997  0.70180  0.27941  1.0000
  C   C85       1.0  0.57147  0.38905  0.83211  1.0000
  C   C86       1.0  0.58104  0.43135  0.85047  1.0000
  C  Sn13      1.0  0.62175  0.46388  0.85635  1.0000
  C  Sn14      1.0  0.65340  0.45377  0.84354  1.0000
  C   C87       1.0  0.64350  0.41134  0.82507  1.0000
  C   C88       1.0  0.60266  0.37905  0.81939  1.0000
  H   H37       1.0  0.53988  0.36405  0.82761  1.0000
  O  Te13      1.0  0.63077  0.50598  0.87482  1.0000
  O  Te14      1.0  0.69434  0.48566  0.84898  1.0000
  H   H38       1.0  0.59526  0.34628  0.80505  1.0000
  Mg  Mg7       1.0  0.69121  0.53825  0.87566  1.0000
  C   C89       1.0  0.60377  0.18254  0.90514  1.0000
  C   C90       1.0  0.56251  0.14829  0.88079  1.0000
  C  Sn15      1.0  0.53030  0.15236  0.84017  1.0000
  C  Sn16      1.0  0.53968  0.19148  0.82365  1.0000
  C   C91       1.0  0.58106  0.22555  0.84812  1.0000
  C   C92       1.0  0.61305  0.22113  0.88880  1.0000
  H   H39       1.0  0.62852  0.17912  0.93651  1.0000
  O  Te15      1.0  0.48925  0.11783  0.81634  1.0000
  O  Te16      1.0  0.50809  0.19641  0.78307  1.0000
  H   H40       1.0  0.64499  0.24765  0.90751  1.0000
  Mg  Mg8       1.0  0.45701  0.14015  0.76282  1.0000
  C   C93       1.0  0.79676  0.40924  0.85074  1.0000
  C   C94       1.0  0.77520  0.36714  0.85374  1.0000
  C  Sn17      1.0  0.79620  0.34638  0.85959  1.0000
  C  Sn18      1.0  0.83960  0.36825  0.86253  1.0000
  C   C95       1.0  0.86089  0.41038  0.85963  1.0000
  C   C96       1.0  0.83957  0.43084  0.85371  1.0000
  H   H41       1.0  0.78027  0.42509  0.84626  1.0000
  O  Te17      1.0  0.77417  0.30431  0.86245  1.0000
  O  Te18      1.0  0.86135  0.34827  0.86845  1.0000
  H   H42       1.0  0.85628  0.46345  0.85151  1.0000
  Mg  Mg9       1.0  0.81761  0.29070  0.87044  1.0000
  C   C97       1.0  0.35889  0.52570  0.87870  1.0000
  C   C98       1.0  0.40047  0.54344  0.85740  1.0000
  C  Sn19      1.0  0.42230  0.58401  0.84262  1.0000
  C  Sn20      1.0  0.40205  0.60718  0.84940  1.0000
  C   C99       1.0  0.36045  0.58916  0.87088  1.0000
  C   C100      1.0  0.33890  0.54854  0.88547  1.0000
  H   H43       1.0  0.34222  0.49428  0.89010  1.0000
  O  Te19      1.0  0.46381  0.60125  0.82133  1.0000
  O  Te20      1.0  0.42313  0.64780  0.83504  1.0000
  H   H44       1.0  0.30672  0.53482  0.90209  1.0000
  Mg  Mg10      1.0  0.47937  0.65770  0.80769  1.0000
  C   C101      1.0  0.46663  0.80522  0.81418  1.0000
  C   C102      1.0  0.42676  0.77489  0.82739  1.0000
  C  Sn21      1.0  0.39489  0.78331  0.83078  1.0000
  C  Sn22      1.0  0.40317  0.82285  0.82070  1.0000
  C   C103      1.0  0.44315  0.85297  0.80738  1.0000
  C   C104      1.0  0.47482  0.84422  0.80416  1.0000
  H   H45       1.0  0.49114  0.79845  0.81158  1.0000
  O  Te21      1.0  0.35523  0.75266  0.84409  1.0000
  O  Te22      1.0  0.37187  0.83208  0.82374  1.0000
  H   H46       1.0  0.50568  0.86770  0.79380  1.0000
  Mg  Mg11      1.0  0.32288  0.78010  0.84335  1.0000
  C   C105      1.0  0.19001  0.65269  0.84797  1.0000
  C   C106      1.0  0.22221  0.64635  0.86679  1.0000
  C  Sn23      1.0  0.21377  0.60747  0.87804  1.0000
  C  Sn24      1.0  0.17230  0.57438  0.87021  1.0000
  C   C107      1.0  0.14030  0.58103  0.85123  1.0000
  C   C108      1.0  0.14910  0.62007  0.84017  1.0000
  H   H47       1.0  0.19681  0.68288  0.83930  1.0000
  O  Te23      1.0  0.24631  0.60167  0.89688  1.0000
  O  Te24      1.0  0.16299  0.53521  0.88106  1.0000
  H   H48       1.0  0.12416  0.62496  0.82547  1.0000
  Mg  Mg12      1.0  0.21797  0.54265  0.90605  1.0000
