data_image0
_chemical_formula_structural       H48C96N36O12C2Sn2C2HTe2HMgC2Sn2C2HTe2HMgC2Sn2C2HTe2HMgC2Sn2C2HTe2HMgC2Sn2C2HTe2HMgC2Sn2C2HTe2HMg
_chemical_formula_sum              "H60 C120 N36 O12 Sn12 Te12 Mg6"
_cell_length_a       38.0133
_cell_length_b       38.1777
_cell_length_c       7.93676
_cell_angle_alpha    118.543
_cell_angle_beta     83.8749
_cell_angle_gamma    120.436

_symmetry_space_group_name_H-M    'P1'
_space_group_IT_number       1

loop_
  _space_group_symop_operation_xyz
  'x, y, z'

loop_
  _atom_site_type_symbol
  _atom_site_label
  _atom_site_symmetry_multiplicity
  _atom_site_fract_x
  _atom_site_fract_y
  _atom_site_fract_z
  _atom_site_occupancy
  H   H1        1.0  0.68837  0.47650  0.32604  1.0000
  H   H2        1.0  0.47838  0.78771  0.31712  1.0000
  H   H3        1.0  0.64088  0.50389  0.32239  1.0000
  H   H4        1.0  0.50658  0.86319  0.31835  1.0000
  H   H5        1.0  0.54025  0.38616  0.35956  1.0000
  H   H6        1.0  0.38408  0.84207  0.32669  1.0000
  H   H7        1.0  0.58705  0.35970  0.36434  1.0000
  H   H8        1.0  0.35695  0.76859  0.32886  1.0000
  H   H9        1.0  0.41580  0.91605  0.41496  1.0000
  H   H10       1.0  0.43923  0.43741  0.39699  1.0000
  H   H11       1.0  0.56237  0.56976  0.32121  1.0000
  H   H12       1.0  0.00924  0.44237  0.37840  1.0000
  H   H13       1.0  0.56789  0.00346  0.26467  1.0000
  H   H14       1.0  0.99151  0.56099  0.32482  1.0000
  H   H15       1.0  0.43207  0.99931  0.41093  1.0000
  H   H16       1.0  0.90525  0.49161  0.29433  1.0000
  H   H17       1.0  0.09544  0.51130  0.40597  1.0000
  H   H18       1.0  0.49649  0.58757  0.31138  1.0000
  H   H19       1.0  0.50531  0.42002  0.40744  1.0000
  H   H20       1.0  0.58532  0.08847  0.27202  1.0000
  H   H21       1.0  0.68716  0.47309  0.84634  1.0000
  H   H22       1.0  0.52039  0.20361  0.80233  1.0000
  H   H23       1.0  0.47791  0.78268  0.81720  1.0000
  H   H24       1.0  0.21333  0.68646  0.84446  1.0000
  H   H25       1.0  0.63966  0.50080  0.84666  1.0000
  H   H26       1.0  0.49159  0.12666  0.78745  1.0000
  H   H27       1.0  0.50589  0.85875  0.82343  1.0000
  H   H28       1.0  0.13779  0.63996  0.85225  1.0000
  H   H29       1.0  0.53740  0.37673  0.83271  1.0000
  H   H30       1.0  0.61584  0.16426  0.93811  1.0000
  H   H31       1.0  0.38292  0.83608  0.82479  1.0000
  H   H32       1.0  0.15908  0.54192  0.87838  1.0000
  H   H33       1.0  0.58416  0.34980  0.83285  1.0000
  H   H34       1.0  0.64406  0.23931  0.94617  1.0000
  H   H35       1.0  0.35599  0.76243  0.82439  1.0000
  H   H36       1.0  0.23286  0.58741  0.86869  1.0000
  H   H37       1.0  0.41379  0.90944  0.90818  1.0000
  H   H38       1.0  0.43756  0.43180  0.90482  1.0000
  H   H39       1.0  0.55973  0.56297  0.81874  1.0000
  H   H40       1.0  0.00884  0.43872  0.87796  1.0000
  H   H41       1.0  0.56665  0.99803  0.76454  1.0000
  H   H42       1.0  0.99104  0.55690  0.82009  1.0000
  H   H43       1.0  0.43068  0.99350  0.90944  1.0000
  H   H44       1.0  0.90483  0.48773  0.79165  1.0000
  H   H45       1.0  0.09499  0.50782  0.90676  1.0000
  H   H46       1.0  0.49365  0.57984  0.80651  1.0000
  H   H47       1.0  0.50354  0.41379  0.91015  1.0000
  H   H48       1.0  0.58383  0.08257  0.77030  1.0000
  C   C1        1.0  0.66692  0.37119  0.36153  1.0000
  C   C2        1.0  0.63180  0.30472  0.37408  1.0000
  C   C3        1.0  0.70010  0.33766  0.37326  1.0000
  C   C4        1.0  0.33441  0.63475  0.34400  1.0000
  C   C5        1.0  0.36898  0.70123  0.33134  1.0000
  C   C6        1.0  0.30089  0.66837  0.33778  1.0000
  C   C7        1.0  0.64040  0.41692  0.34650  1.0000
  C   C8        1.0  0.41635  0.77420  0.32333  1.0000
  C   C9        1.0  0.65579  0.45746  0.33443  1.0000
  C   C10       1.0  0.45843  0.80050  0.31876  1.0000
  C   C11       1.0  0.62957  0.47260  0.33233  1.0000
  C   C12       1.0  0.47395  0.84226  0.32022  1.0000
  C   C13       1.0  0.58737  0.44742  0.34252  1.0000
  C   C14       1.0  0.44769  0.85854  0.32490  1.0000
  C   C15       1.0  0.57267  0.40665  0.35234  1.0000
  C   C16       1.0  0.40562  0.83137  0.32824  1.0000
  C   C17       1.0  0.59866  0.39097  0.35485  1.0000
  C   C18       1.0  0.38946  0.78926  0.32689  1.0000
  C   C19       1.0  0.56091  0.46468  0.34293  1.0000
  C   C20       1.0  0.53544  0.10059  0.35112  1.0000
  C   C21       1.0  0.90150  0.43880  0.33908  1.0000
  C   C22       1.0  0.44053  0.54208  0.37039  1.0000
  C   C23       1.0  0.46465  0.90242  0.32581  1.0000
  C   C24       1.0  0.09939  0.56495  0.36660  1.0000
  C   C25       1.0  0.53903  0.50699  0.34048  1.0000
  C   C26       1.0  0.49441  0.03678  0.36118  1.0000
  C   C27       1.0  0.96676  0.46231  0.35015  1.0000
  C   C28       1.0  0.46240  0.50006  0.37613  1.0000
  C   C29       1.0  0.50545  0.96582  0.31221  1.0000
  C   C30       1.0  0.03399  0.54080  0.35085  1.0000
  C   C31       1.0  0.50414  0.46981  0.36013  1.0000
  C   C32       1.0  0.53268  0.03794  0.32420  1.0000
  C   C33       1.0  0.96230  0.49613  0.33705  1.0000
  C   C34       1.0  0.49738  0.53734  0.35713  1.0000
  C   C35       1.0  0.46743  0.96510  0.35282  1.0000
  C   C36       1.0  0.03845  0.50698  0.36387  1.0000
  C   C37       1.0  0.46542  0.46519  0.37887  1.0000
  C   C38       1.0  0.53924  0.00305  0.29729  1.0000
  C   C39       1.0  0.99503  0.53570  0.33667  1.0000
  C   C40       1.0  0.53610  0.54200  0.33898  1.0000
  C   C41       1.0  0.46071  0.99972  0.37790  1.0000
  C   C42       1.0  0.00571  0.46744  0.36443  1.0000
  C   C43       1.0  0.66573  0.36551  0.85932  1.0000
  C   C44       1.0  0.63138  0.29965  0.87657  1.0000
  C   C45       1.0  0.69973  0.33324  0.87604  1.0000
  C   C46       1.0  0.33360  0.62954  0.84411  1.0000
  C   C47       1.0  0.36849  0.69586  0.83033  1.0000
  C   C48       1.0  0.30061  0.66399  0.84126  1.0000
  C   C49       1.0  0.63847  0.41047  0.84226  1.0000
  C   C50       1.0  0.58356  0.22554  0.87456  1.0000
  C   C51       1.0  0.41562  0.76850  0.82087  1.0000
  C   C52       1.0  0.22719  0.63954  0.85577  1.0000
  C   C53       1.0  0.65422  0.45280  0.84508  1.0000
  C   C54       1.0  0.54064  0.19419  0.83230  1.0000
  C   C55       1.0  0.45778  0.79524  0.81865  1.0000
  C   C56       1.0  0.20069  0.65481  0.85335  1.0000
  C   C57       1.0  0.62801  0.46813  0.84552  1.0000
  C   C58       1.0  0.52477  0.15164  0.82418  1.0000
  C   C59       1.0  0.47318  0.83718  0.82210  1.0000
  C   C60       1.0  0.15897  0.62912  0.85764  1.0000
  C   C61       1.0  0.58539  0.44133  0.84374  1.0000
  C   C62       1.0  0.55159  0.13966  0.85909  1.0000
  C   C63       1.0  0.44664  0.85302  0.82536  1.0000
  C   C64       1.0  0.14290  0.58760  0.86453  1.0000
  C   C65       1.0  0.57028  0.39870  0.83789  1.0000
  C   C66       1.0  0.59449  0.17180  0.90264  1.0000
  C   C67       1.0  0.40455  0.82549  0.82640  1.0000
  C   C68       1.0  0.17014  0.57329  0.86897  1.0000
  C   C69       1.0  0.59625  0.38270  0.83672  1.0000
  C   C70       1.0  0.61094  0.21483  0.91151  1.0000
  C   C71       1.0  0.38853  0.78326  0.82361  1.0000
  C   C72       1.0  0.21219  0.59875  0.86425  1.0000
  C   C73       1.0  0.55888  0.45859  0.84541  1.0000
  C   C74       1.0  0.53426  0.09508  0.85245  1.0000
  C   C75       1.0  0.90103  0.43491  0.83680  1.0000
  C   C76       1.0  0.43806  0.53517  0.87063  1.0000
  C   C77       1.0  0.46346  0.89683  0.82626  1.0000
  C   C78       1.0  0.09890  0.56111  0.86510  1.0000
  C   C79       1.0  0.53691  0.50074  0.84236  1.0000
  C   C80       1.0  0.49310  0.03111  0.86140  1.0000
  C   C81       1.0  0.96637  0.45874  0.85028  1.0000
  C   C82       1.0  0.46027  0.49372  0.87933  1.0000
  C   C83       1.0  0.50415  0.96012  0.81196  1.0000
  C   C84       1.0  0.03352  0.53703  0.84922  1.0000
  C   C85       1.0  0.50220  0.46380  0.86427  1.0000
  C   C86       1.0  0.53138  0.03229  0.82451  1.0000
  C   C87       1.0  0.96188  0.49244  0.83619  1.0000
  C   C88       1.0  0.49501  0.53069  0.85782  1.0000
  C   C89       1.0  0.46606  0.95926  0.85161  1.0000
  C   C90       1.0  0.03798  0.50330  0.86314  1.0000
  C   C91       1.0  0.46352  0.45921  0.88404  1.0000
  C   C92       1.0  0.53793  0.99742  0.79714  1.0000
  C   C93       1.0  0.99455  0.53186  0.83445  1.0000
  C   C94       1.0  0.53374  0.53542  0.83882  1.0000
  C   C95       1.0  0.45935  0.99394  0.87693  1.0000
  C   C96       1.0  0.00531  0.46384  0.86449  1.0000
  N   N1        1.0  0.63033  0.33824  0.36390  1.0000
  N   N2        1.0  0.66530  0.30235  0.38035  1.0000
  N   N3        1.0  0.70330  0.37313  0.36553  1.0000
  N   N4        1.0  0.37076  0.66759  0.33924  1.0000
  N   N5        1.0  0.33537  0.70359  0.32856  1.0000
  N   N6        1.0  0.29799  0.63290  0.34406  1.0000
  N   N7        1.0  0.57320  0.50237  0.32888  1.0000
  N   N8        1.0  0.49727  0.07576  0.37552  1.0000
  N   N9        1.0  0.92870  0.42769  0.35136  1.0000
  N   N10       1.0  0.42816  0.50447  0.38543  1.0000
  N   N11       1.0  0.50243  0.92660  0.29604  1.0000
  N   N12       1.0  0.07210  0.57579  0.35255  1.0000
  N   N13       1.0  0.51891  0.44265  0.35530  1.0000
  N   N14       1.0  0.55841  0.07984  0.32424  1.0000
  N   N15       1.0  0.92028  0.48029  0.33349  1.0000
  N   N16       1.0  0.48258  0.56433  0.36034  1.0000
  N   N17       1.0  0.44185  0.92354  0.35570  1.0000
  N   N18       1.0  0.08057  0.52321  0.37004  1.0000
  N   N19       1.0  0.62946  0.33285  0.86557  1.0000
  N   N20       1.0  0.66517  0.29785  0.88422  1.0000
  N   N21       1.0  0.70233  0.36797  0.86392  1.0000
  N   N22       1.0  0.36999  0.66197  0.83730  1.0000
  N   N23       1.0  0.33514  0.69887  0.83068  1.0000
  N   N24       1.0  0.29742  0.62832  0.84680  1.0000
  N   N25       1.0  0.57107  0.49610  0.83002  1.0000
  N   N26       1.0  0.49607  0.07024  0.87663  1.0000
  N   N27       1.0  0.92829  0.42397  0.85038  1.0000
  N   N28       1.0  0.42590  0.49792  0.88810  1.0000
  N   N29       1.0  0.50129  0.92112  0.79709  1.0000
  N   N30       1.0  0.07165  0.57194  0.85042  1.0000
  N   N31       1.0  0.51709  0.43681  0.86001  1.0000
  N   N32       1.0  0.55727  0.07433  0.82547  1.0000
  N   N33       1.0  0.91981  0.47642  0.83128  1.0000
  N   N34       1.0  0.48009  0.55740  0.85957  1.0000
  N   N35       1.0  0.44064  0.91786  0.85557  1.0000
  N   N36       1.0  0.08008  0.51947  0.86928  1.0000
  O   O1        1.0  0.67149  0.40761  0.35176  1.0000
  O   O2        1.0  0.59416  0.27227  0.37821  1.0000
  O   O3        1.0  0.73309  0.33321  0.37542  1.0000
  O   O4        1.0  0.32987  0.59806  0.35127  1.0000
  O   O5        1.0  0.40636  0.73355  0.32443  1.0000
  O   O6        1.0  0.26792  0.67308  0.34025  1.0000
  O   O7        1.0  0.66964  0.40104  0.84400  1.0000
  O   O8        1.0  0.59380  0.26690  0.87946  1.0000
  O   O9        1.0  0.73311  0.32967  0.88183  1.0000
  O   O10       1.0  0.32866  0.59261  0.85064  1.0000
  O   O11       1.0  0.40575  0.72771  0.82053  1.0000
  O   O12       1.0  0.26787  0.66921  0.84604  1.0000
  C   C97       1.0  0.20502  0.59514  0.38319  1.0000
  C   C98       1.0  0.22495  0.63256  0.34655  1.0000
  C  Sn1       1.0  0.20330  0.65152  0.32825  1.0000
  C  Sn2       1.0  0.16091  0.63260  0.34711  1.0000
  C   C99       1.0  0.14126  0.59518  0.38391  1.0000
  C   C100      1.0  0.16322  0.57647  0.40189  1.0000
  H   H49       1.0  0.22201  0.58068  0.39722  1.0000
  O  Te1       1.0  0.22369  0.68889  0.29157  1.0000
  O  Te2       1.0  0.13854  0.65089  0.32956  1.0000
  H   H50       1.0  0.14778  0.54752  0.43039  1.0000
  Mg  Mg1       1.0  0.17997  0.70180  0.27941  1.0000
  C   C101      1.0  0.52343  0.16498  0.31929  1.0000
  C   C102      1.0  0.54511  0.14604  0.33748  1.0000
  C  Sn3       1.0  0.58837  0.17242  0.38532  1.0000
  C  Sn4       1.0  0.61023  0.21862  0.41547  1.0000
  C   C103      1.0  0.58824  0.23727  0.39706  1.0000
  C   C104      1.0  0.54496  0.21056  0.34907  1.0000
  H   H51       1.0  0.48994  0.14433  0.28227  1.0000
  O  Te3       1.0  0.60955  0.15295  0.40284  1.0000
  O  Te4       1.0  0.65345  0.24577  0.46349  1.0000
  H   H52       1.0  0.52818  0.22525  0.33512  1.0000
  Mg  Mg2       1.0  0.66844  0.20376  0.47070  1.0000
  C   C105      1.0  0.79676  0.40924  0.85074  1.0000
  C   C106      1.0  0.77520  0.36714  0.85374  1.0000
  C  Sn5       1.0  0.79620  0.34638  0.85959  1.0000
  C  Sn6       1.0  0.83960  0.36825  0.86253  1.0000
  C   C107      1.0  0.86089  0.41038  0.85963  1.0000
  C   C108      1.0  0.83957  0.43084  0.85371  1.0000
  H   H53       1.0  0.78027  0.42509  0.84626  1.0000
  O  Te5       1.0  0.77417  0.30431  0.86245  1.0000
  O  Te6       1.0  0.86135  0.34827  0.86845  1.0000
  H   H54       1.0  0.85628  0.46345  0.85151  1.0000
  Mg  Mg3       1.0  0.81761  0.29070  0.87044  1.0000
  C   C109      1.0  0.42727  0.60825  0.35357  1.0000
  C   C110      1.0  0.41907  0.57084  0.37633  1.0000
  C  Sn7       1.0  0.37875  0.53981  0.38203  1.0000
  C  Sn8       1.0  0.34608  0.54643  0.36453  1.0000
  C   C111      1.0  0.35460  0.58394  0.34168  1.0000
  C   C112      1.0  0.39507  0.61480  0.33623  1.0000
  H   H55       1.0  0.45857  0.63211  0.34925  1.0000
  O  Te7       1.0  0.37110  0.50263  0.40492  1.0000
  O  Te8       1.0  0.30549  0.51593  0.36967  1.0000
  H   H56       1.0  0.40140  0.64374  0.31848  1.0000
  Mg  Mg4       1.0  0.31064  0.47047  0.40342  1.0000
  C   C113      1.0  0.34452  0.53277  0.86574  1.0000
  C   C114      1.0  0.35431  0.57366  0.86886  1.0000
  C  Sn9       1.0  0.39473  0.60415  0.86160  1.0000
  C  Sn10      1.0  0.42585  0.59339  0.85098  1.0000
  C   C115      1.0  0.41573  0.55238  0.84781  1.0000
  C   C116      1.0  0.37519  0.52212  0.85519  1.0000
  H   H57       1.0  0.31315  0.50935  0.87135  1.0000
  O  Te9       1.0  0.40399  0.64487  0.86492  1.0000
  O  Te10      1.0  0.46650  0.62324  0.84350  1.0000
  H   H58       1.0  0.36761  0.49045  0.85265  1.0000
  Mg  Mg5       1.0  0.46386  0.67452  0.85187  1.0000
  C   C117      1.0  0.83311  0.36179  0.35984  1.0000
  C   C118      1.0  0.85390  0.40109  0.33579  1.0000
  C  Sn11      1.0  0.83333  0.42260  0.33376  1.0000
  C  Sn12      1.0  0.79116  0.40435  0.35631  1.0000
  C   C119      1.0  0.77065  0.36503  0.38042  1.0000
  C   C120      1.0  0.79153  0.34377  0.38217  1.0000
  H   H59       1.0  0.84927  0.34535  0.36130  1.0000
  O  Te11      1.0  0.85456  0.46184  0.30951  1.0000
  O  Te12      1.0  0.76986  0.42517  0.35490  1.0000
  H   H60       1.0  0.77543  0.31336  0.40092  1.0000
  Mg  Mg6       1.0  0.81217  0.47793  0.31744  1.0000
