data_image0
_chemical_formula_structural       H24C60N36O12SnCSn2CSnTe4Mg2SnCSn2CSnTe4Mg2SnCSn2CSnTe4Mg2SnCSn2CSnTe4Mg2SnCSn2CSnTe4Mg2SnCSn2CSnTe4Mg2SnCSn2CSnTe4Mg2SnCSn2CSnTe4Mg2SnCSn2CSnTe4Mg2SnCSn2CSnTe4Mg2SnCSn2CSnTe4Mg2SnCSn2CSnTe4Mg2
_chemical_formula_sum              "H24 C84 N36 O12 Sn48 Te48 Mg24"
_cell_length_a       38.0133
_cell_length_b       38.1777
_cell_length_c       7.93676
_cell_angle_alpha    118.543
_cell_angle_beta     83.8749
_cell_angle_gamma    120.436

_symmetry_space_group_name_H-M    'P1'
_space_group_IT_number       1

loop_
  _space_group_symop_operation_xyz
  'x, y, z'

loop_
  _atom_site_type_symbol
  _atom_site_label
  _atom_site_symmetry_multiplicity
  _atom_site_fract_x
  _atom_site_fract_y
  _atom_site_fract_z
  _atom_site_occupancy
  H   H1        1.0  0.41580  0.91605  0.41496  1.0000
  H   H2        1.0  0.43923  0.43741  0.39699  1.0000
  H   H3        1.0  0.56237  0.56976  0.32121  1.0000
  H   H4        1.0  0.00924  0.44237  0.37840  1.0000
  H   H5        1.0  0.56789  0.00346  0.26467  1.0000
  H   H6        1.0  0.99151  0.56099  0.32482  1.0000
  H   H7        1.0  0.43207  0.99931  0.41093  1.0000
  H   H8        1.0  0.90525  0.49161  0.29433  1.0000
  H   H9        1.0  0.09544  0.51130  0.40597  1.0000
  H   H10       1.0  0.49649  0.58757  0.31138  1.0000
  H   H11       1.0  0.50531  0.42002  0.40744  1.0000
  H   H12       1.0  0.58532  0.08847  0.27202  1.0000
  H   H13       1.0  0.41379  0.90944  0.90818  1.0000
  H   H14       1.0  0.43756  0.43180  0.90482  1.0000
  H   H15       1.0  0.55973  0.56297  0.81874  1.0000
  H   H16       1.0  0.00884  0.43872  0.87796  1.0000
  H   H17       1.0  0.56665  0.99803  0.76454  1.0000
  H   H18       1.0  0.99104  0.55690  0.82009  1.0000
  H   H19       1.0  0.43068  0.99350  0.90944  1.0000
  H   H20       1.0  0.90483  0.48773  0.79165  1.0000
  H   H21       1.0  0.09499  0.50782  0.90676  1.0000
  H   H22       1.0  0.49365  0.57984  0.80651  1.0000
  H   H23       1.0  0.50354  0.41379  0.91015  1.0000
  H   H24       1.0  0.58383  0.08257  0.77030  1.0000
  C   C1        1.0  0.66692  0.37119  0.36153  1.0000
  C   C2        1.0  0.63180  0.30472  0.37408  1.0000
  C   C3        1.0  0.70010  0.33766  0.37326  1.0000
  C   C4        1.0  0.33441  0.63475  0.34400  1.0000
  C   C5        1.0  0.36898  0.70123  0.33134  1.0000
  C   C6        1.0  0.30089  0.66837  0.33778  1.0000
  C   C7        1.0  0.56091  0.46468  0.34293  1.0000
  C   C8        1.0  0.53544  0.10059  0.35112  1.0000
  C   C9        1.0  0.90150  0.43880  0.33908  1.0000
  C   C10       1.0  0.44053  0.54208  0.37039  1.0000
  C   C11       1.0  0.46465  0.90242  0.32581  1.0000
  C   C12       1.0  0.09939  0.56495  0.36660  1.0000
  C   C13       1.0  0.53903  0.50699  0.34048  1.0000
  C   C14       1.0  0.49441  0.03678  0.36118  1.0000
  C   C15       1.0  0.96676  0.46231  0.35015  1.0000
  C   C16       1.0  0.46240  0.50006  0.37613  1.0000
  C   C17       1.0  0.50545  0.96582  0.31221  1.0000
  C   C18       1.0  0.03399  0.54080  0.35085  1.0000
  C   C19       1.0  0.50414  0.46981  0.36013  1.0000
  C   C20       1.0  0.53268  0.03794  0.32420  1.0000
  C   C21       1.0  0.96230  0.49613  0.33705  1.0000
  C   C22       1.0  0.49738  0.53734  0.35713  1.0000
  C   C23       1.0  0.46743  0.96510  0.35282  1.0000
  C   C24       1.0  0.03845  0.50698  0.36387  1.0000
  C   C25       1.0  0.46542  0.46519  0.37887  1.0000
  C   C26       1.0  0.53924  0.00305  0.29729  1.0000
  C   C27       1.0  0.99503  0.53570  0.33667  1.0000
  C   C28       1.0  0.53610  0.54200  0.33898  1.0000
  C   C29       1.0  0.46071  0.99972  0.37790  1.0000
  C   C30       1.0  0.00571  0.46744  0.36443  1.0000
  C   C31       1.0  0.66573  0.36551  0.85932  1.0000
  C   C32       1.0  0.63138  0.29965  0.87657  1.0000
  C   C33       1.0  0.69973  0.33324  0.87604  1.0000
  C   C34       1.0  0.33360  0.62954  0.84411  1.0000
  C   C35       1.0  0.36849  0.69586  0.83033  1.0000
  C   C36       1.0  0.30061  0.66399  0.84126  1.0000
  C   C37       1.0  0.55888  0.45859  0.84541  1.0000
  C   C38       1.0  0.53426  0.09508  0.85245  1.0000
  C   C39       1.0  0.90103  0.43491  0.83680  1.0000
  C   C40       1.0  0.43806  0.53517  0.87063  1.0000
  C   C41       1.0  0.46346  0.89683  0.82626  1.0000
  C   C42       1.0  0.09890  0.56111  0.86510  1.0000
  C   C43       1.0  0.53691  0.50074  0.84236  1.0000
  C   C44       1.0  0.49310  0.03111  0.86140  1.0000
  C   C45       1.0  0.96637  0.45874  0.85028  1.0000
  C   C46       1.0  0.46027  0.49372  0.87933  1.0000
  C   C47       1.0  0.50415  0.96012  0.81196  1.0000
  C   C48       1.0  0.03352  0.53703  0.84922  1.0000
  C   C49       1.0  0.50220  0.46380  0.86427  1.0000
  C   C50       1.0  0.53138  0.03229  0.82451  1.0000
  C   C51       1.0  0.96188  0.49244  0.83619  1.0000
  C   C52       1.0  0.49501  0.53069  0.85782  1.0000
  C   C53       1.0  0.46606  0.95926  0.85161  1.0000
  C   C54       1.0  0.03798  0.50330  0.86314  1.0000
  C   C55       1.0  0.46352  0.45921  0.88404  1.0000
  C   C56       1.0  0.53793  0.99742  0.79714  1.0000
  C   C57       1.0  0.99455  0.53186  0.83445  1.0000
  C   C58       1.0  0.53374  0.53542  0.83882  1.0000
  C   C59       1.0  0.45935  0.99394  0.87693  1.0000
  C   C60       1.0  0.00531  0.46384  0.86449  1.0000
  N   N1        1.0  0.63033  0.33824  0.36390  1.0000
  N   N2        1.0  0.66530  0.30235  0.38035  1.0000
  N   N3        1.0  0.70330  0.37313  0.36553  1.0000
  N   N4        1.0  0.37076  0.66759  0.33924  1.0000
  N   N5        1.0  0.33537  0.70359  0.32856  1.0000
  N   N6        1.0  0.29799  0.63290  0.34406  1.0000
  N   N7        1.0  0.57320  0.50237  0.32888  1.0000
  N   N8        1.0  0.49727  0.07576  0.37552  1.0000
  N   N9        1.0  0.92870  0.42769  0.35136  1.0000
  N   N10       1.0  0.42816  0.50447  0.38543  1.0000
  N   N11       1.0  0.50243  0.92660  0.29604  1.0000
  N   N12       1.0  0.07210  0.57579  0.35255  1.0000
  N   N13       1.0  0.51891  0.44265  0.35530  1.0000
  N   N14       1.0  0.55841  0.07984  0.32424  1.0000
  N   N15       1.0  0.92028  0.48029  0.33349  1.0000
  N   N16       1.0  0.48258  0.56433  0.36034  1.0000
  N   N17       1.0  0.44185  0.92354  0.35570  1.0000
  N   N18       1.0  0.08057  0.52321  0.37004  1.0000
  N   N19       1.0  0.62946  0.33285  0.86557  1.0000
  N   N20       1.0  0.66517  0.29785  0.88422  1.0000
  N   N21       1.0  0.70233  0.36797  0.86392  1.0000
  N   N22       1.0  0.36999  0.66197  0.83730  1.0000
  N   N23       1.0  0.33514  0.69887  0.83068  1.0000
  N   N24       1.0  0.29742  0.62832  0.84680  1.0000
  N   N25       1.0  0.57107  0.49610  0.83002  1.0000
  N   N26       1.0  0.49607  0.07024  0.87663  1.0000
  N   N27       1.0  0.92829  0.42397  0.85038  1.0000
  N   N28       1.0  0.42590  0.49792  0.88810  1.0000
  N   N29       1.0  0.50129  0.92112  0.79709  1.0000
  N   N30       1.0  0.07165  0.57194  0.85042  1.0000
  N   N31       1.0  0.51709  0.43681  0.86001  1.0000
  N   N32       1.0  0.55727  0.07433  0.82547  1.0000
  N   N33       1.0  0.91981  0.47642  0.83128  1.0000
  N   N34       1.0  0.48009  0.55740  0.85957  1.0000
  N   N35       1.0  0.44064  0.91786  0.85557  1.0000
  N   N36       1.0  0.08008  0.51947  0.86928  1.0000
  O   O1        1.0  0.67149  0.40761  0.35176  1.0000
  O   O2        1.0  0.59416  0.27227  0.37821  1.0000
  O   O3        1.0  0.73309  0.33321  0.37542  1.0000
  O   O4        1.0  0.32987  0.59806  0.35127  1.0000
  O   O5        1.0  0.40636  0.73355  0.32443  1.0000
  O   O6        1.0  0.26792  0.67308  0.34025  1.0000
  O   O7        1.0  0.66964  0.40104  0.84400  1.0000
  O   O8        1.0  0.59380  0.26690  0.87946  1.0000
  O   O9        1.0  0.73311  0.32967  0.88183  1.0000
  O   O10       1.0  0.32866  0.59261  0.85064  1.0000
  O   O11       1.0  0.40575  0.72771  0.82053  1.0000
  O   O12       1.0  0.26787  0.66921  0.84604  1.0000
  C  Sn1       1.0  0.63471  0.46434  0.27291  1.0000
  C   C61       1.0  0.59269  0.44434  0.28675  1.0000
  C  Sn2       1.0  0.57455  0.41144  0.34967  1.0000
  C  Sn3       1.0  0.59890  0.39827  0.39992  1.0000
  C   C62       1.0  0.64089  0.41826  0.38610  1.0000
  C  Sn4       1.0  0.65907  0.45117  0.32316  1.0000
  O  Te1       1.0  0.65220  0.49717  0.20967  1.0000
  O  Te2       1.0  0.53248  0.39192  0.36227  1.0000
  O  Te3       1.0  0.58137  0.36541  0.46319  1.0000
  O  Te4       1.0  0.70111  0.47069  0.31059  1.0000
  Mg  Mg1       1.0  0.52282  0.34869  0.45627  1.0000
  Mg  Mg2       1.0  0.71080  0.51394  0.21670  1.0000
  C  Sn5       1.0  0.61200  0.20649  0.35802  1.0000
  C   C63       1.0  0.58976  0.22317  0.32382  1.0000
  C  Sn6       1.0  0.54716  0.20238  0.32431  1.0000
  C  Sn7       1.0  0.52637  0.16415  0.35985  1.0000
  C   C64       1.0  0.54861  0.14750  0.39405  1.0000
  C  Sn8       1.0  0.59120  0.16826  0.39356  1.0000
  O  Te5       1.0  0.65457  0.22781  0.35686  1.0000
  O  Te6       1.0  0.52559  0.21965  0.28968  1.0000
  O  Te7       1.0  0.48377  0.14284  0.36098  1.0000
  O  Te8       1.0  0.61278  0.15102  0.42819  1.0000
  Mg  Mg3       1.0  0.46793  0.17893  0.30626  1.0000
  Mg  Mg4       1.0  0.67044  0.19173  0.41175  1.0000
  C  Sn9       1.0  0.79449  0.40352  0.29550  1.0000
  C   C65       1.0  0.77392  0.36294  0.31038  1.0000
  C  Sn10      1.0  0.79642  0.34868  0.36170  1.0000
  C  Sn11      1.0  0.84038  0.37555  0.39906  1.0000
  C   C66       1.0  0.86092  0.41611  0.38421  1.0000
  C  Sn12      1.0  0.83845  0.43039  0.33285  1.0000
  O  Te9       1.0  0.77137  0.41712  0.24398  1.0000
  O  Te10      1.0  0.77517  0.30798  0.37558  1.0000
  O  Te11      1.0  0.86349  0.36192  0.45060  1.0000
  O  Te12      1.0  0.85968  0.47107  0.31900  1.0000
  Mg  Mg5       1.0  0.82041  0.30386  0.45065  1.0000
  Mg  Mg6       1.0  0.81447  0.47523  0.24405  1.0000
  C  Sn13      1.0  0.42792  0.61337  0.41830  1.0000
  C   C67       1.0  0.41809  0.57307  0.42081  1.0000
  C  Sn14      1.0  0.37688  0.53655  0.37357  1.0000
  C  Sn15      1.0  0.34483  0.54037  0.32264  1.0000
  C   C68       1.0  0.35466  0.58066  0.32011  1.0000
  C  Sn16      1.0  0.39586  0.61720  0.36737  1.0000
  O  Te13      1.0  0.46933  0.64945  0.46604  1.0000
  O  Te14      1.0  0.36782  0.49660  0.37716  1.0000
  O  Te15      1.0  0.30339  0.50425  0.27489  1.0000
  O  Te16      1.0  0.40493  0.65712  0.36376  1.0000
  Mg  Mg7       1.0  0.30669  0.45687  0.30064  1.0000
  Mg  Mg8       1.0  0.46605  0.69686  0.44016  1.0000
  C  Sn17      1.0  0.46682  0.81680  0.37780  1.0000
  C   C69       1.0  0.42590  0.78514  0.37425  1.0000
  C  Sn18      1.0  0.39327  0.78764  0.32588  1.0000
  C  Sn19      1.0  0.40172  0.82249  0.27998  1.0000
  C   C70       1.0  0.44261  0.85412  0.28352  1.0000
  C  Sn20      1.0  0.47526  0.85165  0.33190  1.0000
  O  Te17      1.0  0.49895  0.81365  0.42655  1.0000
  O  Te18      1.0  0.35262  0.75562  0.32338  1.0000
  O  Te19      1.0  0.36954  0.82562  0.23122  1.0000
  O  Te20      1.0  0.51589  0.88364  0.33438  1.0000
  Mg  Mg9       1.0  0.31939  0.77408  0.24784  1.0000
  Mg  Mg10      1.0  0.54914  0.86520  0.40980  1.0000
  C  Sn21      1.0  0.18322  0.59056  0.43819  1.0000
  C   C71       1.0  0.15140  0.59777  0.42325  1.0000
  C  Sn22      1.0  0.15683  0.62700  0.35205  1.0000
  C  Sn23      1.0  0.19486  0.64947  0.29446  1.0000
  C   C72       1.0  0.22666  0.64224  0.30938  1.0000
  C  Sn24      1.0  0.22125  0.61302  0.38060  1.0000
  O  Te21      1.0  0.17711  0.56119  0.50976  1.0000
  O  Te22      1.0  0.12457  0.63369  0.33852  1.0000
  O  Te23      1.0  0.20095  0.67885  0.22285  1.0000
  O  Te24      1.0  0.25349  0.60633  0.39411  1.0000
  Mg  Mg11      1.0  0.14779  0.67692  0.23183  1.0000
  Mg  Mg12      1.0  0.23029  0.56309  0.50068  1.0000
  C  Sn25      1.0  0.58627  0.37634  0.77732  1.0000
  C   C73       1.0  0.62920  0.39929  0.78620  1.0000
  C  Sn26      1.0  0.65198  0.44667  0.84132  1.0000
  C  Sn27      1.0  0.63143  0.47166  0.88867  1.0000
  C   C74       1.0  0.58852  0.44872  0.87981  1.0000
  C  Sn28      1.0  0.56571  0.40133  0.82467  1.0000
  O  Te25      1.0  0.56412  0.32895  0.72185  1.0000
  O  Te26      1.0  0.69488  0.46885  0.84906  1.0000
  O  Te27      1.0  0.65362  0.51908  0.94416  1.0000
  O  Te28      1.0  0.52285  0.37915  0.81695  1.0000
  Mg  Mg13      1.0  0.71151  0.53383  0.93292  1.0000
  Mg  Mg14      1.0  0.50619  0.31419  0.73321  1.0000
  C  Sn29      1.0  0.61108  0.20062  0.85665  1.0000
  C   C75       1.0  0.58907  0.21792  0.82593  1.0000
  C  Sn30      1.0  0.54661  0.19774  0.82974  1.0000
  C  Sn31      1.0  0.52572  0.15948  0.86512  1.0000
  C   C76       1.0  0.54773  0.14221  0.89585  1.0000
  C  Sn32      1.0  0.59019  0.16237  0.89203  1.0000
  O  Te29      1.0  0.65351  0.22134  0.85221  1.0000
  O  Te30      1.0  0.52527  0.21563  0.79855  1.0000
  O  Te31      1.0  0.48326  0.13877  0.86954  1.0000
  O  Te32      1.0  0.61153  0.14450  0.92323  1.0000
  Mg  Mg15      1.0  0.46772  0.17558  0.81883  1.0000
  Mg  Mg16      1.0  0.66908  0.18454  0.90309  1.0000
  C  Sn33      1.0  0.79345  0.39786  0.78783  1.0000
  C   C77       1.0  0.77353  0.35843  0.81104  1.0000
  C  Sn34      1.0  0.79665  0.34574  0.86915  1.0000
  C  Sn35      1.0  0.84059  0.37304  0.90493  1.0000
  C   C78       1.0  0.86049  0.41244  0.88176  1.0000
  C  Sn36      1.0  0.83739  0.42515  0.82361  1.0000
  O  Te33      1.0  0.76972  0.40989  0.72963  1.0000
  O  Te34      1.0  0.77604  0.30617  0.89131  1.0000
  O  Te35      1.0  0.86432  0.36096  0.96317  1.0000
  O  Te36      1.0  0.85798  0.46470  0.80149  1.0000
  Mg  Mg17      1.0  0.82199  0.30403  0.97337  1.0000
  Mg  Mg18      1.0  0.81206  0.46689  0.71954  1.0000
  C  Sn37      1.0  0.40643  0.60018  0.79032  1.0000
  C   C79       1.0  0.36425  0.58024  0.80080  1.0000
  C  Sn38      1.0  0.34547  0.54743  0.86417  1.0000
  C  Sn39      1.0  0.36936  0.53428  0.91832  1.0000
  C   C80       1.0  0.41151  0.55422  0.90786  1.0000
  C  Sn40      1.0  0.43032  0.58703  0.84447  1.0000
  O  Te37      1.0  0.42456  0.63291  0.72656  1.0000
  O  Te38      1.0  0.30325  0.52796  0.87335  1.0000
  O  Te39      1.0  0.35119  0.50152  0.98211  1.0000
  O  Te40      1.0  0.47252  0.60650  0.83531  1.0000
  Mg  Mg19      1.0  0.29266  0.48485  0.96962  1.0000
  Mg  Mg20      1.0  0.48315  0.64963  0.73917  1.0000
  C  Sn41      1.0  0.47041  0.82192  0.76213  1.0000
  C   C81       1.0  0.44878  0.84324  0.77136  1.0000
  C  Sn42      1.0  0.40954  0.82844  0.82332  1.0000
  C  Sn43      1.0  0.39156  0.79156  0.86709  1.0000
  C   C82       1.0  0.41319  0.77026  0.85789  1.0000
  C  Sn44      1.0  0.45243  0.78504  0.80591  1.0000
  O  Te41      1.0  0.50959  0.83729  0.70987  1.0000
  O  Te42      1.0  0.38851  0.85028  0.83148  1.0000
  O  Te43      1.0  0.35234  0.77620  0.91938  1.0000
  O  Te44      1.0  0.47346  0.76322  0.79777  1.0000
  Mg  Mg21      1.0  0.33593  0.81695  0.91014  1.0000
  Mg  Mg22      1.0  0.52604  0.79654  0.71923  1.0000
  C  Sn45      1.0  0.16494  0.62932  0.79714  1.0000
  C   C83       1.0  0.14439  0.58864  0.81128  1.0000
  C  Sn46      1.0  0.16686  0.57510  0.86790  1.0000
  C  Sn47      1.0  0.21080  0.60279  0.91142  1.0000
  C   C84       1.0  0.23133  0.64344  0.89731  1.0000
  C  Sn48      1.0  0.20888  0.65702  0.84066  1.0000
  O  Te45      1.0  0.14185  0.64220  0.74027  1.0000
  O  Te46      1.0  0.14563  0.53428  0.88092  1.0000
  O  Te47      1.0  0.23389  0.58988  0.96832  1.0000
  O  Te48      1.0  0.23009  0.69781  0.82767  1.0000
  Mg  Mg23      1.0  0.19084  0.53134  0.96476  1.0000
  Mg  Mg24      1.0  0.18492  0.70080  0.74395  1.0000
