data_image0
_chemical_formula_structural       H48C96N36O12SnCSn2CSnTe4Mg2SnCSn2CSnTe4Mg2SnCSn2CSnTe4Mg2SnCSn2CSnTe4Mg2SnCSn2CSnTe4Mg2SnCSn2CSnTe4Mg2
_chemical_formula_sum              "H48 C108 N36 O12 Sn24 Te24 Mg12"
_cell_length_a       38.0133
_cell_length_b       38.1777
_cell_length_c       7.93676
_cell_angle_alpha    118.543
_cell_angle_beta     83.8749
_cell_angle_gamma    120.436

_symmetry_space_group_name_H-M    'P1'
_space_group_IT_number       1

loop_
  _space_group_symop_operation_xyz
  'x, y, z'

loop_
  _atom_site_type_symbol
  _atom_site_label
  _atom_site_symmetry_multiplicity
  _atom_site_fract_x
  _atom_site_fract_y
  _atom_site_fract_z
  _atom_site_occupancy
  H   H1        1.0  0.52078  0.20798  0.29587  1.0000
  H   H2        1.0  0.78723  0.31485  0.37045  1.0000
  H   H3        1.0  0.31242  0.52810  0.36907  1.0000
  H   H4        1.0  0.49257  0.13091  0.27942  1.0000
  H   H5        1.0  0.86241  0.35997  0.35329  1.0000
  H   H6        1.0  0.36008  0.50130  0.37780  1.0000
  H   H7        1.0  0.61699  0.17062  0.44154  1.0000
  H   H8        1.0  0.84207  0.45995  0.34043  1.0000
  H   H9        1.0  0.46155  0.62130  0.35916  1.0000
  H   H10       1.0  0.64463  0.24535  0.44804  1.0000
  H   H11       1.0  0.76852  0.41559  0.35837  1.0000
  H   H12       1.0  0.41467  0.64732  0.35057  1.0000
  H   H13       1.0  0.41580  0.91605  0.41496  1.0000
  H   H14       1.0  0.43923  0.43741  0.39699  1.0000
  H   H15       1.0  0.56237  0.56976  0.32121  1.0000
  H   H16       1.0  0.00924  0.44237  0.37840  1.0000
  H   H17       1.0  0.56789  0.00346  0.26467  1.0000
  H   H18       1.0  0.99151  0.56099  0.32482  1.0000
  H   H19       1.0  0.43207  0.99931  0.41093  1.0000
  H   H20       1.0  0.90525  0.49161  0.29433  1.0000
  H   H21       1.0  0.09544  0.51130  0.40597  1.0000
  H   H22       1.0  0.49649  0.58757  0.31138  1.0000
  H   H23       1.0  0.50531  0.42002  0.40744  1.0000
  H   H24       1.0  0.58532  0.08847  0.27202  1.0000
  H   H25       1.0  0.68716  0.47309  0.84634  1.0000
  H   H26       1.0  0.78795  0.31264  0.88295  1.0000
  H   H27       1.0  0.31071  0.52339  0.87450  1.0000
  H   H28       1.0  0.63966  0.50080  0.84666  1.0000
  H   H29       1.0  0.86291  0.35784  0.86319  1.0000
  H   H30       1.0  0.35748  0.49555  0.88339  1.0000
  H   H31       1.0  0.53740  0.37673  0.83271  1.0000
  H   H32       1.0  0.84048  0.45374  0.82385  1.0000
  H   H33       1.0  0.45928  0.61294  0.84810  1.0000
  H   H34       1.0  0.58416  0.34980  0.83285  1.0000
  H   H35       1.0  0.76720  0.40961  0.84623  1.0000
  H   H36       1.0  0.41307  0.63956  0.83737  1.0000
  H   H37       1.0  0.41379  0.90944  0.90818  1.0000
  H   H38       1.0  0.43756  0.43180  0.90482  1.0000
  H   H39       1.0  0.55973  0.56297  0.81874  1.0000
  H   H40       1.0  0.00884  0.43872  0.87796  1.0000
  H   H41       1.0  0.56665  0.99803  0.76454  1.0000
  H   H42       1.0  0.99104  0.55690  0.82009  1.0000
  H   H43       1.0  0.43068  0.99350  0.90944  1.0000
  H   H44       1.0  0.90483  0.48773  0.79165  1.0000
  H   H45       1.0  0.09499  0.50782  0.90676  1.0000
  H   H46       1.0  0.49365  0.57984  0.80651  1.0000
  H   H47       1.0  0.50354  0.41379  0.91015  1.0000
  H   H48       1.0  0.58383  0.08257  0.77030  1.0000
  C   C1        1.0  0.66692  0.37119  0.36153  1.0000
  C   C2        1.0  0.63180  0.30472  0.37408  1.0000
  C   C3        1.0  0.70010  0.33766  0.37326  1.0000
  C   C4        1.0  0.33441  0.63475  0.34400  1.0000
  C   C5        1.0  0.36898  0.70123  0.33134  1.0000
  C   C6        1.0  0.30089  0.66837  0.33778  1.0000
  C   C7        1.0  0.58406  0.23086  0.37285  1.0000
  C   C8        1.0  0.77372  0.36237  0.36288  1.0000
  C   C9        1.0  0.36088  0.58883  0.35793  1.0000
  C   C10       1.0  0.54122  0.19901  0.32762  1.0000
  C   C11       1.0  0.79994  0.34643  0.36091  1.0000
  C   C12       1.0  0.34522  0.54772  0.36563  1.0000
  C   C13       1.0  0.52564  0.15647  0.31919  1.0000
  C   C14       1.0  0.84148  0.37145  0.35194  1.0000
  C   C15       1.0  0.37154  0.53292  0.37026  1.0000
  C   C16       1.0  0.55266  0.14508  0.35721  1.0000
  C   C17       1.0  0.85769  0.41299  0.34510  1.0000
  C   C18       1.0  0.41400  0.55887  0.36663  1.0000
  C   C19       1.0  0.59548  0.17766  0.40352  1.0000
  C   C20       1.0  0.83080  0.42825  0.34746  1.0000
  C   C21       1.0  0.42890  0.60013  0.36071  1.0000
  C   C22       1.0  0.61159  0.22059  0.41217  1.0000
  C   C23       1.0  0.78893  0.40350  0.35694  1.0000
  C   C24       1.0  0.40286  0.61559  0.35640  1.0000
  C   C25       1.0  0.56091  0.46468  0.34293  1.0000
  C   C26       1.0  0.53544  0.10059  0.35112  1.0000
  C   C27       1.0  0.90150  0.43880  0.33908  1.0000
  C   C28       1.0  0.44053  0.54208  0.37039  1.0000
  C   C29       1.0  0.46465  0.90242  0.32581  1.0000
  C   C30       1.0  0.09939  0.56495  0.36660  1.0000
  C   C31       1.0  0.53903  0.50699  0.34048  1.0000
  C   C32       1.0  0.49441  0.03678  0.36118  1.0000
  C   C33       1.0  0.96676  0.46231  0.35015  1.0000
  C   C34       1.0  0.46240  0.50006  0.37613  1.0000
  C   C35       1.0  0.50545  0.96582  0.31221  1.0000
  C   C36       1.0  0.03399  0.54080  0.35085  1.0000
  C   C37       1.0  0.50414  0.46981  0.36013  1.0000
  C   C38       1.0  0.53268  0.03794  0.32420  1.0000
  C   C39       1.0  0.96230  0.49613  0.33705  1.0000
  C   C40       1.0  0.49738  0.53734  0.35713  1.0000
  C   C41       1.0  0.46743  0.96510  0.35282  1.0000
  C   C42       1.0  0.03845  0.50698  0.36387  1.0000
  C   C43       1.0  0.46542  0.46519  0.37887  1.0000
  C   C44       1.0  0.53924  0.00305  0.29729  1.0000
  C   C45       1.0  0.99503  0.53570  0.33667  1.0000
  C   C46       1.0  0.53610  0.54200  0.33898  1.0000
  C   C47       1.0  0.46071  0.99972  0.37790  1.0000
  C   C48       1.0  0.00571  0.46744  0.36443  1.0000
  C   C49       1.0  0.66573  0.36551  0.85932  1.0000
  C   C50       1.0  0.63138  0.29965  0.87657  1.0000
  C   C51       1.0  0.69973  0.33324  0.87604  1.0000
  C   C52       1.0  0.33360  0.62954  0.84411  1.0000
  C   C53       1.0  0.36849  0.69586  0.83033  1.0000
  C   C54       1.0  0.30061  0.66399  0.84126  1.0000
  C   C55       1.0  0.63847  0.41047  0.84226  1.0000
  C   C56       1.0  0.77351  0.35857  0.86558  1.0000
  C   C57       1.0  0.35933  0.58287  0.85649  1.0000
  C   C58       1.0  0.65422  0.45280  0.84508  1.0000
  C   C59       1.0  0.80018  0.34353  0.86859  1.0000
  C   C60       1.0  0.34343  0.54221  0.86822  1.0000
  C   C61       1.0  0.62801  0.46813  0.84552  1.0000
  C   C62       1.0  0.84158  0.36850  0.85757  1.0000
  C   C63       1.0  0.36928  0.52687  0.87293  1.0000
  C   C64       1.0  0.58539  0.44133  0.84374  1.0000
  C   C65       1.0  0.85721  0.40900  0.84296  1.0000
  C   C66       1.0  0.41164  0.55200  0.86579  1.0000
  C   C67       1.0  0.57028  0.39870  0.83789  1.0000
  C   C68       1.0  0.82978  0.42309  0.83845  1.0000
  C   C69       1.0  0.42676  0.59263  0.85415  1.0000
  C   C70       1.0  0.59625  0.38270  0.83672  1.0000
  C   C71       1.0  0.78804  0.39844  0.85026  1.0000
  C   C72       1.0  0.40113  0.60847  0.84880  1.0000
  C   C73       1.0  0.55888  0.45859  0.84541  1.0000
  C   C74       1.0  0.53426  0.09508  0.85245  1.0000
  C   C75       1.0  0.90103  0.43491  0.83680  1.0000
  C   C76       1.0  0.43806  0.53517  0.87063  1.0000
  C   C77       1.0  0.46346  0.89683  0.82626  1.0000
  C   C78       1.0  0.09890  0.56111  0.86510  1.0000
  C   C79       1.0  0.53691  0.50074  0.84236  1.0000
  C   C80       1.0  0.49310  0.03111  0.86140  1.0000
  C   C81       1.0  0.96637  0.45874  0.85028  1.0000
  C   C82       1.0  0.46027  0.49372  0.87933  1.0000
  C   C83       1.0  0.50415  0.96012  0.81196  1.0000
  C   C84       1.0  0.03352  0.53703  0.84922  1.0000
  C   C85       1.0  0.50220  0.46380  0.86427  1.0000
  C   C86       1.0  0.53138  0.03229  0.82451  1.0000
  C   C87       1.0  0.96188  0.49244  0.83619  1.0000
  C   C88       1.0  0.49501  0.53069  0.85782  1.0000
  C   C89       1.0  0.46606  0.95926  0.85161  1.0000
  C   C90       1.0  0.03798  0.50330  0.86314  1.0000
  C   C91       1.0  0.46352  0.45921  0.88404  1.0000
  C   C92       1.0  0.53793  0.99742  0.79714  1.0000
  C   C93       1.0  0.99455  0.53186  0.83445  1.0000
  C   C94       1.0  0.53374  0.53542  0.83882  1.0000
  C   C95       1.0  0.45935  0.99394  0.87693  1.0000
  C   C96       1.0  0.00531  0.46384  0.86449  1.0000
  N   N1        1.0  0.63033  0.33824  0.36390  1.0000
  N   N2        1.0  0.66530  0.30235  0.38035  1.0000
  N   N3        1.0  0.70330  0.37313  0.36553  1.0000
  N   N4        1.0  0.37076  0.66759  0.33924  1.0000
  N   N5        1.0  0.33537  0.70359  0.32856  1.0000
  N   N6        1.0  0.29799  0.63290  0.34406  1.0000
  N   N7        1.0  0.57320  0.50237  0.32888  1.0000
  N   N8        1.0  0.49727  0.07576  0.37552  1.0000
  N   N9        1.0  0.92870  0.42769  0.35136  1.0000
  N   N10       1.0  0.42816  0.50447  0.38543  1.0000
  N   N11       1.0  0.50243  0.92660  0.29604  1.0000
  N   N12       1.0  0.07210  0.57579  0.35255  1.0000
  N   N13       1.0  0.51891  0.44265  0.35530  1.0000
  N   N14       1.0  0.55841  0.07984  0.32424  1.0000
  N   N15       1.0  0.92028  0.48029  0.33349  1.0000
  N   N16       1.0  0.48258  0.56433  0.36034  1.0000
  N   N17       1.0  0.44185  0.92354  0.35570  1.0000
  N   N18       1.0  0.08057  0.52321  0.37004  1.0000
  N   N19       1.0  0.62946  0.33285  0.86557  1.0000
  N   N20       1.0  0.66517  0.29785  0.88422  1.0000
  N   N21       1.0  0.70233  0.36797  0.86392  1.0000
  N   N22       1.0  0.36999  0.66197  0.83730  1.0000
  N   N23       1.0  0.33514  0.69887  0.83068  1.0000
  N   N24       1.0  0.29742  0.62832  0.84680  1.0000
  N   N25       1.0  0.57107  0.49610  0.83002  1.0000
  N   N26       1.0  0.49607  0.07024  0.87663  1.0000
  N   N27       1.0  0.92829  0.42397  0.85038  1.0000
  N   N28       1.0  0.42590  0.49792  0.88810  1.0000
  N   N29       1.0  0.50129  0.92112  0.79709  1.0000
  N   N30       1.0  0.07165  0.57194  0.85042  1.0000
  N   N31       1.0  0.51709  0.43681  0.86001  1.0000
  N   N32       1.0  0.55727  0.07433  0.82547  1.0000
  N   N33       1.0  0.91981  0.47642  0.83128  1.0000
  N   N34       1.0  0.48009  0.55740  0.85957  1.0000
  N   N35       1.0  0.44064  0.91786  0.85557  1.0000
  N   N36       1.0  0.08008  0.51947  0.86928  1.0000
  O   O1        1.0  0.67149  0.40761  0.35176  1.0000
  O   O2        1.0  0.59416  0.27227  0.37821  1.0000
  O   O3        1.0  0.73309  0.33321  0.37542  1.0000
  O   O4        1.0  0.32987  0.59806  0.35127  1.0000
  O   O5        1.0  0.40636  0.73355  0.32443  1.0000
  O   O6        1.0  0.26792  0.67308  0.34025  1.0000
  O   O7        1.0  0.66964  0.40104  0.84400  1.0000
  O   O8        1.0  0.59380  0.26690  0.87946  1.0000
  O   O9        1.0  0.73311  0.32967  0.88183  1.0000
  O   O10       1.0  0.32866  0.59261  0.85064  1.0000
  O   O11       1.0  0.40575  0.72771  0.82053  1.0000
  O   O12       1.0  0.26787  0.66921  0.84604  1.0000
  C  Sn1       1.0  0.16464  0.63127  0.28674  1.0000
  C   C97       1.0  0.14480  0.59196  0.31068  1.0000
  C  Sn2       1.0  0.16796  0.58049  0.37692  1.0000
  C  Sn3       1.0  0.21185  0.60894  0.42024  1.0000
  C   C98       1.0  0.23167  0.64823  0.39633  1.0000
  C  Sn4       1.0  0.20853  0.65972  0.33006  1.0000
  O  Te1       1.0  0.14087  0.64207  0.22035  1.0000
  O  Te2       1.0  0.14743  0.54101  0.39965  1.0000
  O  Te3       1.0  0.23562  0.59811  0.48667  1.0000
  O  Te4       1.0  0.22904  0.69918  0.30736  1.0000
  Mg  Mg1       1.0  0.19339  0.54077  0.49431  1.0000
  Mg  Mg2       1.0  0.18311  0.69946  0.21281  1.0000
  C  Sn5       1.0  0.46597  0.81144  0.87842  1.0000
  C   C99       1.0  0.42500  0.77925  0.87140  1.0000
  C  Sn6       1.0  0.39235  0.78158  0.82196  1.0000
  C  Sn7       1.0  0.40082  0.81680  0.77851  1.0000
  C   C100      1.0  0.44177  0.84896  0.78551  1.0000
  C  Sn8       1.0  0.47445  0.84667  0.83497  1.0000
  O  Te5       1.0  0.49813  0.80846  0.92819  1.0000
  O  Te6       1.0  0.35165  0.74902  0.81598  1.0000
  O  Te7       1.0  0.36863  0.81977  0.72872  1.0000
  O  Te8       1.0  0.51513  0.87920  0.84093  1.0000
  Mg  Mg3       1.0  0.31840  0.76745  0.74031  1.0000
  Mg  Mg4       1.0  0.54839  0.86079  0.91647  1.0000
  C  Sn9       1.0  0.47100  0.82685  0.26073  1.0000
  C   C101      1.0  0.44955  0.84832  0.26943  1.0000
  C  Sn10      1.0  0.41054  0.83412  0.32370  1.0000
  C  Sn11      1.0  0.39259  0.79772  0.37037  1.0000
  C   C102      1.0  0.41405  0.77627  0.36169  1.0000
  C  Sn12      1.0  0.45306  0.79045  0.30740  1.0000
  O  Te9       1.0  0.50997  0.84161  0.20613  1.0000
  O  Te10      1.0  0.38968  0.85610  0.33128  1.0000
  O  Te11      1.0  0.35359  0.78297  0.42500  1.0000
  O  Te12      1.0  0.47392  0.76849  0.29985  1.0000
  Mg  Mg5       1.0  0.33737  0.82367  0.41386  1.0000
  Mg  Mg6       1.0  0.52624  0.80091  0.21738  1.0000
  C  Sn13      1.0  0.65520  0.47099  0.39216  1.0000
  C   C103      1.0  0.64551  0.43105  0.39761  1.0000
  C  Sn14      1.0  0.60426  0.39509  0.35686  1.0000
  C  Sn15      1.0  0.57201  0.39911  0.30955  1.0000
  C   C104      1.0  0.58170  0.43902  0.30408  1.0000
  C  Sn16      1.0  0.62294  0.47501  0.34485  1.0000
  O  Te13      1.0  0.69665  0.50651  0.43339  1.0000
  O  Te14      1.0  0.59535  0.35551  0.36329  1.0000
  O  Te15      1.0  0.53053  0.36355  0.26830  1.0000
  O  Te16      1.0  0.63186  0.51457  0.33840  1.0000
  Mg  Mg7       1.0  0.53407  0.31650  0.29575  1.0000
  Mg  Mg8       1.0  0.69313  0.55358  0.40581  1.0000
  C  Sn17      1.0  0.60008  0.18769  0.96431  1.0000
  C   C105      1.0  0.55865  0.15175  0.91963  1.0000
  C  Sn18      1.0  0.52815  0.15049  0.82911  1.0000
  C  Sn19      1.0  0.53928  0.18587  0.78213  1.0000
  C   C106      1.0  0.58068  0.22178  0.82677  1.0000
  C  Sn20      1.0  0.61120  0.22308  0.91733  1.0000
  O  Te17      1.0  0.59204  0.06975  0.05481  1.0000
  O  Te18      1.0  0.48694  0.11421  0.78594  1.0000
  O  Te19      1.0  0.50925  0.18528  0.69156  1.0000
  O  Te20      1.0  0.65239  0.25932  0.96046  1.0000
  Mg  Mg9       1.0  0.45732  0.12864  0.66209  1.0000
  Mg  Mg10      1.0  0.64402  0.12640  0.08421  1.0000
  C  Sn21      1.0  0.16494  0.62932  0.79714  1.0000
  C   C107      1.0  0.14439  0.58864  0.81128  1.0000
  C  Sn22      1.0  0.16686  0.57510  0.86790  1.0000
  C  Sn23      1.0  0.21080  0.60279  0.91142  1.0000
  C   C108      1.0  0.23133  0.64344  0.89731  1.0000
  C  Sn24      1.0  0.20888  0.65702  0.84066  1.0000
  O  Te21      1.0  0.14185  0.64220  0.74027  1.0000
  O  Te22      1.0  0.14563  0.53428  0.88092  1.0000
  O  Te23      1.0  0.23389  0.58988  0.96832  1.0000
  O  Te24      1.0  0.23009  0.69781  0.82767  1.0000
  Mg  Mg11      1.0  0.19084  0.53134  0.96476  1.0000
  Mg  Mg12      1.0  0.18492  0.70080  0.74395  1.0000
