data_image0
_chemical_formula_structural       H36C96N24O12SnCSn2CSnTe4Mg2SnCSn2CSnTe4Mg2SnCSn2CSnTe4Mg2SnCSn2CSnTe4Mg2SnCSn2CSnTe4Mg2SnCSn2CSnTe4Mg2
_chemical_formula_sum              "H36 C108 N24 O12 Sn24 Te24 Mg12"
_cell_length_a       35.4574
_cell_length_b       35.6073
_cell_length_c       7.93774
_cell_angle_alpha    80.1321
_cell_angle_beta     120.404
_cell_angle_gamma    120.123

_symmetry_space_group_name_H-M    'P1'
_space_group_IT_number       1

loop_
  _space_group_symop_operation_xyz
  'x, y, z'

loop_
  _atom_site_type_symbol
  _atom_site_label
  _atom_site_symmetry_multiplicity
  _atom_site_fract_x
  _atom_site_fract_y
  _atom_site_fract_z
  _atom_site_occupancy
  H   H1        1.0  0.67921  0.44048  0.23383  1.0000
  H   H2        1.0  0.31938  0.55709  0.25706  1.0000
  H   H3        1.0  0.63971  0.48324  0.22573  1.0000
  H   H4        1.0  0.35888  0.51516  0.25762  1.0000
  H   H5        1.0  0.51988  0.36506  0.25462  1.0000
  H   H6        1.0  0.47910  0.63468  0.23988  1.0000
  H   H7        1.0  0.55972  0.32300  0.26288  1.0000
  H   H8        1.0  0.43961  0.67604  0.24112  1.0000
  H   H9        1.0  0.42352  0.99416  0.26183  1.0000
  H   H10       1.0  0.00428  0.42746  0.26041  1.0000
  H   H11       1.0  0.57132  0.57370  0.25254  1.0000
  H   H12       1.0  0.57251  0.00357  0.26143  1.0000
  H   H13       1.0  0.99235  0.56602  0.23646  1.0000
  H   H14       1.0  0.42786  0.42580  0.23350  1.0000
  H   H15       1.0  0.55864  0.24047  0.76278  1.0000
  H   H16       1.0  0.76105  0.31900  0.74474  1.0000
  H   H17       1.0  0.44431  0.76348  0.74463  1.0000
  H   H18       1.0  0.24101  0.68367  0.74485  1.0000
  H   H19       1.0  0.51632  0.15928  0.76689  1.0000
  H   H20       1.0  0.84320  0.35852  0.74768  1.0000
  H   H21       1.0  0.48623  0.84494  0.74815  1.0000
  H   H22       1.0  0.15856  0.64483  0.73907  1.0000
  H   H23       1.0  0.63355  0.15577  0.74657  1.0000
  H   H24       1.0  0.84655  0.48063  0.75651  1.0000
  H   H25       1.0  0.36939  0.84603  0.78216  1.0000
  H   H26       1.0  0.15399  0.52210  0.73131  1.0000
  H   H27       1.0  0.67555  0.23663  0.74421  1.0000
  H   H28       1.0  0.76476  0.44085  0.75366  1.0000
  H   H29       1.0  0.32794  0.76495  0.77763  1.0000
  H   H30       1.0  0.23604  0.56121  0.73608  1.0000
  H   H31       1.0  0.43026  0.99734  0.79000  1.0000
  H   H32       1.0  0.00697  0.43258  0.75802  1.0000
  H   H33       1.0  0.57449  0.57653  0.76014  1.0000
  H   H34       1.0  0.57204  0.00553  0.73495  1.0000
  H   H35       1.0  0.99437  0.57089  0.73023  1.0000
  H   H36       1.0  0.42947  0.42836  0.72832  1.0000
  C   C1        1.0  0.64218  0.28864  0.25346  1.0000
  C   C2        1.0  0.70739  0.35134  0.25023  1.0000
  C   C3        1.0  0.64431  0.35382  0.24921  1.0000
  C   C4        1.0  0.35516  0.70833  0.25288  1.0000
  C   C5        1.0  0.28938  0.64452  0.24557  1.0000
  C   C6        1.0  0.35391  0.64372  0.25117  1.0000
  C   C7        1.0  0.62173  0.37913  0.24875  1.0000
  C   C8        1.0  0.37710  0.61917  0.24933  1.0000
  C   C9        1.0  0.64457  0.42454  0.23946  1.0000
  C   C10       1.0  0.35421  0.57355  0.25282  1.0000
  C   C11       1.0  0.62272  0.44820  0.23468  1.0000
  C   C12       1.0  0.37610  0.55034  0.25348  1.0000
  C   C13       1.0  0.57739  0.42686  0.23889  1.0000
  C   C14       1.0  0.42156  0.57223  0.25016  1.0000
  C   C15       1.0  0.55451  0.38145  0.24871  1.0000
  C   C16       1.0  0.44448  0.61782  0.24590  1.0000
  C   C17       1.0  0.57666  0.35799  0.25381  1.0000
  C   C18       1.0  0.42239  0.64089  0.24570  1.0000
  C   C19       1.0  0.55587  0.45230  0.23846  1.0000
  C   C20       1.0  0.54440  0.10285  0.26085  1.0000
  C   C21       1.0  0.89449  0.43902  0.25445  1.0000
  C   C22       1.0  0.44309  0.54708  0.24740  1.0000
  C   C23       1.0  0.45197  0.89479  0.26387  1.0000
  C   C24       1.0  0.10177  0.55448  0.23957  1.0000
  C   C25       1.0  0.49461  0.03581  0.26246  1.0000
  C   C26       1.0  0.96179  0.45635  0.25425  1.0000
  C   C27       1.0  0.54014  0.50277  0.24421  1.0000
  C   C28       1.0  0.50165  0.96188  0.26287  1.0000
  C   C29       1.0  0.03480  0.53713  0.24272  1.0000
  C   C30       1.0  0.45894  0.49674  0.24123  1.0000
  C   C31       1.0  0.53564  0.03736  0.26441  1.0000
  C   C32       1.0  0.95954  0.49539  0.24701  1.0000
  C   C33       1.0  0.49963  0.46222  0.23809  1.0000
  C   C34       1.0  0.46059  0.96027  0.26098  1.0000
  C   C35       1.0  0.03720  0.49812  0.25082  1.0000
  C   C36       1.0  0.49936  0.53730  0.24690  1.0000
  C   C37       1.0  0.45495  0.99607  0.26102  1.0000
  C   C38       1.0  0.00189  0.45684  0.25657  1.0000
  C   C39       1.0  0.54093  0.54238  0.24877  1.0000
  C   C40       1.0  0.54124  0.00159  0.26387  1.0000
  C   C41       1.0  0.99480  0.53666  0.24084  1.0000
  C   C42       1.0  0.45814  0.45713  0.23666  1.0000
  C   C43       1.0  0.64496  0.29149  0.75306  1.0000
  C   C44       1.0  0.71008  0.35455  0.75047  1.0000
  C   C45       1.0  0.64691  0.35655  0.75107  1.0000
  C   C46       1.0  0.35829  0.71135  0.75481  1.0000
  C   C47       1.0  0.29215  0.64773  0.74599  1.0000
  C   C48       1.0  0.35648  0.64660  0.75145  1.0000
  C   C49       1.0  0.61988  0.24360  0.75449  1.0000
  C   C50       1.0  0.75806  0.37759  0.74957  1.0000
  C   C51       1.0  0.38339  0.75930  0.75934  1.0000
  C   C52       1.0  0.24363  0.62476  0.74217  1.0000
  C   C53       1.0  0.57457  0.22153  0.75903  1.0000
  C   C54       1.0  0.78029  0.35433  0.74790  1.0000
  C   C55       1.0  0.42848  0.78199  0.75339  1.0000
  C   C56       1.0  0.22152  0.64837  0.74192  1.0000
  C   C57       1.0  0.55101  0.17651  0.76097  1.0000
  C   C58       1.0  0.82576  0.37614  0.75003  1.0000
  C   C59       1.0  0.45175  0.82709  0.75548  1.0000
  C   C60       1.0  0.17590  0.62696  0.73824  1.0000
  C   C61       1.0  0.57226  0.15241  0.75739  1.0000
  C   C62       1.0  0.85000  0.42193  0.75250  1.0000
  C   C63       1.0  0.43037  0.85054  0.76440  1.0000
  C   C64       1.0  0.15142  0.58120  0.73647  1.0000
  C   C65       1.0  0.61740  0.17436  0.75151  1.0000
  C   C66       1.0  0.82780  0.44530  0.75385  1.0000
  C   C67       1.0  0.38553  0.82795  0.77241  1.0000
  C   C68       1.0  0.17319  0.55743  0.73489  1.0000
  C   C69       1.0  0.64089  0.21943  0.75024  1.0000
  C   C70       1.0  0.78231  0.42328  0.75192  1.0000
  C   C71       1.0  0.36235  0.78278  0.76982  1.0000
  C   C72       1.0  0.21881  0.57908  0.73791  1.0000
  C   C73       1.0  0.55813  0.45502  0.73809  1.0000
  C   C74       1.0  0.54745  0.10554  0.76112  1.0000
  C   C75       1.0  0.89696  0.44388  0.75082  1.0000
  C   C76       1.0  0.44579  0.54986  0.75062  1.0000
  C   C77       1.0  0.45496  0.89746  0.76294  1.0000
  C   C78       1.0  0.10454  0.55955  0.73848  1.0000
  C   C79       1.0  0.49862  0.03865  0.76970  1.0000
  C   C80       1.0  0.96420  0.46133  0.74991  1.0000
  C   C81       1.0  0.54263  0.50551  0.74606  1.0000
  C   C82       1.0  0.50373  0.96438  0.75505  1.0000
  C   C83       1.0  0.03726  0.54219  0.73878  1.0000
  C   C84       1.0  0.46120  0.49940  0.74154  1.0000
  C   C85       1.0  0.53764  0.03982  0.75624  1.0000
  C   C86       1.0  0.96175  0.50030  0.74144  1.0000
  C   C87       1.0  0.50185  0.46493  0.73770  1.0000
  C   C88       1.0  0.46472  0.96315  0.76876  1.0000
  C   C89       1.0  0.03971  0.50322  0.74747  1.0000
  C   C90       1.0  0.50206  0.54001  0.75055  1.0000
  C   C91       1.0  0.46012  0.99911  0.77690  1.0000
  C   C92       1.0  0.00440  0.46189  0.75299  1.0000
  C   C93       1.0  0.54371  0.54515  0.75307  1.0000
  C   C94       1.0  0.54224  0.00388  0.74808  1.0000
  C   C95       1.0  0.99697  0.54160  0.73523  1.0000
  C   C96       1.0  0.46016  0.45977  0.73487  1.0000
  N   N1        1.0  0.61966  0.31018  0.25035  1.0000
  N   N2        1.0  0.68613  0.30770  0.25472  1.0000
  N   N3        1.0  0.68796  0.37583  0.24730  1.0000
  N   N4        1.0  0.37852  0.68758  0.25609  1.0000
  N   N5        1.0  0.31047  0.68828  0.24597  1.0000
  N   N6        1.0  0.30960  0.62079  0.24803  1.0000
  N   N7        1.0  0.50189  0.07795  0.26108  1.0000
  N   N8        1.0  0.91998  0.42171  0.25882  1.0000
  N   N9        1.0  0.57472  0.49484  0.24487  1.0000
  N   N10       1.0  0.49447  0.91982  0.26385  1.0000
  N   N11       1.0  0.07625  0.57173  0.23557  1.0000
  N   N12       1.0  0.42437  0.50456  0.24118  1.0000
  N   N13       1.0  0.62246  0.31288  0.75199  1.0000
  N   N14       1.0  0.68881  0.31083  0.75304  1.0000
  N   N15       1.0  0.69057  0.37880  0.74919  1.0000
  N   N16       1.0  0.38143  0.69046  0.75759  1.0000
  N   N17       1.0  0.31362  0.69150  0.74776  1.0000
  N   N18       1.0  0.31204  0.62379  0.74732  1.0000
  N   N19       1.0  0.50653  0.08092  0.77324  1.0000
  N   N20       1.0  0.92258  0.42666  0.75560  1.0000
  N   N21       1.0  0.57718  0.49758  0.74631  1.0000
  N   N22       1.0  0.49588  0.92219  0.75095  1.0000
  N   N23       1.0  0.07893  0.57683  0.73327  1.0000
  N   N24       1.0  0.42663  0.50728  0.74108  1.0000
  O   O1        1.0  0.56774  0.08049  0.26410  1.0000
  O   O2        1.0  0.91623  0.48420  0.24710  1.0000
  O   O3        1.0  0.50968  0.42976  0.23354  1.0000
  O   O4        1.0  0.42852  0.91702  0.26105  1.0000
  O   O5        1.0  0.08044  0.50939  0.24959  1.0000
  O   O6        1.0  0.48917  0.56971  0.25127  1.0000
  O   O7        1.0  0.56904  0.08284  0.75082  1.0000
  O   O8        1.0  0.91838  0.48899  0.74155  1.0000
  O   O9        1.0  0.51180  0.43247  0.73210  1.0000
  O   O10       1.0  0.43334  0.92005  0.77401  1.0000
  O   O11       1.0  0.08309  0.51446  0.74804  1.0000
  O   O12       1.0  0.49221  0.57247  0.75758  1.0000
  C  Sn1       1.0  0.78260  0.42572  0.19465  1.0000
  C   C97       1.0  0.75374  0.38096  0.19536  1.0000
  C  Sn2       1.0  0.77447  0.35348  0.24445  1.0000
  C  Sn3       1.0  0.82511  0.37109  0.29398  1.0000
  C   C98       1.0  0.85394  0.41583  0.29329  1.0000
  C  Sn4       1.0  0.83325  0.44334  0.24418  1.0000
  O  Te1       1.0  0.76111  0.45259  0.14512  1.0000
  O  Te2       1.0  0.74487  0.30883  0.24407  1.0000
  O  Te3       1.0  0.84659  0.34418  0.34353  1.0000
  O  Te4       1.0  0.86282  0.48796  0.24458  1.0000
  Mg  Mg1       1.0  0.79111  0.28555  0.32206  1.0000
  Mg  Mg2       1.0  0.81663  0.51127  0.16671  1.0000
  C  Sn5       1.0  0.56998  0.21063  0.30982  1.0000
  C   C99       1.0  0.61504  0.23765  0.30810  1.0000
  C  Sn6       1.0  0.63627  0.21979  0.26145  1.0000
  C  Sn7       1.0  0.61194  0.17397  0.21542  1.0000
  C   C100      1.0  0.56690  0.14699  0.21712  1.0000
  C  Sn8       1.0  0.54565  0.16482  0.26379  1.0000
  O  Te5       1.0  0.54944  0.22920  0.35688  1.0000
  O  Te6       1.0  0.68135  0.24745  0.26077  1.0000
  O  Te7       1.0  0.63252  0.15542  0.16835  1.0000
  O  Te8       1.0  0.50059  0.13718  0.26446  1.0000
  Mg  Mg3       1.0  0.69451  0.20663  0.18711  1.0000
  Mg  Mg4       1.0  0.48738  0.17796  0.33799  1.0000
  C  Sn9       1.0  0.56378  0.36077  0.69557  1.0000
  C   C101      1.0  0.60874  0.37655  0.69604  1.0000
  C  Sn10      1.0  0.64299  0.42125  0.73623  1.0000
  C  Sn11      1.0  0.63208  0.45079  0.77691  1.0000
  C   C102      1.0  0.58715  0.43501  0.77645  1.0000
  C  Sn12      1.0  0.55287  0.39032  0.73625  1.0000
  O  Te9       1.0  0.53009  0.31596  0.65502  1.0000
  O  Te10      1.0  0.68768  0.43625  0.73579  1.0000
  O  Te11      1.0  0.66581  0.49563  0.81747  1.0000
  O  Te12      1.0  0.50820  0.37531  0.73670  1.0000
  Mg  Mg5       1.0  0.72166  0.50021  0.79971  1.0000
  Mg  Mg6       1.0  0.47422  0.31136  0.67291  1.0000
  C  Sn13      1.0  0.44186  0.79038  0.32607  1.0000
  C   C103      1.0  0.39539  0.76229  0.31506  1.0000
  C  Sn14      1.0  0.36124  0.77693  0.26072  1.0000
  C  Sn15      1.0  0.37379  0.82055  0.21632  1.0000
  C   C104      1.0  0.42023  0.84860  0.22730  1.0000
  C  Sn16      1.0  0.45440  0.83399  0.28167  1.0000
  O  Te13      1.0  0.47541  0.77504  0.38071  1.0000
  O  Te14      1.0  0.31502  0.74825  0.25081  1.0000
  O  Te15      1.0  0.34019  0.83586  0.16166  1.0000
  O  Te16      1.0  0.50060  0.86264  0.29155  1.0000
  Mg  Mg7       1.0  0.28190  0.78442  0.16916  1.0000
  Mg  Mg8       1.0  0.53373  0.82650  0.37308  1.0000
  C  Sn17      1.0  0.18778  0.55633  0.29496  1.0000
  C   C105      1.0  0.15980  0.57383  0.29065  1.0000
  C  Sn18      1.0  0.17037  0.61633  0.24299  1.0000
  C  Sn19      1.0  0.20971  0.64186  0.19858  1.0000
  C   C106      1.0  0.23766  0.62436  0.20287  1.0000
  C  Sn20      1.0  0.22713  0.58187  0.25055  1.0000
  O  Te17      1.0  0.17656  0.51378  0.34298  1.0000
  O  Te18      1.0  0.14188  0.63312  0.23971  1.0000
  O  Te19      1.0  0.22092  0.68445  0.15054  1.0000
  O  Te20      1.0  0.25558  0.56508  0.25381  1.0000
  Mg  Mg9       1.0  0.17151  0.69278  0.16564  1.0000
  Mg  Mg10      1.0  0.22597  0.50541  0.32776  1.0000
  C  Sn21      1.0  0.42515  0.64000  0.68957  1.0000
  C   C107      1.0  0.38101  0.62376  0.69631  1.0000
  C  Sn22      1.0  0.35958  0.58198  0.75036  1.0000
  C  Sn23      1.0  0.38278  0.55589  0.79880  1.0000
  C   C108      1.0  0.42690  0.57214  0.79208  1.0000
  C  Sn24      1.0  0.44835  0.61392  0.73801  1.0000
  O  Te21      1.0  0.44591  0.68187  0.63516  1.0000
  O  Te22      1.0  0.31542  0.56644  0.75596  1.0000
  O  Te23      1.0  0.36198  0.51400  0.85324  1.0000
  O  Te24      1.0  0.49249  0.62946  0.73243  1.0000
  Mg  Mg11      1.0  0.30153  0.50733  0.83909  1.0000
  Mg  Mg12      1.0  0.50642  0.68856  0.64943  1.0000
