data_image0
_chemical_formula_structural       H12C60N24O12C2Sn2C2HTe2HMgC2Sn2C2HTe2HMgC2Sn2C2HTe2HMgC2Sn2C2HTe2HMgC2Sn2C2HTe2HMgC2Sn2C2HTe2HMgC2Sn2C2HTe2HMgC2Sn2C2HTe2HMgC2Sn2C2HTe2HMgC2Sn2C2HTe2HMgC2Sn2C2HTe2HMgC2Sn2C2HTe2HMg
_chemical_formula_sum              "H36 C108 N24 O12 Sn24 Te24 Mg12"
_cell_length_a       35.4574
_cell_length_b       35.6073
_cell_length_c       7.93774
_cell_angle_alpha    80.1321
_cell_angle_beta     120.404
_cell_angle_gamma    120.123

_symmetry_space_group_name_H-M    'P1'
_space_group_IT_number       1

loop_
  _space_group_symop_operation_xyz
  'x, y, z'

loop_
  _atom_site_type_symbol
  _atom_site_label
  _atom_site_symmetry_multiplicity
  _atom_site_fract_x
  _atom_site_fract_y
  _atom_site_fract_z
  _atom_site_occupancy
  H   H1        1.0  0.42352  0.99416  0.26183  1.0000
  H   H2        1.0  0.00428  0.42746  0.26041  1.0000
  H   H3        1.0  0.57132  0.57370  0.25254  1.0000
  H   H4        1.0  0.57251  0.00357  0.26143  1.0000
  H   H5        1.0  0.99235  0.56602  0.23646  1.0000
  H   H6        1.0  0.42786  0.42580  0.23350  1.0000
  H   H7        1.0  0.43026  0.99734  0.79000  1.0000
  H   H8        1.0  0.00697  0.43258  0.75802  1.0000
  H   H9        1.0  0.57449  0.57653  0.76014  1.0000
  H   H10       1.0  0.57204  0.00553  0.73495  1.0000
  H   H11       1.0  0.99437  0.57089  0.73023  1.0000
  H   H12       1.0  0.42947  0.42836  0.72832  1.0000
  C   C1        1.0  0.64218  0.28864  0.25346  1.0000
  C   C2        1.0  0.70739  0.35134  0.25023  1.0000
  C   C3        1.0  0.64431  0.35382  0.24921  1.0000
  C   C4        1.0  0.35516  0.70833  0.25288  1.0000
  C   C5        1.0  0.28938  0.64452  0.24557  1.0000
  C   C6        1.0  0.35391  0.64372  0.25117  1.0000
  C   C7        1.0  0.55587  0.45230  0.23846  1.0000
  C   C8        1.0  0.54440  0.10285  0.26085  1.0000
  C   C9        1.0  0.89449  0.43902  0.25445  1.0000
  C   C10       1.0  0.44309  0.54708  0.24740  1.0000
  C   C11       1.0  0.45197  0.89479  0.26387  1.0000
  C   C12       1.0  0.10177  0.55448  0.23957  1.0000
  C   C13       1.0  0.49461  0.03581  0.26246  1.0000
  C   C14       1.0  0.96179  0.45635  0.25425  1.0000
  C   C15       1.0  0.54014  0.50277  0.24421  1.0000
  C   C16       1.0  0.50165  0.96188  0.26287  1.0000
  C   C17       1.0  0.03480  0.53713  0.24272  1.0000
  C   C18       1.0  0.45894  0.49674  0.24123  1.0000
  C   C19       1.0  0.53564  0.03736  0.26441  1.0000
  C   C20       1.0  0.95954  0.49539  0.24701  1.0000
  C   C21       1.0  0.49963  0.46222  0.23809  1.0000
  C   C22       1.0  0.46059  0.96027  0.26098  1.0000
  C   C23       1.0  0.03720  0.49812  0.25082  1.0000
  C   C24       1.0  0.49936  0.53730  0.24690  1.0000
  C   C25       1.0  0.45495  0.99607  0.26102  1.0000
  C   C26       1.0  0.00189  0.45684  0.25657  1.0000
  C   C27       1.0  0.54093  0.54238  0.24877  1.0000
  C   C28       1.0  0.54124  0.00159  0.26387  1.0000
  C   C29       1.0  0.99480  0.53666  0.24084  1.0000
  C   C30       1.0  0.45814  0.45713  0.23666  1.0000
  C   C31       1.0  0.64496  0.29149  0.75306  1.0000
  C   C32       1.0  0.71008  0.35455  0.75047  1.0000
  C   C33       1.0  0.64691  0.35655  0.75107  1.0000
  C   C34       1.0  0.35829  0.71135  0.75481  1.0000
  C   C35       1.0  0.29215  0.64773  0.74599  1.0000
  C   C36       1.0  0.35648  0.64660  0.75145  1.0000
  C   C37       1.0  0.55813  0.45502  0.73809  1.0000
  C   C38       1.0  0.54745  0.10554  0.76112  1.0000
  C   C39       1.0  0.89696  0.44388  0.75082  1.0000
  C   C40       1.0  0.44579  0.54986  0.75062  1.0000
  C   C41       1.0  0.45496  0.89746  0.76294  1.0000
  C   C42       1.0  0.10454  0.55955  0.73848  1.0000
  C   C43       1.0  0.49862  0.03865  0.76970  1.0000
  C   C44       1.0  0.96420  0.46133  0.74991  1.0000
  C   C45       1.0  0.54263  0.50551  0.74606  1.0000
  C   C46       1.0  0.50373  0.96438  0.75505  1.0000
  C   C47       1.0  0.03726  0.54219  0.73878  1.0000
  C   C48       1.0  0.46120  0.49940  0.74154  1.0000
  C   C49       1.0  0.53764  0.03982  0.75624  1.0000
  C   C50       1.0  0.96175  0.50030  0.74144  1.0000
  C   C51       1.0  0.50185  0.46493  0.73770  1.0000
  C   C52       1.0  0.46472  0.96315  0.76876  1.0000
  C   C53       1.0  0.03971  0.50322  0.74747  1.0000
  C   C54       1.0  0.50206  0.54001  0.75055  1.0000
  C   C55       1.0  0.46012  0.99911  0.77690  1.0000
  C   C56       1.0  0.00440  0.46189  0.75299  1.0000
  C   C57       1.0  0.54371  0.54515  0.75307  1.0000
  C   C58       1.0  0.54224  0.00388  0.74808  1.0000
  C   C59       1.0  0.99697  0.54160  0.73523  1.0000
  C   C60       1.0  0.46016  0.45977  0.73487  1.0000
  N   N1        1.0  0.61966  0.31018  0.25035  1.0000
  N   N2        1.0  0.68613  0.30770  0.25472  1.0000
  N   N3        1.0  0.68796  0.37583  0.24730  1.0000
  N   N4        1.0  0.37852  0.68758  0.25609  1.0000
  N   N5        1.0  0.31047  0.68828  0.24597  1.0000
  N   N6        1.0  0.30960  0.62079  0.24803  1.0000
  N   N7        1.0  0.50189  0.07795  0.26108  1.0000
  N   N8        1.0  0.91998  0.42171  0.25882  1.0000
  N   N9        1.0  0.57472  0.49484  0.24487  1.0000
  N   N10       1.0  0.49447  0.91982  0.26385  1.0000
  N   N11       1.0  0.07625  0.57173  0.23557  1.0000
  N   N12       1.0  0.42437  0.50456  0.24118  1.0000
  N   N13       1.0  0.62246  0.31288  0.75199  1.0000
  N   N14       1.0  0.68881  0.31083  0.75304  1.0000
  N   N15       1.0  0.69057  0.37880  0.74919  1.0000
  N   N16       1.0  0.38143  0.69046  0.75759  1.0000
  N   N17       1.0  0.31362  0.69150  0.74776  1.0000
  N   N18       1.0  0.31204  0.62379  0.74732  1.0000
  N   N19       1.0  0.50653  0.08092  0.77324  1.0000
  N   N20       1.0  0.92258  0.42666  0.75560  1.0000
  N   N21       1.0  0.57718  0.49758  0.74631  1.0000
  N   N22       1.0  0.49588  0.92219  0.75095  1.0000
  N   N23       1.0  0.07893  0.57683  0.73327  1.0000
  N   N24       1.0  0.42663  0.50728  0.74108  1.0000
  O   O1        1.0  0.56774  0.08049  0.26410  1.0000
  O   O2        1.0  0.91623  0.48420  0.24710  1.0000
  O   O3        1.0  0.50968  0.42976  0.23354  1.0000
  O   O4        1.0  0.42852  0.91702  0.26105  1.0000
  O   O5        1.0  0.08044  0.50939  0.24959  1.0000
  O   O6        1.0  0.48917  0.56971  0.25127  1.0000
  O   O7        1.0  0.56904  0.08284  0.75082  1.0000
  O   O8        1.0  0.91838  0.48899  0.74155  1.0000
  O   O9        1.0  0.51180  0.43247  0.73210  1.0000
  O   O10       1.0  0.43334  0.92005  0.77401  1.0000
  O   O11       1.0  0.08309  0.51446  0.74804  1.0000
  O   O12       1.0  0.49221  0.57247  0.75758  1.0000
  C   C61       1.0  0.64002  0.20665  0.26671  1.0000
  C   C62       1.0  0.62237  0.23542  0.24662  1.0000
  C  Sn1       1.0  0.57689  0.22024  0.24069  1.0000
  C  Sn2       1.0  0.54864  0.17542  0.25522  1.0000
  C   C63       1.0  0.56664  0.14690  0.27542  1.0000
  C   C64       1.0  0.61219  0.16243  0.28113  1.0000
  H   H13       1.0  0.67527  0.21866  0.27123  1.0000
  O  Te1       1.0  0.55979  0.24942  0.22049  1.0000
  O  Te2       1.0  0.50307  0.15938  0.24978  1.0000
  H   H14       1.0  0.62586  0.14016  0.29680  1.0000
  Mg  Mg1       1.0  0.49550  0.21194  0.22038  1.0000
  C   C65       1.0  0.81268  0.36106  0.25530  1.0000
  C   C66       1.0  0.84096  0.40538  0.24496  1.0000
  C  Sn3       1.0  0.82613  0.43500  0.24573  1.0000
  C  Sn4       1.0  0.78215  0.41989  0.25714  1.0000
  C   C67       1.0  0.75413  0.37550  0.26757  1.0000
  C   C68       1.0  0.76931  0.34613  0.26662  1.0000
  H   H15       1.0  0.82443  0.33834  0.25468  1.0000
  O  Te3       1.0  0.85482  0.47917  0.23524  1.0000
  O  Te4       1.0  0.76648  0.44880  0.25824  1.0000
  H   H16       1.0  0.74741  0.31183  0.27476  1.0000
  Mg  Mg2       1.0  0.81811  0.50588  0.24131  1.0000
  C   C69       1.0  0.63390  0.44842  0.23959  1.0000
  C   C70       1.0  0.58784  0.43302  0.22899  1.0000
  C  Sn5       1.0  0.55902  0.38873  0.23768  1.0000
  C  Sn6       1.0  0.57675  0.35941  0.25740  1.0000
  C   C71       1.0  0.62290  0.37515  0.26802  1.0000
  C   C72       1.0  0.65142  0.41952  0.25911  1.0000
  H   H17       1.0  0.65599  0.48275  0.23281  1.0000
  O  Te5       1.0  0.51308  0.37389  0.22682  1.0000
  O  Te6       1.0  0.54872  0.31499  0.26652  1.0000
  H   H18       1.0  0.68710  0.43144  0.26745  1.0000
  Mg  Mg3       1.0  0.48847  0.31046  0.24562  1.0000
  C   C73       1.0  0.36916  0.81436  0.25231  1.0000
  C   C74       1.0  0.41662  0.84327  0.27359  1.0000
  C  Sn7       1.0  0.44597  0.82734  0.27843  1.0000
  C  Sn8       1.0  0.42737  0.78159  0.26156  1.0000
  C   C75       1.0  0.37983  0.75294  0.24018  1.0000
  C   C76       1.0  0.35077  0.76923  0.23558  1.0000
  H   H19       1.0  0.34666  0.82696  0.24864  1.0000
  O  Te7       1.0  0.49331  0.85668  0.29986  1.0000
  O  Te8       1.0  0.45592  0.76478  0.26587  1.0000
  H   H20       1.0  0.31402  0.74684  0.21897  1.0000
  Mg  Mg4       1.0  0.51814  0.81791  0.29768  1.0000
  C   C77       1.0  0.18390  0.63301  0.24564  1.0000
  C   C78       1.0  0.15242  0.58800  0.22616  1.0000
  C  Sn9       1.0  0.16745  0.55877  0.22240  1.0000
  C  Sn10      1.0  0.21490  0.57499  0.23853  1.0000
  C   C79       1.0  0.24614  0.62008  0.25810  1.0000
  C   C80       1.0  0.23072  0.64904  0.26163  1.0000
  H   H21       1.0  0.17199  0.65542  0.24849  1.0000
  O  Te9       1.0  0.13552  0.51390  0.20278  1.0000
  O  Te10      1.0  0.23087  0.54650  0.23526  1.0000
  H   H22       1.0  0.25512  0.68388  0.27684  1.0000
  Mg  Mg5       1.0  0.17404  0.48814  0.20584  1.0000
  C   C81       1.0  0.43357  0.64122  0.24996  1.0000
  C   C82       1.0  0.38745  0.62533  0.23971  1.0000
  C  Sn11      1.0  0.35842  0.58077  0.24311  1.0000
  C  Sn12      1.0  0.37599  0.55166  0.25709  1.0000
  C   C83       1.0  0.42219  0.56789  0.26741  1.0000
  C   C84       1.0  0.45093  0.61254  0.26383  1.0000
  H   H23       1.0  0.45582  0.67577  0.24731  1.0000
  O  Te11      1.0  0.31243  0.56544  0.23267  1.0000
  O  Te12      1.0  0.34774  0.50697  0.26085  1.0000
  H   H24       1.0  0.48665  0.62484  0.27190  1.0000
  Mg  Mg6       1.0  0.28750  0.50179  0.24287  1.0000
  C   C85       1.0  0.64157  0.20912  0.75484  1.0000
  C   C86       1.0  0.62495  0.23815  0.74397  1.0000
  C  Sn13      1.0  0.58083  0.22328  0.74886  1.0000
  C  Sn14      1.0  0.55292  0.17849  0.76499  1.0000
  C   C87       1.0  0.56988  0.14971  0.77591  1.0000
  C   C88       1.0  0.61407  0.16494  0.77083  1.0000
  H   H25       1.0  0.67578  0.22090  0.75103  1.0000
  O  Te13      1.0  0.56476  0.25273  0.73777  1.0000
  O  Te14      1.0  0.50871  0.16276  0.77026  1.0000
  H   H26       1.0  0.62695  0.14246  0.77938  1.0000
  Mg  Mg7       1.0  0.50215  0.21560  0.75063  1.0000
  C   C89       1.0  0.81588  0.36565  0.75448  1.0000
  C   C90       1.0  0.84361  0.40999  0.74262  1.0000
  C  Sn15      1.0  0.82829  0.43926  0.74300  1.0000
  C  Sn16      1.0  0.78439  0.42376  0.75555  1.0000
  C   C91       1.0  0.75693  0.37934  0.76751  1.0000
  C   C92       1.0  0.77259  0.35033  0.76695  1.0000
  H   H27       1.0  0.82800  0.34321  0.75416  1.0000
  O  Te15      1.0  0.85642  0.48345  0.73098  1.0000
  O  Te16      1.0  0.76825  0.45230  0.75630  1.0000
  H   H28       1.0  0.75113  0.31601  0.77626  1.0000
  Mg  Mg8       1.0  0.81920  0.50958  0.73712  1.0000
  C   C93       1.0  0.63619  0.45100  0.73944  1.0000
  C   C94       1.0  0.59006  0.43568  0.72807  1.0000
  C  Sn17      1.0  0.56126  0.39146  0.73775  1.0000
  C  Sn18      1.0  0.57909  0.36211  0.75927  1.0000
  C   C95       1.0  0.62531  0.37777  0.77065  1.0000
  C   C96       1.0  0.65381  0.42208  0.76075  1.0000
  H   H29       1.0  0.65825  0.48529  0.73189  1.0000
  O  Te17      1.0  0.51525  0.37669  0.72608  1.0000
  O  Te18      1.0  0.55109  0.31775  0.76941  1.0000
  H   H30       1.0  0.68954  0.43394  0.76969  1.0000
  Mg  Mg9       1.0  0.49072  0.31332  0.74682  1.0000
  C   C97       1.0  0.36302  0.79325  0.77716  1.0000
  C   C98       1.0  0.37567  0.76406  0.75191  1.0000
  C  Sn19      1.0  0.41911  0.77964  0.74071  1.0000
  C  Sn20      1.0  0.45040  0.82531  0.75516  1.0000
  C   C99       1.0  0.43743  0.85426  0.78055  1.0000
  C   C100      1.0  0.39386  0.83831  0.79151  1.0000
  H   H31       1.0  0.32933  0.78092  0.78575  1.0000
  O  Te19      1.0  0.43119  0.75001  0.71538  1.0000
  O  Te20      1.0  0.49404  0.84177  0.74451  1.0000
  H   H32       1.0  0.38410  0.86092  0.81119  1.0000
  Mg  Mg10      1.0  0.49456  0.78835  0.70926  1.0000
  C   C101      1.0  0.21069  0.64894  0.73631  1.0000
  C   C102      1.0  0.24017  0.63199  0.75153  1.0000
  C  Sn21      1.0  0.22271  0.58701  0.74978  1.0000
  C  Sn22      1.0  0.17482  0.55856  0.73241  1.0000
  C   C103      1.0  0.14559  0.57584  0.71713  1.0000
  C   C104      1.0  0.16344  0.62090  0.71910  1.0000
  H   H33       1.0  0.22448  0.68380  0.73772  1.0000
  O  Te21      1.0  0.25266  0.57062  0.76520  1.0000
  O  Te22      1.0  0.15644  0.51348  0.73020  1.0000
  H   H34       1.0  0.14058  0.63402  0.70718  1.0000
  Mg  Mg11      1.0  0.21119  0.50680  0.75533  1.0000
  C   C105      1.0  0.35521  0.56546  0.74675  1.0000
  C   C106      1.0  0.37383  0.61060  0.75911  1.0000
  C  Sn23      1.0  0.41889  0.63879  0.75900  1.0000
  C  Sn24      1.0  0.44573  0.62135  0.74621  1.0000
  C   C107      1.0  0.42677  0.57614  0.73375  1.0000
  C   C108      1.0  0.38165  0.54823  0.73404  1.0000
  H   H35       1.0  0.32028  0.54386  0.74686  1.0000
  O  Te23      1.0  0.43697  0.68381  0.77152  1.0000
  O  Te24      1.0  0.49085  0.64878  0.74573  1.0000
  H   H36       1.0  0.36722  0.51328  0.72434  1.0000
  Mg  Mg12      1.0  0.50016  0.70784  0.76558  1.0000
