data_image0
_chemical_formula_structural       H12C60N24O12SnCSn2CSnTe4Mg2SnCSn2CSnTe4Mg2SnCSn2CSnTe4Mg2SnCSn2CSnTe4Mg2SnCSn2CSnTe4Mg2SnCSn2CSnTe4Mg2SnCSn2CSnTe4Mg2SnCSn2CSnTe4Mg2SnCSn2CSnTe4Mg2SnCSn2CSnTe4Mg2SnCSn2CSnTe4Mg2SnCSn2CSnTe4Mg2
_chemical_formula_sum              "H12 C84 N24 O12 Sn48 Te48 Mg24"
_cell_length_a       35.4574
_cell_length_b       35.6073
_cell_length_c       7.93774
_cell_angle_alpha    80.1321
_cell_angle_beta     120.404
_cell_angle_gamma    120.123

_symmetry_space_group_name_H-M    'P1'
_space_group_IT_number       1

loop_
  _space_group_symop_operation_xyz
  'x, y, z'

loop_
  _atom_site_type_symbol
  _atom_site_label
  _atom_site_symmetry_multiplicity
  _atom_site_fract_x
  _atom_site_fract_y
  _atom_site_fract_z
  _atom_site_occupancy
  H   H1        1.0  0.42352  0.99416  0.26183  1.0000
  H   H2        1.0  0.00428  0.42746  0.26041  1.0000
  H   H3        1.0  0.57132  0.57370  0.25254  1.0000
  H   H4        1.0  0.57251  0.00357  0.26143  1.0000
  H   H5        1.0  0.99235  0.56602  0.23646  1.0000
  H   H6        1.0  0.42786  0.42580  0.23350  1.0000
  H   H7        1.0  0.43026  0.99734  0.79000  1.0000
  H   H8        1.0  0.00697  0.43258  0.75802  1.0000
  H   H9        1.0  0.57449  0.57653  0.76014  1.0000
  H   H10       1.0  0.57204  0.00553  0.73495  1.0000
  H   H11       1.0  0.99437  0.57089  0.73023  1.0000
  H   H12       1.0  0.42947  0.42836  0.72832  1.0000
  C   C1        1.0  0.64218  0.28864  0.25346  1.0000
  C   C2        1.0  0.70739  0.35134  0.25023  1.0000
  C   C3        1.0  0.64431  0.35382  0.24921  1.0000
  C   C4        1.0  0.35516  0.70833  0.25288  1.0000
  C   C5        1.0  0.28938  0.64452  0.24557  1.0000
  C   C6        1.0  0.35391  0.64372  0.25117  1.0000
  C   C7        1.0  0.55587  0.45230  0.23846  1.0000
  C   C8        1.0  0.54440  0.10285  0.26085  1.0000
  C   C9        1.0  0.89449  0.43902  0.25445  1.0000
  C   C10       1.0  0.44309  0.54708  0.24740  1.0000
  C   C11       1.0  0.45197  0.89479  0.26387  1.0000
  C   C12       1.0  0.10177  0.55448  0.23957  1.0000
  C   C13       1.0  0.49461  0.03581  0.26246  1.0000
  C   C14       1.0  0.96179  0.45635  0.25425  1.0000
  C   C15       1.0  0.54014  0.50277  0.24421  1.0000
  C   C16       1.0  0.50165  0.96188  0.26287  1.0000
  C   C17       1.0  0.03480  0.53713  0.24272  1.0000
  C   C18       1.0  0.45894  0.49674  0.24123  1.0000
  C   C19       1.0  0.53564  0.03736  0.26441  1.0000
  C   C20       1.0  0.95954  0.49539  0.24701  1.0000
  C   C21       1.0  0.49963  0.46222  0.23809  1.0000
  C   C22       1.0  0.46059  0.96027  0.26098  1.0000
  C   C23       1.0  0.03720  0.49812  0.25082  1.0000
  C   C24       1.0  0.49936  0.53730  0.24690  1.0000
  C   C25       1.0  0.45495  0.99607  0.26102  1.0000
  C   C26       1.0  0.00189  0.45684  0.25657  1.0000
  C   C27       1.0  0.54093  0.54238  0.24877  1.0000
  C   C28       1.0  0.54124  0.00159  0.26387  1.0000
  C   C29       1.0  0.99480  0.53666  0.24084  1.0000
  C   C30       1.0  0.45814  0.45713  0.23666  1.0000
  C   C31       1.0  0.64496  0.29149  0.75306  1.0000
  C   C32       1.0  0.71008  0.35455  0.75047  1.0000
  C   C33       1.0  0.64691  0.35655  0.75107  1.0000
  C   C34       1.0  0.35829  0.71135  0.75481  1.0000
  C   C35       1.0  0.29215  0.64773  0.74599  1.0000
  C   C36       1.0  0.35648  0.64660  0.75145  1.0000
  C   C37       1.0  0.55813  0.45502  0.73809  1.0000
  C   C38       1.0  0.54745  0.10554  0.76112  1.0000
  C   C39       1.0  0.89696  0.44388  0.75082  1.0000
  C   C40       1.0  0.44579  0.54986  0.75062  1.0000
  C   C41       1.0  0.45496  0.89746  0.76294  1.0000
  C   C42       1.0  0.10454  0.55955  0.73848  1.0000
  C   C43       1.0  0.49862  0.03865  0.76970  1.0000
  C   C44       1.0  0.96420  0.46133  0.74991  1.0000
  C   C45       1.0  0.54263  0.50551  0.74606  1.0000
  C   C46       1.0  0.50373  0.96438  0.75505  1.0000
  C   C47       1.0  0.03726  0.54219  0.73878  1.0000
  C   C48       1.0  0.46120  0.49940  0.74154  1.0000
  C   C49       1.0  0.53764  0.03982  0.75624  1.0000
  C   C50       1.0  0.96175  0.50030  0.74144  1.0000
  C   C51       1.0  0.50185  0.46493  0.73770  1.0000
  C   C52       1.0  0.46472  0.96315  0.76876  1.0000
  C   C53       1.0  0.03971  0.50322  0.74747  1.0000
  C   C54       1.0  0.50206  0.54001  0.75055  1.0000
  C   C55       1.0  0.46012  0.99911  0.77690  1.0000
  C   C56       1.0  0.00440  0.46189  0.75299  1.0000
  C   C57       1.0  0.54371  0.54515  0.75307  1.0000
  C   C58       1.0  0.54224  0.00388  0.74808  1.0000
  C   C59       1.0  0.99697  0.54160  0.73523  1.0000
  C   C60       1.0  0.46016  0.45977  0.73487  1.0000
  N   N1        1.0  0.61966  0.31018  0.25035  1.0000
  N   N2        1.0  0.68613  0.30770  0.25472  1.0000
  N   N3        1.0  0.68796  0.37583  0.24730  1.0000
  N   N4        1.0  0.37852  0.68758  0.25609  1.0000
  N   N5        1.0  0.31047  0.68828  0.24597  1.0000
  N   N6        1.0  0.30960  0.62079  0.24803  1.0000
  N   N7        1.0  0.50189  0.07795  0.26108  1.0000
  N   N8        1.0  0.91998  0.42171  0.25882  1.0000
  N   N9        1.0  0.57472  0.49484  0.24487  1.0000
  N   N10       1.0  0.49447  0.91982  0.26385  1.0000
  N   N11       1.0  0.07625  0.57173  0.23557  1.0000
  N   N12       1.0  0.42437  0.50456  0.24118  1.0000
  N   N13       1.0  0.62246  0.31288  0.75199  1.0000
  N   N14       1.0  0.68881  0.31083  0.75304  1.0000
  N   N15       1.0  0.69057  0.37880  0.74919  1.0000
  N   N16       1.0  0.38143  0.69046  0.75759  1.0000
  N   N17       1.0  0.31362  0.69150  0.74776  1.0000
  N   N18       1.0  0.31204  0.62379  0.74732  1.0000
  N   N19       1.0  0.50653  0.08092  0.77324  1.0000
  N   N20       1.0  0.92258  0.42666  0.75560  1.0000
  N   N21       1.0  0.57718  0.49758  0.74631  1.0000
  N   N22       1.0  0.49588  0.92219  0.75095  1.0000
  N   N23       1.0  0.07893  0.57683  0.73327  1.0000
  N   N24       1.0  0.42663  0.50728  0.74108  1.0000
  O   O1        1.0  0.56774  0.08049  0.26410  1.0000
  O   O2        1.0  0.91623  0.48420  0.24710  1.0000
  O   O3        1.0  0.50968  0.42976  0.23354  1.0000
  O   O4        1.0  0.42852  0.91702  0.26105  1.0000
  O   O5        1.0  0.08044  0.50939  0.24959  1.0000
  O   O6        1.0  0.48917  0.56971  0.25127  1.0000
  O   O7        1.0  0.56904  0.08284  0.75082  1.0000
  O   O8        1.0  0.91838  0.48899  0.74155  1.0000
  O   O9        1.0  0.51180  0.43247  0.73210  1.0000
  O   O10       1.0  0.43334  0.92005  0.77401  1.0000
  O   O11       1.0  0.08309  0.51446  0.74804  1.0000
  O   O12       1.0  0.49221  0.57247  0.75758  1.0000
  C  Sn1       1.0  0.63070  0.18291  0.32117  1.0000
  C   C61       1.0  0.58447  0.15565  0.31329  1.0000
  C  Sn2       1.0  0.55071  0.17084  0.25717  1.0000
  C  Sn3       1.0  0.56341  0.21418  0.20777  1.0000
  C   C62       1.0  0.60961  0.24141  0.21562  1.0000
  C  Sn4       1.0  0.64340  0.22625  0.27176  1.0000
  O  Te1       1.0  0.66387  0.16704  0.37766  1.0000
  O  Te2       1.0  0.50473  0.14299  0.25046  1.0000
  O  Te3       1.0  0.53020  0.23004  0.15125  1.0000
  O  Te4       1.0  0.68935  0.25408  0.27845  1.0000
  Mg  Mg1       1.0  0.47211  0.17966  0.16455  1.0000
  Mg  Mg2       1.0  0.72199  0.21744  0.36424  1.0000
  C  Sn5       1.0  0.78260  0.42572  0.19465  1.0000
  C   C63       1.0  0.75374  0.38096  0.19536  1.0000
  C  Sn6       1.0  0.77447  0.35348  0.24445  1.0000
  C  Sn7       1.0  0.82511  0.37109  0.29398  1.0000
  C   C64       1.0  0.85394  0.41583  0.29329  1.0000
  C  Sn8       1.0  0.83325  0.44334  0.24418  1.0000
  O  Te5       1.0  0.76111  0.45259  0.14512  1.0000
  O  Te6       1.0  0.74487  0.30883  0.24407  1.0000
  O  Te7       1.0  0.84659  0.34418  0.34353  1.0000
  O  Te8       1.0  0.86282  0.48796  0.24458  1.0000
  Mg  Mg3       1.0  0.79111  0.28555  0.32206  1.0000
  Mg  Mg4       1.0  0.81663  0.51127  0.16671  1.0000
  C  Sn9       1.0  0.56139  0.35815  0.19400  1.0000
  C   C65       1.0  0.60641  0.37406  0.19475  1.0000
  C  Sn10      1.0  0.64068  0.41876  0.23608  1.0000
  C  Sn11      1.0  0.62974  0.44817  0.27766  1.0000
  C   C66       1.0  0.58475  0.43225  0.27693  1.0000
  C  Sn12      1.0  0.55045  0.38756  0.23558  1.0000
  O  Te9       1.0  0.52768  0.31334  0.15229  1.0000
  O  Te10      1.0  0.68543  0.43389  0.23590  1.0000
  O  Te11      1.0  0.66349  0.49301  0.31938  1.0000
  O  Te12      1.0  0.50572  0.37243  0.23578  1.0000
  Mg  Mg5       1.0  0.71942  0.49780  0.30153  1.0000
  Mg  Mg6       1.0  0.47173  0.30853  0.17027  1.0000
  C  Sn13      1.0  0.38006  0.81641  0.31747  1.0000
  C   C67       1.0  0.42532  0.84429  0.31834  1.0000
  C  Sn14      1.0  0.44719  0.82752  0.26983  1.0000
  C  Sn15      1.0  0.42331  0.78195  0.21928  1.0000
  C   C68       1.0  0.37808  0.75410  0.21839  1.0000
  C  Sn16      1.0  0.35618  0.77083  0.26692  1.0000
  O  Te13      1.0  0.35888  0.83388  0.36646  1.0000
  O  Te14      1.0  0.49247  0.85604  0.27179  1.0000
  O  Te15      1.0  0.44454  0.76449  0.17028  1.0000
  O  Te16      1.0  0.31093  0.74234  0.26494  1.0000
  Mg  Mg7       1.0  0.50656  0.81658  0.19400  1.0000
  Mg  Mg8       1.0  0.29680  0.78177  0.34261  1.0000
  C  Sn17      1.0  0.19946  0.56670  0.17785  1.0000
  C   C69       1.0  0.22908  0.61175  0.18711  1.0000
  C  Sn18      1.0  0.22039  0.64085  0.24045  1.0000
  C  Sn19      1.0  0.18129  0.62459  0.28559  1.0000
  C   C70       1.0  0.15170  0.57957  0.27635  1.0000
  C  Sn20      1.0  0.16036  0.55044  0.22299  1.0000
  O  Te17      1.0  0.20882  0.53820  0.12420  1.0000
  O  Te18      1.0  0.25049  0.68575  0.24862  1.0000
  O  Te19      1.0  0.17195  0.65313  0.33926  1.0000
  O  Te20      1.0  0.13029  0.50556  0.21485  1.0000
  Mg  Mg9       1.0  0.22310  0.71148  0.32945  1.0000
  Mg  Mg10      1.0  0.15767  0.47981  0.13413  1.0000
  C  Sn21      1.0  0.36394  0.56772  0.31283  1.0000
  C   C71       1.0  0.38047  0.61245  0.30281  1.0000
  C  Sn22      1.0  0.41674  0.63787  0.24624  1.0000
  C  Sn23      1.0  0.43688  0.61818  0.19857  1.0000
  C   C72       1.0  0.42034  0.57348  0.20856  1.0000
  C  Sn24      1.0  0.38408  0.54803  0.26516  1.0000
  O  Te21      1.0  0.32765  0.54293  0.36973  1.0000
  O  Te22      1.0  0.43269  0.68253  0.23738  1.0000
  O  Te23      1.0  0.47319  0.64301  0.14163  1.0000
  O  Te24      1.0  0.36812  0.50340  0.27400  1.0000
  Mg  Mg11      1.0  0.48286  0.70254  0.15173  1.0000
  Mg  Mg12      1.0  0.31793  0.48335  0.35952  1.0000
  C  Sn25      1.0  0.54540  0.18454  0.70138  1.0000
  C   C73       1.0  0.56170  0.15588  0.70330  1.0000
  C  Sn26      1.0  0.61107  0.17188  0.74850  1.0000
  C  Sn27      1.0  0.64488  0.21747  0.79284  1.0000
  C   C74       1.0  0.62858  0.24610  0.79094  1.0000
  C  Sn28      1.0  0.57921  0.23013  0.74571  1.0000
  O  Te25      1.0  0.49588  0.16783  0.65578  1.0000
  O  Te26      1.0  0.62649  0.14259  0.74943  1.0000
  O  Te27      1.0  0.69443  0.23417  0.83845  1.0000
  O  Te28      1.0  0.56379  0.25940  0.74481  1.0000
  Mg  Mg13      1.0  0.69768  0.18119  0.82069  1.0000
  Mg  Mg14      1.0  0.49262  0.22083  0.67368  1.0000
  C  Sn29      1.0  0.80866  0.36744  0.68992  1.0000
  C   C75       1.0  0.83831  0.41246  0.69852  1.0000
  C  Sn30      1.0  0.82982  0.44170  0.75205  1.0000
  C  Sn31      1.0  0.79089  0.42561  0.79807  1.0000
  C   C76       1.0  0.76127  0.38062  0.78950  1.0000
  C  Sn32      1.0  0.76973  0.35135  0.73594  1.0000
  O  Te29      1.0  0.81782  0.33880  0.63605  1.0000
  O  Te30      1.0  0.85995  0.48657  0.75954  1.0000
  O  Te31      1.0  0.78175  0.45429  0.85196  1.0000
  O  Te32      1.0  0.73964  0.30651  0.72847  1.0000
  Mg  Mg15      1.0  0.83286  0.51253  0.84100  1.0000
  Mg  Mg16      1.0  0.76670  0.28052  0.64714  1.0000
  C  Sn33      1.0  0.56673  0.37870  0.81069  1.0000
  C   C77       1.0  0.58315  0.42327  0.79427  1.0000
  C  Sn34      1.0  0.61919  0.44768  0.73583  1.0000
  C  Sn35      1.0  0.63923  0.42711  0.69278  1.0000
  C   C78       1.0  0.62281  0.38257  0.70917  1.0000
  C  Sn36      1.0  0.58676  0.35813  0.76763  1.0000
  O  Te33      1.0  0.53065  0.35493  0.86935  1.0000
  O  Te34      1.0  0.63503  0.49220  0.72054  1.0000
  O  Te35      1.0  0.67533  0.45092  0.63408  1.0000
  O  Te36      1.0  0.57092  0.31364  0.78290  1.0000
  Mg  Mg17      1.0  0.68491  0.51067  0.63485  1.0000
  Mg  Mg18      1.0  0.52103  0.29513  0.86847  1.0000
  C  Sn37      1.0  0.44149  0.81615  0.69482  1.0000
  C   C79       1.0  0.42660  0.84451  0.70981  1.0000
  C  Sn38      1.0  0.39118  0.83029  0.77024  1.0000
  C  Sn39      1.0  0.37024  0.78682  0.81678  1.0000
  C   C80       1.0  0.38514  0.75849  0.80183  1.0000
  C  Sn40      1.0  0.42055  0.77268  0.74137  1.0000
  O  Te37      1.0  0.47695  0.83107  0.63412  1.0000
  O  Te38      1.0  0.37687  0.85924  0.78404  1.0000
  O  Te39      1.0  0.33476  0.77192  0.87752  1.0000
  O  Te40      1.0  0.43487  0.74376  0.72760  1.0000
  Mg  Mg19      1.0  0.32731  0.82361  0.87356  1.0000
  Mg  Mg20      1.0  0.48445  0.77937  0.63820  1.0000
  C  Sn41      1.0  0.19006  0.56044  0.79481  1.0000
  C   C81       1.0  0.16249  0.57846  0.79013  1.0000
  C  Sn42      1.0  0.17355  0.62101  0.74216  1.0000
  C  Sn43      1.0  0.21296  0.64606  0.69781  1.0000
  C   C82       1.0  0.24049  0.62804  0.70246  1.0000
  C  Sn44      1.0  0.22947  0.58549  0.75045  1.0000
  O  Te41      1.0  0.17835  0.51784  0.84314  1.0000
  O  Te42      1.0  0.14548  0.63832  0.73852  1.0000
  O  Te43      1.0  0.22465  0.68870  0.64946  1.0000
  O  Te44      1.0  0.25751  0.56818  0.75408  1.0000
  Mg  Mg21      1.0  0.17569  0.69783  0.66412  1.0000
  Mg  Mg22      1.0  0.22731  0.50866  0.82835  1.0000
  C  Sn45      1.0  0.45322  0.62999  0.80999  1.0000
  C   C83       1.0  0.43494  0.58488  0.80697  1.0000
  C  Sn46      1.0  0.38493  0.55646  0.75720  1.0000
  C  Sn47      1.0  0.35250  0.57348  0.70931  1.0000
  C   C84       1.0  0.37078  0.61856  0.71230  1.0000
  C  Sn48      1.0  0.42079  0.64700  0.76210  1.0000
  O  Te45      1.0  0.50335  0.65780  0.86017  1.0000
  O  Te46      1.0  0.36752  0.51149  0.75527  1.0000
  O  Te47      1.0  0.30234  0.54563  0.65911  1.0000
  O  Te48      1.0  0.43819  0.69195  0.76400  1.0000
  Mg  Mg23      1.0  0.29622  0.48687  0.67723  1.0000
  Mg  Mg24      1.0  0.50947  0.71659  0.84191  1.0000
