data_image0
_chemical_formula_structural       H36C96N24O12C2Sn2C2HTe2HMgC2Sn2C2HTe2HMgC2Sn2C2HTe2HMgC2Sn2C2HTe2HMgC2Sn2C2HTe2HMgC2Sn2C2HTe2HMg
_chemical_formula_sum              "H48 C120 N24 O12 Sn12 Te12 Mg6"
_cell_length_a       35.4574
_cell_length_b       35.6073
_cell_length_c       7.93774
_cell_angle_alpha    80.1321
_cell_angle_beta     120.404
_cell_angle_gamma    120.123

_symmetry_space_group_name_H-M    'P1'
_space_group_IT_number       1

loop_
  _space_group_symop_operation_xyz
  'x, y, z'

loop_
  _atom_site_type_symbol
  _atom_site_label
  _atom_site_symmetry_multiplicity
  _atom_site_fract_x
  _atom_site_fract_y
  _atom_site_fract_z
  _atom_site_occupancy
  H   H1        1.0  0.55374  0.23739  0.24745  1.0000
  H   H2        1.0  0.75743  0.31478  0.24389  1.0000
  H   H3        1.0  0.44428  0.76140  0.26663  1.0000
  H   H4        1.0  0.51102  0.15606  0.24864  1.0000
  H   H5        1.0  0.83990  0.35365  0.24916  1.0000
  H   H6        1.0  0.48629  0.84292  0.27290  1.0000
  H   H7        1.0  0.63282  0.15349  0.26425  1.0000
  H   H8        1.0  0.84498  0.47646  0.26050  1.0000
  H   H9        1.0  0.36318  0.84258  0.25895  1.0000
  H   H10       1.0  0.67473  0.23439  0.26136  1.0000
  H   H11       1.0  0.76295  0.43737  0.25562  1.0000
  H   H12       1.0  0.32166  0.76141  0.25201  1.0000
  H   H13       1.0  0.42352  0.99416  0.26183  1.0000
  H   H14       1.0  0.00428  0.42746  0.26041  1.0000
  H   H15       1.0  0.57132  0.57370  0.25254  1.0000
  H   H16       1.0  0.57251  0.00357  0.26143  1.0000
  H   H17       1.0  0.99235  0.56602  0.23646  1.0000
  H   H18       1.0  0.42786  0.42580  0.23350  1.0000
  H   H19       1.0  0.55864  0.24047  0.76278  1.0000
  H   H20       1.0  0.68165  0.44298  0.73534  1.0000
  H   H21       1.0  0.44431  0.76348  0.74463  1.0000
  H   H22       1.0  0.51632  0.15928  0.76689  1.0000
  H   H23       1.0  0.64193  0.48578  0.72412  1.0000
  H   H24       1.0  0.48623  0.84494  0.74815  1.0000
  H   H25       1.0  0.63355  0.15577  0.74657  1.0000
  H   H26       1.0  0.52238  0.36795  0.75595  1.0000
  H   H27       1.0  0.36939  0.84603  0.78216  1.0000
  H   H28       1.0  0.67555  0.23663  0.74421  1.0000
  H   H29       1.0  0.56209  0.32570  0.76562  1.0000
  H   H30       1.0  0.32794  0.76495  0.77763  1.0000
  H   H31       1.0  0.43026  0.99734  0.79000  1.0000
  H   H32       1.0  0.00697  0.43258  0.75802  1.0000
  H   H33       1.0  0.57449  0.57653  0.76014  1.0000
  H   H34       1.0  0.57204  0.00553  0.73495  1.0000
  H   H35       1.0  0.99437  0.57089  0.73023  1.0000
  H   H36       1.0  0.42947  0.42836  0.72832  1.0000
  C   C1        1.0  0.64218  0.28864  0.25346  1.0000
  C   C2        1.0  0.70739  0.35134  0.25023  1.0000
  C   C3        1.0  0.64431  0.35382  0.24921  1.0000
  C   C4        1.0  0.35516  0.70833  0.25288  1.0000
  C   C5        1.0  0.28938  0.64452  0.24557  1.0000
  C   C6        1.0  0.35391  0.64372  0.25117  1.0000
  C   C7        1.0  0.61700  0.24082  0.25549  1.0000
  C   C8        1.0  0.75533  0.37384  0.24974  1.0000
  C   C9        1.0  0.38017  0.75637  0.25737  1.0000
  C   C10       1.0  0.57051  0.21861  0.25048  1.0000
  C   C11       1.0  0.77711  0.35010  0.24810  1.0000
  C   C12       1.0  0.42702  0.77955  0.26547  1.0000
  C   C13       1.0  0.54681  0.17356  0.25131  1.0000
  C   C14       1.0  0.82268  0.37151  0.25127  1.0000
  C   C15       1.0  0.45037  0.82470  0.26906  1.0000
  C   C16       1.0  0.56929  0.14972  0.25751  1.0000
  C   C17       1.0  0.84743  0.41731  0.25493  1.0000
  C   C18       1.0  0.42729  0.84781  0.26483  1.0000
  C   C19       1.0  0.61568  0.17185  0.26164  1.0000
  C   C20       1.0  0.82574  0.44113  0.25655  1.0000
  C   C21       1.0  0.38070  0.82478  0.25909  1.0000
  C   C22       1.0  0.63917  0.21691  0.26040  1.0000
  C   C23       1.0  0.78012  0.41951  0.25337  1.0000
  C   C24       1.0  0.35749  0.77957  0.25531  1.0000
  C   C25       1.0  0.55587  0.45230  0.23846  1.0000
  C   C26       1.0  0.54440  0.10285  0.26085  1.0000
  C   C27       1.0  0.89449  0.43902  0.25445  1.0000
  C   C28       1.0  0.44309  0.54708  0.24740  1.0000
  C   C29       1.0  0.45197  0.89479  0.26387  1.0000
  C   C30       1.0  0.10177  0.55448  0.23957  1.0000
  C   C31       1.0  0.49461  0.03581  0.26246  1.0000
  C   C32       1.0  0.96179  0.45635  0.25425  1.0000
  C   C33       1.0  0.54014  0.50277  0.24421  1.0000
  C   C34       1.0  0.50165  0.96188  0.26287  1.0000
  C   C35       1.0  0.03480  0.53713  0.24272  1.0000
  C   C36       1.0  0.45894  0.49674  0.24123  1.0000
  C   C37       1.0  0.53564  0.03736  0.26441  1.0000
  C   C38       1.0  0.95954  0.49539  0.24701  1.0000
  C   C39       1.0  0.49963  0.46222  0.23809  1.0000
  C   C40       1.0  0.46059  0.96027  0.26098  1.0000
  C   C41       1.0  0.03720  0.49812  0.25082  1.0000
  C   C42       1.0  0.49936  0.53730  0.24690  1.0000
  C   C43       1.0  0.45495  0.99607  0.26102  1.0000
  C   C44       1.0  0.00189  0.45684  0.25657  1.0000
  C   C45       1.0  0.54093  0.54238  0.24877  1.0000
  C   C46       1.0  0.54124  0.00159  0.26387  1.0000
  C   C47       1.0  0.99480  0.53666  0.24084  1.0000
  C   C48       1.0  0.45814  0.45713  0.23666  1.0000
  C   C49       1.0  0.64496  0.29149  0.75306  1.0000
  C   C50       1.0  0.71008  0.35455  0.75047  1.0000
  C   C51       1.0  0.64691  0.35655  0.75107  1.0000
  C   C52       1.0  0.35829  0.71135  0.75481  1.0000
  C   C53       1.0  0.29215  0.64773  0.74599  1.0000
  C   C54       1.0  0.35648  0.64660  0.75145  1.0000
  C   C55       1.0  0.62416  0.38171  0.75034  1.0000
  C   C56       1.0  0.61988  0.24360  0.75449  1.0000
  C   C57       1.0  0.38339  0.75930  0.75934  1.0000
  C   C58       1.0  0.57457  0.22153  0.75903  1.0000
  C   C59       1.0  0.64690  0.42709  0.74019  1.0000
  C   C60       1.0  0.42848  0.78199  0.75339  1.0000
  C   C61       1.0  0.55101  0.17651  0.76097  1.0000
  C   C62       1.0  0.62498  0.45080  0.73420  1.0000
  C   C63       1.0  0.45175  0.82709  0.75548  1.0000
  C   C64       1.0  0.57226  0.15241  0.75739  1.0000
  C   C65       1.0  0.57966  0.42956  0.73849  1.0000
  C   C66       1.0  0.43037  0.85054  0.76440  1.0000
  C   C67       1.0  0.61740  0.17436  0.75151  1.0000
  C   C68       1.0  0.55692  0.38420  0.74937  1.0000
  C   C69       1.0  0.38553  0.82795  0.77241  1.0000
  C   C70       1.0  0.64089  0.21943  0.75024  1.0000
  C   C71       1.0  0.57907  0.36066  0.75546  1.0000
  C   C72       1.0  0.36235  0.78278  0.76982  1.0000
  C   C73       1.0  0.55813  0.45502  0.73809  1.0000
  C   C74       1.0  0.54745  0.10554  0.76112  1.0000
  C   C75       1.0  0.89696  0.44388  0.75082  1.0000
  C   C76       1.0  0.44579  0.54986  0.75062  1.0000
  C   C77       1.0  0.45496  0.89746  0.76294  1.0000
  C   C78       1.0  0.10454  0.55955  0.73848  1.0000
  C   C79       1.0  0.49862  0.03865  0.76970  1.0000
  C   C80       1.0  0.96420  0.46133  0.74991  1.0000
  C   C81       1.0  0.54263  0.50551  0.74606  1.0000
  C   C82       1.0  0.50373  0.96438  0.75505  1.0000
  C   C83       1.0  0.03726  0.54219  0.73878  1.0000
  C   C84       1.0  0.46120  0.49940  0.74154  1.0000
  C   C85       1.0  0.53764  0.03982  0.75624  1.0000
  C   C86       1.0  0.96175  0.50030  0.74144  1.0000
  C   C87       1.0  0.50185  0.46493  0.73770  1.0000
  C   C88       1.0  0.46472  0.96315  0.76876  1.0000
  C   C89       1.0  0.03971  0.50322  0.74747  1.0000
  C   C90       1.0  0.50206  0.54001  0.75055  1.0000
  C   C91       1.0  0.46012  0.99911  0.77690  1.0000
  C   C92       1.0  0.00440  0.46189  0.75299  1.0000
  C   C93       1.0  0.54371  0.54515  0.75307  1.0000
  C   C94       1.0  0.54224  0.00388  0.74808  1.0000
  C   C95       1.0  0.99697  0.54160  0.73523  1.0000
  C   C96       1.0  0.46016  0.45977  0.73487  1.0000
  N   N1        1.0  0.61966  0.31018  0.25035  1.0000
  N   N2        1.0  0.68613  0.30770  0.25472  1.0000
  N   N3        1.0  0.68796  0.37583  0.24730  1.0000
  N   N4        1.0  0.37852  0.68758  0.25609  1.0000
  N   N5        1.0  0.31047  0.68828  0.24597  1.0000
  N   N6        1.0  0.30960  0.62079  0.24803  1.0000
  N   N7        1.0  0.50189  0.07795  0.26108  1.0000
  N   N8        1.0  0.91998  0.42171  0.25882  1.0000
  N   N9        1.0  0.57472  0.49484  0.24487  1.0000
  N   N10       1.0  0.49447  0.91982  0.26385  1.0000
  N   N11       1.0  0.07625  0.57173  0.23557  1.0000
  N   N12       1.0  0.42437  0.50456  0.24118  1.0000
  N   N13       1.0  0.62246  0.31288  0.75199  1.0000
  N   N14       1.0  0.68881  0.31083  0.75304  1.0000
  N   N15       1.0  0.69057  0.37880  0.74919  1.0000
  N   N16       1.0  0.38143  0.69046  0.75759  1.0000
  N   N17       1.0  0.31362  0.69150  0.74776  1.0000
  N   N18       1.0  0.31204  0.62379  0.74732  1.0000
  N   N19       1.0  0.50653  0.08092  0.77324  1.0000
  N   N20       1.0  0.92258  0.42666  0.75560  1.0000
  N   N21       1.0  0.57718  0.49758  0.74631  1.0000
  N   N22       1.0  0.49588  0.92219  0.75095  1.0000
  N   N23       1.0  0.07893  0.57683  0.73327  1.0000
  N   N24       1.0  0.42663  0.50728  0.74108  1.0000
  O   O1        1.0  0.56774  0.08049  0.26410  1.0000
  O   O2        1.0  0.91623  0.48420  0.24710  1.0000
  O   O3        1.0  0.50968  0.42976  0.23354  1.0000
  O   O4        1.0  0.42852  0.91702  0.26105  1.0000
  O   O5        1.0  0.08044  0.50939  0.24959  1.0000
  O   O6        1.0  0.48917  0.56971  0.25127  1.0000
  O   O7        1.0  0.56904  0.08284  0.75082  1.0000
  O   O8        1.0  0.91838  0.48899  0.74155  1.0000
  O   O9        1.0  0.51180  0.43247  0.73210  1.0000
  O   O10       1.0  0.43334  0.92005  0.77401  1.0000
  O   O11       1.0  0.08309  0.51446  0.74804  1.0000
  O   O12       1.0  0.49221  0.57247  0.75758  1.0000
  C   C97       1.0  0.35305  0.56267  0.24847  1.0000
  C   C98       1.0  0.37142  0.60779  0.25896  1.0000
  C  Sn1       1.0  0.41604  0.63593  0.25543  1.0000
  C  Sn2       1.0  0.44267  0.61848  0.24106  1.0000
  C   C99       1.0  0.42396  0.57329  0.23050  1.0000
  C   C100      1.0  0.37928  0.54543  0.23422  1.0000
  H   H37       1.0  0.31847  0.54110  0.25123  1.0000
  O  Te1       1.0  0.43387  0.68092  0.26612  1.0000
  O  Te2       1.0  0.48735  0.64586  0.23716  1.0000
  H   H38       1.0  0.36505  0.51049  0.22596  1.0000
  Mg  Mg1       1.0  0.49646  0.70489  0.25559  1.0000
  C   C101      1.0  0.18390  0.63301  0.24564  1.0000
  C   C102      1.0  0.15242  0.58800  0.22616  1.0000
  C  Sn3       1.0  0.16745  0.55877  0.22240  1.0000
  C  Sn4       1.0  0.21490  0.57499  0.23853  1.0000
  C   C103      1.0  0.24614  0.62008  0.25810  1.0000
  C   C104      1.0  0.23072  0.64904  0.26163  1.0000
  H   H39       1.0  0.17199  0.65542  0.24849  1.0000
  O  Te3       1.0  0.13552  0.51390  0.20278  1.0000
  O  Te4       1.0  0.23087  0.54650  0.23526  1.0000
  H   H40       1.0  0.25512  0.68388  0.27684  1.0000
  Mg  Mg2       1.0  0.17404  0.48814  0.20584  1.0000
  C   C105      1.0  0.21069  0.64894  0.73631  1.0000
  C   C106      1.0  0.24017  0.63199  0.75153  1.0000
  C  Sn5       1.0  0.22271  0.58701  0.74978  1.0000
  C  Sn6       1.0  0.17482  0.55856  0.73241  1.0000
  C   C107      1.0  0.14559  0.57584  0.71713  1.0000
  C   C108      1.0  0.16344  0.62090  0.71910  1.0000
  H   H41       1.0  0.22448  0.68380  0.73772  1.0000
  O  Te5       1.0  0.25266  0.57062  0.76520  1.0000
  O  Te6       1.0  0.15644  0.51348  0.73020  1.0000
  H   H42       1.0  0.14058  0.63402  0.70718  1.0000
  Mg  Mg3       1.0  0.21119  0.50680  0.75533  1.0000
  C   C109      1.0  0.81588  0.36565  0.75448  1.0000
  C   C110      1.0  0.84361  0.40999  0.74262  1.0000
  C  Sn7       1.0  0.82829  0.43926  0.74300  1.0000
  C  Sn8       1.0  0.78439  0.42376  0.75555  1.0000
  C   C111      1.0  0.75693  0.37934  0.76751  1.0000
  C   C112      1.0  0.77259  0.35033  0.76695  1.0000
  H   H43       1.0  0.82800  0.34321  0.75416  1.0000
  O  Te7       1.0  0.85642  0.48345  0.73098  1.0000
  O  Te8       1.0  0.76825  0.45230  0.75630  1.0000
  H   H44       1.0  0.75113  0.31601  0.77626  1.0000
  Mg  Mg4       1.0  0.81920  0.50958  0.73712  1.0000
  C   C113      1.0  0.35521  0.56546  0.74675  1.0000
  C   C114      1.0  0.37383  0.61060  0.75911  1.0000
  C  Sn9       1.0  0.41889  0.63879  0.75900  1.0000
  C  Sn10      1.0  0.44573  0.62135  0.74621  1.0000
  C   C115      1.0  0.42677  0.57614  0.73375  1.0000
  C   C116      1.0  0.38165  0.54823  0.73404  1.0000
  H   H45       1.0  0.32028  0.54386  0.74686  1.0000
  O  Te9       1.0  0.43697  0.68381  0.77152  1.0000
  O  Te10      1.0  0.49085  0.64878  0.74573  1.0000
  H   H46       1.0  0.36722  0.51328  0.72434  1.0000
  Mg  Mg5       1.0  0.50016  0.70784  0.76558  1.0000
  C   C117      1.0  0.56685  0.35814  0.25930  1.0000
  C   C118      1.0  0.60893  0.37247  0.23982  1.0000
  C  Sn11      1.0  0.63729  0.41663  0.22766  1.0000
  C  Sn12      1.0  0.62318  0.44693  0.23522  1.0000
  C   C119      1.0  0.58103  0.43228  0.25487  1.0000
  C   C120      1.0  0.55291  0.38801  0.26685  1.0000
  H   H47       1.0  0.54511  0.32390  0.26868  1.0000
  O  Te11      1.0  0.67922  0.43038  0.20816  1.0000
  O  Te12      1.0  0.65086  0.49125  0.22346  1.0000
  H   H48       1.0  0.52035  0.37694  0.28206  1.0000
  Mg  Mg6       1.0  0.70495  0.49412  0.19784  1.0000
