data_image0
_chemical_formula_structural       H60C96N24O12C2Sn2C2HTe2HMgC2Sn2C2HTe2HMgC2Sn2C2HTe2HMgC2Sn2C2HTe2HMgC2Sn2C2HTe2HMgC2Sn2C2HTe2HMg
_chemical_formula_sum              "H72 C120 N24 O12 Sn12 Te12 Mg6"
_cell_length_a       37.5354
_cell_length_b       37.4662
_cell_length_c       7.85615
_cell_angle_alpha    69.7309
_cell_angle_beta     109.689
_cell_angle_gamma    120.729

_symmetry_space_group_name_H-M    'P1'
_space_group_IT_number       1

loop_
  _space_group_symop_operation_xyz
  'x, y, z'

loop_
  _atom_site_type_symbol
  _atom_site_label
  _atom_site_symmetry_multiplicity
  _atom_site_fract_x
  _atom_site_fract_y
  _atom_site_fract_z
  _atom_site_occupancy
  H   H1        1.0  0.30370  0.13425  0.24001  1.0000
  H   H2        1.0  0.87041  0.16868  0.27290  1.0000
  H   H3        1.0  0.82815  0.70767  0.14426  1.0000
  H   H4        1.0  0.38041  0.17575  0.32711  1.0000
  H   H5        1.0  0.82719  0.20453  0.21216  1.0000
  H   H6        1.0  0.79975  0.63122  0.17830  1.0000
  H   H7        1.0  0.50064  0.33338  0.12684  1.0000
  H   H8        1.0  0.67164  0.18393  0.12057  1.0000
  H   H9        1.0  0.52387  0.22687  0.47655  1.0000
  H   H10       1.0  0.77976  0.28122  0.38381  1.0000
  H   H11       1.0  0.44805  0.18491  0.49336  1.0000
  H   H12       1.0  0.82498  0.25048  0.38696  1.0000
  H   H13       1.0  0.03163  0.07886  0.28551  1.0000
  H   H14       1.0  0.92760  0.95316  0.29108  1.0000
  H   H15       1.0  0.05151  0.97573  0.28101  1.0000
  H   H16       1.0  0.10260  0.09199  0.28305  1.0000
  H   H17       1.0  0.91521  0.00789  0.30443  1.0000
  H   H18       1.0  0.99559  0.90462  0.30279  1.0000
  H   H19       1.0  0.62982  0.37115  0.25627  1.0000
  H   H20       1.0  0.62866  0.25656  0.24722  1.0000
  H   H21       1.0  0.74458  0.37336  0.24067  1.0000
  H   H22       1.0  0.56327  0.25496  0.25475  1.0000
  H   H23       1.0  0.74396  0.31400  0.20401  1.0000
  H   H24       1.0  0.69010  0.43709  0.21453  1.0000
  H   H25       1.0  0.42425  0.29061  0.13591  1.0000
  H   H26       1.0  0.71697  0.15241  0.12797  1.0000
  H   H27       1.0  0.29738  0.13655  0.71742  1.0000
  H   H28       1.0  0.86779  0.16599  0.79677  1.0000
  H   H29       1.0  0.82802  0.70531  0.63283  1.0000
  H   H30       1.0  0.37474  0.17219  0.83892  1.0000
  H   H31       1.0  0.82171  0.20249  0.69428  1.0000
  H   H32       1.0  0.79579  0.62682  0.69132  1.0000
  H   H33       1.0  0.97004  0.84653  0.71208  1.0000
  H   H34       1.0  0.85441  0.82889  0.80045  1.0000
  H   H35       1.0  0.82093  0.75308  0.77849  1.0000
  H   H36       1.0  0.49807  0.32944  0.64266  1.0000
  H   H37       1.0  0.66771  0.18191  0.61409  1.0000
  H   H38       1.0  0.82105  0.49707  0.69915  1.0000
  H   H39       1.0  0.51805  0.22077  0.98046  1.0000
  H   H40       1.0  0.77511  0.27926  0.87782  1.0000
  H   H41       1.0  0.71399  0.48338  0.85172  1.0000
  H   H42       1.0  0.44212  0.17978  0.99414  1.0000
  H   H43       1.0  0.82097  0.24928  0.88129  1.0000
  H   H44       1.0  0.74709  0.56033  0.82930  1.0000
  H   H45       1.0  0.02491  0.07492  0.79103  1.0000
  H   H46       1.0  0.92255  0.94839  0.79179  1.0000
  H   H47       1.0  0.04763  0.97426  0.78160  1.0000
  H   H48       1.0  0.09665  0.09013  0.78925  1.0000
  H   H49       1.0  0.90948  0.00293  0.81636  1.0000
  H   H50       1.0  0.99332  0.90370  0.79660  1.0000
  H   H51       1.0  0.62442  0.36651  0.76529  1.0000
  H   H52       1.0  0.62420  0.25355  0.73818  1.0000
  H   H53       1.0  0.73855  0.37175  0.72187  1.0000
  H   H54       1.0  0.55926  0.24998  0.76274  1.0000
  H   H55       1.0  0.73898  0.31217  0.68917  1.0000
  H   H56       1.0  0.68509  0.43244  0.74027  1.0000
  H   H57       1.0  0.93726  0.77152  0.69089  1.0000
  H   H58       1.0  0.42115  0.28785  0.64628  1.0000
  H   H59       1.0  0.71347  0.15020  0.62640  1.0000
  H   H60       1.0  0.85548  0.57481  0.68209  1.0000
  C   C1        1.0  0.31282  0.18819  0.29333  1.0000
  C   C2        1.0  0.81204  0.12092  0.28457  1.0000
  C   C3        1.0  0.87586  0.69108  0.30012  1.0000
  C   C4        1.0  0.35621  0.21540  0.30262  1.0000
  C   C5        1.0  0.78977  0.14126  0.28830  1.0000
  C   C6        1.0  0.86097  0.64826  0.30226  1.0000
  C   C7        1.0  0.35233  0.25098  0.32939  1.0000
  C   C8        1.0  0.75385  0.10024  0.35195  1.0000
  C   C9        1.0  0.90019  0.64639  0.43337  1.0000
  C   C10       1.0  0.30470  0.22033  0.32562  1.0000
  C   C11       1.0  0.77720  0.07756  0.33650  1.0000
  C   C12       1.0  0.91536  0.69310  0.43686  1.0000
  C   C13       1.0  0.43119  0.23448  0.30989  1.0000
  C   C14       1.0  0.77364  0.19950  0.25876  1.0000
  C   C15       1.0  0.44610  0.27688  0.21187  1.0000
  C   C16       1.0  0.73031  0.18041  0.18439  1.0000
  C   C17       1.0  0.48895  0.30074  0.20638  1.0000
  C   C18       1.0  0.70521  0.19824  0.18003  1.0000
  C   C19       1.0  0.51732  0.28262  0.29273  1.0000
  C   C20       1.0  0.72263  0.23553  0.24522  1.0000
  C   C21       1.0  0.50208  0.24061  0.39839  1.0000
  C   C22       1.0  0.76628  0.25415  0.32084  1.0000
  C   C23       1.0  0.45957  0.21698  0.40782  1.0000
  C   C24       1.0  0.79140  0.23633  0.32630  1.0000
  C   C25       1.0  0.04648  0.03036  0.28121  1.0000
  C   C26       1.0  0.97666  0.01784  0.29077  1.0000
  C   C27       1.0  0.98743  0.95934  0.28565  1.0000
  C   C28       1.0  0.01974  0.04557  0.28535  1.0000
  C   C29       1.0  0.96075  0.97515  0.28809  1.0000
  C   C30       1.0  0.03009  0.98700  0.28301  1.0000
  C   C31       1.0  0.09125  0.05879  0.27800  1.0000
  C   C32       1.0  0.94802  0.03233  0.29996  1.0000
  C   C33       1.0  0.97148  0.91462  0.28660  1.0000
  C   C34       1.0  0.64692  0.35523  0.25263  1.0000
  C   C35       1.0  0.64537  0.29032  0.24769  1.0000
  C   C36       1.0  0.71099  0.35575  0.24447  1.0000
  C   C37       1.0  0.62434  0.31151  0.25407  1.0000
  C   C38       1.0  0.68868  0.31251  0.24033  1.0000
  C   C39       1.0  0.69006  0.37742  0.24927  1.0000
  C   C40       1.0  0.57945  0.28871  0.26153  1.0000
  C   C41       1.0  0.71162  0.29206  0.22787  1.0000
  C   C42       1.0  0.71150  0.42275  0.24622  1.0000
  C   C43       1.0  0.30867  0.18775  0.79813  1.0000
  C   C44       1.0  0.80860  0.11931  0.78725  1.0000
  C   C45       1.0  0.87448  0.68755  0.79403  1.0000
  C   C46       1.0  0.35231  0.21369  0.80766  1.0000
  C   C47       1.0  0.78616  0.13974  0.78797  1.0000
  C   C48       1.0  0.85825  0.64459  0.79536  1.0000
  C   C49       1.0  0.35035  0.24995  0.83713  1.0000
  C   C50       1.0  0.75070  0.09890  0.85619  1.0000
  C   C51       1.0  0.89735  0.64173  0.92129  1.0000
  C   C52       1.0  0.30272  0.22043  0.83822  1.0000
  C   C53       1.0  0.77375  0.07609  0.83909  1.0000
  C   C54       1.0  0.91431  0.68883  0.92717  1.0000
  C   C55       1.0  0.87717  0.75773  0.73500  1.0000
  C   C56       1.0  0.91953  0.78401  0.71831  1.0000
  C   C57       1.0  0.93761  0.82623  0.73096  1.0000
  C   C58       1.0  0.91438  0.84309  0.75905  1.0000
  C   C59       1.0  0.87197  0.81597  0.77547  1.0000
  C   C60       1.0  0.85365  0.77374  0.76363  1.0000
  C   C61       1.0  0.42645  0.23051  0.81497  1.0000
  C   C62       1.0  0.76980  0.19780  0.75472  1.0000
  C   C63       1.0  0.80256  0.57272  0.74692  1.0000
  C   C64       1.0  0.44225  0.27320  0.72033  1.0000
  C   C65       1.0  0.72649  0.17836  0.68107  1.0000
  C   C66       1.0  0.82433  0.55494  0.71731  1.0000
  C   C67       1.0  0.48522  0.29644  0.71757  1.0000
  C   C68       1.0  0.70122  0.19616  0.67421  1.0000
  C   C69       1.0  0.80521  0.51126  0.72821  1.0000
  C   C70       1.0  0.51284  0.27750  0.80239  1.0000
  C   C71       1.0  0.71848  0.23362  0.73764  1.0000
  C   C72       1.0  0.76441  0.48485  0.76787  1.0000
  C   C73       1.0  0.49683  0.23525  0.90453  1.0000
  C   C74       1.0  0.76202  0.25237  0.81433  1.0000
  C   C75       1.0  0.74406  0.50317  0.80676  1.0000
  C   C76       1.0  0.45417  0.21217  0.91195  1.0000
  C   C77       1.0  0.78740  0.23472  0.82108  1.0000
  C   C78       1.0  0.76269  0.54659  0.79515  1.0000
  C   C79       1.0  0.04116  0.02789  0.78327  1.0000
  C   C80       1.0  0.97061  0.01362  0.79316  1.0000
  C   C81       1.0  0.98308  0.95639  0.78629  1.0000
  C   C82       1.0  0.01361  0.04193  0.78871  1.0000
  C   C83       1.0  0.95556  0.97110  0.78991  1.0000
  C   C84       1.0  0.02564  0.98476  0.78410  1.0000
  C   C85       1.0  0.08579  0.05734  0.77968  1.0000
  C   C86       1.0  0.94165  0.02788  0.80146  1.0000
  C   C87       1.0  0.96830  0.91208  0.78423  1.0000
  C   C88       1.0  0.64156  0.35128  0.75500  1.0000
  C   C89       1.0  0.64051  0.28725  0.74002  1.0000
  C   C90       1.0  0.70529  0.35339  0.73141  1.0000
  C   C91       1.0  0.61943  0.30761  0.75371  1.0000
  C   C92       1.0  0.68353  0.31018  0.72752  1.0000
  C   C93       1.0  0.68442  0.37417  0.74574  1.0000
  C   C94       1.0  0.57494  0.28382  0.76781  1.0000
  C   C95       1.0  0.70679  0.29010  0.71459  1.0000
  C   C96       1.0  0.70608  0.41913  0.75011  1.0000
  N   N1        1.0  0.29005  0.14694  0.27904  1.0000
  N   N2        1.0  0.85228  0.13793  0.26051  1.0000
  N   N3        1.0  0.85782  0.71793  0.22278  1.0000
  N   N4        1.0  0.38767  0.20683  0.30875  1.0000
  N   N5        1.0  0.80077  0.18292  0.26473  1.0000
  N   N6        1.0  0.82237  0.62078  0.22604  1.0000
  N   N7        1.0  0.11600  0.04480  0.27418  1.0000
  N   N8        1.0  0.96046  0.07114  0.30488  1.0000
  N   N9        1.0  0.93159  0.88898  0.26895  1.0000
  N   N10       1.0  0.55954  0.30718  0.27354  1.0000
  N   N11       1.0  0.69585  0.25163  0.24234  1.0000
  N   N12       1.0  0.75211  0.44474  0.27676  1.0000
  N   N13       1.0  0.28495  0.14724  0.77474  1.0000
  N   N14       1.0  0.84935  0.13648  0.76948  1.0000
  N   N15       1.0  0.85694  0.71478  0.71805  1.0000
  N   N16       1.0  0.38271  0.20374  0.81200  1.0000
  N   N17       1.0  0.79699  0.18145  0.75910  1.0000
  N   N18       1.0  0.81869  0.61718  0.72532  1.0000
  N   N19       1.0  0.11100  0.04457  0.77043  1.0000
  N   N20       1.0  0.95368  0.06729  0.79455  1.0000
  N   N21       1.0  0.92878  0.88523  0.76806  1.0000
  N   N22       1.0  0.55500  0.30191  0.78268  1.0000
  N   N23       1.0  0.69147  0.24960  0.73273  1.0000
  N   N24       1.0  0.74648  0.44171  0.76383  1.0000
  O   O1        1.0  0.27498  0.22034  0.35744  1.0000
  O   O2        1.0  0.77199  0.04133  0.36614  1.0000
  O   O3        1.0  0.94361  0.71870  0.52836  1.0000
  O   O4        1.0  0.37649  0.28673  0.35561  1.0000
  O   O5        1.0  0.72317  0.09028  0.41117  1.0000
  O   O6        1.0  0.91249  0.61926  0.51351  1.0000
  O   O7        1.0  0.27425  0.22165  0.87465  1.0000
  O   O8        1.0  0.76803  0.03988  0.86442  1.0000
  O   O9        1.0  0.94354  0.71406  0.01763  1.0000
  O   O10       1.0  0.37547  0.28597  0.85790  1.0000
  O   O11       1.0  0.72062  0.08915  0.91927  1.0000
  O   O12       1.0  0.90843  0.61361  0.99705  1.0000
  C   C97       1.0  0.82066  0.52479  0.24221  1.0000
  C   C98       1.0  0.78101  0.49369  0.28095  1.0000
  C  Sn1       1.0  0.75285  0.50527  0.30041  1.0000
  C  Sn2       1.0  0.76469  0.54882  0.28059  1.0000
  C   C99       1.0  0.80442  0.57969  0.24171  1.0000
  C   C100      1.0  0.83236  0.56775  0.22257  1.0000
  H   H61       1.0  0.84227  0.51556  0.22730  1.0000
  O  Te1       1.0  0.71336  0.47379  0.33918  1.0000
  O  Te2       1.0  0.73716  0.56127  0.29928  1.0000
  H   H62       1.0  0.86305  0.59184  0.19246  1.0000
  Mg  Mg1       1.0  0.68683  0.50662  0.35223  1.0000
  C   C101      1.0  0.94189  0.12818  0.85830  1.0000
  C   C102      1.0  0.93026  0.08994  0.81549  1.0000
  C  Sn3       1.0  0.88801  0.06465  0.74568  1.0000
  C  Sn4       1.0  0.85690  0.07799  0.71832  1.0000
  C   C103      1.0  0.86885  0.11632  0.76146  1.0000
  C   C104      1.0  0.91122  0.14137  0.83130  1.0000
  H   H63       1.0  0.97467  0.14758  0.91224  1.0000
  O  Te3       1.0  0.87694  0.02652  0.70369  1.0000
  O  Te4       1.0  0.81444  0.05334  0.64868  1.0000
  H   H64       1.0  0.92022  0.17100  0.86432  1.0000
  Mg  Mg2       1.0  0.81500  0.00393  0.61222  1.0000
  C   C105      1.0  0.19798  0.05467  0.36775  1.0000
  C   C106      1.0  0.16528  0.06674  0.29491  1.0000
  C  Sn5       1.0  0.17358  0.10845  0.19895  1.0000
  C  Sn6       1.0  0.21543  0.13857  0.17566  1.0000
  C   C107      1.0  0.24792  0.12617  0.24894  1.0000
  C   C108      1.0  0.23926  0.08436  0.34477  1.0000
  H   H65       1.0  0.19129  0.02231  0.44181  1.0000
  O  Te5       1.0  0.14054  0.11997  0.12713  1.0000
  O  Te6       1.0  0.22460  0.18046  0.08029  1.0000
  H   H66       1.0  0.26459  0.07502  0.40105  1.0000
  Mg  Mg3       1.0  0.16889  0.18085  0.00788  1.0000
  C   C109      1.0  0.86184  0.07248  0.20298  1.0000
  C   C110      1.0  0.87062  0.10574  0.27699  1.0000
  C  Sn7       1.0  0.91203  0.13064  0.35774  1.0000
  C  Sn8       1.0  0.94519  0.12200  0.36427  1.0000
  C   C111      1.0  0.93607  0.08867  0.28973  1.0000
  C   C112      1.0  0.89453  0.06395  0.20931  1.0000
  H   H67       1.0  0.82970  0.05336  0.14066  1.0000
  O  Te7       1.0  0.92025  0.16374  0.43108  1.0000
  O  Te8       1.0  0.98685  0.14640  0.44411  1.0000
  H   H68       1.0  0.88774  0.03821  0.15191  1.0000
  Mg  Mg4       1.0  0.98216  0.18803  0.52547  1.0000
  C   C113      1.0  0.86371  0.80966  0.27495  1.0000
  C   C114      1.0  0.90569  0.84006  0.27192  1.0000
  C  Sn9       1.0  0.93389  0.83044  0.23944  1.0000
  C  Sn10      1.0  0.91972  0.78960  0.20941  1.0000
  C   C115      1.0  0.87765  0.75942  0.21258  1.0000
  C   C116      1.0  0.84970  0.76938  0.24528  1.0000
  H   H69       1.0  0.84207  0.81737  0.30014  1.0000
  O  Te9       1.0  0.97573  0.86118  0.23695  1.0000
  O  Te10      1.0  0.94724  0.77915  0.17656  1.0000
  H   H70       1.0  0.81719  0.74584  0.24749  1.0000
  Mg  Mg5       1.0  0.00126  0.83179  0.18653  1.0000
  C   C117      1.0  0.17836  0.12651  0.66807  1.0000
  C   C118      1.0  0.15632  0.08285  0.73559  1.0000
  C  Sn11      1.0  0.17821  0.05848  0.83244  1.0000
  C  Sn12      1.0  0.22301  0.07828  0.86208  1.0000
  C   C119      1.0  0.24477  0.12198  0.79409  1.0000
  C   C120      1.0  0.22255  0.14606  0.69731  1.0000
  H   H71       1.0  0.16117  0.14515  0.59328  1.0000
  O  Te11      1.0  0.15569  0.01490  0.89889  1.0000
  O  Te12      1.0  0.24568  0.05468  0.95848  1.0000
  H   H72       1.0  0.23963  0.17987  0.64516  1.0000
  Mg  Mg6       1.0  0.15548  0.04572  0.02202  1.0000
