data_image0
_chemical_formula_structural       H36C60N24O12SnCSn2CSnTe4Mg2SnCSn2CSnTe4Mg2SnCSn2CSnTe4Mg2SnCSn2CSnTe4Mg2SnCSn2CSnTe4Mg2SnCSn2CSnTe4Mg2SnCSn2CSnTe4Mg2SnCSn2CSnTe4Mg2SnCSn2CSnTe4Mg2SnCSn2CSnTe4Mg2SnCSn2CSnTe4Mg2SnCSn2CSnTe4Mg2
_chemical_formula_sum              "H36 C84 N24 O12 Sn48 Te48 Mg24"
_cell_length_a       37.5354
_cell_length_b       37.4662
_cell_length_c       7.85615
_cell_angle_alpha    69.7309
_cell_angle_beta     109.689
_cell_angle_gamma    120.729

_symmetry_space_group_name_H-M    'P1'
_space_group_IT_number       1

loop_
  _space_group_symop_operation_xyz
  'x, y, z'

loop_
  _atom_site_type_symbol
  _atom_site_label
  _atom_site_symmetry_multiplicity
  _atom_site_fract_x
  _atom_site_fract_y
  _atom_site_fract_z
  _atom_site_occupancy
  H   H1        1.0  0.30370  0.13425  0.24001  1.0000
  H   H2        1.0  0.87041  0.16868  0.27290  1.0000
  H   H3        1.0  0.82815  0.70767  0.14426  1.0000
  H   H4        1.0  0.38041  0.17575  0.32711  1.0000
  H   H5        1.0  0.82719  0.20453  0.21216  1.0000
  H   H6        1.0  0.79975  0.63122  0.17830  1.0000
  H   H7        1.0  0.03163  0.07886  0.28551  1.0000
  H   H8        1.0  0.92760  0.95316  0.29108  1.0000
  H   H9        1.0  0.05151  0.97573  0.28101  1.0000
  H   H10       1.0  0.10260  0.09199  0.28305  1.0000
  H   H11       1.0  0.91521  0.00789  0.30443  1.0000
  H   H12       1.0  0.99559  0.90462  0.30279  1.0000
  H   H13       1.0  0.62982  0.37115  0.25627  1.0000
  H   H14       1.0  0.62866  0.25656  0.24722  1.0000
  H   H15       1.0  0.74458  0.37336  0.24067  1.0000
  H   H16       1.0  0.56327  0.25496  0.25475  1.0000
  H   H17       1.0  0.74396  0.31400  0.20401  1.0000
  H   H18       1.0  0.69010  0.43709  0.21453  1.0000
  H   H19       1.0  0.29738  0.13655  0.71742  1.0000
  H   H20       1.0  0.86779  0.16599  0.79677  1.0000
  H   H21       1.0  0.82802  0.70531  0.63283  1.0000
  H   H22       1.0  0.37474  0.17219  0.83892  1.0000
  H   H23       1.0  0.82171  0.20249  0.69428  1.0000
  H   H24       1.0  0.79579  0.62682  0.69132  1.0000
  H   H25       1.0  0.02491  0.07492  0.79103  1.0000
  H   H26       1.0  0.92255  0.94839  0.79179  1.0000
  H   H27       1.0  0.04763  0.97426  0.78160  1.0000
  H   H28       1.0  0.09665  0.09013  0.78925  1.0000
  H   H29       1.0  0.90948  0.00293  0.81636  1.0000
  H   H30       1.0  0.99332  0.90370  0.79660  1.0000
  H   H31       1.0  0.62442  0.36651  0.76529  1.0000
  H   H32       1.0  0.62420  0.25355  0.73818  1.0000
  H   H33       1.0  0.73855  0.37175  0.72187  1.0000
  H   H34       1.0  0.55926  0.24998  0.76274  1.0000
  H   H35       1.0  0.73898  0.31217  0.68917  1.0000
  H   H36       1.0  0.68509  0.43244  0.74027  1.0000
  C   C1        1.0  0.31282  0.18819  0.29333  1.0000
  C   C2        1.0  0.81204  0.12092  0.28457  1.0000
  C   C3        1.0  0.87586  0.69108  0.30012  1.0000
  C   C4        1.0  0.35621  0.21540  0.30262  1.0000
  C   C5        1.0  0.78977  0.14126  0.28830  1.0000
  C   C6        1.0  0.86097  0.64826  0.30226  1.0000
  C   C7        1.0  0.35233  0.25098  0.32939  1.0000
  C   C8        1.0  0.75385  0.10024  0.35195  1.0000
  C   C9        1.0  0.90019  0.64639  0.43337  1.0000
  C   C10       1.0  0.30470  0.22033  0.32562  1.0000
  C   C11       1.0  0.77720  0.07756  0.33650  1.0000
  C   C12       1.0  0.91536  0.69310  0.43686  1.0000
  C   C13       1.0  0.04648  0.03036  0.28121  1.0000
  C   C14       1.0  0.97666  0.01784  0.29077  1.0000
  C   C15       1.0  0.98743  0.95934  0.28565  1.0000
  C   C16       1.0  0.01974  0.04557  0.28535  1.0000
  C   C17       1.0  0.96075  0.97515  0.28809  1.0000
  C   C18       1.0  0.03009  0.98700  0.28301  1.0000
  C   C19       1.0  0.09125  0.05879  0.27800  1.0000
  C   C20       1.0  0.94802  0.03233  0.29996  1.0000
  C   C21       1.0  0.97148  0.91462  0.28660  1.0000
  C   C22       1.0  0.64692  0.35523  0.25263  1.0000
  C   C23       1.0  0.64537  0.29032  0.24769  1.0000
  C   C24       1.0  0.71099  0.35575  0.24447  1.0000
  C   C25       1.0  0.62434  0.31151  0.25407  1.0000
  C   C26       1.0  0.68868  0.31251  0.24033  1.0000
  C   C27       1.0  0.69006  0.37742  0.24927  1.0000
  C   C28       1.0  0.57945  0.28871  0.26153  1.0000
  C   C29       1.0  0.71162  0.29206  0.22787  1.0000
  C   C30       1.0  0.71150  0.42275  0.24622  1.0000
  C   C31       1.0  0.30867  0.18775  0.79813  1.0000
  C   C32       1.0  0.80860  0.11931  0.78725  1.0000
  C   C33       1.0  0.87448  0.68755  0.79403  1.0000
  C   C34       1.0  0.35231  0.21369  0.80766  1.0000
  C   C35       1.0  0.78616  0.13974  0.78797  1.0000
  C   C36       1.0  0.85825  0.64459  0.79536  1.0000
  C   C37       1.0  0.35035  0.24995  0.83713  1.0000
  C   C38       1.0  0.75070  0.09890  0.85619  1.0000
  C   C39       1.0  0.89735  0.64173  0.92129  1.0000
  C   C40       1.0  0.30272  0.22043  0.83822  1.0000
  C   C41       1.0  0.77375  0.07609  0.83909  1.0000
  C   C42       1.0  0.91431  0.68883  0.92717  1.0000
  C   C43       1.0  0.04116  0.02789  0.78327  1.0000
  C   C44       1.0  0.97061  0.01362  0.79316  1.0000
  C   C45       1.0  0.98308  0.95639  0.78629  1.0000
  C   C46       1.0  0.01361  0.04193  0.78871  1.0000
  C   C47       1.0  0.95556  0.97110  0.78991  1.0000
  C   C48       1.0  0.02564  0.98476  0.78410  1.0000
  C   C49       1.0  0.08579  0.05734  0.77968  1.0000
  C   C50       1.0  0.94165  0.02788  0.80146  1.0000
  C   C51       1.0  0.96830  0.91208  0.78423  1.0000
  C   C52       1.0  0.64156  0.35128  0.75500  1.0000
  C   C53       1.0  0.64051  0.28725  0.74002  1.0000
  C   C54       1.0  0.70529  0.35339  0.73141  1.0000
  C   C55       1.0  0.61943  0.30761  0.75371  1.0000
  C   C56       1.0  0.68353  0.31018  0.72752  1.0000
  C   C57       1.0  0.68442  0.37417  0.74574  1.0000
  C   C58       1.0  0.57494  0.28382  0.76781  1.0000
  C   C59       1.0  0.70679  0.29010  0.71459  1.0000
  C   C60       1.0  0.70608  0.41913  0.75011  1.0000
  N   N1        1.0  0.29005  0.14694  0.27904  1.0000
  N   N2        1.0  0.85228  0.13793  0.26051  1.0000
  N   N3        1.0  0.85782  0.71793  0.22278  1.0000
  N   N4        1.0  0.38767  0.20683  0.30875  1.0000
  N   N5        1.0  0.80077  0.18292  0.26473  1.0000
  N   N6        1.0  0.82237  0.62078  0.22604  1.0000
  N   N7        1.0  0.11600  0.04480  0.27418  1.0000
  N   N8        1.0  0.96046  0.07114  0.30488  1.0000
  N   N9        1.0  0.93159  0.88898  0.26895  1.0000
  N   N10       1.0  0.55954  0.30718  0.27354  1.0000
  N   N11       1.0  0.69585  0.25163  0.24234  1.0000
  N   N12       1.0  0.75211  0.44474  0.27676  1.0000
  N   N13       1.0  0.28495  0.14724  0.77474  1.0000
  N   N14       1.0  0.84935  0.13648  0.76948  1.0000
  N   N15       1.0  0.85694  0.71478  0.71805  1.0000
  N   N16       1.0  0.38271  0.20374  0.81200  1.0000
  N   N17       1.0  0.79699  0.18145  0.75910  1.0000
  N   N18       1.0  0.81869  0.61718  0.72532  1.0000
  N   N19       1.0  0.11100  0.04457  0.77043  1.0000
  N   N20       1.0  0.95368  0.06729  0.79455  1.0000
  N   N21       1.0  0.92878  0.88523  0.76806  1.0000
  N   N22       1.0  0.55500  0.30191  0.78268  1.0000
  N   N23       1.0  0.69147  0.24960  0.73273  1.0000
  N   N24       1.0  0.74648  0.44171  0.76383  1.0000
  O   O1        1.0  0.27498  0.22034  0.35744  1.0000
  O   O2        1.0  0.77199  0.04133  0.36614  1.0000
  O   O3        1.0  0.94361  0.71870  0.52836  1.0000
  O   O4        1.0  0.37649  0.28673  0.35561  1.0000
  O   O5        1.0  0.72317  0.09028  0.41117  1.0000
  O   O6        1.0  0.91249  0.61926  0.51351  1.0000
  O   O7        1.0  0.27425  0.22165  0.87465  1.0000
  O   O8        1.0  0.76803  0.03988  0.86442  1.0000
  O   O9        1.0  0.94354  0.71406  0.01763  1.0000
  O   O10       1.0  0.37547  0.28597  0.85790  1.0000
  O   O11       1.0  0.72062  0.08915  0.91927  1.0000
  O   O12       1.0  0.90843  0.61361  0.99705  1.0000
  C  Sn1       1.0  0.19814  0.06012  0.41131  1.0000
  C   C61       1.0  0.16549  0.07194  0.32094  1.0000
  C  Sn2       1.0  0.17265  0.10961  0.18638  1.0000
  C  Sn3       1.0  0.21329  0.13599  0.14109  1.0000
  C   C62       1.0  0.24591  0.12416  0.23141  1.0000
  C  Sn4       1.0  0.23878  0.08651  0.36602  1.0000
  O  Te1       1.0  0.19027  0.02233  0.54537  1.0000
  O  Te2       1.0  0.13952  0.12077  0.09797  1.0000
  O  Te3       1.0  0.22115  0.17381  0.00691  1.0000
  O  Te4       1.0  0.27189  0.07534  0.45438  1.0000
  Mg  Mg1       1.0  0.21116  0.12587  0.92492  1.0000
  Mg  Mg2       1.0  0.24556  0.02078  0.62737  1.0000
  C  Sn5       1.0  0.94149  0.11991  0.41863  1.0000
  C   C63       1.0  0.93128  0.08432  0.35750  1.0000
  C  Sn6       1.0  0.89289  0.06619  0.23779  1.0000
  C  Sn7       1.0  0.86412  0.08403  0.17781  1.0000
  C   C64       1.0  0.87434  0.11960  0.23890  1.0000
  C  Sn8       1.0  0.91272  0.13775  0.35865  1.0000
  O  Te5       1.0  0.98005  0.13751  0.53828  1.0000
  O  Te6       1.0  0.88338  0.03061  0.17861  1.0000
  O  Te7       1.0  0.82554  0.06640  0.05807  1.0000
  O  Te8       1.0  0.92224  0.17331  0.41779  1.0000
  Mg  Mg3       1.0  0.82692  0.01805  0.01581  1.0000
  Mg  Mg4       1.0  0.97869  0.18591  0.58050  1.0000
  C  Sn9       1.0  0.93071  0.79343  0.27176  1.0000
  C   C65       1.0  0.88919  0.76293  0.28525  1.0000
  C  Sn10      1.0  0.85867  0.77522  0.27066  1.0000
  C  Sn11      1.0  0.86988  0.81891  0.24187  1.0000
  C   C66       1.0  0.91137  0.84938  0.22837  1.0000
  C  Sn12      1.0  0.94191  0.83712  0.24297  1.0000
  O  Te9       1.0  0.96070  0.78042  0.28675  1.0000
  O  Te10      1.0  0.81738  0.74414  0.28466  1.0000
  O  Te11      1.0  0.83984  0.83190  0.22690  1.0000
  O  Te12      1.0  0.98318  0.86817  0.22896  1.0000
  Mg  Mg5       1.0  0.78777  0.77769  0.25512  1.0000
  Mg  Mg6       1.0  0.01281  0.83466  0.25838  1.0000
  C  Sn13      1.0  0.48130  0.30222  0.24445  1.0000
  C   C67       1.0  0.51373  0.28988  0.32807  1.0000
  C  Sn14      1.0  0.50424  0.24690  0.39602  1.0000
  C  Sn15      1.0  0.46146  0.21560  0.37995  1.0000
  C   C68       1.0  0.42906  0.22795  0.29634  1.0000
  C  Sn16      1.0  0.43851  0.27092  0.22838  1.0000
  O  Te13      1.0  0.49152  0.34537  0.17750  1.0000
  O  Te14      1.0  0.53720  0.23533  0.47912  1.0000
  O  Te15      1.0  0.45126  0.17242  0.44700  1.0000
  O  Te16      1.0  0.40558  0.28250  0.14529  1.0000
  Mg  Mg7       1.0  0.50725  0.17252  0.54894  1.0000
  Mg  Mg8       1.0  0.43550  0.34529  0.07534  1.0000
  C  Sn17      1.0  0.77634  0.26023  0.27664  1.0000
  C   C69       1.0  0.73265  0.24509  0.21352  1.0000
  C  Sn18      1.0  0.70776  0.20392  0.18178  1.0000
  C  Sn19      1.0  0.72693  0.17731  0.21390  1.0000
  C   C70       1.0  0.77059  0.19244  0.27701  1.0000
  C  Sn20      1.0  0.79550  0.23362  0.30876  1.0000
  O  Te17      1.0  0.80060  0.30149  0.30745  1.0000
  O  Te18      1.0  0.66415  0.18949  0.11863  1.0000
  O  Te19      1.0  0.70262  0.13601  0.18303  1.0000
  O  Te20      1.0  0.83909  0.24804  0.37190  1.0000
  Mg  Mg9       1.0  0.64450  0.13083  0.09709  1.0000
  Mg  Mg10      1.0  0.85876  0.30668  0.39358  1.0000
  C  Sn21      1.0  0.76297  0.53959  0.33673  1.0000
  C   C71       1.0  0.80311  0.56998  0.30132  1.0000
  C  Sn22      1.0  0.82634  0.55986  0.23534  1.0000
  C  Sn23      1.0  0.80909  0.51851  0.20399  1.0000
  C   C72       1.0  0.76898  0.48815  0.23935  1.0000
  C  Sn24      1.0  0.74572  0.49824  0.30537  1.0000
  O  Te21      1.0  0.74031  0.55040  0.40263  1.0000
  O  Te22      1.0  0.86640  0.59077  0.20102  1.0000
  O  Te23      1.0  0.83179  0.50771  0.13804  1.0000
  O  Te24      1.0  0.70568  0.46736  0.33965  1.0000
  Mg  Mg11      1.0  0.88501  0.56074  0.11203  1.0000
  Mg  Mg12      1.0  0.68703  0.49735  0.42855  1.0000
  C  Sn25      1.0  0.21551  0.06887  0.81629  1.0000
  C   C73       1.0  0.23673  0.11243  0.74454  1.0000
  C  Sn26      1.0  0.21634  0.13818  0.69174  1.0000
  C  Sn27      1.0  0.17387  0.12001  0.71116  1.0000
  C   C74       1.0  0.15267  0.07647  0.78291  1.0000
  C  Sn28      1.0  0.17303  0.05069  0.83572  1.0000
  O  Te25      1.0  0.23651  0.04373  0.86820  1.0000
  O  Te26      1.0  0.23821  0.18165  0.62030  1.0000
  O  Te27      1.0  0.15287  0.14518  0.65918  1.0000
  O  Te28      1.0  0.15119  0.00725  0.90715  1.0000
  Mg  Mg13      1.0  0.19603  0.20272  0.56916  1.0000
  Mg  Mg14      1.0  0.19334  0.98616  0.95841  1.0000
  C  Sn29      1.0  0.92679  0.14206  0.80219  1.0000
  C   C75       1.0  0.88294  0.12631  0.74441  1.0000
  C  Sn30      1.0  0.85803  0.08454  0.72012  1.0000
  C  Sn31      1.0  0.87735  0.05794  0.75439  1.0000
  C   C76       1.0  0.92117  0.07370  0.81216  1.0000
  C  Sn32      1.0  0.94611  0.11547  0.83646  1.0000
  O  Te29      1.0  0.95108  0.18392  0.82559  1.0000
  O  Te30      1.0  0.81425  0.06951  0.66220  1.0000
  O  Te31      1.0  0.85302  0.01606  0.73093  1.0000
  O  Te32      1.0  0.98986  0.13050  0.89437  1.0000
  Mg  Mg15      1.0  0.79465  0.01017  0.65007  1.0000
  Mg  Mg16      1.0  0.00949  0.18982  0.90663  1.0000
  C  Sn33      1.0  0.85119  0.78564  0.71279  1.0000
  C   C77       1.0  0.86939  0.76375  0.68772  1.0000
  C  Sn34      1.0  0.91327  0.78081  0.71385  1.0000
  C  Sn35      1.0  0.93953  0.82058  0.76626  1.0000
  C   C78       1.0  0.92133  0.84245  0.79133  1.0000
  C  Sn36      1.0  0.87745  0.82541  0.76520  1.0000
  O  Te33      1.0  0.80724  0.76798  0.68592  1.0000
  O  Te34      1.0  0.93073  0.75834  0.68791  1.0000
  O  Te35      1.0  0.98351  0.83824  0.79311  1.0000
  O  Te36      1.0  0.85999  0.84785  0.79115  1.0000
  Mg  Mg17      1.0  0.99231  0.79554  0.74114  1.0000
  Mg  Mg18      1.0  0.79842  0.81067  0.73805  1.0000
  C  Sn37      1.0  0.47761  0.29788  0.75597  1.0000
  C   C79       1.0  0.50935  0.28454  0.83875  1.0000
  C  Sn38      1.0  0.49890  0.24128  0.90221  1.0000
  C  Sn39      1.0  0.45582  0.21071  0.88242  1.0000
  C   C80       1.0  0.42411  0.22405  0.79966  1.0000
  C  Sn40      1.0  0.43453  0.26730  0.73619  1.0000
  O  Te37      1.0  0.48878  0.34128  0.69353  1.0000
  O  Te38      1.0  0.53119  0.22873  0.98455  1.0000
  O  Te39      1.0  0.44467  0.16728  0.94495  1.0000
  O  Te40      1.0  0.40227  0.27986  0.65385  1.0000
  Mg  Mg19      1.0  0.45472  0.21538  0.04762  1.0000
  Mg  Mg20      1.0  0.43341  0.34265  0.59066  1.0000
  C  Sn41      1.0  0.78210  0.23289  0.87689  1.0000
  C   C81       1.0  0.77075  0.19822  0.80612  1.0000
  C  Sn42      1.0  0.73220  0.18193  0.68433  1.0000
  C  Sn43      1.0  0.70441  0.20069  0.63208  1.0000
  C   C82       1.0  0.71576  0.23534  0.70281  1.0000
  C  Sn44      1.0  0.75431  0.25165  0.82464  1.0000
  O  Te41      1.0  0.82080  0.24865  0.99845  1.0000
  O  Te42      1.0  0.72154  0.14724  0.61545  1.0000
  O  Te43      1.0  0.66568  0.18490  0.51043  1.0000
  O  Te44      1.0  0.76497  0.28633  0.89348  1.0000
  Mg  Mg21      1.0  0.66534  0.13718  0.45376  1.0000
  Mg  Mg22      1.0  0.77588  0.34588  0.05509  1.0000
  C  Sn45      1.0  0.76200  0.53537  0.85537  1.0000
  C   C83       1.0  0.80050  0.56629  0.80376  1.0000
  C  Sn46      1.0  0.82066  0.55695  0.71649  1.0000
  C  Sn47      1.0  0.80194  0.51585  0.67994  1.0000
  C   C84       1.0  0.76346  0.48496  0.73151  1.0000
  C  Sn48      1.0  0.74328  0.49427  0.81882  1.0000
  O  Te45      1.0  0.74241  0.54541  0.94244  1.0000
  O  Te46      1.0  0.85913  0.58838  0.66624  1.0000
  O  Te47      1.0  0.82157  0.50583  0.59280  1.0000
  O  Te48      1.0  0.70483  0.46287  0.86902  1.0000
  Mg  Mg23      1.0  0.87360  0.55935  0.55077  1.0000
  Mg  Mg24      1.0  0.69032  0.49186  0.98441  1.0000
