data_image0
_chemical_formula_structural       H36C60N24O12C2Sn2C2HTe2HMgC2Sn2C2HTe2HMgC2Sn2C2HTe2HMgC2Sn2C2HTe2HMgC2Sn2C2HTe2HMgC2Sn2C2HTe2HMgC2Sn2C2HTe2HMgC2Sn2C2HTe2HMgC2Sn2C2HTe2HMgC2Sn2C2HTe2HMgC2Sn2C2HTe2HMgC2Sn2C2HTe2HMg
_chemical_formula_sum              "H60 C108 N24 O12 Sn24 Te24 Mg12"
_cell_length_a       37.5354
_cell_length_b       37.4662
_cell_length_c       7.85615
_cell_angle_alpha    69.7309
_cell_angle_beta     109.689
_cell_angle_gamma    120.729

_symmetry_space_group_name_H-M    'P1'
_space_group_IT_number       1

loop_
  _space_group_symop_operation_xyz
  'x, y, z'

loop_
  _atom_site_type_symbol
  _atom_site_label
  _atom_site_symmetry_multiplicity
  _atom_site_fract_x
  _atom_site_fract_y
  _atom_site_fract_z
  _atom_site_occupancy
  H   H1        1.0  0.30370  0.13425  0.24001  1.0000
  H   H2        1.0  0.87041  0.16868  0.27290  1.0000
  H   H3        1.0  0.82815  0.70767  0.14426  1.0000
  H   H4        1.0  0.38041  0.17575  0.32711  1.0000
  H   H5        1.0  0.82719  0.20453  0.21216  1.0000
  H   H6        1.0  0.79975  0.63122  0.17830  1.0000
  H   H7        1.0  0.03163  0.07886  0.28551  1.0000
  H   H8        1.0  0.92760  0.95316  0.29108  1.0000
  H   H9        1.0  0.05151  0.97573  0.28101  1.0000
  H   H10       1.0  0.10260  0.09199  0.28305  1.0000
  H   H11       1.0  0.91521  0.00789  0.30443  1.0000
  H   H12       1.0  0.99559  0.90462  0.30279  1.0000
  H   H13       1.0  0.62982  0.37115  0.25627  1.0000
  H   H14       1.0  0.62866  0.25656  0.24722  1.0000
  H   H15       1.0  0.74458  0.37336  0.24067  1.0000
  H   H16       1.0  0.56327  0.25496  0.25475  1.0000
  H   H17       1.0  0.74396  0.31400  0.20401  1.0000
  H   H18       1.0  0.69010  0.43709  0.21453  1.0000
  H   H19       1.0  0.29738  0.13655  0.71742  1.0000
  H   H20       1.0  0.86779  0.16599  0.79677  1.0000
  H   H21       1.0  0.82802  0.70531  0.63283  1.0000
  H   H22       1.0  0.37474  0.17219  0.83892  1.0000
  H   H23       1.0  0.82171  0.20249  0.69428  1.0000
  H   H24       1.0  0.79579  0.62682  0.69132  1.0000
  H   H25       1.0  0.02491  0.07492  0.79103  1.0000
  H   H26       1.0  0.92255  0.94839  0.79179  1.0000
  H   H27       1.0  0.04763  0.97426  0.78160  1.0000
  H   H28       1.0  0.09665  0.09013  0.78925  1.0000
  H   H29       1.0  0.90948  0.00293  0.81636  1.0000
  H   H30       1.0  0.99332  0.90370  0.79660  1.0000
  H   H31       1.0  0.62442  0.36651  0.76529  1.0000
  H   H32       1.0  0.62420  0.25355  0.73818  1.0000
  H   H33       1.0  0.73855  0.37175  0.72187  1.0000
  H   H34       1.0  0.55926  0.24998  0.76274  1.0000
  H   H35       1.0  0.73898  0.31217  0.68917  1.0000
  H   H36       1.0  0.68509  0.43244  0.74027  1.0000
  C   C1        1.0  0.31282  0.18819  0.29333  1.0000
  C   C2        1.0  0.81204  0.12092  0.28457  1.0000
  C   C3        1.0  0.87586  0.69108  0.30012  1.0000
  C   C4        1.0  0.35621  0.21540  0.30262  1.0000
  C   C5        1.0  0.78977  0.14126  0.28830  1.0000
  C   C6        1.0  0.86097  0.64826  0.30226  1.0000
  C   C7        1.0  0.35233  0.25098  0.32939  1.0000
  C   C8        1.0  0.75385  0.10024  0.35195  1.0000
  C   C9        1.0  0.90019  0.64639  0.43337  1.0000
  C   C10       1.0  0.30470  0.22033  0.32562  1.0000
  C   C11       1.0  0.77720  0.07756  0.33650  1.0000
  C   C12       1.0  0.91536  0.69310  0.43686  1.0000
  C   C13       1.0  0.04648  0.03036  0.28121  1.0000
  C   C14       1.0  0.97666  0.01784  0.29077  1.0000
  C   C15       1.0  0.98743  0.95934  0.28565  1.0000
  C   C16       1.0  0.01974  0.04557  0.28535  1.0000
  C   C17       1.0  0.96075  0.97515  0.28809  1.0000
  C   C18       1.0  0.03009  0.98700  0.28301  1.0000
  C   C19       1.0  0.09125  0.05879  0.27800  1.0000
  C   C20       1.0  0.94802  0.03233  0.29996  1.0000
  C   C21       1.0  0.97148  0.91462  0.28660  1.0000
  C   C22       1.0  0.64692  0.35523  0.25263  1.0000
  C   C23       1.0  0.64537  0.29032  0.24769  1.0000
  C   C24       1.0  0.71099  0.35575  0.24447  1.0000
  C   C25       1.0  0.62434  0.31151  0.25407  1.0000
  C   C26       1.0  0.68868  0.31251  0.24033  1.0000
  C   C27       1.0  0.69006  0.37742  0.24927  1.0000
  C   C28       1.0  0.57945  0.28871  0.26153  1.0000
  C   C29       1.0  0.71162  0.29206  0.22787  1.0000
  C   C30       1.0  0.71150  0.42275  0.24622  1.0000
  C   C31       1.0  0.30867  0.18775  0.79813  1.0000
  C   C32       1.0  0.80860  0.11931  0.78725  1.0000
  C   C33       1.0  0.87448  0.68755  0.79403  1.0000
  C   C34       1.0  0.35231  0.21369  0.80766  1.0000
  C   C35       1.0  0.78616  0.13974  0.78797  1.0000
  C   C36       1.0  0.85825  0.64459  0.79536  1.0000
  C   C37       1.0  0.35035  0.24995  0.83713  1.0000
  C   C38       1.0  0.75070  0.09890  0.85619  1.0000
  C   C39       1.0  0.89735  0.64173  0.92129  1.0000
  C   C40       1.0  0.30272  0.22043  0.83822  1.0000
  C   C41       1.0  0.77375  0.07609  0.83909  1.0000
  C   C42       1.0  0.91431  0.68883  0.92717  1.0000
  C   C43       1.0  0.04116  0.02789  0.78327  1.0000
  C   C44       1.0  0.97061  0.01362  0.79316  1.0000
  C   C45       1.0  0.98308  0.95639  0.78629  1.0000
  C   C46       1.0  0.01361  0.04193  0.78871  1.0000
  C   C47       1.0  0.95556  0.97110  0.78991  1.0000
  C   C48       1.0  0.02564  0.98476  0.78410  1.0000
  C   C49       1.0  0.08579  0.05734  0.77968  1.0000
  C   C50       1.0  0.94165  0.02788  0.80146  1.0000
  C   C51       1.0  0.96830  0.91208  0.78423  1.0000
  C   C52       1.0  0.64156  0.35128  0.75500  1.0000
  C   C53       1.0  0.64051  0.28725  0.74002  1.0000
  C   C54       1.0  0.70529  0.35339  0.73141  1.0000
  C   C55       1.0  0.61943  0.30761  0.75371  1.0000
  C   C56       1.0  0.68353  0.31018  0.72752  1.0000
  C   C57       1.0  0.68442  0.37417  0.74574  1.0000
  C   C58       1.0  0.57494  0.28382  0.76781  1.0000
  C   C59       1.0  0.70679  0.29010  0.71459  1.0000
  C   C60       1.0  0.70608  0.41913  0.75011  1.0000
  N   N1        1.0  0.29005  0.14694  0.27904  1.0000
  N   N2        1.0  0.85228  0.13793  0.26051  1.0000
  N   N3        1.0  0.85782  0.71793  0.22278  1.0000
  N   N4        1.0  0.38767  0.20683  0.30875  1.0000
  N   N5        1.0  0.80077  0.18292  0.26473  1.0000
  N   N6        1.0  0.82237  0.62078  0.22604  1.0000
  N   N7        1.0  0.11600  0.04480  0.27418  1.0000
  N   N8        1.0  0.96046  0.07114  0.30488  1.0000
  N   N9        1.0  0.93159  0.88898  0.26895  1.0000
  N   N10       1.0  0.55954  0.30718  0.27354  1.0000
  N   N11       1.0  0.69585  0.25163  0.24234  1.0000
  N   N12       1.0  0.75211  0.44474  0.27676  1.0000
  N   N13       1.0  0.28495  0.14724  0.77474  1.0000
  N   N14       1.0  0.84935  0.13648  0.76948  1.0000
  N   N15       1.0  0.85694  0.71478  0.71805  1.0000
  N   N16       1.0  0.38271  0.20374  0.81200  1.0000
  N   N17       1.0  0.79699  0.18145  0.75910  1.0000
  N   N18       1.0  0.81869  0.61718  0.72532  1.0000
  N   N19       1.0  0.11100  0.04457  0.77043  1.0000
  N   N20       1.0  0.95368  0.06729  0.79455  1.0000
  N   N21       1.0  0.92878  0.88523  0.76806  1.0000
  N   N22       1.0  0.55500  0.30191  0.78268  1.0000
  N   N23       1.0  0.69147  0.24960  0.73273  1.0000
  N   N24       1.0  0.74648  0.44171  0.76383  1.0000
  O   O1        1.0  0.27498  0.22034  0.35744  1.0000
  O   O2        1.0  0.77199  0.04133  0.36614  1.0000
  O   O3        1.0  0.94361  0.71870  0.52836  1.0000
  O   O4        1.0  0.37649  0.28673  0.35561  1.0000
  O   O5        1.0  0.72317  0.09028  0.41117  1.0000
  O   O6        1.0  0.91249  0.61926  0.51351  1.0000
  O   O7        1.0  0.27425  0.22165  0.87465  1.0000
  O   O8        1.0  0.76803  0.03988  0.86442  1.0000
  O   O9        1.0  0.94354  0.71406  0.01763  1.0000
  O   O10       1.0  0.37547  0.28597  0.85790  1.0000
  O   O11       1.0  0.72062  0.08915  0.91927  1.0000
  O   O12       1.0  0.90843  0.61361  0.99705  1.0000
  C   C61       1.0  0.22162  0.06881  0.37792  1.0000
  C   C62       1.0  0.24298  0.11107  0.28872  1.0000
  C  Sn1       1.0  0.22094  0.13517  0.18836  1.0000
  C  Sn2       1.0  0.17669  0.11653  0.17738  1.0000
  C   C63       1.0  0.15562  0.07424  0.26722  1.0000
  C   C64       1.0  0.17798  0.05041  0.36722  1.0000
  H   H37       1.0  0.23892  0.05038  0.45538  1.0000
  O  Te1       1.0  0.24277  0.17733  0.10002  1.0000
  O  Te2       1.0  0.15389  0.13990  0.07807  1.0000
  H   H38       1.0  0.16144  0.01771  0.43637  1.0000
  Mg  Mg1       1.0  0.24306  0.14673  0.98140  1.0000
  C   C65       1.0  0.86184  0.07248  0.20298  1.0000
  C   C66       1.0  0.87062  0.10574  0.27699  1.0000
  C  Sn3       1.0  0.91203  0.13064  0.35774  1.0000
  C  Sn4       1.0  0.94519  0.12200  0.36427  1.0000
  C   C67       1.0  0.93607  0.08867  0.28973  1.0000
  C   C68       1.0  0.89453  0.06395  0.20931  1.0000
  H   H39       1.0  0.82970  0.05336  0.14066  1.0000
  O  Te3       1.0  0.92025  0.16374  0.43108  1.0000
  O  Te4       1.0  0.98685  0.14640  0.44411  1.0000
  H   H40       1.0  0.88774  0.03821  0.15191  1.0000
  Mg  Mg2       1.0  0.98216  0.18803  0.52547  1.0000
  C   C69       1.0  0.93980  0.82039  0.22641  1.0000
  C   C70       1.0  0.92221  0.84369  0.24419  1.0000
  C  Sn5       1.0  0.88049  0.82357  0.26850  1.0000
  C  Sn6       1.0  0.85602  0.77930  0.27512  1.0000
  C   C71       1.0  0.87391  0.75627  0.25732  1.0000
  C   C72       1.0  0.91568  0.77672  0.23299  1.0000
  H   H41       1.0  0.97212  0.83621  0.20768  1.0000
  O  Te5       1.0  0.86341  0.84733  0.28597  1.0000
  O  Te6       1.0  0.81425  0.75839  0.29935  1.0000
  H   H42       1.0  0.92930  0.75867  0.21935  1.0000
  Mg  Mg3       1.0  0.80508  0.80449  0.31653  1.0000
  C   C73       1.0  0.49362  0.23081  0.42070  1.0000
  C   C74       1.0  0.51419  0.27118  0.31373  1.0000
  C  Sn7       1.0  0.49208  0.29493  0.20719  1.0000
  C  Sn8       1.0  0.44857  0.27788  0.20808  1.0000
  C   C75       1.0  0.42829  0.23748  0.31567  1.0000
  C   C76       1.0  0.45071  0.21397  0.42172  1.0000
  H   H43       1.0  0.51097  0.21263  0.50284  1.0000
  O  Te7       1.0  0.51311  0.33520  0.10105  1.0000
  O  Te8       1.0  0.42572  0.30094  0.10294  1.0000
  H   H44       1.0  0.43478  0.18273  0.50462  1.0000
  Mg  Mg4       1.0  0.51366  0.30493  0.98081  1.0000
  C   C77       1.0  0.77683  0.25405  0.33755  1.0000
  C   C78       1.0  0.73404  0.24216  0.25825  1.0000
  C  Sn9       1.0  0.71013  0.20656  0.17866  1.0000
  C  Sn10      1.0  0.72951  0.18247  0.17873  1.0000
  C   C79       1.0  0.77233  0.19461  0.25854  1.0000
  C   C80       1.0  0.79596  0.23030  0.33775  1.0000
  H   H45       1.0  0.79511  0.28165  0.39893  1.0000
  O  Te9       1.0  0.66743  0.19513  0.09996  1.0000
  O  Te10      1.0  0.70635  0.14674  0.10020  1.0000
  H   H46       1.0  0.82908  0.23949  0.39925  1.0000
  Mg  Mg5       1.0  0.64912  0.14389  0.00988  1.0000
  C   C81       1.0  0.74626  0.51653  0.29520  1.0000
  C   C82       1.0  0.76214  0.49213  0.27352  1.0000
  C  Sn11      1.0  0.80337  0.51105  0.24470  1.0000
  C  Sn12      1.0  0.82910  0.55522  0.23757  1.0000
  C   C83       1.0  0.81293  0.57934  0.25955  1.0000
  C   C84       1.0  0.77163  0.56010  0.28825  1.0000
  H   H47       1.0  0.71432  0.50164  0.31751  1.0000
  O  Te11      1.0  0.81873  0.48621  0.22324  1.0000
  O  Te12      1.0  0.87042  0.57493  0.20901  1.0000
  H   H48       1.0  0.75935  0.57899  0.30515  1.0000
  Mg  Mg6       1.0  0.87707  0.52764  0.18740  1.0000
  C   C85       1.0  0.20158  0.13970  0.66090  1.0000
  C   C86       1.0  0.23476  0.12873  0.75267  1.0000
  C  Sn13      1.0  0.22635  0.08700  0.84858  1.0000
  C  Sn14      1.0  0.18389  0.05572  0.85239  1.0000
  C   C87       1.0  0.15091  0.06701  0.76004  1.0000
  C   C88       1.0  0.15969  0.10887  0.66454  1.0000
  H   H49       1.0  0.20836  0.17208  0.58692  1.0000
  O  Te13      1.0  0.25988  0.07659  0.93957  1.0000
  O  Te14      1.0  0.17459  0.01377  0.94714  1.0000
  H   H50       1.0  0.13399  0.11734  0.59340  1.0000
  Mg  Mg7       1.0  0.18584  0.06461  0.04990  1.0000
  C   C89       1.0  0.87025  0.05984  0.72018  1.0000
  C   C90       1.0  0.91431  0.07661  0.76441  1.0000
  C  Sn15      1.0  0.93872  0.11372  0.83342  1.0000
  C  Sn16      1.0  0.91855  0.13434  0.85851  1.0000
  C   C91       1.0  0.87444  0.11729  0.81397  1.0000
  C   C92       1.0  0.85033  0.08015  0.74495  1.0000
  H   H51       1.0  0.85159  0.03109  0.66687  1.0000
  O  Te15      1.0  0.98271  0.13005  0.87685  1.0000
  O  Te16      1.0  0.94217  0.17146  0.92732  1.0000
  H   H52       1.0  0.81621  0.06716  0.71083  1.0000
  Mg  Mg8       1.0  0.00121  0.18142  0.96640  1.0000
  C   C93       1.0  0.86207  0.80577  0.77180  1.0000
  C   C94       1.0  0.90408  0.83636  0.77167  1.0000
  C  Sn17      1.0  0.93288  0.82703  0.74249  1.0000
  C  Sn18      1.0  0.91928  0.78631  0.71286  1.0000
  C   C95       1.0  0.87718  0.75593  0.71312  1.0000
  C   C96       1.0  0.84863  0.76560  0.74252  1.0000
  H   H53       1.0  0.83997  0.81325  0.79444  1.0000
  O  Te17      1.0  0.97473  0.85796  0.74287  1.0000
  O  Te18      1.0  0.94740  0.77615  0.68328  1.0000
  H   H54       1.0  0.81610  0.74192  0.74249  1.0000
  Mg  Mg9       1.0  0.00119  0.82895  0.69637  1.0000
  C   C97       1.0  0.47431  0.29562  0.69847  1.0000
  C   C98       1.0  0.50721  0.28447  0.79529  1.0000
  C  Sn19      1.0  0.49848  0.24352  0.90315  1.0000
  C  Sn20      1.0  0.45600  0.21324  0.91397  1.0000
  C   C99       1.0  0.42330  0.22470  0.81648  1.0000
  C   C100      1.0  0.43239  0.26577  0.70901  1.0000
  H   H55       1.0  0.48133  0.32739  0.61523  1.0000
  O  Te19      1.0  0.53174  0.23290  0.99905  1.0000
  O  Te20      1.0  0.40109  0.22154  0.02069  1.0000
  H   H56       1.0  0.40691  0.27439  0.63396  1.0000
  Mg  Mg10      1.0  0.45732  0.22227  0.12610  1.0000
  C   C101      1.0  0.70234  0.18830  0.65977  1.0000
  C   C102      1.0  0.71270  0.22239  0.73227  1.0000
  C  Sn21      1.0  0.75447  0.24609  0.81390  1.0000
  C  Sn22      1.0  0.78638  0.23541  0.82287  1.0000
  C   C103      1.0  0.77569  0.20128  0.74982  1.0000
  C   C104      1.0  0.73379  0.17776  0.66849  1.0000
  H   H57       1.0  0.66993  0.17012  0.59675  1.0000
  O  Te21      1.0  0.76428  0.28003  0.88571  1.0000
  O  Te22      1.0  0.82838  0.25858  0.90363  1.0000
  H   H58       1.0  0.72578  0.15139  0.61227  1.0000
  Mg  Mg11      1.0  0.82603  0.30205  0.98221  1.0000
  C   C105      1.0  0.74400  0.51238  0.81521  1.0000
  C   C106      1.0  0.75754  0.48851  0.77291  1.0000
  C  Sn23      1.0  0.79674  0.50795  0.72225  1.0000
  C  Sn24      1.0  0.82279  0.55212  0.71394  1.0000
  C   C107      1.0  0.80897  0.57571  0.75664  1.0000
  C   C108      1.0  0.76968  0.55594  0.80712  1.0000
  H   H59       1.0  0.71361  0.49707  0.85436  1.0000
  O  Te23      1.0  0.80977  0.48364  0.68037  1.0000
  O  Te24      1.0  0.86212  0.57236  0.66378  1.0000
  H   H60       1.0  0.75922  0.57442  0.83997  1.0000
  Mg  Mg12      1.0  0.86597  0.52566  0.61925  1.0000
