data_image0
_chemical_formula_structural       H56C128N32SnCSn2CSnTe4Mg2SnCSn2CSnTe4Mg2SnCSn2CSnTe4Mg2SnCSn2CSnTe4Mg2SnCSn2CSnTe4Mg2SnCSn2CSnTe4Mg2SnCSn2CSnTe4Mg2SnCSn2CSnTe4Mg2SnCSn2CSnTe4Mg2SnCSn2CSnTe4Mg2SnCSn2CSnTe4Mg2SnCSn2CSnTe4Mg2SnCSn2CSnTe4Mg2SnCSn2CSnTe4Mg2SnCSn2CSnTe4Mg2SnCSn2CSnTe4Mg2SnCSn2CSnTe4Mg2SnCSn2CSnTe4Mg2SnCSn2CSnTe4Mg2SnCSn2CSnTe4Mg2SnCSn2CSnTe4Mg2SnCSn2CSnTe4Mg2SnCSn2CSnTe4Mg2SnCSn2CSnTe4Mg2
_chemical_formula_sum              "H56 C176 N32 Sn96 Te96 Mg48"
_cell_length_a       36.9687
_cell_length_b       36.8678
_cell_length_c       8.18876
_cell_angle_alpha    90.5613
_cell_angle_beta     90.6202
_cell_angle_gamma    89.9242

_symmetry_space_group_name_H-M    'P1'
_space_group_IT_number       1

loop_
  _space_group_symop_operation_xyz
  'x, y, z'

loop_
  _atom_site_type_symbol
  _atom_site_label
  _atom_site_symmetry_multiplicity
  _atom_site_fract_x
  _atom_site_fract_y
  _atom_site_fract_z
  _atom_site_occupancy
  H   H1        1.0  0.45714  0.86666  0.35075  1.0000
  H   H2        1.0  0.54469  0.13189  0.37459  1.0000
  H   H3        1.0  0.13356  0.45456  0.36592  1.0000
  H   H4        1.0  0.86994  0.54348  0.37984  1.0000
  H   H5        1.0  0.52939  0.86315  0.36806  1.0000
  H   H6        1.0  0.47231  0.13506  0.38055  1.0000
  H   H7        1.0  0.13786  0.52695  0.37408  1.0000
  H   H8        1.0  0.86520  0.47091  0.37264  1.0000
  H   H9        1.0  0.47136  0.00031  0.26744  1.0000
  H   H10       1.0  0.53095  0.99809  0.26710  1.0000
  H   H11       1.0  0.99902  0.46916  0.27224  1.0000
  H   H12       1.0  0.00333  0.52899  0.27850  1.0000
  H   H13       1.0  0.36552  0.97122  0.11182  1.0000
  H   H14       1.0  0.63803  0.02774  0.14582  1.0000
  H   H15       1.0  0.02870  0.36182  0.13762  1.0000
  H   H16       1.0  0.97254  0.63540  0.14281  1.0000
  H   H17       1.0  0.36945  0.04369  0.12808  1.0000
  H   H18       1.0  0.63437  0.95526  0.15432  1.0000
  H   H19       1.0  0.95661  0.36607  0.13970  1.0000
  H   H20       1.0  0.04491  0.63125  0.14168  1.0000
  H   H21       1.0  0.70776  0.16046  0.33078  1.0000
  H   H22       1.0  0.29355  0.84151  0.31176  1.0000
  H   H23       1.0  0.84102  0.70600  0.32290  1.0000
  H   H24       1.0  0.16000  0.29043  0.30132  1.0000
  H   H25       1.0  0.79348  0.33933  0.16474  1.0000
  H   H26       1.0  0.20756  0.65960  0.17846  1.0000
  H   H27       1.0  0.65954  0.79078  0.18147  1.0000
  H   H28       1.0  0.34159  0.20644  0.17418  1.0000
  H   H29       1.0  0.45572  0.86781  0.84707  1.0000
  H   H30       1.0  0.54181  0.13376  0.88040  1.0000
  H   H31       1.0  0.13179  0.45704  0.86334  1.0000
  H   H32       1.0  0.86691  0.54621  0.86545  1.0000
  H   H33       1.0  0.52807  0.86471  0.86484  1.0000
  H   H34       1.0  0.46946  0.13701  0.87939  1.0000
  H   H35       1.0  0.13621  0.52941  0.86527  1.0000
  H   H36       1.0  0.86256  0.47373  0.87003  1.0000
  H   H37       1.0  0.46931  0.00222  0.76460  1.0000
  H   H38       1.0  0.52905  0.00021  0.77665  1.0000
  H   H39       1.0  0.99678  0.47160  0.77570  1.0000
  H   H40       1.0  0.00105  0.53118  0.77147  1.0000
  H   H41       1.0  0.36277  0.97209  0.62236  1.0000
  H   H42       1.0  0.63511  0.03022  0.64241  1.0000
  H   H43       1.0  0.02689  0.36514  0.63019  1.0000
  H   H44       1.0  0.97058  0.63834  0.64541  1.0000
  H   H45       1.0  0.36618  0.04449  0.63574  1.0000
  H   H46       1.0  0.63172  0.95764  0.64888  1.0000
  H   H47       1.0  0.95461  0.36889  0.63646  1.0000
  H   H48       1.0  0.04295  0.63404  0.64478  1.0000
  H   H49       1.0  0.70660  0.16076  0.81902  1.0000
  H   H50       1.0  0.29478  0.83899  0.82744  1.0000
  H   H51       1.0  0.83982  0.70867  0.85550  1.0000
  H   H52       1.0  0.15728  0.29241  0.82275  1.0000
  H   H53       1.0  0.79242  0.34071  0.66711  1.0000
  H   H54       1.0  0.20699  0.65976  0.67352  1.0000
  H   H55       1.0  0.66228  0.79654  0.68667  1.0000
  H   H56       1.0  0.33769  0.20731  0.65829  1.0000
  C   C1        1.0  0.47627  0.88766  0.32017  1.0000
  C   C2        1.0  0.52577  0.11076  0.34003  1.0000
  C   C3        1.0  0.11263  0.47376  0.33306  1.0000
  C   C4        1.0  0.89043  0.52428  0.34195  1.0000
  C   C5        1.0  0.51303  0.88585  0.32850  1.0000
  C   C6        1.0  0.48900  0.11245  0.34257  1.0000
  C   C7        1.0  0.11487  0.51063  0.33644  1.0000
  C   C8        1.0  0.88799  0.48745  0.33852  1.0000
  C   C9        1.0  0.52639  0.92093  0.27534  1.0000
  C   C10       1.0  0.47597  0.07736  0.28421  1.0000
  C   C11       1.0  0.07979  0.52410  0.28146  1.0000
  C   C12       1.0  0.92274  0.47406  0.28114  1.0000
  C   C13       1.0  0.46736  0.92395  0.26309  1.0000
  C   C14       1.0  0.53498  0.07443  0.28169  1.0000
  C   C15       1.0  0.07609  0.46488  0.27713  1.0000
  C   C16       1.0  0.92664  0.53312  0.28563  1.0000
  C   C17       1.0  0.43162  0.93614  0.23084  1.0000
  C   C18       1.0  0.57083  0.06242  0.25257  1.0000
  C   C19       1.0  0.06364  0.42896  0.24777  1.0000
  C   C20       1.0  0.93884  0.56892  0.25742  1.0000
  C   C21       1.0  0.42239  0.97284  0.20583  1.0000
  C   C22       1.0  0.58036  0.02580  0.22421  1.0000
  C   C23       1.0  0.02695  0.41966  0.22152  1.0000
  C   C24       1.0  0.97522  0.57825  0.22919  1.0000
  C   C25       1.0  0.42584  0.03421  0.21761  1.0000
  C   C26       1.0  0.57700  0.96432  0.22700  1.0000
  C   C27       1.0  0.96561  0.42332  0.22253  1.0000
  C   C28       1.0  0.03647  0.57467  0.22785  1.0000
  C   C29       1.0  0.38842  0.98728  0.15199  1.0000
  C   C30       1.0  0.61481  0.01153  0.17747  1.0000
  C   C31       1.0  0.01264  0.38525  0.17056  1.0000
  C   C32       1.0  0.98904  0.61236  0.17627  1.0000
  C   C33       1.0  0.39049  0.02452  0.15948  1.0000
  C   C34       1.0  0.61285  0.97426  0.18050  1.0000
  C   C35       1.0  0.97549  0.38745  0.17124  1.0000
  C   C36       1.0  0.02620  0.61019  0.17550  1.0000
  C   C37       1.0  0.43909  0.06935  0.25337  1.0000
  C   C38       1.0  0.56351  0.92907  0.25452  1.0000
  C   C39       1.0  0.93049  0.43701  0.25129  1.0000
  C   C40       1.0  0.07182  0.56123  0.25569  1.0000
  C   C41       1.0  0.68890  0.20283  0.18625  1.0000
  C   C42       1.0  0.31116  0.79685  0.17525  1.0000
  C   C43       1.0  0.79664  0.68548  0.19359  1.0000
  C   C44       1.0  0.20345  0.30964  0.16729  1.0000
  C   C45       1.0  0.68512  0.16916  0.25416  1.0000
  C   C46       1.0  0.31569  0.83134  0.23724  1.0000
  C   C47       1.0  0.83140  0.68258  0.25293  1.0000
  C   C48       1.0  0.16940  0.31343  0.23089  1.0000
  C   C49       1.0  0.81240  0.29663  0.30784  1.0000
  C   C50       1.0  0.18900  0.70365  0.31552  1.0000
  C   C51       1.0  0.70274  0.80854  0.32718  1.0000
  C   C52       1.0  0.29735  0.18694  0.30252  1.0000
  C   C53       1.0  0.81580  0.33073  0.24346  1.0000
  C   C54       1.0  0.18511  0.66913  0.25269  1.0000
  C   C55       1.0  0.66886  0.81305  0.25951  1.0000
  C   C56       1.0  0.33199  0.18358  0.24506  1.0000
  C   C57       1.0  0.66156  0.21831  0.08466  1.0000
  C   C58       1.0  0.33752  0.78047  0.07244  1.0000
  C   C59       1.0  0.78068  0.65758  0.09527  1.0000
  C   C60       1.0  0.21919  0.33712  0.06983  1.0000
  C   C61       1.0  0.83937  0.28124  0.41171  1.0000
  C   C62       1.0  0.16220  0.71934  0.41799  1.0000
  C   C63       1.0  0.71823  0.83508  0.43422  1.0000
  C   C64       1.0  0.28167  0.15965  0.40143  1.0000
  C   C65       1.0  0.47476  0.88900  0.81838  1.0000
  C   C66       1.0  0.52303  0.11267  0.84355  1.0000
  C   C67       1.0  0.11074  0.47615  0.83098  1.0000
  C   C68       1.0  0.88765  0.52685  0.83244  1.0000
  C   C69       1.0  0.51151  0.88740  0.82682  1.0000
  C   C70       1.0  0.48625  0.11434  0.84316  1.0000
  C   C71       1.0  0.11301  0.51299  0.83182  1.0000
  C   C72       1.0  0.88546  0.48999  0.83446  1.0000
  C   C73       1.0  0.52460  0.92281  0.77677  1.0000
  C   C74       1.0  0.47344  0.07914  0.78460  1.0000
  C   C75       1.0  0.07768  0.52637  0.77910  1.0000
  C   C76       1.0  0.92040  0.47643  0.78012  1.0000
  C   C77       1.0  0.46562  0.92549  0.76441  1.0000
  C   C78       1.0  0.53249  0.07640  0.78572  1.0000
  C   C79       1.0  0.07401  0.46724  0.77801  1.0000
  C   C80       1.0  0.92403  0.53559  0.77808  1.0000
  C   C81       1.0  0.42980  0.93754  0.73339  1.0000
  C   C82       1.0  0.56840  0.06461  0.75650  1.0000
  C   C83       1.0  0.06145  0.43143  0.74955  1.0000
  C   C84       1.0  0.93641  0.57142  0.75138  1.0000
  C   C85       1.0  0.42024  0.97421  0.70905  1.0000
  C   C86       1.0  0.57806  0.02802  0.72795  1.0000
  C   C87       1.0  0.02481  0.42236  0.72116  1.0000
  C   C88       1.0  0.97294  0.58065  0.72461  1.0000
  C   C89       1.0  0.42328  0.03574  0.71912  1.0000
  C   C90       1.0  0.57489  0.96658  0.73012  1.0000
  C   C91       1.0  0.96353  0.42580  0.72347  1.0000
  C   C92       1.0  0.03428  0.57698  0.72467  1.0000
  C   C93       1.0  0.38586  0.98836  0.65880  1.0000
  C   C94       1.0  0.61224  0.01387  0.67689  1.0000
  C   C95       1.0  0.01065  0.38817  0.66688  1.0000
  C   C96       1.0  0.98697  0.61500  0.67580  1.0000
  C   C97       1.0  0.38766  0.02564  0.66528  1.0000
  C   C98       1.0  0.61042  0.97659  0.67939  1.0000
  C   C99       1.0  0.97349  0.39017  0.66916  1.0000
  C   C100      1.0  0.02414  0.61279  0.67558  1.0000
  C   C101      1.0  0.43656  0.07100  0.75318  1.0000
  C   C102      1.0  0.56161  0.93124  0.75681  1.0000
  C   C103      1.0  0.92835  0.43927  0.75297  1.0000
  C   C104      1.0  0.06957  0.56343  0.75288  1.0000
  C   C105      1.0  0.68770  0.20394  0.67912  1.0000
  C   C106      1.0  0.31159  0.79622  0.67866  1.0000
  C   C107      1.0  0.79638  0.69123  0.71007  1.0000
  C   C108      1.0  0.19932  0.31051  0.67624  1.0000
  C   C109      1.0  0.68369  0.17016  0.74593  1.0000
  C   C110      1.0  0.31604  0.83033  0.74449  1.0000
  C   C111      1.0  0.83055  0.68687  0.77451  1.0000
  C   C112      1.0  0.16580  0.31456  0.74477  1.0000
  C   C113      1.0  0.81142  0.29734  0.80601  1.0000
  C   C114      1.0  0.18918  0.70329  0.81579  1.0000
  C   C115      1.0  0.70365  0.81510  0.84044  1.0000
  C   C116      1.0  0.29488  0.18848  0.79829  1.0000
  C   C117      1.0  0.81502  0.33151  0.74266  1.0000
  C   C118      1.0  0.18510  0.66891  0.75198  1.0000
  C   C119      1.0  0.67011  0.81870  0.76864  1.0000
  C   C120      1.0  0.32917  0.18520  0.73646  1.0000
  C   C121      1.0  0.66029  0.21955  0.57830  1.0000
  C   C122      1.0  0.33758  0.78053  0.57223  1.0000
  C   C123      1.0  0.78038  0.66477  0.60412  1.0000
  C   C124      1.0  0.21439  0.33758  0.57449  1.0000
  C   C125      1.0  0.83864  0.28208  0.90897  1.0000
  C   C126      1.0  0.16259  0.71952  0.91773  1.0000
  C   C127      1.0  0.71850  0.84229  0.94592  1.0000
  C   C128      1.0  0.27979  0.16164  0.90108  1.0000
  N   N1        1.0  0.49818  0.94410  0.24249  1.0000
  N   N2        1.0  0.50434  0.05416  0.25473  1.0000
  N   N3        1.0  0.05623  0.49588  0.25256  1.0000
  N   N4        1.0  0.94627  0.50218  0.25607  1.0000
  N   N5        1.0  0.44444  0.00217  0.23945  1.0000
  N   N6        1.0  0.55813  0.99630  0.24729  1.0000
  N   N7        1.0  0.99754  0.44201  0.24720  1.0000
  N   N8        1.0  0.00478  0.55608  0.25454  1.0000
  N   N9        1.0  0.64051  0.23202  0.99688  1.0000
  N   N10       1.0  0.35793  0.76609  0.98449  1.0000
  N   N11       1.0  0.76685  0.63578  0.01051  1.0000
  N   N12       1.0  0.23307  0.35866  0.98715  1.0000
  N   N13       1.0  0.86007  0.26750  0.50114  1.0000
  N   N14       1.0  0.14109  0.73282  0.50540  1.0000
  N   N15       1.0  0.73193  0.85560  0.52576  1.0000
  N   N16       1.0  0.26822  0.13830  0.48657  1.0000
  N   N17       1.0  0.49626  0.94595  0.74543  1.0000
  N   N18       1.0  0.50195  0.05603  0.75727  1.0000
  N   N19       1.0  0.05404  0.49815  0.75308  1.0000
  N   N20       1.0  0.94384  0.50457  0.75277  1.0000
  N   N21       1.0  0.44225  0.00380  0.73914  1.0000
  N   N22       1.0  0.55609  0.99847  0.75368  1.0000
  N   N23       1.0  0.99538  0.44455  0.74869  1.0000
  N   N24       1.0  0.00247  0.55829  0.74808  1.0000
  N   N25       1.0  0.63891  0.23319  0.49193  1.0000
  N   N26       1.0  0.35780  0.76671  0.48168  1.0000
  N   N27       1.0  0.76639  0.64423  0.51359  1.0000
  N   N28       1.0  0.22766  0.35868  0.48754  1.0000
  N   N29       1.0  0.85992  0.26878  0.99689  1.0000
  N   N30       1.0  0.14201  0.73398  0.00448  1.0000
  N   N31       1.0  0.73154  0.86369  0.03525  1.0000
  N   N32       1.0  0.26658  0.14087  0.98978  1.0000
  C  Sn1       1.0  0.61064  0.14956  0.20071  1.0000
  C   C129      1.0  0.64506  0.14838  0.27277  1.0000
  C  Sn2       1.0  0.65955  0.11548  0.32602  1.0000
  C  Sn3       1.0  0.63923  0.08309  0.30676  1.0000
  C   C130      1.0  0.60484  0.08428  0.23471  1.0000
  C  Sn4       1.0  0.59032  0.11717  0.18145  1.0000
  O  Te1       1.0  0.59669  0.18275  0.14836  1.0000
  O  Te2       1.0  0.69401  0.11498  0.39775  1.0000
  O  Te3       1.0  0.65321  0.04989  0.35918  1.0000
  O  Te4       1.0  0.55589  0.11768  0.10973  1.0000
  Mg  Mg1       1.0  0.70134  0.06313  0.44947  1.0000
  Mg  Mg2       1.0  0.54854  0.16951  0.05789  1.0000
  C  Sn5       1.0  0.39699  0.87308  0.09876  1.0000
  C   C131      1.0  0.39778  0.90698  0.17651  1.0000
  C  Sn6       1.0  0.37289  0.91543  0.29828  1.0000
  C  Sn7       1.0  0.34667  0.88943  0.34338  1.0000
  C   C132      1.0  0.34589  0.85555  0.26568  1.0000
  C  Sn8       1.0  0.37077  0.84708  0.14386  1.0000
  O  Te5       1.0  0.42453  0.86739  0.97735  1.0000
  O  Te6       1.0  0.37420  0.94951  0.37422  1.0000
  O  Te7       1.0  0.32151  0.89732  0.46490  1.0000
  O  Te8       1.0  0.36946  0.81302  0.06797  1.0000
  Mg  Mg3       1.0  0.33421  0.94743  0.53267  1.0000
  Mg  Mg4       1.0  0.41185  0.81724  0.90957  1.0000
  C  Sn9       1.0  0.90256  0.65866  0.29572  1.0000
  C   C133      1.0  0.86863  0.65764  0.21892  1.0000
  C  Sn10      1.0  0.85383  0.62464  0.16636  1.0000
  C  Sn11      1.0  0.87334  0.59197  0.19118  1.0000
  C   C134      1.0  0.90724  0.59300  0.26797  1.0000
  C  Sn12      1.0  0.92207  0.62599  0.32054  1.0000
  O  Te9       1.0  0.91683  0.69196  0.34727  1.0000
  O  Te10      1.0  0.81986  0.62431  0.08983  1.0000
  O  Te11      1.0  0.85904  0.55866  0.13955  1.0000
  O  Te12      1.0  0.95601  0.62634  0.39706  1.0000
  Mg  Mg5       1.0  0.81182  0.57221  0.04139  1.0000
  Mg  Mg6       1.0  0.96407  0.67842  0.44562  1.0000
  C  Sn13      1.0  0.14998  0.38827  0.18437  1.0000
  C   C135      1.0  0.14916  0.35390  0.25478  1.0000
  C  Sn14      1.0  0.11663  0.33956  0.31044  1.0000
  C  Sn15      1.0  0.08425  0.35998  0.29532  1.0000
  C   C136      1.0  0.08507  0.39431  0.22493  1.0000
  C  Sn16      1.0  0.11759  0.40868  0.16926  1.0000
  O  Te13      1.0  0.18280  0.40207  0.12956  1.0000
  O  Te14      1.0  0.11649  0.30515  0.38045  1.0000
  O  Te15      1.0  0.05141  0.34614  0.35022  1.0000
  O  Te16      1.0  0.11774  0.44307  0.09926  1.0000
  Mg  Mg7       1.0  0.06506  0.29803  0.43677  1.0000
  Mg  Mg8       1.0  0.16915  0.45021  0.04283  1.0000
  C  Sn17      1.0  0.75716  0.21797  0.33896  1.0000
  C   C137      1.0  0.72359  0.22603  0.26802  1.0000
  C  Sn18      1.0  0.71852  0.25832  0.18289  1.0000
  C  Sn19      1.0  0.74762  0.28307  0.16825  1.0000
  C   C138      1.0  0.78117  0.27500  0.23913  1.0000
  C  Sn20      1.0  0.78627  0.24271  0.32432  1.0000
  O  Te17      1.0  0.76162  0.18553  0.42350  1.0000
  O  Te18      1.0  0.68470  0.26579  0.11307  1.0000
  O  Te19      1.0  0.74314  0.31553  0.08362  1.0000
  O  Te20      1.0  0.82006  0.23524  0.39408  1.0000
  Mg  Mg9       1.0  0.69201  0.31352  0.00984  1.0000
  Mg  Mg10      1.0  0.81279  0.18751  0.49726  1.0000
  C  Sn21      1.0  0.22327  0.77267  0.31984  1.0000
  C   C139      1.0  0.21610  0.73795  0.25774  1.0000
  C  Sn22      1.0  0.24311  0.71823  0.17830  1.0000
  C  Sn23      1.0  0.27801  0.73352  0.16063  1.0000
  C   C140      1.0  0.28517  0.76822  0.22272  1.0000
  C  Sn24      1.0  0.25818  0.78797  0.30217  1.0000
  O  Te21      1.0  0.19587  0.79190  0.39883  1.0000
  O  Te22      1.0  0.23529  0.68357  0.11719  1.0000
  O  Te23      1.0  0.30542  0.71426  0.08155  1.0000
  O  Te24      1.0  0.26598  0.82261  0.36327  1.0000
  Mg  Mg11      1.0  0.28159  0.66804  0.01917  1.0000
  Mg  Mg12      1.0  0.21971  0.83814  0.46138  1.0000
  C  Sn25      1.0  0.77136  0.77406  0.33496  1.0000
  C   C141      1.0  0.73676  0.78064  0.27139  1.0000
  C  Sn26      1.0  0.71739  0.75290  0.19286  1.0000
  C  Sn27      1.0  0.73291  0.71785  0.17763  1.0000
  C   C142      1.0  0.76749  0.71128  0.24121  1.0000
  C  Sn28      1.0  0.78688  0.73901  0.31974  1.0000
  O  Te25      1.0  0.79023  0.80220  0.41300  1.0000
  O  Te26      1.0  0.68285  0.76014  0.13024  1.0000
  O  Te27      1.0  0.71400  0.68971  0.09952  1.0000
  O  Te28      1.0  0.82140  0.73178  0.38236  1.0000
  Mg  Mg13      1.0  0.66783  0.71294  0.03436  1.0000
  Mg  Mg14      1.0  0.83644  0.77896  0.47833  1.0000
  C  Sn29      1.0  0.28508  0.25827  0.17869  1.0000
  C   C143      1.0  0.27942  0.22847  0.27941  1.0000
  C  Sn30      1.0  0.24481  0.22068  0.33606  1.0000
  C  Sn31      1.0  0.21523  0.24313  0.29102  1.0000
  C   C144      1.0  0.22089  0.27290  0.19034  1.0000
  C  Sn32      1.0  0.25550  0.28072  0.13366  1.0000
  O  Te29      1.0  0.31991  0.26554  0.12348  1.0000
  O  Te30      1.0  0.23983  0.19075  0.43667  1.0000
  O  Te31      1.0  0.18038  0.23583  0.34634  1.0000
  O  Te32      1.0  0.26049  0.31062  0.03309  1.0000
  Mg  Mg15      1.0  0.18728  0.19197  0.48069  1.0000
  Mg  Mg16      1.0  0.31541  0.31159  0.98893  1.0000
  C  Sn33      1.0  0.85606  0.41706  0.20573  1.0000
  C   C145      1.0  0.89052  0.41540  0.27714  1.0000
  C  Sn34      1.0  0.90446  0.38236  0.33155  1.0000
  C  Sn35      1.0  0.88354  0.35032  0.31413  1.0000
  C   C146      1.0  0.84910  0.35198  0.24273  1.0000
  C  Sn36      1.0  0.83513  0.38501  0.18831  1.0000
  O  Te33      1.0  0.84266  0.45037  0.15220  1.0000
  O  Te34      1.0  0.93898  0.38138  0.40260  1.0000
  O  Te35      1.0  0.89696  0.31698  0.36773  1.0000
  O  Te36      1.0  0.80064  0.38600  0.11727  1.0000
  Mg  Mg17      1.0  0.94542  0.32952  0.45646  1.0000
  Mg  Mg18      1.0  0.79419  0.43784  0.06329  1.0000
  C  Sn37      1.0  0.09622  0.63323  0.30686  1.0000
  C   C147      1.0  0.09739  0.59852  0.23701  1.0000
  C  Sn38      1.0  0.13026  0.58364  0.18681  1.0000
  C  Sn39      1.0  0.16264  0.60386  0.20694  1.0000
  C   C148      1.0  0.16146  0.63855  0.27678  1.0000
  C  Sn40      1.0  0.12859  0.65346  0.32699  1.0000
  O  Te37      1.0  0.06305  0.64757  0.35617  1.0000
  O  Te38      1.0  0.13076  0.54888  0.11725  1.0000
  O  Te39      1.0  0.19582  0.58949  0.15756  1.0000
  O  Te40      1.0  0.12809  0.68818  0.39654  1.0000
  Mg  Mg19      1.0  0.18258  0.54107  0.06938  1.0000
  Mg  Mg20      1.0  0.07629  0.69602  0.44452  1.0000
  C  Sn41      1.0  0.64058  0.87899  0.39821  1.0000
  C   C149      1.0  0.63992  0.84551  0.31673  1.0000
  C  Sn42      1.0  0.61493  0.83902  0.19069  1.0000
  C  Sn43      1.0  0.59010  0.86657  0.14505  1.0000
  C   C150      1.0  0.59077  0.90002  0.22649  1.0000
  C  Sn44      1.0  0.61575  0.90654  0.35258  1.0000
  O  Te41      1.0  0.66580  0.88489  0.52385  1.0000
  O  Te42      1.0  0.61478  0.80532  0.11106  1.0000
  O  Te43      1.0  0.56487  0.86064  0.01930  1.0000
  O  Te44      1.0  0.61591  0.94021  0.43216  1.0000
  Mg  Mg21      1.0  0.57769  0.81249  0.94753  1.0000
  Mg  Mg22      1.0  0.65540  0.93526  0.59564  1.0000
  C  Sn45      1.0  0.41821  0.14365  0.21116  1.0000
  C   C151      1.0  0.41687  0.10933  0.28180  1.0000
  C  Sn46      1.0  0.38395  0.09506  0.33317  1.0000
  C  Sn47      1.0  0.35170  0.11552  0.31343  1.0000
  C   C152      1.0  0.35306  0.14981  0.24280  1.0000
  C  Sn48      1.0  0.38597  0.16410  0.19142  1.0000
  O  Te45      1.0  0.45142  0.15737  0.16069  1.0000
  O  Te46      1.0  0.38328  0.06070  0.40350  1.0000
  O  Te47      1.0  0.31849  0.10176  0.36397  1.0000
  O  Te48      1.0  0.38664  0.19844  0.12110  1.0000
  Mg  Mg23      1.0  0.33147  0.05368  0.45287  1.0000
  Mg  Mg24      1.0  0.43844  0.20547  0.07162  1.0000
  C  Sn49      1.0  0.63510  0.09458  0.87750  1.0000
  C   C153      1.0  0.60063  0.09573  0.80592  1.0000
  C  Sn50      1.0  0.59274  0.12071  0.68336  1.0000
  C  Sn51      1.0  0.61987  0.14502  0.63116  1.0000
  C   C154      1.0  0.65431  0.14386  0.70269  1.0000
  C  Sn52      1.0  0.66222  0.11890  0.82530  1.0000
  O  Te49      1.0  0.64238  0.06939  0.99982  1.0000
  O  Te50      1.0  0.55808  0.12135  0.61368  1.0000
  O  Te51      1.0  0.61255  0.17023  0.50874  1.0000
  O  Te52      1.0  0.69686  0.11824  0.89494  1.0000
  Mg  Mg25      1.0  0.56130  0.16059  0.45115  1.0000
  Mg  Mg26      1.0  0.69128  0.07683  0.05741  1.0000
  C  Sn53      1.0  0.36545  0.90731  0.86206  1.0000
  C   C155      1.0  0.39822  0.90688  0.77856  1.0000
  C  Sn54      1.0  0.40395  0.88193  0.65195  1.0000
  C  Sn55      1.0  0.37635  0.85690  0.60780  1.0000
  C   C156      1.0  0.34360  0.85734  0.69125  1.0000
  C  Sn56      1.0  0.33785  0.88228  0.81790  1.0000
  O  Te53      1.0  0.36031  0.93248  0.98823  1.0000
  O  Te54      1.0  0.43694  0.88202  0.57031  1.0000
  O  Te55      1.0  0.38152  0.83171  0.48152  1.0000
  O  Te56      1.0  0.30488  0.88220  0.89950  1.0000
  Mg  Mg27      1.0  0.43106  0.84249  0.40680  1.0000
  Mg  Mg28      1.0  0.30833  0.91955  0.06296  1.0000
  C  Sn57      1.0  0.90150  0.66141  0.80785  1.0000
  C   C157      1.0  0.86729  0.66178  0.73357  1.0000
  C  Sn58      1.0  0.85180  0.62963  0.67450  1.0000
  C  Sn59      1.0  0.87087  0.59643  0.69009  1.0000
  C   C158      1.0  0.90506  0.59607  0.76436  1.0000
  C  Sn60      1.0  0.92058  0.62820  0.82344  1.0000
  O  Te57      1.0  0.91648  0.69387  0.86603  1.0000
  O  Te58      1.0  0.81757  0.63068  0.60065  1.0000
  O  Te59      1.0  0.85587  0.56395  0.63183  1.0000
  O  Te60      1.0  0.95479  0.62717  0.89727  1.0000
  Mg  Mg29      1.0  0.80853  0.57931  0.54068  1.0000
  Mg  Mg30      1.0  0.96384  0.67852  0.95736  1.0000
  C  Sn61      1.0  0.09087  0.36532  0.87338  1.0000
  C   C159      1.0  0.09180  0.39884  0.79533  1.0000
  C  Sn62      1.0  0.11612  0.40485  0.66909  1.0000
  C  Sn63      1.0  0.14000  0.37676  0.61975  1.0000
  C   C160      1.0  0.13905  0.34326  0.69777  1.0000
  C  Sn64      1.0  0.11474  0.33723  0.82405  1.0000
  O  Te61      1.0  0.06633  0.35992  0.99929  1.0000
  O  Te62      1.0  0.11657  0.43859  0.59293  1.0000
  O  Te63      1.0  0.16455  0.38219  0.49374  1.0000
  O  Te64      1.0  0.11428  0.30351  0.90017  1.0000
  Mg  Mg31      1.0  0.15486  0.43280  0.42752  1.0000
  Mg  Mg32      1.0  0.07359  0.30710  0.06553  1.0000
  C  Sn65      1.0  0.73374  0.26225  0.59289  1.0000
  C   C161      1.0  0.72589  0.22891  0.66399  1.0000
  C  Sn66      1.0  0.74399  0.21810  0.80603  1.0000
  C  Sn67      1.0  0.77048  0.24111  0.87861  1.0000
  C   C162      1.0  0.77832  0.27444  0.80755  1.0000
  C  Sn68      1.0  0.76023  0.28526  0.66547  1.0000
  O  Te65      1.0  0.71531  0.27251  0.45089  1.0000
  O  Te66      1.0  0.73569  0.18464  0.87483  1.0000
  O  Te67      1.0  0.78653  0.22866  0.02073  1.0000
  O  Te68      1.0  0.76852  0.31871  0.59671  1.0000
  Mg  Mg33      1.0  0.76571  0.18053  0.06860  1.0000
  Mg  Mg34      1.0  0.73611  0.32068  0.40299  1.0000
  C  Sn69      1.0  0.27265  0.73042  0.63740  1.0000
  C   C163      1.0  0.27587  0.76765  0.66779  1.0000
  C  Sn70      1.0  0.25203  0.78524  0.77355  1.0000
  C  Sn71      1.0  0.22441  0.76520  0.85062  1.0000
  C   C164      1.0  0.22121  0.72800  0.82024  1.0000
  C  Sn72      1.0  0.24504  0.71038  0.71447  1.0000
  O  Te69      1.0  0.29679  0.71340  0.53123  1.0000
  O  Te70      1.0  0.25577  0.82248  0.80199  1.0000
  O  Te71      1.0  0.20027  0.78226  0.95685  1.0000
  O  Te72      1.0  0.24131  0.67316  0.68604  1.0000
  Mg  Mg35      1.0  0.21634  0.83345  0.95661  1.0000
  Mg  Mg36      1.0  0.28073  0.66217  0.53152  1.0000
  C  Sn73      1.0  0.77311  0.78351  0.80338  1.0000
  C   C165      1.0  0.73583  0.78637  0.77619  1.0000
  C  Sn74      1.0  0.71510  0.75539  0.74470  1.0000
  C  Sn75      1.0  0.73196  0.72082  0.74040  1.0000
  C   C166      1.0  0.76921  0.71797  0.76760  1.0000
  C  Sn76      1.0  0.78997  0.74894  0.79907  1.0000
  O  Te73      1.0  0.79331  0.81484  0.83464  1.0000
  O  Te74      1.0  0.67788  0.75893  0.71784  1.0000
  O  Te75      1.0  0.71172  0.68947  0.70910  1.0000
  O  Te76      1.0  0.82717  0.74541  0.82594  1.0000
  Mg  Mg37      1.0  0.66191  0.70827  0.68025  1.0000
  Mg  Mg38      1.0  0.84316  0.79605  0.86363  1.0000
  C  Sn77      1.0  0.28214  0.26366  0.73531  1.0000
  C   C167      1.0  0.27414  0.22911  0.79346  1.0000
  C  Sn78      1.0  0.23847  0.21665  0.79371  1.0000
  C  Sn79      1.0  0.21021  0.23918  0.73449  1.0000
  C   C168      1.0  0.21822  0.27371  0.67635  1.0000
  C  Sn80      1.0  0.25388  0.28620  0.67609  1.0000
  O  Te77      1.0  0.31799  0.27556  0.73620  1.0000
  O  Te78      1.0  0.23114  0.18201  0.85251  1.0000
  O  Te79      1.0  0.17434  0.22726  0.73364  1.0000
  O  Te80      1.0  0.26122  0.32081  0.61731  1.0000
  Mg  Mg39      1.0  0.17800  0.17797  0.82616  1.0000
  Mg  Mg40      1.0  0.31436  0.32487  0.64352  1.0000
  C  Sn81      1.0  0.90403  0.36744  0.80145  1.0000
  C   C169      1.0  0.90272  0.40197  0.73270  1.0000
  C  Sn82      1.0  0.86973  0.41678  0.68173  1.0000
  C  Sn83      1.0  0.83737  0.39668  0.69995  1.0000
  C   C170      1.0  0.83869  0.36217  0.76868  1.0000
  C  Sn84      1.0  0.87166  0.34734  0.81966  1.0000
  O  Te81      1.0  0.93731  0.35317  0.85156  1.0000
  O  Te82      1.0  0.86911  0.45135  0.61330  1.0000
  O  Te83      1.0  0.80408  0.41098  0.64976  1.0000
  O  Te84      1.0  0.87230  0.31280  0.88808  1.0000
  Mg  Mg41      1.0  0.81716  0.45914  0.56370  1.0000
  Mg  Mg42      1.0  0.92423  0.30499  0.93780  1.0000
  C  Sn85      1.0  0.14367  0.58314  0.70760  1.0000
  C   C171      1.0  0.10972  0.58505  0.78062  1.0000
  C  Sn86      1.0  0.09642  0.61817  0.83873  1.0000
  C  Sn87      1.0  0.11748  0.65006  0.82344  1.0000
  C   C172      1.0  0.15141  0.64814  0.75043  1.0000
  C  Sn88      1.0  0.16473  0.61503  0.69231  1.0000
  O  Te85      1.0  0.15642  0.54974  0.65037  1.0000
  O  Te86      1.0  0.06240  0.61939  0.91133  1.0000
  O  Te87      1.0  0.10469  0.68347  0.88075  1.0000
  O  Te88      1.0  0.19872  0.61380  0.61973  1.0000
  Mg  Mg43      1.0  0.05676  0.67128  0.97034  1.0000
  Mg  Mg44      1.0  0.20439  0.56193  0.56060  1.0000
  C  Sn89      1.0  0.60893  0.85097  0.63718  1.0000
  C   C173      1.0  0.64132  0.85108  0.72677  1.0000
  C  Sn90      1.0  0.64681  0.87620  0.85343  1.0000
  C  Sn91      1.0  0.61934  0.90172  0.89142  1.0000
  C   C174      1.0  0.58698  0.90160  0.80187  1.0000
  C  Sn92      1.0  0.58146  0.87650  0.67516  1.0000
  O  Te89      1.0  0.60402  0.82562  0.51107  1.0000
  O  Te90      1.0  0.67942  0.87579  0.94124  1.0000
  O  Te91      1.0  0.62188  0.92491  0.01764  1.0000
  O  Te92      1.0  0.54887  0.87690  0.58740  1.0000
  Mg  Mg45      1.0  0.67093  0.91355  0.10204  1.0000
  Mg  Mg46      1.0  0.55493  0.83697  0.42664  1.0000
  C  Sn93      1.0  0.39199  0.15215  0.62642  1.0000
  C   C175      1.0  0.35856  0.15274  0.70446  1.0000
  C  Sn94      1.0  0.35110  0.12797  0.82760  1.0000
  C  Sn95      1.0  0.37762  0.10208  0.87378  1.0000
  C   C176      1.0  0.41103  0.10150  0.79577  1.0000
  C  Sn96      1.0  0.41851  0.12626  0.67259  1.0000
  O  Te93      1.0  0.39886  0.17716  0.50364  1.0000
  O  Te94      1.0  0.31748  0.12909  0.90382  1.0000
  O  Te95      1.0  0.37072  0.07706  0.99666  1.0000
  O  Te96      1.0  0.45211  0.12516  0.59642  1.0000
  Mg  Mg47      1.0  0.31853  0.08721  0.06430  1.0000
  Mg  Mg48      1.0  0.44870  0.16486  0.43599  1.0000
