data_image0
_chemical_formula_structural       H56C128N32C2Sn2C2HTe2HMgC2Sn2C2HTe2HMgC2Sn2C2HTe2HMgC2Sn2C2HTe2HMgC2Sn2C2HTe2HMgC2Sn2C2HTe2HMgC2Sn2C2HTe2HMgC2Sn2C2HTe2HMgC2Sn2C2HTe2HMgC2Sn2C2HTe2HMgC2Sn2C2HTe2HMgC2Sn2C2HTe2HMgC2Sn2C2HTe2HMgC2Sn2C2HTe2HMgC2Sn2C2HTe2HMgC2Sn2C2HTe2HMgC2Sn2C2HTe2HMgC2Sn2C2HTe2HMgC2Sn2C2HTe2HMgC2Sn2C2HTe2HMgC2Sn2C2HTe2HMgC2Sn2C2HTe2HMgC2Sn2C2HTe2HMgC2Sn2C2HTe2HMg
_chemical_formula_sum              "H104 C224 N32 Sn48 Te48 Mg24"
_cell_length_a       36.9687
_cell_length_b       36.8678
_cell_length_c       8.18876
_cell_angle_alpha    90.5613
_cell_angle_beta     90.6202
_cell_angle_gamma    89.9242

_symmetry_space_group_name_H-M    'P1'
_space_group_IT_number       1

loop_
  _space_group_symop_operation_xyz
  'x, y, z'

loop_
  _atom_site_type_symbol
  _atom_site_label
  _atom_site_symmetry_multiplicity
  _atom_site_fract_x
  _atom_site_fract_y
  _atom_site_fract_z
  _atom_site_occupancy
  H   H1        1.0  0.45714  0.86666  0.35075  1.0000
  H   H2        1.0  0.54469  0.13189  0.37459  1.0000
  H   H3        1.0  0.13356  0.45456  0.36592  1.0000
  H   H4        1.0  0.86994  0.54348  0.37984  1.0000
  H   H5        1.0  0.52939  0.86315  0.36806  1.0000
  H   H6        1.0  0.47231  0.13506  0.38055  1.0000
  H   H7        1.0  0.13786  0.52695  0.37408  1.0000
  H   H8        1.0  0.86520  0.47091  0.37264  1.0000
  H   H9        1.0  0.47136  0.00031  0.26744  1.0000
  H   H10       1.0  0.53095  0.99809  0.26710  1.0000
  H   H11       1.0  0.99902  0.46916  0.27224  1.0000
  H   H12       1.0  0.00333  0.52899  0.27850  1.0000
  H   H13       1.0  0.36552  0.97122  0.11182  1.0000
  H   H14       1.0  0.63803  0.02774  0.14582  1.0000
  H   H15       1.0  0.02870  0.36182  0.13762  1.0000
  H   H16       1.0  0.97254  0.63540  0.14281  1.0000
  H   H17       1.0  0.36945  0.04369  0.12808  1.0000
  H   H18       1.0  0.63437  0.95526  0.15432  1.0000
  H   H19       1.0  0.95661  0.36607  0.13970  1.0000
  H   H20       1.0  0.04491  0.63125  0.14168  1.0000
  H   H21       1.0  0.70776  0.16046  0.33078  1.0000
  H   H22       1.0  0.29355  0.84151  0.31176  1.0000
  H   H23       1.0  0.84102  0.70600  0.32290  1.0000
  H   H24       1.0  0.16000  0.29043  0.30132  1.0000
  H   H25       1.0  0.79348  0.33933  0.16474  1.0000
  H   H26       1.0  0.20756  0.65960  0.17846  1.0000
  H   H27       1.0  0.65954  0.79078  0.18147  1.0000
  H   H28       1.0  0.34159  0.20644  0.17418  1.0000
  H   H29       1.0  0.45572  0.86781  0.84707  1.0000
  H   H30       1.0  0.54181  0.13376  0.88040  1.0000
  H   H31       1.0  0.13179  0.45704  0.86334  1.0000
  H   H32       1.0  0.86691  0.54621  0.86545  1.0000
  H   H33       1.0  0.52807  0.86471  0.86484  1.0000
  H   H34       1.0  0.46946  0.13701  0.87939  1.0000
  H   H35       1.0  0.13621  0.52941  0.86527  1.0000
  H   H36       1.0  0.86256  0.47373  0.87003  1.0000
  H   H37       1.0  0.46931  0.00222  0.76460  1.0000
  H   H38       1.0  0.52905  0.00021  0.77665  1.0000
  H   H39       1.0  0.99678  0.47160  0.77570  1.0000
  H   H40       1.0  0.00105  0.53118  0.77147  1.0000
  H   H41       1.0  0.36277  0.97209  0.62236  1.0000
  H   H42       1.0  0.63511  0.03022  0.64241  1.0000
  H   H43       1.0  0.02689  0.36514  0.63019  1.0000
  H   H44       1.0  0.97058  0.63834  0.64541  1.0000
  H   H45       1.0  0.36618  0.04449  0.63574  1.0000
  H   H46       1.0  0.63172  0.95764  0.64888  1.0000
  H   H47       1.0  0.95461  0.36889  0.63646  1.0000
  H   H48       1.0  0.04295  0.63404  0.64478  1.0000
  H   H49       1.0  0.70660  0.16076  0.81902  1.0000
  H   H50       1.0  0.29478  0.83899  0.82744  1.0000
  H   H51       1.0  0.83982  0.70867  0.85550  1.0000
  H   H52       1.0  0.15728  0.29241  0.82275  1.0000
  H   H53       1.0  0.79242  0.34071  0.66711  1.0000
  H   H54       1.0  0.20699  0.65976  0.67352  1.0000
  H   H55       1.0  0.66228  0.79654  0.68667  1.0000
  H   H56       1.0  0.33769  0.20731  0.65829  1.0000
  C   C1        1.0  0.47627  0.88766  0.32017  1.0000
  C   C2        1.0  0.52577  0.11076  0.34003  1.0000
  C   C3        1.0  0.11263  0.47376  0.33306  1.0000
  C   C4        1.0  0.89043  0.52428  0.34195  1.0000
  C   C5        1.0  0.51303  0.88585  0.32850  1.0000
  C   C6        1.0  0.48900  0.11245  0.34257  1.0000
  C   C7        1.0  0.11487  0.51063  0.33644  1.0000
  C   C8        1.0  0.88799  0.48745  0.33852  1.0000
  C   C9        1.0  0.52639  0.92093  0.27534  1.0000
  C   C10       1.0  0.47597  0.07736  0.28421  1.0000
  C   C11       1.0  0.07979  0.52410  0.28146  1.0000
  C   C12       1.0  0.92274  0.47406  0.28114  1.0000
  C   C13       1.0  0.46736  0.92395  0.26309  1.0000
  C   C14       1.0  0.53498  0.07443  0.28169  1.0000
  C   C15       1.0  0.07609  0.46488  0.27713  1.0000
  C   C16       1.0  0.92664  0.53312  0.28563  1.0000
  C   C17       1.0  0.43162  0.93614  0.23084  1.0000
  C   C18       1.0  0.57083  0.06242  0.25257  1.0000
  C   C19       1.0  0.06364  0.42896  0.24777  1.0000
  C   C20       1.0  0.93884  0.56892  0.25742  1.0000
  C   C21       1.0  0.42239  0.97284  0.20583  1.0000
  C   C22       1.0  0.58036  0.02580  0.22421  1.0000
  C   C23       1.0  0.02695  0.41966  0.22152  1.0000
  C   C24       1.0  0.97522  0.57825  0.22919  1.0000
  C   C25       1.0  0.42584  0.03421  0.21761  1.0000
  C   C26       1.0  0.57700  0.96432  0.22700  1.0000
  C   C27       1.0  0.96561  0.42332  0.22253  1.0000
  C   C28       1.0  0.03647  0.57467  0.22785  1.0000
  C   C29       1.0  0.38842  0.98728  0.15199  1.0000
  C   C30       1.0  0.61481  0.01153  0.17747  1.0000
  C   C31       1.0  0.01264  0.38525  0.17056  1.0000
  C   C32       1.0  0.98904  0.61236  0.17627  1.0000
  C   C33       1.0  0.39049  0.02452  0.15948  1.0000
  C   C34       1.0  0.61285  0.97426  0.18050  1.0000
  C   C35       1.0  0.97549  0.38745  0.17124  1.0000
  C   C36       1.0  0.02620  0.61019  0.17550  1.0000
  C   C37       1.0  0.43909  0.06935  0.25337  1.0000
  C   C38       1.0  0.56351  0.92907  0.25452  1.0000
  C   C39       1.0  0.93049  0.43701  0.25129  1.0000
  C   C40       1.0  0.07182  0.56123  0.25569  1.0000
  C   C41       1.0  0.68890  0.20283  0.18625  1.0000
  C   C42       1.0  0.31116  0.79685  0.17525  1.0000
  C   C43       1.0  0.79664  0.68548  0.19359  1.0000
  C   C44       1.0  0.20345  0.30964  0.16729  1.0000
  C   C45       1.0  0.68512  0.16916  0.25416  1.0000
  C   C46       1.0  0.31569  0.83134  0.23724  1.0000
  C   C47       1.0  0.83140  0.68258  0.25293  1.0000
  C   C48       1.0  0.16940  0.31343  0.23089  1.0000
  C   C49       1.0  0.81240  0.29663  0.30784  1.0000
  C   C50       1.0  0.18900  0.70365  0.31552  1.0000
  C   C51       1.0  0.70274  0.80854  0.32718  1.0000
  C   C52       1.0  0.29735  0.18694  0.30252  1.0000
  C   C53       1.0  0.81580  0.33073  0.24346  1.0000
  C   C54       1.0  0.18511  0.66913  0.25269  1.0000
  C   C55       1.0  0.66886  0.81305  0.25951  1.0000
  C   C56       1.0  0.33199  0.18358  0.24506  1.0000
  C   C57       1.0  0.66156  0.21831  0.08466  1.0000
  C   C58       1.0  0.33752  0.78047  0.07244  1.0000
  C   C59       1.0  0.78068  0.65758  0.09527  1.0000
  C   C60       1.0  0.21919  0.33712  0.06983  1.0000
  C   C61       1.0  0.83937  0.28124  0.41171  1.0000
  C   C62       1.0  0.16220  0.71934  0.41799  1.0000
  C   C63       1.0  0.71823  0.83508  0.43422  1.0000
  C   C64       1.0  0.28167  0.15965  0.40143  1.0000
  C   C65       1.0  0.47476  0.88900  0.81838  1.0000
  C   C66       1.0  0.52303  0.11267  0.84355  1.0000
  C   C67       1.0  0.11074  0.47615  0.83098  1.0000
  C   C68       1.0  0.88765  0.52685  0.83244  1.0000
  C   C69       1.0  0.51151  0.88740  0.82682  1.0000
  C   C70       1.0  0.48625  0.11434  0.84316  1.0000
  C   C71       1.0  0.11301  0.51299  0.83182  1.0000
  C   C72       1.0  0.88546  0.48999  0.83446  1.0000
  C   C73       1.0  0.52460  0.92281  0.77677  1.0000
  C   C74       1.0  0.47344  0.07914  0.78460  1.0000
  C   C75       1.0  0.07768  0.52637  0.77910  1.0000
  C   C76       1.0  0.92040  0.47643  0.78012  1.0000
  C   C77       1.0  0.46562  0.92549  0.76441  1.0000
  C   C78       1.0  0.53249  0.07640  0.78572  1.0000
  C   C79       1.0  0.07401  0.46724  0.77801  1.0000
  C   C80       1.0  0.92403  0.53559  0.77808  1.0000
  C   C81       1.0  0.42980  0.93754  0.73339  1.0000
  C   C82       1.0  0.56840  0.06461  0.75650  1.0000
  C   C83       1.0  0.06145  0.43143  0.74955  1.0000
  C   C84       1.0  0.93641  0.57142  0.75138  1.0000
  C   C85       1.0  0.42024  0.97421  0.70905  1.0000
  C   C86       1.0  0.57806  0.02802  0.72795  1.0000
  C   C87       1.0  0.02481  0.42236  0.72116  1.0000
  C   C88       1.0  0.97294  0.58065  0.72461  1.0000
  C   C89       1.0  0.42328  0.03574  0.71912  1.0000
  C   C90       1.0  0.57489  0.96658  0.73012  1.0000
  C   C91       1.0  0.96353  0.42580  0.72347  1.0000
  C   C92       1.0  0.03428  0.57698  0.72467  1.0000
  C   C93       1.0  0.38586  0.98836  0.65880  1.0000
  C   C94       1.0  0.61224  0.01387  0.67689  1.0000
  C   C95       1.0  0.01065  0.38817  0.66688  1.0000
  C   C96       1.0  0.98697  0.61500  0.67580  1.0000
  C   C97       1.0  0.38766  0.02564  0.66528  1.0000
  C   C98       1.0  0.61042  0.97659  0.67939  1.0000
  C   C99       1.0  0.97349  0.39017  0.66916  1.0000
  C   C100      1.0  0.02414  0.61279  0.67558  1.0000
  C   C101      1.0  0.43656  0.07100  0.75318  1.0000
  C   C102      1.0  0.56161  0.93124  0.75681  1.0000
  C   C103      1.0  0.92835  0.43927  0.75297  1.0000
  C   C104      1.0  0.06957  0.56343  0.75288  1.0000
  C   C105      1.0  0.68770  0.20394  0.67912  1.0000
  C   C106      1.0  0.31159  0.79622  0.67866  1.0000
  C   C107      1.0  0.79638  0.69123  0.71007  1.0000
  C   C108      1.0  0.19932  0.31051  0.67624  1.0000
  C   C109      1.0  0.68369  0.17016  0.74593  1.0000
  C   C110      1.0  0.31604  0.83033  0.74449  1.0000
  C   C111      1.0  0.83055  0.68687  0.77451  1.0000
  C   C112      1.0  0.16580  0.31456  0.74477  1.0000
  C   C113      1.0  0.81142  0.29734  0.80601  1.0000
  C   C114      1.0  0.18918  0.70329  0.81579  1.0000
  C   C115      1.0  0.70365  0.81510  0.84044  1.0000
  C   C116      1.0  0.29488  0.18848  0.79829  1.0000
  C   C117      1.0  0.81502  0.33151  0.74266  1.0000
  C   C118      1.0  0.18510  0.66891  0.75198  1.0000
  C   C119      1.0  0.67011  0.81870  0.76864  1.0000
  C   C120      1.0  0.32917  0.18520  0.73646  1.0000
  C   C121      1.0  0.66029  0.21955  0.57830  1.0000
  C   C122      1.0  0.33758  0.78053  0.57223  1.0000
  C   C123      1.0  0.78038  0.66477  0.60412  1.0000
  C   C124      1.0  0.21439  0.33758  0.57449  1.0000
  C   C125      1.0  0.83864  0.28208  0.90897  1.0000
  C   C126      1.0  0.16259  0.71952  0.91773  1.0000
  C   C127      1.0  0.71850  0.84229  0.94592  1.0000
  C   C128      1.0  0.27979  0.16164  0.90108  1.0000
  N   N1        1.0  0.49818  0.94410  0.24249  1.0000
  N   N2        1.0  0.50434  0.05416  0.25473  1.0000
  N   N3        1.0  0.05623  0.49588  0.25256  1.0000
  N   N4        1.0  0.94627  0.50218  0.25607  1.0000
  N   N5        1.0  0.44444  0.00217  0.23945  1.0000
  N   N6        1.0  0.55813  0.99630  0.24729  1.0000
  N   N7        1.0  0.99754  0.44201  0.24720  1.0000
  N   N8        1.0  0.00478  0.55608  0.25454  1.0000
  N   N9        1.0  0.64051  0.23202  0.99688  1.0000
  N   N10       1.0  0.35793  0.76609  0.98449  1.0000
  N   N11       1.0  0.76685  0.63578  0.01051  1.0000
  N   N12       1.0  0.23307  0.35866  0.98715  1.0000
  N   N13       1.0  0.86007  0.26750  0.50114  1.0000
  N   N14       1.0  0.14109  0.73282  0.50540  1.0000
  N   N15       1.0  0.73193  0.85560  0.52576  1.0000
  N   N16       1.0  0.26822  0.13830  0.48657  1.0000
  N   N17       1.0  0.49626  0.94595  0.74543  1.0000
  N   N18       1.0  0.50195  0.05603  0.75727  1.0000
  N   N19       1.0  0.05404  0.49815  0.75308  1.0000
  N   N20       1.0  0.94384  0.50457  0.75277  1.0000
  N   N21       1.0  0.44225  0.00380  0.73914  1.0000
  N   N22       1.0  0.55609  0.99847  0.75368  1.0000
  N   N23       1.0  0.99538  0.44455  0.74869  1.0000
  N   N24       1.0  0.00247  0.55829  0.74808  1.0000
  N   N25       1.0  0.63891  0.23319  0.49193  1.0000
  N   N26       1.0  0.35780  0.76671  0.48168  1.0000
  N   N27       1.0  0.76639  0.64423  0.51359  1.0000
  N   N28       1.0  0.22766  0.35868  0.48754  1.0000
  N   N29       1.0  0.85992  0.26878  0.99689  1.0000
  N   N30       1.0  0.14201  0.73398  0.00448  1.0000
  N   N31       1.0  0.73154  0.86369  0.03525  1.0000
  N   N32       1.0  0.26658  0.14087  0.98978  1.0000
  C   C129      1.0  0.64311  0.08655  0.34117  1.0000
  C   C130      1.0  0.60765  0.08825  0.28075  1.0000
  C  Sn1       1.0  0.59609  0.11823  0.19103  1.0000
  C  Sn2       1.0  0.62054  0.14700  0.16141  1.0000
  C   C131      1.0  0.65596  0.14503  0.22228  1.0000
  C   C132      1.0  0.66724  0.11491  0.31195  1.0000
  H   H57       1.0  0.65185  0.06324  0.41048  1.0000
  O  Te1       1.0  0.56057  0.11949  0.13160  1.0000
  O  Te2       1.0  0.60970  0.17727  0.07205  1.0000
  H   H58       1.0  0.69470  0.11360  0.35863  1.0000
  Mg  Mg1       1.0  0.55855  0.16647  0.01655  1.0000
  C   C133      1.0  0.38719  0.85313  0.12818  1.0000
  C   C134      1.0  0.35457  0.85322  0.21281  1.0000
  C  Sn3       1.0  0.34428  0.88365  0.30415  1.0000
  C  Sn4       1.0  0.36712  0.91454  0.31063  1.0000
  C   C135      1.0  0.39969  0.91419  0.22544  1.0000
  C   C136      1.0  0.40974  0.88359  0.13445  1.0000
  H   H59       1.0  0.39496  0.82946  0.05771  1.0000
  O  Te3       1.0  0.31160  0.88328  0.38802  1.0000
  O  Te4       1.0  0.35749  0.94533  0.40094  1.0000
  H   H60       1.0  0.43499  0.88354  0.06886  1.0000
  Mg  Mg2       1.0  0.31028  0.93174  0.49439  1.0000
  C   C137      1.0  0.86925  0.59591  0.15723  1.0000
  C   C138      1.0  0.90422  0.59720  0.22359  1.0000
  C  Sn5       1.0  0.91576  0.62765  0.31258  1.0000
  C  Sn6       1.0  0.89179  0.65731  0.33539  1.0000
  C   C139      1.0  0.85686  0.65575  0.26860  1.0000
  C   C140      1.0  0.84559  0.62515  0.17972  1.0000
  H   H61       1.0  0.86053  0.57223  0.08853  1.0000
  O  Te5       1.0  0.95079  0.62850  0.37799  1.0000
  O  Te6       1.0  0.90262  0.68808  0.42385  1.0000
  H   H62       1.0  0.81851  0.62415  0.12845  1.0000
  Mg  Mg3       1.0  0.95301  0.67642  0.48913  1.0000
  C   C141      1.0  0.08778  0.35623  0.32881  1.0000
  C   C142      1.0  0.08919  0.39167  0.27025  1.0000
  C  Sn7       1.0  0.11864  0.40302  0.17828  1.0000
  C  Sn8       1.0  0.14715  0.37836  0.14447  1.0000
  C   C143      1.0  0.14547  0.34295  0.20351  1.0000
  C   C144      1.0  0.11589  0.33189  0.29546  1.0000
  H   H63       1.0  0.06488  0.34767  0.39988  1.0000
  O  Te7       1.0  0.11962  0.43853  0.12077  1.0000
  O  Te8       1.0  0.17689  0.38898  0.05281  1.0000
  H   H64       1.0  0.11479  0.30444  0.34069  1.0000
  Mg  Mg4       1.0  0.16588  0.44021  0.00128  1.0000
  C   C145      1.0  0.73941  0.28459  0.18592  1.0000
  C   C146      1.0  0.77246  0.27760  0.26391  1.0000
  C  Sn9       1.0  0.78119  0.24245  0.31304  1.0000
  C  Sn10      1.0  0.75630  0.21381  0.28333  1.0000
  C   C147      1.0  0.72332  0.22107  0.20512  1.0000
  C   C148      1.0  0.71486  0.25635  0.15651  1.0000
  H   H65       1.0  0.73287  0.31188  0.14823  1.0000
  O  Te9       1.0  0.81432  0.23595  0.39086  1.0000
  O  Te10      1.0  0.76434  0.17842  0.33110  1.0000
  H   H66       1.0  0.68927  0.26174  0.09604  1.0000
  Mg  Mg5       1.0  0.81294  0.18316  0.43303  1.0000
  C   C149      1.0  0.25526  0.71890  0.14300  1.0000
  C   C150      1.0  0.22774  0.72273  0.25757  1.0000
  C  Sn11      1.0  0.22501  0.75446  0.35129  1.0000
  C  Sn12      1.0  0.25033  0.78285  0.32958  1.0000
  C   C151      1.0  0.27775  0.77877  0.21455  1.0000
  C   C152      1.0  0.28024  0.74689  0.12147  1.0000
  H   H67       1.0  0.25718  0.69424  0.07090  1.0000
  O  Te11      1.0  0.19735  0.75784  0.46526  1.0000
  O  Te12      1.0  0.24822  0.81487  0.42157  1.0000
  H   H68       1.0  0.30153  0.74395  0.03269  1.0000
  Mg  Mg6       1.0  0.20572  0.80664  0.56155  1.0000
  C   C153      1.0  0.72973  0.72402  0.14695  1.0000
  C   C154      1.0  0.76503  0.71774  0.20257  1.0000
  C  Sn13      1.0  0.78123  0.74146  0.31551  1.0000
  C  Sn14      1.0  0.76165  0.77200  0.37364  1.0000
  C   C155      1.0  0.72633  0.77803  0.31732  1.0000
  C   C156      1.0  0.71039  0.75412  0.20427  1.0000
  H   H69       1.0  0.71738  0.70552  0.05954  1.0000
  O  Te13      1.0  0.81653  0.73480  0.36976  1.0000
  O  Te14      1.0  0.77718  0.79614  0.48658  1.0000
  H   H70       1.0  0.68304  0.75898  0.16130  1.0000
  Mg  Mg7       1.0  0.82600  0.77549  0.52401  1.0000
  C   C157      1.0  0.21820  0.24123  0.32714  1.0000
  C   C158      1.0  0.22393  0.27210  0.23322  1.0000
  C  Sn15      1.0  0.25548  0.27547  0.14220  1.0000
  C  Sn16      1.0  0.28172  0.24736  0.14547  1.0000
  C   C159      1.0  0.27572  0.21657  0.23972  1.0000
  C   C160      1.0  0.24407  0.21349  0.33039  1.0000
  H   H71       1.0  0.19370  0.23883  0.39722  1.0000
  O  Te15      1.0  0.26078  0.30650  0.04907  1.0000
  O  Te16      1.0  0.31348  0.25002  0.05560  1.0000
  H   H72       1.0  0.23963  0.18957  0.40301  1.0000
  Mg  Mg8       1.0  0.31078  0.29975  0.94744  1.0000
  C   C161      1.0  0.85856  0.41301  0.15476  1.0000
  C   C162      1.0  0.89167  0.41364  0.23869  1.0000
  C  Sn17      1.0  0.90248  0.38401  0.33252  1.0000
  C  Sn18      1.0  0.87966  0.35321  0.34223  1.0000
  C   C163      1.0  0.84660  0.35283  0.25771  1.0000
  C   C164      1.0  0.83604  0.38263  0.16422  1.0000
  H   H73       1.0  0.85040  0.43605  0.08235  1.0000
  O  Te17      1.0  0.93564  0.38510  0.41565  1.0000
  O  Te18      1.0  0.88981  0.32322  0.43506  1.0000
  H   H74       1.0  0.81042  0.38212  0.09916  1.0000
  Mg  Mg9       1.0  0.93756  0.33759  0.52629  1.0000
  C   C165      1.0  0.09993  0.63072  0.35834  1.0000
  C   C166      1.0  0.09891  0.59739  0.27567  1.0000
  C  Sn19      1.0  0.12867  0.58566  0.18558  1.0000
  C  Sn20      1.0  0.16000  0.60776  0.17838  1.0000
  C   C167      1.0  0.16075  0.64105  0.26161  1.0000
  C   C168      1.0  0.13082  0.65253  0.35136  1.0000
  H   H75       1.0  0.07677  0.63960  0.42786  1.0000
  O  Te19      1.0  0.12720  0.55229  0.10366  1.0000
  O  Te20      1.0  0.19013  0.59668  0.08929  1.0000
  H   H76       1.0  0.13162  0.67833  0.41544  1.0000
  Mg  Mg10      1.0  0.17749  0.55118  0.99838  1.0000
  C   C169      1.0  0.63187  0.89965  0.36558  1.0000
  C   C170      1.0  0.59917  0.90140  0.27883  1.0000
  C  Sn21      1.0  0.58729  0.87171  0.18555  1.0000
  C  Sn22      1.0  0.60860  0.83971  0.17930  1.0000
  C   C171      1.0  0.64127  0.83821  0.26663  1.0000
  C   C172      1.0  0.65290  0.86808  0.35953  1.0000
  H   H77       1.0  0.64087  0.92275  0.43754  1.0000
  O  Te21      1.0  0.55455  0.87393  0.09957  1.0000
  O  Te22      1.0  0.59736  0.80963  0.08709  1.0000
  H   H78       1.0  0.67822  0.86670  0.42678  1.0000
  Mg  Mg11      1.0  0.55314  0.82798  0.99112  1.0000
  C   C173      1.0  0.35514  0.11172  0.34865  1.0000
  C   C174      1.0  0.35638  0.14667  0.28439  1.0000
  C  Sn23      1.0  0.38634  0.15783  0.19539  1.0000
  C  Sn24      1.0  0.41557  0.13348  0.17042  1.0000
  C   C175      1.0  0.41406  0.09857  0.23511  1.0000
  C   C176      1.0  0.38395  0.08769  0.32402  1.0000
  H   H79       1.0  0.33184  0.10329  0.41737  1.0000
  O  Te23      1.0  0.38714  0.19284  0.13210  1.0000
  O  Te24      1.0  0.44584  0.14393  0.08189  1.0000
  H   H80       1.0  0.38300  0.06062  0.37367  1.0000
  Mg  Mg12      1.0  0.43431  0.19446  0.01997  1.0000
  C   C177      1.0  0.65516  0.10314  0.84309  1.0000
  C   C178      1.0  0.65648  0.13535  0.75483  1.0000
  C  Sn25      1.0  0.62613  0.14720  0.66721  1.0000
  C  Sn26      1.0  0.59389  0.12636  0.66825  1.0000
  C   C179      1.0  0.59284  0.09419  0.75703  1.0000
  C   C180      1.0  0.62337  0.08257  0.84424  1.0000
  H   H81       1.0  0.67877  0.09416  0.91064  1.0000
  O  Te25      1.0  0.62791  0.17944  0.57963  1.0000
  O  Te26      1.0  0.56316  0.13758  0.58180  1.0000
  H   H82       1.0  0.62233  0.05764  0.91265  1.0000
  Mg  Mg13      1.0  0.57894  0.18343  0.48088  1.0000
  C   C181      1.0  0.35845  0.91344  0.82604  1.0000
  C   C182      1.0  0.39289  0.91209  0.75760  1.0000
  C  Sn27      1.0  0.40333  0.88217  0.66320  1.0000
  C  Sn28      1.0  0.37876  0.85310  0.63701  1.0000
  C   C183      1.0  0.34435  0.85472  0.70592  1.0000
  C   C184      1.0  0.33419  0.88478  0.80022  1.0000
  H   H83       1.0  0.35057  0.93671  0.89893  1.0000
  O  Te27      1.0  0.43785  0.88126  0.59577  1.0000
  O  Te28      1.0  0.38849  0.82287  0.54313  1.0000
  H   H84       1.0  0.30751  0.88583  0.85311  1.0000
  Mg  Mg14      1.0  0.43855  0.83421  0.47698  1.0000
  C   C185      1.0  0.89858  0.65748  0.85816  1.0000
  C   C186      1.0  0.86590  0.66007  0.77172  1.0000
  C  Sn29      1.0  0.85387  0.63117  0.67387  1.0000
  C  Sn30      1.0  0.87501  0.59911  0.66262  1.0000
  C   C187      1.0  0.90766  0.59678  0.74967  1.0000
  C   C188      1.0  0.91945  0.62587  0.84719  1.0000
  H   H85       1.0  0.90770  0.67998  0.93369  1.0000
  O  Te29      1.0  0.82115  0.63421  0.58827  1.0000
  O  Te30      1.0  0.86362  0.56981  0.56576  1.0000
  H   H86       1.0  0.94475  0.62385  0.91418  1.0000
  Mg  Mg15      1.0  0.81710  0.58696  0.47237  1.0000
  C   C189      1.0  0.08434  0.35881  0.83644  1.0000
  C   C190      1.0  0.08633  0.39385  0.77366  1.0000
  C  Sn31      1.0  0.11593  0.40414  0.68023  1.0000
  C  Sn32      1.0  0.14402  0.37881  0.64922  1.0000
  C   C191      1.0  0.14177  0.34381  0.71247  1.0000
  C   C192      1.0  0.11203  0.33380  0.80586  1.0000
  H   H87       1.0  0.06132  0.35105  0.90862  1.0000
  O  Te31      1.0  0.11749  0.43926  0.61849  1.0000
  O  Te32      1.0  0.17391  0.38837  0.55617  1.0000
  H   H88       1.0  0.11049  0.30666  0.85436  1.0000
  Mg  Mg16      1.0  0.16374  0.43945  0.49860  1.0000
  C   C193      1.0  0.75690  0.21847  0.83719  1.0000
  C   C194      1.0  0.72576  0.22413  0.74257  1.0000
  C  Sn33      1.0  0.72211  0.25555  0.64974  1.0000
  C  Sn34      1.0  0.75021  0.28173  0.65190  1.0000
  C   C195      1.0  0.78127  0.27579  0.74687  1.0000
  C   C196      1.0  0.78464  0.24427  0.83934  1.0000
  H   H89       1.0  0.75952  0.19407  0.90866  1.0000
  O  Te33      1.0  0.69080  0.26078  0.55593  1.0000
  O  Te34      1.0  0.74727  0.31336  0.56024  1.0000
  H   H90       1.0  0.80877  0.23988  0.91250  1.0000
  Mg  Mg17      1.0  0.69940  0.30822  0.45176  1.0000
  C   C197      1.0  0.23877  0.78558  0.79794  1.0000
  C   C198      1.0  0.27330  0.77708  0.74116  1.0000
  C  Sn35      1.0  0.28190  0.74144  0.69673  1.0000
  C  Sn36      1.0  0.25537  0.71386  0.70948  1.0000
  C   C199      1.0  0.22090  0.72265  0.76632  1.0000
  C   C200      1.0  0.21259  0.75840  0.81049  1.0000
  H   H91       1.0  0.23233  0.81325  0.83204  1.0000
  O  Te35      1.0  0.31653  0.73341  0.64029  1.0000
  O  Te36      1.0  0.26323  0.67802  0.66584  1.0000
  H   H92       1.0  0.18584  0.76498  0.85435  1.0000
  Mg  Mg18      1.0  0.31425  0.68055  0.59572  1.0000
  C   C201      1.0  0.78575  0.76473  0.83127  1.0000
  C   C202      1.0  0.77726  0.73004  0.77236  1.0000
  C  Sn37      1.0  0.74188  0.72171  0.72350  1.0000
  C  Sn38      1.0  0.71456  0.74868  0.73389  1.0000
  C   C203      1.0  0.72334  0.78331  0.79289  1.0000
  C   C204      1.0  0.75882  0.79135  0.84151  1.0000
  H   H93       1.0  0.81321  0.77096  0.86881  1.0000
  O  Te37      1.0  0.73386  0.68691  0.66499  1.0000
  O  Te38      1.0  0.67899  0.74109  0.68582  1.0000
  H   H94       1.0  0.76539  0.81822  0.88701  1.0000
  Mg  Mg19      1.0  0.68143  0.68969  0.61433  1.0000
  C   C205      1.0  0.22423  0.22106  0.80085  1.0000
  C   C206      1.0  0.26101  0.21765  0.76609  1.0000
  C  Sn39      1.0  0.28004  0.24690  0.70232  1.0000
  C  Sn40      1.0  0.26185  0.28015  0.67297  1.0000
  C   C207      1.0  0.22505  0.28329  0.70826  1.0000
  C   C208      1.0  0.20626  0.25385  0.77200  1.0000
  H   H95       1.0  0.20969  0.19828  0.85024  1.0000
  O  Te39      1.0  0.31678  0.24302  0.66824  1.0000
  O  Te40      1.0  0.28022  0.30982  0.60937  1.0000
  H   H96       1.0  0.17779  0.25650  0.79899  1.0000
  Mg  Mg20      1.0  0.33010  0.29121  0.58274  1.0000
  C   C209      1.0  0.90047  0.37010  0.85288  1.0000
  C   C210      1.0  0.90132  0.40320  0.77135  1.0000
  C  Sn41      1.0  0.87131  0.41475  0.68050  1.0000
  C  Sn42      1.0  0.83992  0.39270  0.67136  1.0000
  C   C211      1.0  0.83934  0.35963  0.75346  1.0000
  C   C212      1.0  0.86951  0.34833  0.84398  1.0000
  H   H97       1.0  0.92381  0.36136  0.92300  1.0000
  O  Te41      1.0  0.87262  0.44790  0.59974  1.0000
  O  Te42      1.0  0.80955  0.40359  0.58147  1.0000
  H   H98       1.0  0.86884  0.32271  0.90718  1.0000
  Mg  Mg21      1.0  0.82442  0.45099  0.49272  1.0000
  C   C213      1.0  0.09982  0.63165  0.86257  1.0000
  C   C214      1.0  0.09720  0.59925  0.77326  1.0000
  C  Sn43      1.0  0.12613  0.58731  0.67838  1.0000
  C  Sn44      1.0  0.15827  0.60825  0.67311  1.0000
  C   C215      1.0  0.16064  0.64061  0.76300  1.0000
  C   C216      1.0  0.13152  0.65231  0.85749  1.0000
  H   H99       1.0  0.07730  0.64070  0.93576  1.0000
  O  Te43      1.0  0.12305  0.55488  0.58985  1.0000
  O  Te44      1.0  0.18761  0.59694  0.57934  1.0000
  H   H100      1.0  0.13357  0.67739  0.92671  1.0000
  Mg  Mg22      1.0  0.17038  0.55083  0.48003  1.0000
  C   C217      1.0  0.60169  0.84502  0.67211  1.0000
  C   C218      1.0  0.63583  0.84599  0.74693  1.0000
  C  Sn45      1.0  0.64623  0.87595  0.84208  1.0000
  C  Sn46      1.0  0.62194  0.90543  0.86252  1.0000
  C   C219      1.0  0.58783  0.90418  0.78724  1.0000
  C   C220      1.0  0.57770  0.87408  0.69225  1.0000
  H   H101      1.0  0.59385  0.82173  0.59868  1.0000
  O  Te45      1.0  0.68045  0.87648  0.91593  1.0000
  O  Te46      1.0  0.63163  0.93569  0.95701  1.0000
  H   H102      1.0  0.55126  0.87333  0.63441  1.0000
  Mg  Mg23      1.0  0.67883  0.92158  0.03297  1.0000
  C   C221      1.0  0.39887  0.15805  0.66412  1.0000
  C   C222      1.0  0.36386  0.15778  0.72677  1.0000
  C  Sn47      1.0  0.35182  0.12819  0.81649  1.0000
  C  Sn48      1.0  0.37534  0.09836  0.84384  1.0000
  C   C223      1.0  0.41032  0.09890  0.78074  1.0000
  C   C224      1.0  0.42208  0.12865  0.69109  1.0000
  H   H103      1.0  0.40798  0.18107  0.59483  1.0000
  O  Te47      1.0  0.31676  0.12836  0.87816  1.0000
  O  Te48      1.0  0.36400  0.06845  0.93313  1.0000
  H   H104      1.0  0.44920  0.12886  0.64269  1.0000
  Mg  Mg24      1.0  0.31377  0.08134  0.99218  1.0000
