data_image0
_chemical_formula_structural       H104C200N32SnCSn2CSnTe4Mg2SnCSn2CSnTe4Mg2SnCSn2CSnTe4Mg2SnCSn2CSnTe4Mg2SnCSn2CSnTe4Mg2SnCSn2CSnTe4Mg2SnCSn2CSnTe4Mg2SnCSn2CSnTe4Mg2SnCSn2CSnTe4Mg2SnCSn2CSnTe4Mg2SnCSn2CSnTe4Mg2SnCSn2CSnTe4Mg2
_chemical_formula_sum              "H104 C224 N32 Sn48 Te48 Mg24"
_cell_length_a       36.9687
_cell_length_b       36.8678
_cell_length_c       8.18876
_cell_angle_alpha    90.5613
_cell_angle_beta     90.6202
_cell_angle_gamma    89.9242

_symmetry_space_group_name_H-M    'P1'
_space_group_IT_number       1

loop_
  _space_group_symop_operation_xyz
  'x, y, z'

loop_
  _atom_site_type_symbol
  _atom_site_label
  _atom_site_symmetry_multiplicity
  _atom_site_fract_x
  _atom_site_fract_y
  _atom_site_fract_z
  _atom_site_occupancy
  H   H1        1.0  0.45714  0.86666  0.35075  1.0000
  H   H2        1.0  0.54469  0.13189  0.37459  1.0000
  H   H3        1.0  0.13356  0.45456  0.36592  1.0000
  H   H4        1.0  0.86994  0.54348  0.37984  1.0000
  H   H5        1.0  0.52939  0.86315  0.36806  1.0000
  H   H6        1.0  0.47231  0.13506  0.38055  1.0000
  H   H7        1.0  0.13786  0.52695  0.37408  1.0000
  H   H8        1.0  0.86520  0.47091  0.37264  1.0000
  H   H9        1.0  0.47136  0.00031  0.26744  1.0000
  H   H10       1.0  0.53095  0.99809  0.26710  1.0000
  H   H11       1.0  0.99902  0.46916  0.27224  1.0000
  H   H12       1.0  0.00333  0.52899  0.27850  1.0000
  H   H13       1.0  0.36552  0.97122  0.11182  1.0000
  H   H14       1.0  0.63803  0.02774  0.14582  1.0000
  H   H15       1.0  0.02870  0.36182  0.13762  1.0000
  H   H16       1.0  0.97254  0.63540  0.14281  1.0000
  H   H17       1.0  0.36945  0.04369  0.12808  1.0000
  H   H18       1.0  0.63437  0.95526  0.15432  1.0000
  H   H19       1.0  0.95661  0.36607  0.13970  1.0000
  H   H20       1.0  0.04491  0.63125  0.14168  1.0000
  H   H21       1.0  0.57008  0.12731  0.10314  1.0000
  H   H22       1.0  0.43044  0.87046  0.08014  1.0000
  H   H23       1.0  0.12736  0.42878  0.09106  1.0000
  H   H24       1.0  0.61701  0.17395  0.10040  1.0000
  H   H25       1.0  0.38266  0.82469  0.07959  1.0000
  H   H26       1.0  0.17380  0.38162  0.08151  1.0000
  H   H27       1.0  0.68577  0.10542  0.39520  1.0000
  H   H28       1.0  0.31673  0.89619  0.37308  1.0000
  H   H29       1.0  0.10680  0.31352  0.37906  1.0000
  H   H30       1.0  0.63750  0.05943  0.40193  1.0000
  H   H31       1.0  0.36564  0.94146  0.37561  1.0000
  H   H32       1.0  0.06113  0.36196  0.39299  1.0000
  H   H33       1.0  0.69460  0.27413  0.12286  1.0000
  H   H34       1.0  0.29611  0.73063  0.04712  1.0000
  H   H35       1.0  0.73022  0.69878  0.06589  1.0000
  H   H36       1.0  0.74562  0.31456  0.17505  1.0000
  H   H37       1.0  0.24570  0.69100  0.10369  1.0000
  H   H38       1.0  0.69021  0.74968  0.11835  1.0000
  H   H39       1.0  0.80734  0.22484  0.36540  1.0000
  H   H40       1.0  0.20378  0.77027  0.44441  1.0000
  H   H41       1.0  0.76856  0.79440  0.45904  1.0000
  H   H42       1.0  0.75633  0.18436  0.31332  1.0000
  H   H43       1.0  0.25434  0.80998  0.38754  1.0000
  H   H44       1.0  0.80855  0.74353  0.40635  1.0000
  H   H45       1.0  0.88251  0.32661  0.40739  1.0000
  H   H46       1.0  0.32781  0.11656  0.40526  1.0000
  H   H47       1.0  0.92956  0.37310  0.40743  1.0000
  H   H48       1.0  0.37454  0.06973  0.40509  1.0000
  H   H49       1.0  0.86379  0.44090  0.10096  1.0000
  H   H50       1.0  0.44260  0.13588  0.10904  1.0000
  H   H51       1.0  0.81527  0.39507  0.10531  1.0000
  H   H52       1.0  0.39613  0.18390  0.11017  1.0000
  H   H53       1.0  0.70776  0.16046  0.33078  1.0000
  H   H54       1.0  0.29355  0.84151  0.31176  1.0000
  H   H55       1.0  0.84102  0.70600  0.32290  1.0000
  H   H56       1.0  0.16000  0.29043  0.30132  1.0000
  H   H57       1.0  0.79348  0.33933  0.16474  1.0000
  H   H58       1.0  0.20756  0.65960  0.17846  1.0000
  H   H59       1.0  0.65954  0.79078  0.18147  1.0000
  H   H60       1.0  0.34159  0.20644  0.17418  1.0000
  H   H61       1.0  0.45572  0.86781  0.84707  1.0000
  H   H62       1.0  0.54181  0.13376  0.88040  1.0000
  H   H63       1.0  0.13179  0.45704  0.86334  1.0000
  H   H64       1.0  0.86691  0.54621  0.86545  1.0000
  H   H65       1.0  0.52807  0.86471  0.86484  1.0000
  H   H66       1.0  0.46946  0.13701  0.87939  1.0000
  H   H67       1.0  0.13621  0.52941  0.86527  1.0000
  H   H68       1.0  0.86256  0.47373  0.87003  1.0000
  H   H69       1.0  0.46931  0.00222  0.76460  1.0000
  H   H70       1.0  0.52905  0.00021  0.77665  1.0000
  H   H71       1.0  0.99678  0.47160  0.77570  1.0000
  H   H72       1.0  0.00105  0.53118  0.77147  1.0000
  H   H73       1.0  0.36277  0.97209  0.62236  1.0000
  H   H74       1.0  0.63511  0.03022  0.64241  1.0000
  H   H75       1.0  0.02689  0.36514  0.63019  1.0000
  H   H76       1.0  0.97058  0.63834  0.64541  1.0000
  H   H77       1.0  0.36618  0.04449  0.63574  1.0000
  H   H78       1.0  0.63172  0.95764  0.64888  1.0000
  H   H79       1.0  0.95461  0.36889  0.63646  1.0000
  H   H80       1.0  0.04295  0.63404  0.64478  1.0000
  H   H81       1.0  0.56716  0.12986  0.60982  1.0000
  H   H82       1.0  0.87151  0.57344  0.59468  1.0000
  H   H83       1.0  0.12525  0.42953  0.59210  1.0000
  H   H84       1.0  0.61458  0.17603  0.60138  1.0000
  H   H85       1.0  0.82527  0.62073  0.60238  1.0000
  H   H86       1.0  0.17042  0.38130  0.58472  1.0000
  H   H87       1.0  0.68422  0.10667  0.88811  1.0000
  H   H88       1.0  0.89507  0.68572  0.91329  1.0000
  H   H89       1.0  0.10248  0.31600  0.89070  1.0000
  H   H90       1.0  0.63553  0.06133  0.90143  1.0000
  H   H91       1.0  0.94090  0.63719  0.90749  1.0000
  H   H92       1.0  0.05761  0.36543  0.89877  1.0000
  H   H93       1.0  0.70222  0.26906  0.54393  1.0000
  H   H94       1.0  0.75348  0.30878  0.59483  1.0000
  H   H95       1.0  0.79759  0.23158  0.93672  1.0000
  H   H96       1.0  0.74656  0.19170  0.88451  1.0000
  H   H97       1.0  0.70660  0.16076  0.81902  1.0000
  H   H98       1.0  0.29478  0.83899  0.82744  1.0000
  H   H99       1.0  0.83982  0.70867  0.85550  1.0000
  H   H100      1.0  0.15728  0.29241  0.82275  1.0000
  H   H101      1.0  0.79242  0.34071  0.66711  1.0000
  H   H102      1.0  0.20699  0.65976  0.67352  1.0000
  H   H103      1.0  0.66228  0.79654  0.68667  1.0000
  H   H104      1.0  0.33769  0.20731  0.65829  1.0000
  C   C1        1.0  0.47627  0.88766  0.32017  1.0000
  C   C2        1.0  0.52577  0.11076  0.34003  1.0000
  C   C3        1.0  0.11263  0.47376  0.33306  1.0000
  C   C4        1.0  0.89043  0.52428  0.34195  1.0000
  C   C5        1.0  0.51303  0.88585  0.32850  1.0000
  C   C6        1.0  0.48900  0.11245  0.34257  1.0000
  C   C7        1.0  0.11487  0.51063  0.33644  1.0000
  C   C8        1.0  0.88799  0.48745  0.33852  1.0000
  C   C9        1.0  0.52639  0.92093  0.27534  1.0000
  C   C10       1.0  0.47597  0.07736  0.28421  1.0000
  C   C11       1.0  0.07979  0.52410  0.28146  1.0000
  C   C12       1.0  0.92274  0.47406  0.28114  1.0000
  C   C13       1.0  0.46736  0.92395  0.26309  1.0000
  C   C14       1.0  0.53498  0.07443  0.28169  1.0000
  C   C15       1.0  0.07609  0.46488  0.27713  1.0000
  C   C16       1.0  0.92664  0.53312  0.28563  1.0000
  C   C17       1.0  0.43162  0.93614  0.23084  1.0000
  C   C18       1.0  0.57083  0.06242  0.25257  1.0000
  C   C19       1.0  0.06364  0.42896  0.24777  1.0000
  C   C20       1.0  0.93884  0.56892  0.25742  1.0000
  C   C21       1.0  0.42239  0.97284  0.20583  1.0000
  C   C22       1.0  0.58036  0.02580  0.22421  1.0000
  C   C23       1.0  0.02695  0.41966  0.22152  1.0000
  C   C24       1.0  0.97522  0.57825  0.22919  1.0000
  C   C25       1.0  0.42584  0.03421  0.21761  1.0000
  C   C26       1.0  0.57700  0.96432  0.22700  1.0000
  C   C27       1.0  0.96561  0.42332  0.22253  1.0000
  C   C28       1.0  0.03647  0.57467  0.22785  1.0000
  C   C29       1.0  0.38842  0.98728  0.15199  1.0000
  C   C30       1.0  0.61481  0.01153  0.17747  1.0000
  C   C31       1.0  0.01264  0.38525  0.17056  1.0000
  C   C32       1.0  0.98904  0.61236  0.17627  1.0000
  C   C33       1.0  0.39049  0.02452  0.15948  1.0000
  C   C34       1.0  0.61285  0.97426  0.18050  1.0000
  C   C35       1.0  0.97549  0.38745  0.17124  1.0000
  C   C36       1.0  0.02620  0.61019  0.17550  1.0000
  C   C37       1.0  0.43909  0.06935  0.25337  1.0000
  C   C38       1.0  0.56351  0.92907  0.25452  1.0000
  C   C39       1.0  0.93049  0.43701  0.25129  1.0000
  C   C40       1.0  0.07182  0.56123  0.25569  1.0000
  C   C41       1.0  0.60009  0.08968  0.25144  1.0000
  C   C42       1.0  0.40188  0.90945  0.22761  1.0000
  C   C43       1.0  0.09059  0.39930  0.24211  1.0000
  C   C44       1.0  0.59534  0.12276  0.16881  1.0000
  C   C45       1.0  0.40565  0.87580  0.14627  1.0000
  C   C46       1.0  0.12317  0.40367  0.15634  1.0000
  C   C47       1.0  0.62210  0.14906  0.16650  1.0000
  C   C48       1.0  0.37838  0.85001  0.14519  1.0000
  C   C49       1.0  0.14931  0.37671  0.14962  1.0000
  C   C50       1.0  0.66047  0.11018  0.32958  1.0000
  C   C51       1.0  0.34147  0.89061  0.30632  1.0000
  C   C52       1.0  0.11117  0.33863  0.31319  1.0000
  C   C53       1.0  0.63345  0.08409  0.33246  1.0000
  C   C54       1.0  0.36893  0.91624  0.30751  1.0000
  C   C55       1.0  0.08529  0.36591  0.32089  1.0000
  C   C56       1.0  0.72089  0.22607  0.21537  1.0000
  C   C57       1.0  0.27965  0.77379  0.21134  1.0000
  C   C58       1.0  0.77315  0.71701  0.22818  1.0000
  C   C59       1.0  0.71935  0.26317  0.17588  1.0000
  C   C60       1.0  0.27609  0.73946  0.13537  1.0000
  C   C61       1.0  0.73888  0.71978  0.15190  1.0000
  C   C62       1.0  0.74852  0.28606  0.20525  1.0000
  C   C63       1.0  0.24725  0.71678  0.16881  1.0000
  C   C64       1.0  0.71600  0.74887  0.18320  1.0000
  C   C65       1.0  0.78259  0.23578  0.31242  1.0000
  C   C66       1.0  0.22380  0.76148  0.35599  1.0000
  C   C67       1.0  0.76015  0.77375  0.37078  1.0000
  C   C68       1.0  0.75341  0.21287  0.28313  1.0000
  C   C69       1.0  0.25269  0.78419  0.32248  1.0000
  C   C70       1.0  0.78307  0.74471  0.33920  1.0000
  C   C71       1.0  0.87783  0.35141  0.34011  1.0000
  C   C72       1.0  0.35254  0.12127  0.33870  1.0000
  C   C73       1.0  0.90468  0.37758  0.33895  1.0000
  C   C74       1.0  0.37898  0.09457  0.33811  1.0000
  C   C75       1.0  0.90062  0.41040  0.25365  1.0000
  C   C76       1.0  0.41207  0.09895  0.25654  1.0000
  C   C77       1.0  0.86747  0.41627  0.17130  1.0000
  C   C78       1.0  0.41776  0.13207  0.17648  1.0000
  C   C79       1.0  0.84029  0.39026  0.17312  1.0000
  C   C80       1.0  0.39143  0.15898  0.17692  1.0000
  C   C81       1.0  0.68890  0.20283  0.18625  1.0000
  C   C82       1.0  0.31116  0.79685  0.17525  1.0000
  C   C83       1.0  0.79664  0.68548  0.19359  1.0000
  C   C84       1.0  0.20345  0.30964  0.16729  1.0000
  C   C85       1.0  0.68512  0.16916  0.25416  1.0000
  C   C86       1.0  0.31569  0.83134  0.23724  1.0000
  C   C87       1.0  0.83140  0.68258  0.25293  1.0000
  C   C88       1.0  0.16940  0.31343  0.23089  1.0000
  C   C89       1.0  0.65564  0.14341  0.24690  1.0000
  C   C90       1.0  0.34539  0.85665  0.22608  1.0000
  C   C91       1.0  0.14391  0.34315  0.22760  1.0000
  C   C92       1.0  0.81240  0.29663  0.30784  1.0000
  C   C93       1.0  0.18900  0.70365  0.31552  1.0000
  C   C94       1.0  0.70274  0.80854  0.32718  1.0000
  C   C95       1.0  0.29735  0.18694  0.30252  1.0000
  C   C96       1.0  0.84478  0.35695  0.25568  1.0000
  C   C97       1.0  0.35798  0.15435  0.25674  1.0000
  C   C98       1.0  0.81580  0.33073  0.24346  1.0000
  C   C99       1.0  0.18511  0.66913  0.25269  1.0000
  C   C100      1.0  0.66886  0.81305  0.25951  1.0000
  C   C101      1.0  0.33199  0.18358  0.24506  1.0000
  C   C102      1.0  0.78093  0.27295  0.27425  1.0000
  C   C103      1.0  0.22028  0.72712  0.27997  1.0000
  C   C104      1.0  0.72606  0.77680  0.29299  1.0000
  C   C105      1.0  0.66156  0.21831  0.08466  1.0000
  C   C106      1.0  0.33752  0.78047  0.07244  1.0000
  C   C107      1.0  0.78068  0.65758  0.09527  1.0000
  C   C108      1.0  0.21919  0.33712  0.06983  1.0000
  C   C109      1.0  0.83937  0.28124  0.41171  1.0000
  C   C110      1.0  0.16220  0.71934  0.41799  1.0000
  C   C111      1.0  0.71823  0.83508  0.43422  1.0000
  C   C112      1.0  0.28167  0.15965  0.40143  1.0000
  C   C113      1.0  0.47476  0.88900  0.81838  1.0000
  C   C114      1.0  0.52303  0.11267  0.84355  1.0000
  C   C115      1.0  0.11074  0.47615  0.83098  1.0000
  C   C116      1.0  0.88765  0.52685  0.83244  1.0000
  C   C117      1.0  0.51151  0.88740  0.82682  1.0000
  C   C118      1.0  0.48625  0.11434  0.84316  1.0000
  C   C119      1.0  0.11301  0.51299  0.83182  1.0000
  C   C120      1.0  0.88546  0.48999  0.83446  1.0000
  C   C121      1.0  0.52460  0.92281  0.77677  1.0000
  C   C122      1.0  0.47344  0.07914  0.78460  1.0000
  C   C123      1.0  0.07768  0.52637  0.77910  1.0000
  C   C124      1.0  0.92040  0.47643  0.78012  1.0000
  C   C125      1.0  0.46562  0.92549  0.76441  1.0000
  C   C126      1.0  0.53249  0.07640  0.78572  1.0000
  C   C127      1.0  0.07401  0.46724  0.77801  1.0000
  C   C128      1.0  0.92403  0.53559  0.77808  1.0000
  C   C129      1.0  0.42980  0.93754  0.73339  1.0000
  C   C130      1.0  0.56840  0.06461  0.75650  1.0000
  C   C131      1.0  0.06145  0.43143  0.74955  1.0000
  C   C132      1.0  0.93641  0.57142  0.75138  1.0000
  C   C133      1.0  0.42024  0.97421  0.70905  1.0000
  C   C134      1.0  0.57806  0.02802  0.72795  1.0000
  C   C135      1.0  0.02481  0.42236  0.72116  1.0000
  C   C136      1.0  0.97294  0.58065  0.72461  1.0000
  C   C137      1.0  0.42328  0.03574  0.71912  1.0000
  C   C138      1.0  0.57489  0.96658  0.73012  1.0000
  C   C139      1.0  0.96353  0.42580  0.72347  1.0000
  C   C140      1.0  0.03428  0.57698  0.72467  1.0000
  C   C141      1.0  0.38586  0.98836  0.65880  1.0000
  C   C142      1.0  0.61224  0.01387  0.67689  1.0000
  C   C143      1.0  0.01065  0.38817  0.66688  1.0000
  C   C144      1.0  0.98697  0.61500  0.67580  1.0000
  C   C145      1.0  0.38766  0.02564  0.66528  1.0000
  C   C146      1.0  0.61042  0.97659  0.67939  1.0000
  C   C147      1.0  0.97349  0.39017  0.66916  1.0000
  C   C148      1.0  0.02414  0.61279  0.67558  1.0000
  C   C149      1.0  0.43656  0.07100  0.75318  1.0000
  C   C150      1.0  0.56161  0.93124  0.75681  1.0000
  C   C151      1.0  0.92835  0.43927  0.75297  1.0000
  C   C152      1.0  0.06957  0.56343  0.75288  1.0000
  C   C153      1.0  0.59768  0.09180  0.75369  1.0000
  C   C154      1.0  0.90963  0.60128  0.75184  1.0000
  C   C155      1.0  0.08802  0.40143  0.74627  1.0000
  C   C156      1.0  0.59279  0.12498  0.67188  1.0000
  C   C157      1.0  0.87640  0.59784  0.66691  1.0000
  C   C158      1.0  0.12057  0.40483  0.65984  1.0000
  C   C159      1.0  0.61983  0.15097  0.66602  1.0000
  C   C160      1.0  0.85032  0.62491  0.67009  1.0000
  C   C161      1.0  0.14608  0.37727  0.65495  1.0000
  C   C162      1.0  0.65869  0.11166  0.82460  1.0000
  C   C163      1.0  0.88993  0.66126  0.84128  1.0000
  C   C164      1.0  0.10744  0.34073  0.82298  1.0000
  C   C165      1.0  0.63139  0.08591  0.83131  1.0000
  C   C166      1.0  0.91586  0.63398  0.83814  1.0000
  C   C167      1.0  0.08201  0.36847  0.82738  1.0000
  C   C168      1.0  0.71982  0.22695  0.70919  1.0000
  C   C169      1.0  0.72299  0.26068  0.63078  1.0000
  C   C170      1.0  0.75226  0.28341  0.66100  1.0000
  C   C171      1.0  0.77694  0.23985  0.84898  1.0000
  C   C172      1.0  0.74773  0.21707  0.81834  1.0000
  C   C173      1.0  0.68770  0.20394  0.67912  1.0000
  C   C174      1.0  0.31159  0.79622  0.67866  1.0000
  C   C175      1.0  0.79638  0.69123  0.71007  1.0000
  C   C176      1.0  0.19932  0.31051  0.67624  1.0000
  C   C177      1.0  0.68369  0.17016  0.74593  1.0000
  C   C178      1.0  0.31604  0.83033  0.74449  1.0000
  C   C179      1.0  0.83055  0.68687  0.77451  1.0000
  C   C180      1.0  0.16580  0.31456  0.74477  1.0000
  C   C181      1.0  0.65383  0.14489  0.74185  1.0000
  C   C182      1.0  0.85629  0.65750  0.75861  1.0000
  C   C183      1.0  0.14028  0.34430  0.73736  1.0000
  C   C184      1.0  0.81142  0.29734  0.80601  1.0000
  C   C185      1.0  0.18918  0.70329  0.81579  1.0000
  C   C186      1.0  0.70365  0.81510  0.84044  1.0000
  C   C187      1.0  0.29488  0.18848  0.79829  1.0000
  C   C188      1.0  0.81502  0.33151  0.74266  1.0000
  C   C189      1.0  0.18510  0.66891  0.75198  1.0000
  C   C190      1.0  0.67011  0.81870  0.76864  1.0000
  C   C191      1.0  0.32917  0.18520  0.73646  1.0000
  C   C192      1.0  0.77996  0.27371  0.77146  1.0000
  C   C193      1.0  0.66029  0.21955  0.57830  1.0000
  C   C194      1.0  0.33758  0.78053  0.57223  1.0000
  C   C195      1.0  0.78038  0.66477  0.60412  1.0000
  C   C196      1.0  0.21439  0.33758  0.57449  1.0000
  C   C197      1.0  0.83864  0.28208  0.90897  1.0000
  C   C198      1.0  0.16259  0.71952  0.91773  1.0000
  C   C199      1.0  0.71850  0.84229  0.94592  1.0000
  C   C200      1.0  0.27979  0.16164  0.90108  1.0000
  N   N1        1.0  0.49818  0.94410  0.24249  1.0000
  N   N2        1.0  0.50434  0.05416  0.25473  1.0000
  N   N3        1.0  0.05623  0.49588  0.25256  1.0000
  N   N4        1.0  0.94627  0.50218  0.25607  1.0000
  N   N5        1.0  0.44444  0.00217  0.23945  1.0000
  N   N6        1.0  0.55813  0.99630  0.24729  1.0000
  N   N7        1.0  0.99754  0.44201  0.24720  1.0000
  N   N8        1.0  0.00478  0.55608  0.25454  1.0000
  N   N9        1.0  0.64051  0.23202  0.99688  1.0000
  N   N10       1.0  0.35793  0.76609  0.98449  1.0000
  N   N11       1.0  0.76685  0.63578  0.01051  1.0000
  N   N12       1.0  0.23307  0.35866  0.98715  1.0000
  N   N13       1.0  0.86007  0.26750  0.50114  1.0000
  N   N14       1.0  0.14109  0.73282  0.50540  1.0000
  N   N15       1.0  0.73193  0.85560  0.52576  1.0000
  N   N16       1.0  0.26822  0.13830  0.48657  1.0000
  N   N17       1.0  0.49626  0.94595  0.74543  1.0000
  N   N18       1.0  0.50195  0.05603  0.75727  1.0000
  N   N19       1.0  0.05404  0.49815  0.75308  1.0000
  N   N20       1.0  0.94384  0.50457  0.75277  1.0000
  N   N21       1.0  0.44225  0.00380  0.73914  1.0000
  N   N22       1.0  0.55609  0.99847  0.75368  1.0000
  N   N23       1.0  0.99538  0.44455  0.74869  1.0000
  N   N24       1.0  0.00247  0.55829  0.74808  1.0000
  N   N25       1.0  0.63891  0.23319  0.49193  1.0000
  N   N26       1.0  0.35780  0.76671  0.48168  1.0000
  N   N27       1.0  0.76639  0.64423  0.51359  1.0000
  N   N28       1.0  0.22766  0.35868  0.48754  1.0000
  N   N29       1.0  0.85992  0.26878  0.99689  1.0000
  N   N30       1.0  0.14201  0.73398  0.00448  1.0000
  N   N31       1.0  0.73154  0.86369  0.03525  1.0000
  N   N32       1.0  0.26658  0.14087  0.98978  1.0000
  C  Sn1       1.0  0.21484  0.24215  0.82310  1.0000
  C   C201      1.0  0.22254  0.27602  0.75676  1.0000
  C  Sn2       1.0  0.25520  0.28187  0.67703  1.0000
  C  Sn3       1.0  0.28070  0.25326  0.66322  1.0000
  C   C202      1.0  0.27300  0.21941  0.72950  1.0000
  C  Sn4       1.0  0.24034  0.21354  0.80928  1.0000
  O  Te1       1.0  0.18202  0.23692  0.90228  1.0000
  O  Te2       1.0  0.26229  0.31597  0.61175  1.0000
  O  Te3       1.0  0.31354  0.25852  0.58396  1.0000
  O  Te4       1.0  0.23325  0.17946  0.87451  1.0000
  Mg  Mg1       1.0  0.31078  0.30977  0.51503  1.0000
  Mg  Mg2       1.0  0.18476  0.18563  0.97118  1.0000
  C  Sn5       1.0  0.90859  0.63508  0.37919  1.0000
  C   C203      1.0  0.90822  0.60103  0.30269  1.0000
  C  Sn6       1.0  0.88329  0.59341  0.17767  1.0000
  C  Sn7       1.0  0.85821  0.62039  0.12799  1.0000
  C   C204      1.0  0.85859  0.65442  0.20445  1.0000
  C  Sn8       1.0  0.88351  0.66206  0.32951  1.0000
  O  Te5       1.0  0.93375  0.64210  0.50390  1.0000
  O  Te6       1.0  0.88343  0.55916  0.10305  1.0000
  O  Te7       1.0  0.83304  0.61334  0.00317  1.0000
  O  Te8       1.0  0.88338  0.69628  0.40408  1.0000
  Mg  Mg3       1.0  0.84630  0.56480  0.93886  1.0000
  Mg  Mg4       1.0  0.92291  0.69286  0.56822  1.0000
  C  Sn9       1.0  0.60784  0.84707  0.13586  1.0000
  C   C205      1.0  0.64081  0.84633  0.22088  1.0000
  C  Sn10      1.0  0.64804  0.87164  0.34496  1.0000
  C  Sn11      1.0  0.62176  0.89825  0.38499  1.0000
  C   C206      1.0  0.58881  0.89899  0.30002  1.0000
  C  Sn12      1.0  0.58156  0.87368  0.17589  1.0000
  O  Te9       1.0  0.60119  0.82150  0.01227  1.0000
  O  Te10      1.0  0.68120  0.87036  0.42820  1.0000
  O  Te11      1.0  0.62844  0.92383  0.50870  1.0000
  O  Te12      1.0  0.54842  0.87495  0.09270  1.0000
  Mg  Mg5       1.0  0.67761  0.91101  0.58700  1.0000
  Mg  Mg6       1.0  0.55437  0.83648  0.93395  1.0000
  C  Sn13      1.0  0.09622  0.63323  0.30686  1.0000
  C   C207      1.0  0.09739  0.59852  0.23701  1.0000
  C  Sn14      1.0  0.13026  0.58364  0.18681  1.0000
  C  Sn15      1.0  0.16264  0.60386  0.20694  1.0000
  C   C208      1.0  0.16146  0.63855  0.27678  1.0000
  C  Sn16      1.0  0.12859  0.65346  0.32699  1.0000
  O  Te13      1.0  0.06305  0.64757  0.35617  1.0000
  O  Te14      1.0  0.13076  0.54888  0.11725  1.0000
  O  Te15      1.0  0.19582  0.58949  0.15756  1.0000
  O  Te16      1.0  0.12809  0.68818  0.39654  1.0000
  Mg  Mg7       1.0  0.18258  0.54107  0.06938  1.0000
  Mg  Mg8       1.0  0.07629  0.69602  0.44452  1.0000
  C  Sn17      1.0  0.39499  0.87488  0.59622  1.0000
  C   C209      1.0  0.39579  0.90827  0.67852  1.0000
  C  Sn18      1.0  0.37185  0.91534  0.80578  1.0000
  C  Sn19      1.0  0.34660  0.88848  0.85182  1.0000
  C   C210      1.0  0.34581  0.85512  0.76957  1.0000
  C  Sn20      1.0  0.36974  0.84803  0.64227  1.0000
  O  Te17      1.0  0.41918  0.86840  0.46937  1.0000
  O  Te18      1.0  0.37316  0.94892  0.88620  1.0000
  O  Te19      1.0  0.32240  0.89500  0.97878  1.0000
  O  Te20      1.0  0.36844  0.81447  0.56189  1.0000
  Mg  Mg9       1.0  0.33228  0.94272  0.05129  1.0000
  Mg  Mg10      1.0  0.40693  0.81846  0.39685  1.0000
  C  Sn21      1.0  0.28508  0.25827  0.17869  1.0000
  C   C211      1.0  0.27942  0.22847  0.27941  1.0000
  C  Sn22      1.0  0.24481  0.22068  0.33606  1.0000
  C  Sn23      1.0  0.21523  0.24313  0.29102  1.0000
  C   C212      1.0  0.22089  0.27290  0.19034  1.0000
  C  Sn24      1.0  0.25550  0.28072  0.13366  1.0000
  O  Te21      1.0  0.31991  0.26554  0.12348  1.0000
  O  Te22      1.0  0.23983  0.19075  0.43667  1.0000
  O  Te23      1.0  0.18038  0.23583  0.34634  1.0000
  O  Te24      1.0  0.26049  0.31062  0.03309  1.0000
  Mg  Mg11      1.0  0.18728  0.19197  0.48069  1.0000
  Mg  Mg12      1.0  0.31541  0.31159  0.98893  1.0000
  C  Sn25      1.0  0.41605  0.14554  0.70965  1.0000
  C   C213      1.0  0.41447  0.11134  0.78135  1.0000
  C  Sn26      1.0  0.38141  0.09722  0.83155  1.0000
  C  Sn27      1.0  0.34924  0.11768  0.80953  1.0000
  C   C214      1.0  0.35082  0.15185  0.73785  1.0000
  C  Sn28      1.0  0.38388  0.16601  0.68763  1.0000
  O  Te25      1.0  0.44940  0.15913  0.66037  1.0000
  O  Te26      1.0  0.38051  0.06297  0.90298  1.0000
  O  Te27      1.0  0.31587  0.10406  0.85888  1.0000
  O  Te28      1.0  0.38478  0.20023  0.61621  1.0000
  Mg  Mg13      1.0  0.32856  0.05612  0.95001  1.0000
  Mg  Mg14      1.0  0.43671  0.20710  0.56907  1.0000
  C  Sn29      1.0  0.84729  0.39389  0.62760  1.0000
  C   C215      1.0  0.84754  0.36045  0.70652  1.0000
  C  Sn30      1.0  0.87310  0.35329  0.82894  1.0000
  C  Sn31      1.0  0.89893  0.38012  0.87350  1.0000
  C   C216      1.0  0.89867  0.41354  0.79462  1.0000
  C  Sn32      1.0  0.87313  0.42072  0.67216  1.0000
  O  Te29      1.0  0.82149  0.40046  0.50557  1.0000
  O  Te30      1.0  0.87282  0.31965  0.90606  1.0000
  O  Te31      1.0  0.92474  0.37352  0.99564  1.0000
  O  Te32      1.0  0.87340  0.45433  0.59509  1.0000
  Mg  Mg15      1.0  0.91100  0.32140  0.06499  1.0000
  Mg  Mg16      1.0  0.83282  0.45045  0.43620  1.0000
  C  Sn33      1.0  0.77311  0.78351  0.80338  1.0000
  C   C217      1.0  0.73583  0.78637  0.77619  1.0000
  C  Sn34      1.0  0.71510  0.75539  0.74470  1.0000
  C  Sn35      1.0  0.73196  0.72082  0.74040  1.0000
  C   C218      1.0  0.76921  0.71797  0.76760  1.0000
  C  Sn36      1.0  0.78997  0.74894  0.79907  1.0000
  O  Te33      1.0  0.79331  0.81484  0.83464  1.0000
  O  Te34      1.0  0.67788  0.75893  0.71784  1.0000
  O  Te35      1.0  0.71172  0.68947  0.70910  1.0000
  O  Te36      1.0  0.82717  0.74541  0.82594  1.0000
  Mg  Mg17      1.0  0.66191  0.70827  0.68025  1.0000
  Mg  Mg18      1.0  0.84316  0.79605  0.86363  1.0000
  C  Sn37      1.0  0.27265  0.73042  0.63740  1.0000
  C   C219      1.0  0.27587  0.76765  0.66779  1.0000
  C  Sn38      1.0  0.25203  0.78524  0.77355  1.0000
  C  Sn39      1.0  0.22441  0.76520  0.85062  1.0000
  C   C220      1.0  0.22121  0.72800  0.82024  1.0000
  C  Sn40      1.0  0.24504  0.71038  0.71447  1.0000
  O  Te37      1.0  0.29679  0.71340  0.53123  1.0000
  O  Te38      1.0  0.25577  0.82248  0.80199  1.0000
  O  Te39      1.0  0.20027  0.78226  0.95685  1.0000
  O  Te40      1.0  0.24131  0.67316  0.68604  1.0000
  Mg  Mg19      1.0  0.21634  0.83345  0.95661  1.0000
  Mg  Mg20      1.0  0.28073  0.66217  0.53152  1.0000
  C  Sn41      1.0  0.12050  0.64011  0.89448  1.0000
  C   C221      1.0  0.15355  0.63920  0.81324  1.0000
  C  Sn42      1.0  0.15922  0.61439  0.68602  1.0000
  C  Sn43      1.0  0.13127  0.59000  0.63894  1.0000
  C   C222      1.0  0.09825  0.59093  0.72013  1.0000
  C  Sn44      1.0  0.09256  0.61573  0.84740  1.0000
  O  Te41      1.0  0.11304  0.66297  0.02131  1.0000
  O  Te42      1.0  0.19249  0.61398  0.60666  1.0000
  O  Te43      1.0  0.13637  0.56496  0.51200  1.0000
  O  Te44      1.0  0.05931  0.61615  0.92671  1.0000
  Mg  Mg21      1.0  0.18638  0.57490  0.44115  1.0000
  Mg  Mg22      1.0  0.06299  0.65306  0.09218  1.0000
  C  Sn45      1.0  0.60893  0.85097  0.63718  1.0000
  C   C223      1.0  0.64132  0.85108  0.72677  1.0000
  C  Sn46      1.0  0.64681  0.87620  0.85343  1.0000
  C  Sn47      1.0  0.61934  0.90172  0.89142  1.0000
  C   C224      1.0  0.58698  0.90160  0.80187  1.0000
  C  Sn48      1.0  0.58146  0.87650  0.67516  1.0000
  O  Te45      1.0  0.60402  0.82562  0.51107  1.0000
  O  Te46      1.0  0.67942  0.87579  0.94124  1.0000
  O  Te47      1.0  0.62188  0.92491  0.01764  1.0000
  O  Te48      1.0  0.54887  0.87690  0.58740  1.0000
  Mg  Mg23      1.0  0.67093  0.91355  0.10204  1.0000
  Mg  Mg24      1.0  0.55493  0.83697  0.42664  1.0000
