data_image0
_chemical_formula_structural       H104C200N32C2Sn2C2HTe2HMgC2Sn2C2HTe2HMgC2Sn2C2HTe2HMgC2Sn2C2HTe2HMgC2Sn2C2HTe2HMgC2Sn2C2HTe2HMgC2Sn2C2HTe2HMgC2Sn2C2HTe2HMgC2Sn2C2HTe2HMgC2Sn2C2HTe2HMgC2Sn2C2HTe2HMgC2Sn2C2HTe2HMg
_chemical_formula_sum              "H128 C248 N32 Sn24 Te24 Mg12"
_cell_length_a       36.9687
_cell_length_b       36.8678
_cell_length_c       8.18876
_cell_angle_alpha    90.5613
_cell_angle_beta     90.6202
_cell_angle_gamma    89.9242

_symmetry_space_group_name_H-M    'P1'
_space_group_IT_number       1

loop_
  _space_group_symop_operation_xyz
  'x, y, z'

loop_
  _atom_site_type_symbol
  _atom_site_label
  _atom_site_symmetry_multiplicity
  _atom_site_fract_x
  _atom_site_fract_y
  _atom_site_fract_z
  _atom_site_occupancy
  H   H1        1.0  0.45714  0.86666  0.35075  1.0000
  H   H2        1.0  0.54469  0.13189  0.37459  1.0000
  H   H3        1.0  0.13356  0.45456  0.36592  1.0000
  H   H4        1.0  0.86994  0.54348  0.37984  1.0000
  H   H5        1.0  0.52939  0.86315  0.36806  1.0000
  H   H6        1.0  0.47231  0.13506  0.38055  1.0000
  H   H7        1.0  0.13786  0.52695  0.37408  1.0000
  H   H8        1.0  0.86520  0.47091  0.37264  1.0000
  H   H9        1.0  0.47136  0.00031  0.26744  1.0000
  H   H10       1.0  0.53095  0.99809  0.26710  1.0000
  H   H11       1.0  0.99902  0.46916  0.27224  1.0000
  H   H12       1.0  0.00333  0.52899  0.27850  1.0000
  H   H13       1.0  0.36552  0.97122  0.11182  1.0000
  H   H14       1.0  0.63803  0.02774  0.14582  1.0000
  H   H15       1.0  0.02870  0.36182  0.13762  1.0000
  H   H16       1.0  0.97254  0.63540  0.14281  1.0000
  H   H17       1.0  0.36945  0.04369  0.12808  1.0000
  H   H18       1.0  0.63437  0.95526  0.15432  1.0000
  H   H19       1.0  0.95661  0.36607  0.13970  1.0000
  H   H20       1.0  0.04491  0.63125  0.14168  1.0000
  H   H21       1.0  0.87465  0.56794  0.10144  1.0000
  H   H22       1.0  0.12736  0.42878  0.09106  1.0000
  H   H23       1.0  0.82753  0.61465  0.09458  1.0000
  H   H24       1.0  0.17380  0.38162  0.08151  1.0000
  H   H25       1.0  0.89534  0.68404  0.39489  1.0000
  H   H26       1.0  0.10680  0.31352  0.37906  1.0000
  H   H27       1.0  0.94191  0.63623  0.40392  1.0000
  H   H28       1.0  0.06113  0.36196  0.39299  1.0000
  H   H29       1.0  0.69460  0.27413  0.12286  1.0000
  H   H30       1.0  0.73022  0.69878  0.06589  1.0000
  H   H31       1.0  0.74562  0.31456  0.17505  1.0000
  H   H32       1.0  0.69021  0.74968  0.11835  1.0000
  H   H33       1.0  0.80734  0.22484  0.36540  1.0000
  H   H34       1.0  0.76856  0.79440  0.45904  1.0000
  H   H35       1.0  0.75633  0.18436  0.31332  1.0000
  H   H36       1.0  0.80855  0.74353  0.40635  1.0000
  H   H37       1.0  0.88251  0.32661  0.40739  1.0000
  H   H38       1.0  0.11768  0.67379  0.40847  1.0000
  H   H39       1.0  0.32781  0.11656  0.40526  1.0000
  H   H40       1.0  0.92956  0.37310  0.40743  1.0000
  H   H41       1.0  0.07164  0.62644  0.40811  1.0000
  H   H42       1.0  0.37454  0.06973  0.40509  1.0000
  H   H43       1.0  0.86379  0.44090  0.10096  1.0000
  H   H44       1.0  0.13865  0.55752  0.11238  1.0000
  H   H45       1.0  0.44260  0.13588  0.10904  1.0000
  H   H46       1.0  0.81527  0.39507  0.10531  1.0000
  H   H47       1.0  0.18607  0.60444  0.11680  1.0000
  H   H48       1.0  0.39613  0.18390  0.11017  1.0000
  H   H49       1.0  0.70776  0.16046  0.33078  1.0000
  H   H50       1.0  0.29355  0.84151  0.31176  1.0000
  H   H51       1.0  0.84102  0.70600  0.32290  1.0000
  H   H52       1.0  0.16000  0.29043  0.30132  1.0000
  H   H53       1.0  0.79348  0.33933  0.16474  1.0000
  H   H54       1.0  0.20756  0.65960  0.17846  1.0000
  H   H55       1.0  0.65954  0.79078  0.18147  1.0000
  H   H56       1.0  0.34159  0.20644  0.17418  1.0000
  H   H57       1.0  0.45572  0.86781  0.84707  1.0000
  H   H58       1.0  0.54181  0.13376  0.88040  1.0000
  H   H59       1.0  0.13179  0.45704  0.86334  1.0000
  H   H60       1.0  0.86691  0.54621  0.86545  1.0000
  H   H61       1.0  0.52807  0.86471  0.86484  1.0000
  H   H62       1.0  0.46946  0.13701  0.87939  1.0000
  H   H63       1.0  0.13621  0.52941  0.86527  1.0000
  H   H64       1.0  0.86256  0.47373  0.87003  1.0000
  H   H65       1.0  0.46931  0.00222  0.76460  1.0000
  H   H66       1.0  0.52905  0.00021  0.77665  1.0000
  H   H67       1.0  0.99678  0.47160  0.77570  1.0000
  H   H68       1.0  0.00105  0.53118  0.77147  1.0000
  H   H69       1.0  0.36277  0.97209  0.62236  1.0000
  H   H70       1.0  0.63511  0.03022  0.64241  1.0000
  H   H71       1.0  0.02689  0.36514  0.63019  1.0000
  H   H72       1.0  0.97058  0.63834  0.64541  1.0000
  H   H73       1.0  0.36618  0.04449  0.63574  1.0000
  H   H74       1.0  0.63172  0.95764  0.64888  1.0000
  H   H75       1.0  0.95461  0.36889  0.63646  1.0000
  H   H76       1.0  0.04295  0.63404  0.64478  1.0000
  H   H77       1.0  0.12525  0.42953  0.59210  1.0000
  H   H78       1.0  0.17042  0.38130  0.58472  1.0000
  H   H79       1.0  0.10248  0.31600  0.89070  1.0000
  H   H80       1.0  0.05761  0.36543  0.89877  1.0000
  H   H81       1.0  0.70222  0.26906  0.54393  1.0000
  H   H82       1.0  0.30597  0.72413  0.62534  1.0000
  H   H83       1.0  0.72493  0.69763  0.64795  1.0000
  H   H84       1.0  0.75348  0.30878  0.59483  1.0000
  H   H85       1.0  0.25544  0.68406  0.68447  1.0000
  H   H86       1.0  0.68515  0.74884  0.70509  1.0000
  H   H87       1.0  0.79759  0.23158  0.93672  1.0000
  H   H88       1.0  0.19518  0.77533  0.87257  1.0000
  H   H89       1.0  0.77551  0.80888  0.90588  1.0000
  H   H90       1.0  0.74656  0.19170  0.88451  1.0000
  H   H91       1.0  0.24574  0.81536  0.81372  1.0000
  H   H92       1.0  0.81531  0.75738  0.84982  1.0000
  H   H93       1.0  0.67180  0.88539  0.93623  1.0000
  H   H94       1.0  0.62440  0.93185  0.92516  1.0000
  H   H95       1.0  0.56041  0.86487  0.60286  1.0000
  H   H96       1.0  0.60751  0.81743  0.61375  1.0000
  H   H97       1.0  0.70660  0.16076  0.81902  1.0000
  H   H98       1.0  0.29478  0.83899  0.82744  1.0000
  H   H99       1.0  0.83982  0.70867  0.85550  1.0000
  H   H100      1.0  0.15728  0.29241  0.82275  1.0000
  H   H101      1.0  0.79242  0.34071  0.66711  1.0000
  H   H102      1.0  0.20699  0.65976  0.67352  1.0000
  H   H103      1.0  0.66228  0.79654  0.68667  1.0000
  H   H104      1.0  0.33769  0.20731  0.65829  1.0000
  C   C1        1.0  0.47627  0.88766  0.32017  1.0000
  C   C2        1.0  0.52577  0.11076  0.34003  1.0000
  C   C3        1.0  0.11263  0.47376  0.33306  1.0000
  C   C4        1.0  0.89043  0.52428  0.34195  1.0000
  C   C5        1.0  0.51303  0.88585  0.32850  1.0000
  C   C6        1.0  0.48900  0.11245  0.34257  1.0000
  C   C7        1.0  0.11487  0.51063  0.33644  1.0000
  C   C8        1.0  0.88799  0.48745  0.33852  1.0000
  C   C9        1.0  0.52639  0.92093  0.27534  1.0000
  C   C10       1.0  0.47597  0.07736  0.28421  1.0000
  C   C11       1.0  0.07979  0.52410  0.28146  1.0000
  C   C12       1.0  0.92274  0.47406  0.28114  1.0000
  C   C13       1.0  0.46736  0.92395  0.26309  1.0000
  C   C14       1.0  0.53498  0.07443  0.28169  1.0000
  C   C15       1.0  0.07609  0.46488  0.27713  1.0000
  C   C16       1.0  0.92664  0.53312  0.28563  1.0000
  C   C17       1.0  0.43162  0.93614  0.23084  1.0000
  C   C18       1.0  0.57083  0.06242  0.25257  1.0000
  C   C19       1.0  0.06364  0.42896  0.24777  1.0000
  C   C20       1.0  0.93884  0.56892  0.25742  1.0000
  C   C21       1.0  0.42239  0.97284  0.20583  1.0000
  C   C22       1.0  0.58036  0.02580  0.22421  1.0000
  C   C23       1.0  0.02695  0.41966  0.22152  1.0000
  C   C24       1.0  0.97522  0.57825  0.22919  1.0000
  C   C25       1.0  0.42584  0.03421  0.21761  1.0000
  C   C26       1.0  0.57700  0.96432  0.22700  1.0000
  C   C27       1.0  0.96561  0.42332  0.22253  1.0000
  C   C28       1.0  0.03647  0.57467  0.22785  1.0000
  C   C29       1.0  0.38842  0.98728  0.15199  1.0000
  C   C30       1.0  0.61481  0.01153  0.17747  1.0000
  C   C31       1.0  0.01264  0.38525  0.17056  1.0000
  C   C32       1.0  0.98904  0.61236  0.17627  1.0000
  C   C33       1.0  0.39049  0.02452  0.15948  1.0000
  C   C34       1.0  0.61285  0.97426  0.18050  1.0000
  C   C35       1.0  0.97549  0.38745  0.17124  1.0000
  C   C36       1.0  0.02620  0.61019  0.17550  1.0000
  C   C37       1.0  0.43909  0.06935  0.25337  1.0000
  C   C38       1.0  0.56351  0.92907  0.25452  1.0000
  C   C39       1.0  0.93049  0.43701  0.25129  1.0000
  C   C40       1.0  0.07182  0.56123  0.25569  1.0000
  C   C41       1.0  0.91174  0.59833  0.25314  1.0000
  C   C42       1.0  0.09059  0.39930  0.24211  1.0000
  C   C43       1.0  0.87877  0.59327  0.16782  1.0000
  C   C44       1.0  0.12317  0.40367  0.15634  1.0000
  C   C45       1.0  0.85224  0.61984  0.16348  1.0000
  C   C46       1.0  0.14931  0.37671  0.14962  1.0000
  C   C47       1.0  0.89086  0.65872  0.32829  1.0000
  C   C48       1.0  0.11117  0.33863  0.31319  1.0000
  C   C49       1.0  0.91724  0.63191  0.33301  1.0000
  C   C50       1.0  0.08529  0.36591  0.32089  1.0000
  C   C51       1.0  0.72089  0.22607  0.21537  1.0000
  C   C52       1.0  0.77315  0.71701  0.22818  1.0000
  C   C53       1.0  0.71935  0.26317  0.17588  1.0000
  C   C54       1.0  0.73888  0.71978  0.15190  1.0000
  C   C55       1.0  0.74852  0.28606  0.20525  1.0000
  C   C56       1.0  0.71600  0.74887  0.18320  1.0000
  C   C57       1.0  0.78259  0.23578  0.31242  1.0000
  C   C58       1.0  0.76015  0.77375  0.37078  1.0000
  C   C59       1.0  0.75341  0.21287  0.28313  1.0000
  C   C60       1.0  0.78307  0.74471  0.33920  1.0000
  C   C61       1.0  0.87783  0.35141  0.34011  1.0000
  C   C62       1.0  0.12285  0.64859  0.34325  1.0000
  C   C63       1.0  0.35254  0.12127  0.33870  1.0000
  C   C64       1.0  0.90468  0.37758  0.33895  1.0000
  C   C65       1.0  0.09654  0.62184  0.34180  1.0000
  C   C66       1.0  0.37898  0.09457  0.33811  1.0000
  C   C67       1.0  0.90062  0.41040  0.25365  1.0000
  C   C68       1.0  0.10123  0.58836  0.25952  1.0000
  C   C69       1.0  0.41207  0.09895  0.25654  1.0000
  C   C70       1.0  0.86747  0.41627  0.17130  1.0000
  C   C71       1.0  0.13445  0.58261  0.18038  1.0000
  C   C72       1.0  0.41776  0.13207  0.17648  1.0000
  C   C73       1.0  0.84029  0.39026  0.17312  1.0000
  C   C74       1.0  0.16105  0.60919  0.18261  1.0000
  C   C75       1.0  0.39143  0.15898  0.17692  1.0000
  C   C76       1.0  0.68890  0.20283  0.18625  1.0000
  C   C77       1.0  0.31116  0.79685  0.17525  1.0000
  C   C78       1.0  0.79664  0.68548  0.19359  1.0000
  C   C79       1.0  0.20345  0.30964  0.16729  1.0000
  C   C80       1.0  0.68512  0.16916  0.25416  1.0000
  C   C81       1.0  0.31569  0.83134  0.23724  1.0000
  C   C82       1.0  0.83140  0.68258  0.25293  1.0000
  C   C83       1.0  0.16940  0.31343  0.23089  1.0000
  C   C84       1.0  0.85751  0.65344  0.24483  1.0000
  C   C85       1.0  0.14391  0.34315  0.22760  1.0000
  C   C86       1.0  0.81240  0.29663  0.30784  1.0000
  C   C87       1.0  0.18900  0.70365  0.31552  1.0000
  C   C88       1.0  0.70274  0.80854  0.32718  1.0000
  C   C89       1.0  0.29735  0.18694  0.30252  1.0000
  C   C90       1.0  0.84478  0.35695  0.25568  1.0000
  C   C91       1.0  0.15607  0.64302  0.26282  1.0000
  C   C92       1.0  0.35798  0.15435  0.25674  1.0000
  C   C93       1.0  0.81580  0.33073  0.24346  1.0000
  C   C94       1.0  0.18511  0.66913  0.25269  1.0000
  C   C95       1.0  0.66886  0.81305  0.25951  1.0000
  C   C96       1.0  0.33199  0.18358  0.24506  1.0000
  C   C97       1.0  0.78093  0.27295  0.27425  1.0000
  C   C98       1.0  0.72606  0.77680  0.29299  1.0000
  C   C99       1.0  0.66156  0.21831  0.08466  1.0000
  C   C100      1.0  0.33752  0.78047  0.07244  1.0000
  C   C101      1.0  0.78068  0.65758  0.09527  1.0000
  C   C102      1.0  0.21919  0.33712  0.06983  1.0000
  C   C103      1.0  0.83937  0.28124  0.41171  1.0000
  C   C104      1.0  0.16220  0.71934  0.41799  1.0000
  C   C105      1.0  0.71823  0.83508  0.43422  1.0000
  C   C106      1.0  0.28167  0.15965  0.40143  1.0000
  C   C107      1.0  0.47476  0.88900  0.81838  1.0000
  C   C108      1.0  0.52303  0.11267  0.84355  1.0000
  C   C109      1.0  0.11074  0.47615  0.83098  1.0000
  C   C110      1.0  0.88765  0.52685  0.83244  1.0000
  C   C111      1.0  0.51151  0.88740  0.82682  1.0000
  C   C112      1.0  0.48625  0.11434  0.84316  1.0000
  C   C113      1.0  0.11301  0.51299  0.83182  1.0000
  C   C114      1.0  0.88546  0.48999  0.83446  1.0000
  C   C115      1.0  0.52460  0.92281  0.77677  1.0000
  C   C116      1.0  0.47344  0.07914  0.78460  1.0000
  C   C117      1.0  0.07768  0.52637  0.77910  1.0000
  C   C118      1.0  0.92040  0.47643  0.78012  1.0000
  C   C119      1.0  0.46562  0.92549  0.76441  1.0000
  C   C120      1.0  0.53249  0.07640  0.78572  1.0000
  C   C121      1.0  0.07401  0.46724  0.77801  1.0000
  C   C122      1.0  0.92403  0.53559  0.77808  1.0000
  C   C123      1.0  0.42980  0.93754  0.73339  1.0000
  C   C124      1.0  0.56840  0.06461  0.75650  1.0000
  C   C125      1.0  0.06145  0.43143  0.74955  1.0000
  C   C126      1.0  0.93641  0.57142  0.75138  1.0000
  C   C127      1.0  0.42024  0.97421  0.70905  1.0000
  C   C128      1.0  0.57806  0.02802  0.72795  1.0000
  C   C129      1.0  0.02481  0.42236  0.72116  1.0000
  C   C130      1.0  0.97294  0.58065  0.72461  1.0000
  C   C131      1.0  0.42328  0.03574  0.71912  1.0000
  C   C132      1.0  0.57489  0.96658  0.73012  1.0000
  C   C133      1.0  0.96353  0.42580  0.72347  1.0000
  C   C134      1.0  0.03428  0.57698  0.72467  1.0000
  C   C135      1.0  0.38586  0.98836  0.65880  1.0000
  C   C136      1.0  0.61224  0.01387  0.67689  1.0000
  C   C137      1.0  0.01065  0.38817  0.66688  1.0000
  C   C138      1.0  0.98697  0.61500  0.67580  1.0000
  C   C139      1.0  0.38766  0.02564  0.66528  1.0000
  C   C140      1.0  0.61042  0.97659  0.67939  1.0000
  C   C141      1.0  0.97349  0.39017  0.66916  1.0000
  C   C142      1.0  0.02414  0.61279  0.67558  1.0000
  C   C143      1.0  0.43656  0.07100  0.75318  1.0000
  C   C144      1.0  0.56161  0.93124  0.75681  1.0000
  C   C145      1.0  0.92835  0.43927  0.75297  1.0000
  C   C146      1.0  0.06957  0.56343  0.75288  1.0000
  C   C147      1.0  0.08802  0.40143  0.74627  1.0000
  C   C148      1.0  0.12057  0.40483  0.65984  1.0000
  C   C149      1.0  0.14608  0.37727  0.65495  1.0000
  C   C150      1.0  0.10744  0.34073  0.82298  1.0000
  C   C151      1.0  0.08201  0.36847  0.82738  1.0000
  C   C152      1.0  0.71982  0.22695  0.70919  1.0000
  C   C153      1.0  0.28032  0.77291  0.71563  1.0000
  C   C154      1.0  0.77327  0.72297  0.74582  1.0000
  C   C155      1.0  0.72299  0.26068  0.63078  1.0000
  C   C156      1.0  0.28165  0.73548  0.67949  1.0000
  C   C157      1.0  0.73616  0.72197  0.70497  1.0000
  C   C158      1.0  0.75226  0.28341  0.66100  1.0000
  C   C159      1.0  0.25269  0.71282  0.71234  1.0000
  C   C160      1.0  0.71366  0.75129  0.73687  1.0000
  C   C161      1.0  0.77694  0.23985  0.84898  1.0000
  C   C162      1.0  0.21948  0.76393  0.81842  1.0000
  C   C163      1.0  0.76421  0.78439  0.85049  1.0000
  C   C164      1.0  0.74773  0.21707  0.81834  1.0000
  C   C165      1.0  0.24845  0.78659  0.78580  1.0000
  C   C166      1.0  0.78673  0.75498  0.81893  1.0000
  C   C167      1.0  0.64771  0.88042  0.86260  1.0000
  C   C168      1.0  0.62100  0.90678  0.85601  1.0000
  C   C169      1.0  0.58886  0.90194  0.76413  1.0000
  C   C170      1.0  0.58440  0.86886  0.67886  1.0000
  C   C171      1.0  0.61108  0.84234  0.68467  1.0000
  C   C172      1.0  0.68770  0.20394  0.67912  1.0000
  C   C173      1.0  0.31159  0.79622  0.67866  1.0000
  C   C174      1.0  0.79638  0.69123  0.71007  1.0000
  C   C175      1.0  0.19932  0.31051  0.67624  1.0000
  C   C176      1.0  0.68369  0.17016  0.74593  1.0000
  C   C177      1.0  0.31604  0.83033  0.74449  1.0000
  C   C178      1.0  0.83055  0.68687  0.77451  1.0000
  C   C179      1.0  0.16580  0.31456  0.74477  1.0000
  C   C180      1.0  0.14028  0.34430  0.73736  1.0000
  C   C181      1.0  0.81142  0.29734  0.80601  1.0000
  C   C182      1.0  0.18918  0.70329  0.81579  1.0000
  C   C183      1.0  0.70365  0.81510  0.84044  1.0000
  C   C184      1.0  0.29488  0.18848  0.79829  1.0000
  C   C185      1.0  0.64352  0.84738  0.77563  1.0000
  C   C186      1.0  0.81502  0.33151  0.74266  1.0000
  C   C187      1.0  0.18510  0.66891  0.75198  1.0000
  C   C188      1.0  0.67011  0.81870  0.76864  1.0000
  C   C189      1.0  0.32917  0.18520  0.73646  1.0000
  C   C190      1.0  0.77996  0.27371  0.77146  1.0000
  C   C191      1.0  0.22070  0.72652  0.78139  1.0000
  C   C192      1.0  0.72710  0.78336  0.80935  1.0000
  C   C193      1.0  0.66029  0.21955  0.57830  1.0000
  C   C194      1.0  0.33758  0.78053  0.57223  1.0000
  C   C195      1.0  0.78038  0.66477  0.60412  1.0000
  C   C196      1.0  0.21439  0.33758  0.57449  1.0000
  C   C197      1.0  0.83864  0.28208  0.90897  1.0000
  C   C198      1.0  0.16259  0.71952  0.91773  1.0000
  C   C199      1.0  0.71850  0.84229  0.94592  1.0000
  C   C200      1.0  0.27979  0.16164  0.90108  1.0000
  N   N1        1.0  0.49818  0.94410  0.24249  1.0000
  N   N2        1.0  0.50434  0.05416  0.25473  1.0000
  N   N3        1.0  0.05623  0.49588  0.25256  1.0000
  N   N4        1.0  0.94627  0.50218  0.25607  1.0000
  N   N5        1.0  0.44444  0.00217  0.23945  1.0000
  N   N6        1.0  0.55813  0.99630  0.24729  1.0000
  N   N7        1.0  0.99754  0.44201  0.24720  1.0000
  N   N8        1.0  0.00478  0.55608  0.25454  1.0000
  N   N9        1.0  0.64051  0.23202  0.99688  1.0000
  N   N10       1.0  0.35793  0.76609  0.98449  1.0000
  N   N11       1.0  0.76685  0.63578  0.01051  1.0000
  N   N12       1.0  0.23307  0.35866  0.98715  1.0000
  N   N13       1.0  0.86007  0.26750  0.50114  1.0000
  N   N14       1.0  0.14109  0.73282  0.50540  1.0000
  N   N15       1.0  0.73193  0.85560  0.52576  1.0000
  N   N16       1.0  0.26822  0.13830  0.48657  1.0000
  N   N17       1.0  0.49626  0.94595  0.74543  1.0000
  N   N18       1.0  0.50195  0.05603  0.75727  1.0000
  N   N19       1.0  0.05404  0.49815  0.75308  1.0000
  N   N20       1.0  0.94384  0.50457  0.75277  1.0000
  N   N21       1.0  0.44225  0.00380  0.73914  1.0000
  N   N22       1.0  0.55609  0.99847  0.75368  1.0000
  N   N23       1.0  0.99538  0.44455  0.74869  1.0000
  N   N24       1.0  0.00247  0.55829  0.74808  1.0000
  N   N25       1.0  0.63891  0.23319  0.49193  1.0000
  N   N26       1.0  0.35780  0.76671  0.48168  1.0000
  N   N27       1.0  0.76639  0.64423  0.51359  1.0000
  N   N28       1.0  0.22766  0.35868  0.48754  1.0000
  N   N29       1.0  0.85992  0.26878  0.99689  1.0000
  N   N30       1.0  0.14201  0.73398  0.00448  1.0000
  N   N31       1.0  0.73154  0.86369  0.03525  1.0000
  N   N32       1.0  0.26658  0.14087  0.98978  1.0000
  C   C201      1.0  0.28126  0.25361  0.13020  1.0000
  C   C202      1.0  0.27791  0.22555  0.24252  1.0000
  C  Sn1       1.0  0.24663  0.22251  0.33565  1.0000
  C  Sn2       1.0  0.21823  0.24806  0.31566  1.0000
  C   C203      1.0  0.22185  0.27602  0.20288  1.0000
  C   C204      1.0  0.25326  0.27882  0.11036  1.0000
  H   H105      1.0  0.30556  0.25577  0.05854  1.0000
  O  Te1       1.0  0.24373  0.19432  0.44736  1.0000
  O  Te2       1.0  0.18668  0.24565  0.40712  1.0000
  H   H106      1.0  0.25584  0.30053  0.02333  1.0000
  Mg  Mg1       1.0  0.19544  0.20244  0.54377  1.0000
  C   C205      1.0  0.35277  0.11408  0.84564  1.0000
  C   C206      1.0  0.35416  0.14886  0.77973  1.0000
  C  Sn3       1.0  0.38435  0.15982  0.69175  1.0000
  C  Sn4       1.0  0.41365  0.13544  0.66952  1.0000
  C   C207      1.0  0.41199  0.10068  0.73584  1.0000
  C   C208      1.0  0.38166  0.09000  0.82371  1.0000
  H   H107      1.0  0.32930  0.10580  0.91354  1.0000
  O  Te3       1.0  0.38529  0.19467  0.62678  1.0000
  O  Te4       1.0  0.44414  0.14568  0.58207  1.0000
  H   H108      1.0  0.38058  0.06306  0.87463  1.0000
  Mg  Mg2       1.0  0.43275  0.19604  0.51706  1.0000
  C   C209      1.0  0.27179  0.73031  0.13097  1.0000
  C   C210      1.0  0.27859  0.76574  0.18503  1.0000
  C  Sn5       1.0  0.25583  0.78230  0.29874  1.0000
  C  Sn6       1.0  0.22573  0.76295  0.35926  1.0000
  C   C211      1.0  0.21919  0.72750  0.30449  1.0000
  C   C212      1.0  0.24213  0.71120  0.19065  1.0000
  H   H109      1.0  0.28955  0.71768  0.04295  1.0000
  O  Te5       1.0  0.26300  0.81772  0.35141  1.0000
  O  Te6       1.0  0.20256  0.77884  0.47302  1.0000
  H   H110      1.0  0.23687  0.68375  0.14889  1.0000
  Mg  Mg3       1.0  0.22360  0.82771  0.50761  1.0000
  C   C213      1.0  0.91345  0.64355  0.84927  1.0000
  C   C214      1.0  0.91145  0.60880  0.78009  1.0000
  C  Sn7       1.0  0.88112  0.59841  0.68786  1.0000
  C  Sn8       1.0  0.85229  0.62334  0.66464  1.0000
  C   C215      1.0  0.85456  0.65806  0.73426  1.0000
  C   C216      1.0  0.88503  0.66816  0.82637  1.0000
  H   H111      1.0  0.93704  0.65138  0.92047  1.0000
  O  Te7       1.0  0.87955  0.56358  0.61966  1.0000
  O  Te8       1.0  0.82166  0.61368  0.57296  1.0000
  H   H112      1.0  0.88658  0.69508  0.87983  1.0000
  Mg  Mg4       1.0  0.83214  0.56311  0.50467  1.0000
  C   C217      1.0  0.38719  0.85313  0.12818  1.0000
  C   C218      1.0  0.35457  0.85322  0.21281  1.0000
  C  Sn9       1.0  0.34428  0.88365  0.30415  1.0000
  C  Sn10      1.0  0.36712  0.91454  0.31063  1.0000
  C   C219      1.0  0.39969  0.91419  0.22544  1.0000
  C   C220      1.0  0.40974  0.88359  0.13445  1.0000
  H   H113      1.0  0.39496  0.82946  0.05771  1.0000
  O  Te9       1.0  0.31160  0.88328  0.38802  1.0000
  O  Te10      1.0  0.35749  0.94533  0.40094  1.0000
  H   H114      1.0  0.43499  0.88354  0.06886  1.0000
  Mg  Mg5       1.0  0.31028  0.93174  0.49439  1.0000
  C   C221      1.0  0.59555  0.13446  0.66176  1.0000
  C   C222      1.0  0.59653  0.09941  0.72510  1.0000
  C  Sn11      1.0  0.62717  0.08720  0.80959  1.0000
  C  Sn12      1.0  0.65734  0.11058  0.83089  1.0000
  C   C223      1.0  0.65608  0.14561  0.76716  1.0000
  C   C224      1.0  0.62529  0.15754  0.68278  1.0000
  H   H115      1.0  0.57172  0.14370  0.59655  1.0000
  O  Te11      1.0  0.62770  0.05209  0.87203  1.0000
  O  Te12      1.0  0.68830  0.09908  0.91488  1.0000
  H   H116      1.0  0.62453  0.18469  0.63384  1.0000
  Mg  Mg6       1.0  0.67607  0.04886  0.97738  1.0000
  C   C225      1.0  0.21132  0.23605  0.77748  1.0000
  C   C226      1.0  0.21888  0.27133  0.72730  1.0000
  C  Sn13      1.0  0.25415  0.28111  0.68705  1.0000
  C  Sn14      1.0  0.28232  0.25502  0.69730  1.0000
  C   C227      1.0  0.27447  0.21979  0.74753  1.0000
  C   C228      1.0  0.23908  0.21030  0.78757  1.0000
  H   H117      1.0  0.18393  0.22869  0.80837  1.0000
  O  Te13      1.0  0.26124  0.31648  0.63720  1.0000
  O  Te14      1.0  0.31781  0.26406  0.65774  1.0000
  H   H118      1.0  0.23322  0.18297  0.82631  1.0000
  Mg  Mg7       1.0  0.31395  0.31574  0.59623  1.0000
  C   C229      1.0  0.88702  0.35490  0.84642  1.0000
  C   C230      1.0  0.85194  0.35595  0.78130  1.0000
  C  Sn15      1.0  0.84015  0.38608  0.69320  1.0000
  C  Sn16      1.0  0.86400  0.41567  0.67002  1.0000
  C   C231      1.0  0.89905  0.41435  0.73556  1.0000
  C   C232      1.0  0.91056  0.38407  0.82357  1.0000
  H   H119      1.0  0.89593  0.33146  0.91444  1.0000
  O  Te15      1.0  0.80502  0.38669  0.62902  1.0000
  O  Te16      1.0  0.85293  0.44611  0.58242  1.0000
  H   H120      1.0  0.93773  0.38325  0.87388  1.0000
  Mg  Mg8       1.0  0.80247  0.43421  0.51872  1.0000
  C   C233      1.0  0.34476  0.89840  0.83332  1.0000
  C   C234      1.0  0.34235  0.86592  0.74451  1.0000
  C  Sn17      1.0  0.37105  0.85453  0.64685  1.0000
  C  Sn18      1.0  0.40271  0.87611  0.63824  1.0000
  C   C235      1.0  0.40486  0.90855  0.72765  1.0000
  C   C236      1.0  0.37598  0.91970  0.82494  1.0000
  H   H121      1.0  0.32242  0.90702  0.90867  1.0000
  O  Te17      1.0  0.36820  0.82201  0.55887  1.0000
  O  Te18      1.0  0.43180  0.86536  0.54164  1.0000
  H   H122      1.0  0.37785  0.94484  0.89378  1.0000
  Mg  Mg9       1.0  0.41504  0.81887  0.44438  1.0000
  C   C237      1.0  0.15642  0.60035  0.66557  1.0000
  C   C238      1.0  0.15694  0.63506  0.73573  1.0000
  C  Sn19      1.0  0.12776  0.64726  0.82845  1.0000
  C  Sn20      1.0  0.09755  0.62422  0.85118  1.0000
  C   C239      1.0  0.09731  0.58954  0.78057  1.0000
  C   C240      1.0  0.12664  0.57761  0.68798  1.0000
  H   H123      1.0  0.17913  0.59111  0.59400  1.0000
  O  Te19      1.0  0.12871  0.68202  0.89763  1.0000
  O  Te20      1.0  0.06804  0.63573  0.94333  1.0000
  H   H124      1.0  0.12625  0.55073  0.63376  1.0000
  Mg  Mg10      1.0  0.07959  0.68323  0.01296  1.0000
  C   C241      1.0  0.58746  0.85699  0.16318  1.0000
  C   C242      1.0  0.58710  0.89027  0.24631  1.0000
  C  Sn21      1.0  0.61686  0.90102  0.34155  1.0000
  C  Sn22      1.0  0.64751  0.87796  0.35352  1.0000
  C   C243      1.0  0.64762  0.84473  0.26979  1.0000
  C   C244      1.0  0.61769  0.83424  0.17487  1.0000
  H   H125      1.0  0.56432  0.84888  0.08966  1.0000
  O  Te21      1.0  0.61604  0.93435  0.42384  1.0000
  O  Te22      1.0  0.67763  0.88804  0.44780  1.0000
  H   H126      1.0  0.61799  0.80848  0.11044  1.0000
  Mg  Mg11      1.0  0.66363  0.93609  0.53711  1.0000
  C   C245      1.0  0.65694  0.10160  0.34753  1.0000
  C   C246      1.0  0.65838  0.13389  0.25988  1.0000
  C  Sn23      1.0  0.62840  0.14541  0.16878  1.0000
  C  Sn24      1.0  0.59643  0.12416  0.16565  1.0000
  C   C247      1.0  0.59525  0.09191  0.25384  1.0000
  C   C248      1.0  0.62540  0.08063  0.34456  1.0000
  H   H127      1.0  0.68026  0.09288  0.41779  1.0000
  O  Te23      1.0  0.63030  0.17774  0.08187  1.0000
  O  Te24      1.0  0.56607  0.13505  0.07566  1.0000
  H   H128      1.0  0.62427  0.05564  0.41249  1.0000
  Mg  Mg12      1.0  0.58427  0.18334  0.97729  1.0000
