data_image0
_chemical_formula_structural       H24C36N36O24C2Sn2C2HTe2HMgC2Sn2C2HTe2HMgC2Sn2C2HTe2HMgC2Sn2C2HTe2HMgC2Sn2C2HTe2HMgC2Sn2C2HTe2HMgC2Sn2C2HTe2HMgC2Sn2C2HTe2HMgC2Sn2C2HTe2HMgC2Sn2C2HTe2HMgC2Sn2C2HTe2HMgC2Sn2C2HTe2HMgC2Sn2C2HTe2HMgC2Sn2C2HTe2HMgC2Sn2C2HTe2HMgC2Sn2C2HTe2HMgC2Sn2C2HTe2HMgC2Sn2C2HTe2HMg
_chemical_formula_sum              "H60 C108 N36 O24 Sn36 Te36 Mg18"
_cell_length_a       46.2757
_cell_length_b       46.3856
_cell_length_c       8.08692
_cell_angle_alpha    105.746
_cell_angle_beta     106.951
_cell_angle_gamma    119.669

_symmetry_space_group_name_H-M    'P1'
_space_group_IT_number       1

loop_
  _space_group_symop_operation_xyz
  'x, y, z'

loop_
  _atom_site_type_symbol
  _atom_site_label
  _atom_site_symmetry_multiplicity
  _atom_site_fract_x
  _atom_site_fract_y
  _atom_site_fract_z
  _atom_site_occupancy
  H   H1        1.0  0.52981  0.44313  0.09548  1.0000
  H   H2        1.0  0.50747  0.06928  0.22481  1.0000
  H   H3        1.0  0.90266  0.42116  0.21804  1.0000
  H   H4        1.0  0.42665  0.50939  0.29532  1.0000
  H   H5        1.0  0.47601  0.90257  0.23827  1.0000
  H   H6        1.0  0.07554  0.55785  0.24682  1.0000
  H   H7        1.0  0.51586  0.38411  0.31702  1.0000
  H   H8        1.0  0.59506  0.11294  0.21562  1.0000
  H   H9        1.0  0.86373  0.47061  0.27748  1.0000
  H   H10       1.0  0.46346  0.58782  0.20579  1.0000
  H   H11       1.0  0.39342  0.86491  0.29326  1.0000
  H   H12       1.0  0.11844  0.51177  0.23840  1.0000
  H   H13       1.0  0.57435  0.49219  0.71547  1.0000
  H   H14       1.0  0.52155  0.09564  0.74630  1.0000
  H   H15       1.0  0.92400  0.44248  0.75103  1.0000
  H   H16       1.0  0.47093  0.55848  0.91621  1.0000
  H   H17       1.0  0.49099  0.92975  0.77005  1.0000
  H   H18       1.0  0.09720  0.57852  0.78015  1.0000
  H   H19       1.0  0.53727  0.41352  0.80321  1.0000
  H   H20       1.0  0.60469  0.13406  0.69604  1.0000
  H   H21       1.0  0.88118  0.48861  0.76273  1.0000
  H   H22       1.0  0.48417  0.61628  0.68723  1.0000
  H   H23       1.0  0.40211  0.88530  0.76667  1.0000
  H   H24       1.0  0.13449  0.52751  0.71125  1.0000
  C   C1        1.0  0.50503  0.43253  0.26881  1.0000
  C   C2        1.0  0.54732  0.05984  0.27538  1.0000
  C   C3        1.0  0.92191  0.47464  0.26112  1.0000
  C   C4        1.0  0.46580  0.53171  0.20569  1.0000
  C   C5        1.0  0.43975  0.91616  0.22066  1.0000
  C   C6        1.0  0.05992  0.50782  0.24581  1.0000
  C   C7        1.0  0.53592  0.39073  0.26202  1.0000
  C   C8        1.0  0.58265  0.12760  0.22973  1.0000
  C   C9        1.0  0.84981  0.44287  0.26976  1.0000
  C   C10       1.0  0.43786  0.57642  0.21953  1.0000
  C   C11       1.0  0.40320  0.84811  0.26099  1.0000
  C   C12       1.0  0.13116  0.53798  0.23046  1.0000
  C   C13       1.0  0.29453  0.62371  0.21023  1.0000
  C   C14       1.0  0.34980  0.65425  0.20748  1.0000
  C   C15       1.0  0.31793  0.67812  0.20052  1.0000
  C   C16       1.0  0.68700  0.35288  0.29167  1.0000
  C   C17       1.0  0.63156  0.32047  0.29024  1.0000
  C   C18       1.0  0.66521  0.29847  0.30019  1.0000
  C   C19       1.0  0.53608  0.47059  0.81064  1.0000
  C   C20       1.0  0.55812  0.08233  0.76495  1.0000
  C   C21       1.0  0.94052  0.49340  0.76179  1.0000
  C   C22       1.0  0.49632  0.56936  0.74547  1.0000
  C   C23       1.0  0.45053  0.93832  0.70795  1.0000
  C   C24       1.0  0.07741  0.52496  0.73778  1.0000
  C   C25       1.0  0.56254  0.42457  0.78651  1.0000
  C   C26       1.0  0.59478  0.15073  0.72827  1.0000
  C   C27       1.0  0.86850  0.46234  0.77044  1.0000
  C   C28       1.0  0.46440  0.61007  0.74400  1.0000
  C   C29       1.0  0.41503  0.87107  0.75825  1.0000
  C   C30       1.0  0.14891  0.55554  0.72240  1.0000
  C   C31       1.0  0.31279  0.64709  0.71133  1.0000
  C   C32       1.0  0.36779  0.67930  0.70851  1.0000
  C   C33       1.0  0.33397  0.70108  0.69863  1.0000
  C   C34       1.0  0.70499  0.37625  0.79029  1.0000
  C   C35       1.0  0.64967  0.34581  0.79321  1.0000
  C   C36       1.0  0.68139  0.32176  0.79924  1.0000
  N   N1        1.0  0.52715  0.43167  0.18741  1.0000
  N   N2        1.0  0.53273  0.07823  0.22891  1.0000
  N   N3        1.0  0.89669  0.43965  0.24306  1.0000
  N   N4        1.0  0.43778  0.52802  0.24678  1.0000
  N   N5        1.0  0.45295  0.89603  0.25480  1.0000
  N   N6        1.0  0.08361  0.54115  0.24659  1.0000
  N   N7        1.0  0.29002  0.64976  0.20874  1.0000
  N   N8        1.0  0.32391  0.62414  0.21027  1.0000
  N   N9        1.0  0.34850  0.68234  0.20050  1.0000
  N   N10       1.0  0.69333  0.32819  0.29996  1.0000
  N   N11       1.0  0.65658  0.35083  0.28612  1.0000
  N   N12       1.0  0.63388  0.29286  0.29617  1.0000
  N   N13       1.0  0.54320  0.41342  0.18760  1.0000
  N   N14       1.0  0.55108  0.11313  0.23750  1.0000
  N   N15       1.0  0.86349  0.42426  0.25185  1.0000
  N   N16       1.0  0.42215  0.54658  0.24197  1.0000
  N   N17       1.0  0.43312  0.86049  0.23887  1.0000
  N   N18       1.0  0.11635  0.55562  0.23307  1.0000
  N   N19       1.0  0.56359  0.47384  0.76601  1.0000
  N   N20       1.0  0.54479  0.10239  0.73123  1.0000
  N   N21       1.0  0.91634  0.45958  0.75593  1.0000
  N   N22       1.0  0.47348  0.56961  0.82294  1.0000
  N   N23       1.0  0.46534  0.92052  0.76140  1.0000
  N   N24       1.0  0.10255  0.55955  0.75205  1.0000
  N   N25       1.0  0.30615  0.67151  0.70124  1.0000
  N   N26       1.0  0.34319  0.64922  0.71592  1.0000
  N   N27       1.0  0.36518  0.70667  0.70088  1.0000
  N   N28       1.0  0.70940  0.35010  0.79123  1.0000
  N   N29       1.0  0.67551  0.37576  0.78925  1.0000
  N   N30       1.0  0.65101  0.31778  0.80095  1.0000
  N   N31       1.0  0.57857  0.45464  0.76617  1.0000
  N   N32       1.0  0.56470  0.13811  0.74906  1.0000
  N   N33       1.0  0.88352  0.44492  0.76867  1.0000
  N   N34       1.0  0.45735  0.58778  0.82085  1.0000
  N   N35       1.0  0.44712  0.88588  0.75552  1.0000
  N   N36       1.0  0.13583  0.57466  0.74420  1.0000
  O   O1        1.0  0.38153  0.65990  0.21017  1.0000
  O   O2        1.0  0.31139  0.70306  0.19051  1.0000
  O   O3        1.0  0.26921  0.59274  0.21478  1.0000
  O   O4        1.0  0.59974  0.31393  0.29077  1.0000
  O   O5        1.0  0.67221  0.27368  0.30676  1.0000
  O   O6        1.0  0.71171  0.38437  0.28878  1.0000
  O   O7        1.0  0.48190  0.55402  0.14750  1.0000
  O   O8        1.0  0.40716  0.90558  0.18390  1.0000
  O   O9        1.0  0.06624  0.48464  0.23885  1.0000
  O   O10       1.0  0.49306  0.41358  0.34910  1.0000
  O   O11       1.0  0.58092  0.07242  0.32529  1.0000
  O   O12       1.0  0.91725  0.49916  0.28560  1.0000
  O   O13       1.0  0.39948  0.68578  0.70646  1.0000
  O   O14       1.0  0.32682  0.72579  0.69251  1.0000
  O   O15       1.0  0.28865  0.61595  0.71865  1.0000
  O   O16       1.0  0.61800  0.34026  0.79098  1.0000
  O   O17       1.0  0.68755  0.29652  0.80750  1.0000
  O   O18       1.0  0.73056  0.40744  0.78807  1.0000
  O   O19       1.0  0.50852  0.58855  0.66651  1.0000
  O   O20       1.0  0.41669  0.92539  0.65372  1.0000
  O   O21       1.0  0.08194  0.50035  0.71516  1.0000
  O   O22       1.0  0.52018  0.44832  0.86951  1.0000
  O   O23       1.0  0.59087  0.09328  0.80355  1.0000
  O   O24       1.0  0.93455  0.51690  0.77235  1.0000
  C   C37       1.0  0.54734  0.32308  0.30662  1.0000
  C   C38       1.0  0.57805  0.33041  0.27729  1.0000
  C  Sn1       1.0  0.59890  0.36174  0.25349  1.0000
  C  Sn2       1.0  0.58876  0.38614  0.25929  1.0000
  C   C39       1.0  0.55801  0.37858  0.28886  1.0000
  C   C40       1.0  0.53733  0.34714  0.31244  1.0000
  H   H25       1.0  0.53136  0.29877  0.32498  1.0000
  O  Te1       1.0  0.62949  0.36864  0.22425  1.0000
  O  Te2       1.0  0.60912  0.41766  0.23600  1.0000
  H   H26       1.0  0.51358  0.34149  0.33528  1.0000
  Mg  Mg1       1.0  0.64851  0.41518  0.19994  1.0000
  C   C41       1.0  0.59578  0.19880  0.30774  1.0000
  C   C42       1.0  0.59887  0.16977  0.24519  1.0000
  C  Sn3       1.0  0.62854  0.17627  0.20765  1.0000
  C  Sn4       1.0  0.65559  0.21253  0.23339  1.0000
  C   C43       1.0  0.65227  0.24140  0.29615  1.0000
  C   C44       1.0  0.62245  0.23458  0.33323  1.0000
  H   H27       1.0  0.57272  0.19355  0.33654  1.0000
  O  Te3       1.0  0.63120  0.14694  0.14519  1.0000
  O  Te4       1.0  0.68554  0.21980  0.19700  1.0000
  H   H28       1.0  0.62008  0.25708  0.38178  1.0000
  Mg  Mg2       1.0  0.67706  0.17072  0.11435  1.0000
  C   C45       1.0  0.78900  0.44418  0.26428  1.0000
  C   C46       1.0  0.81188  0.43253  0.28639  1.0000
  C  Sn5       1.0  0.79973  0.39964  0.30164  1.0000
  C  Sn6       1.0  0.76401  0.37807  0.29450  1.0000
  C   C47       1.0  0.74132  0.38995  0.27220  1.0000
  C   C48       1.0  0.75375  0.42291  0.25715  1.0000
  H   H29       1.0  0.79861  0.46967  0.25252  1.0000
  O  Te5       1.0  0.82295  0.38841  0.32374  1.0000
  O  Te6       1.0  0.75117  0.34508  0.30932  1.0000
  H   H30       1.0  0.73602  0.43191  0.23990  1.0000
  Mg  Mg3       1.0  0.79301  0.34139  0.33775  1.0000
  C   C49       1.0  0.38070  0.58469  0.23347  1.0000
  C   C50       1.0  0.41175  0.59136  0.20947  1.0000
  C  Sn7       1.0  0.43459  0.62333  0.19442  1.0000
  C  Sn8       1.0  0.42612  0.64904  0.20366  1.0000
  C   C51       1.0  0.39501  0.64213  0.22784  1.0000
  C   C52       1.0  0.37234  0.61005  0.24268  1.0000
  H   H31       1.0  0.36316  0.55988  0.24507  1.0000
  O  Te7       1.0  0.46549  0.62956  0.17041  1.0000
  O  Te8       1.0  0.44849  0.68122  0.18908  1.0000
  H   H32       1.0  0.34831  0.60490  0.26139  1.0000
  Mg  Mg4       1.0  0.48753  0.67741  0.15757  1.0000
  C   C53       1.0  0.38874  0.77640  0.18667  1.0000
  C   C54       1.0  0.38223  0.80326  0.21391  1.0000
  C  Sn9       1.0  0.35224  0.79726  0.24718  1.0000
  C  Sn10      1.0  0.32838  0.76373  0.25327  1.0000
  C   C55       1.0  0.33516  0.73705  0.22599  1.0000
  C   C56       1.0  0.36524  0.74334  0.19273  1.0000
  H   H33       1.0  0.41203  0.78127  0.16105  1.0000
  O  Te9       1.0  0.34612  0.82438  0.27403  1.0000
  O  Te10      1.0  0.29822  0.75703  0.28634  1.0000
  H   H34       1.0  0.37029  0.72255  0.17178  1.0000
  Mg  Mg5       1.0  0.30135  0.80240  0.31449  1.0000
  C   C57       1.0  0.19293  0.59403  0.20047  1.0000
  C   C58       1.0  0.16952  0.56089  0.20584  1.0000
  C  Sn11      1.0  0.18094  0.53856  0.22364  1.0000
  C  Sn12      1.0  0.21647  0.54968  0.23633  1.0000
  C   C59       1.0  0.23969  0.58289  0.23096  1.0000
  C   C60       1.0  0.22798  0.60503  0.21305  1.0000
  H   H35       1.0  0.18388  0.61117  0.18672  1.0000
  O  Te11      1.0  0.15721  0.50553  0.22870  1.0000
  O  Te12      1.0  0.22859  0.52789  0.25428  1.0000
  H   H36       1.0  0.24612  0.63069  0.20903  1.0000
  Mg  Mg6       1.0  0.18623  0.48527  0.25464  1.0000
  C   C61       1.0  0.52170  0.50028  0.23904  1.0000
  C   C62       1.0  0.50446  0.46856  0.26533  1.0000
  C  Sn13      1.0  0.46986  0.45390  0.26567  1.0000
  C  Sn14      1.0  0.45225  0.47138  0.23911  1.0000
  C   C63       1.0  0.46972  0.50308  0.21279  1.0000
  C   C64       1.0  0.50435  0.51752  0.21276  1.0000
  H   H37       1.0  0.54848  0.51144  0.23890  1.0000
  O  Te13      1.0  0.45303  0.42220  0.29220  1.0000
  O  Te14      1.0  0.41766  0.45731  0.23875  1.0000
  H   H38       1.0  0.51768  0.54207  0.19227  1.0000
  Mg  Mg7       1.0  0.40586  0.41352  0.28053  1.0000
  C   C65       1.0  0.02854  0.00195  0.37889  1.0000
  C   C66       1.0  0.01944  0.01887  0.27670  1.0000
  C  Sn15      1.0  0.98088  0.00219  0.15375  1.0000
  C  Sn16      1.0  0.95094  0.96794  0.13306  1.0000
  C   C67       1.0  0.96035  0.95125  0.23603  1.0000
  C   C68       1.0  0.99903  0.96817  0.35862  1.0000
  H   H39       1.0  0.05846  0.01505  0.47383  1.0000
  O  Te15      1.0  0.47614  0.01947  0.05268  1.0000
  O  Te16      1.0  0.91217  0.95067  0.01121  1.0000
  H   H40       1.0  0.00606  0.95508  0.43782  1.0000
  Mg  Mg8       1.0  0.01365  0.08106  0.90408  1.0000
  C   C69       1.0  0.00553  0.52459  0.22927  1.0000
  C   C70       1.0  0.02412  0.50859  0.25757  1.0000
  C  Sn17      1.0  0.00742  0.47616  0.27848  1.0000
  C  Sn18      1.0  0.97144  0.45950  0.27080  1.0000
  C   C71       1.0  0.95306  0.47572  0.24228  1.0000
  C   C72       1.0  0.97004  0.50818  0.22159  1.0000
  H   H41       1.0  0.01865  0.54970  0.21315  1.0000
  O  Te17      1.0  0.02638  0.46054  0.30673  1.0000
  O  Te18      1.0  0.95410  0.42708  0.29120  1.0000
  H   H42       1.0  0.95563  0.52055  0.19956  1.0000
  Mg  Mg9       1.0  0.99117  0.41627  0.32691  1.0000
  C   C73       1.0  0.62700  0.40471  0.76508  1.0000
  C   C74       1.0  0.61481  0.37327  0.79440  1.0000
  C  Sn19      1.0  0.58192  0.35575  0.81124  1.0000
  C  Sn20      1.0  0.56089  0.37003  0.79838  1.0000
  C   C75       1.0  0.57330  0.40148  0.76888  1.0000
  C   C76       1.0  0.60626  0.41881  0.75230  1.0000
  H   H43       1.0  0.65248  0.41810  0.75214  1.0000
  O  Te19      1.0  0.57016  0.32437  0.84058  1.0000
  O  Te20      1.0  0.52791  0.35305  0.81463  1.0000
  H   H44       1.0  0.61567  0.44313  0.72946  1.0000
  Mg  Mg10      1.0  0.52338  0.31099  0.85380  1.0000
  C   C77       1.0  0.67059  0.22845  0.74153  1.0000
  C   C78       1.0  0.66488  0.25590  0.77525  1.0000
  C  Sn21      1.0  0.63488  0.24992  0.80840  1.0000
  C  Sn22      1.0  0.61019  0.21578  0.80775  1.0000
  C   C79       1.0  0.61616  0.18850  0.77400  1.0000
  C   C80       1.0  0.64626  0.19478  0.74093  1.0000
  H   H45       1.0  0.69389  0.23331  0.71604  1.0000
  O  Te21      1.0  0.62957  0.27764  0.84178  1.0000
  O  Te22      1.0  0.57999  0.20908  0.84054  1.0000
  H   H46       1.0  0.65069  0.17353  0.71495  1.0000
  Mg  Mg11      1.0  0.58442  0.25540  0.87905  1.0000
  C   C81       1.0  0.79180  0.45952  0.78188  1.0000
  C   C82       1.0  0.76734  0.42528  0.77593  1.0000
  C  Sn23      1.0  0.77771  0.40182  0.78262  1.0000
  C  Sn24      1.0  0.81325  0.41292  0.79556  1.0000
  C   C83       1.0  0.83754  0.44724  0.80157  1.0000
  C   C84       1.0  0.82687  0.47050  0.79472  1.0000
  H   H47       1.0  0.78356  0.47753  0.77670  1.0000
  O  Te23      1.0  0.75293  0.36770  0.77646  1.0000
  O  Te24      1.0  0.82434  0.39001  0.80254  1.0000
  H   H48       1.0  0.84582  0.49702  0.79946  1.0000
  Mg  Mg12      1.0  0.78078  0.34615  0.78992  1.0000
  C   C85       1.0  0.46127  0.66722  0.69811  1.0000
  C   C86       1.0  0.45122  0.63673  0.73410  1.0000
  C  Sn25      1.0  0.41874  0.61823  0.75334  1.0000
  C  Sn26      1.0  0.39594  0.63054  0.73610  1.0000
  C   C87       1.0  0.40622  0.66106  0.69995  1.0000
  C   C88       1.0  0.43879  0.67938  0.68101  1.0000
  H   H49       1.0  0.48646  0.68138  0.68335  1.0000
  O  Te25      1.0  0.40912  0.58782  0.78934  1.0000
  O  Te26      1.0  0.36332  0.61256  0.75462  1.0000
  H   H50       1.0  0.44654  0.70297  0.65302  1.0000
  Mg  Mg13      1.0  0.36200  0.57244  0.80330  1.0000
  C   C89       1.0  0.40402  0.80132  0.69852  1.0000
  C   C90       1.0  0.39678  0.82764  0.72666  1.0000
  C  Sn27      1.0  0.36624  0.82055  0.75703  1.0000
  C  Sn28      1.0  0.34256  0.78646  0.75924  1.0000
  C   C91       1.0  0.35006  0.76032  0.73109  1.0000
  C   C92       1.0  0.38069  0.76770  0.70076  1.0000
  H   H51       1.0  0.42773  0.80704  0.67516  1.0000
  O  Te27      1.0  0.35940  0.84714  0.78483  1.0000
  O  Te28      1.0  0.31185  0.77866  0.78936  1.0000
  H   H52       1.0  0.38630  0.74733  0.67910  1.0000
  Mg  Mg14      1.0  0.31409  0.82367  0.82025  1.0000
  C   C93       1.0  0.22985  0.56401  0.73994  1.0000
  C   C94       1.0  0.24978  0.59469  0.70995  1.0000
  C  Sn29      1.0  0.23702  0.61597  0.69127  1.0000
  C  Sn30      1.0  0.20368  0.60630  0.70296  1.0000
  C   C95       1.0  0.18396  0.57558  0.73314  1.0000
  C   C96       1.0  0.19697  0.55447  0.75156  1.0000
  H   H53       1.0  0.23992  0.54769  0.75430  1.0000
  O  Te29      1.0  0.25727  0.64653  0.66129  1.0000
  O  Te30      1.0  0.19031  0.62710  0.68487  1.0000
  H   H54       1.0  0.18155  0.53073  0.77491  1.0000
  Mg  Mg15      1.0  0.22773  0.66625  0.64546  1.0000
  C   C97       1.0  0.55077  0.53625  0.76278  1.0000
  C   C98       1.0  0.53425  0.50531  0.79553  1.0000
  C  Sn31      1.0  0.49973  0.49069  0.79679  1.0000
  C  Sn32      1.0  0.48148  0.50741  0.76456  1.0000
  C   C99       1.0  0.49823  0.53834  0.73179  1.0000
  C   C100      1.0  0.53278  0.55275  0.73090  1.0000
  H   H55       1.0  0.57749  0.54739  0.76198  1.0000
  O  Te31      1.0  0.48363  0.45977  0.82981  1.0000
  O  Te32      1.0  0.44696  0.49336  0.76497  1.0000
  H   H56       1.0  0.54555  0.57670  0.70541  1.0000
  Mg  Mg16      1.0  0.43627  0.45078  0.81661  1.0000
  C   C101      1.0  0.46546  0.99686  0.60987  1.0000
  C   C102      1.0  0.47462  0.97722  0.68839  1.0000
  C  Sn33      1.0  0.51319  0.99374  0.80963  1.0000
  C  Sn34      1.0  0.54308  0.03062  0.85284  1.0000
  C   C103      1.0  0.53361  0.05005  0.77367  1.0000
  C   C104      1.0  0.49492  0.03325  0.65248  1.0000
  H   H57       1.0  0.43552  0.98387  0.51619  1.0000
  O  Te33      1.0  0.52183  0.97371  0.88680  1.0000
  O  Te34      1.0  0.58187  0.04780  0.97364  1.0000
  H   H58       1.0  0.48784  0.04848  0.59181  1.0000
  Mg  Mg17      1.0  0.48047  0.91313  0.04370  1.0000
  C   C105      1.0  0.02330  0.54199  0.72046  1.0000
  C   C106      1.0  0.04246  0.52670  0.75519  1.0000
  C  Sn35      1.0  0.02673  0.49552  0.78665  1.0000
  C  Sn36      1.0  0.99115  0.47940  0.78313  1.0000
  C   C107      1.0  0.97220  0.49488  0.74812  1.0000
  C   C108      1.0  0.98820  0.52610  0.71689  1.0000
  H   H59       1.0  0.03568  0.56612  0.69618  1.0000
  O  Te35      1.0  0.04625  0.48060  0.82121  1.0000
  O  Te36      1.0  0.97477  0.44822  0.81405  1.0000
  H   H60       1.0  0.97335  0.53791  0.68987  1.0000
  Mg  Mg18      1.0  0.01232  0.43798  0.85523  1.0000
