data_image0
_chemical_formula_structural       H60C90N36O24SnCSn2CSnTe4Mg2SnCSn2CSnTe4Mg2SnCSn2CSnTe4Mg2SnCSn2CSnTe4Mg2SnCSn2CSnTe4Mg2SnCSn2CSnTe4Mg2SnCSn2CSnTe4Mg2SnCSn2CSnTe4Mg2SnCSn2CSnTe4Mg2
_chemical_formula_sum              "H60 C108 N36 O24 Sn36 Te36 Mg18"
_cell_length_a       46.2757
_cell_length_b       46.3856
_cell_length_c       8.08692
_cell_angle_alpha    105.746
_cell_angle_beta     106.951
_cell_angle_gamma    119.669

_symmetry_space_group_name_H-M    'P1'
_space_group_IT_number       1

loop_
  _space_group_symop_operation_xyz
  'x, y, z'

loop_
  _atom_site_type_symbol
  _atom_site_label
  _atom_site_symmetry_multiplicity
  _atom_site_fract_x
  _atom_site_fract_y
  _atom_site_fract_z
  _atom_site_occupancy
  H   H1        1.0  0.80966  0.37885  0.29822  1.0000
  H   H2        1.0  0.74855  0.35132  0.30615  1.0000
  H   H3        1.0  0.74944  0.44229  0.26743  1.0000
  H   H4        1.0  0.81073  0.46986  0.25883  1.0000
  H   H5        1.0  0.52981  0.44313  0.09548  1.0000
  H   H6        1.0  0.50747  0.06928  0.22481  1.0000
  H   H7        1.0  0.90266  0.42116  0.21804  1.0000
  H   H8        1.0  0.42665  0.50939  0.29532  1.0000
  H   H9        1.0  0.47601  0.90257  0.23827  1.0000
  H   H10       1.0  0.07554  0.55785  0.24682  1.0000
  H   H11       1.0  0.51586  0.38411  0.31702  1.0000
  H   H12       1.0  0.59506  0.11294  0.21562  1.0000
  H   H13       1.0  0.86373  0.47061  0.27748  1.0000
  H   H14       1.0  0.46346  0.58782  0.20579  1.0000
  H   H15       1.0  0.39342  0.86491  0.29326  1.0000
  H   H16       1.0  0.11844  0.51177  0.23840  1.0000
  H   H17       1.0  0.42252  0.94994  0.04452  1.0000
  H   H18       1.0  0.56473  0.02608  0.45086  1.0000
  H   H19       1.0  0.46613  0.01021  0.05383  1.0000
  H   H20       1.0  0.52079  0.96413  0.43110  1.0000
  H   H21       1.0  0.62609  0.44242  0.75998  1.0000
  H   H22       1.0  0.58427  0.20482  0.82585  1.0000
  H   H23       1.0  0.82651  0.39833  0.79784  1.0000
  H   H24       1.0  0.42921  0.81973  0.67961  1.0000
  H   H25       1.0  0.18847  0.61887  0.68953  1.0000
  H   H26       1.0  0.65241  0.40679  0.76285  1.0000
  H   H27       1.0  0.62341  0.26904  0.85640  1.0000
  H   H28       1.0  0.76543  0.37251  0.80510  1.0000
  H   H29       1.0  0.39137  0.75538  0.64728  1.0000
  H   H30       1.0  0.25036  0.64738  0.68874  1.0000
  H   H31       1.0  0.56006  0.32486  0.80905  1.0000
  H   H32       1.0  0.69626  0.24692  0.72487  1.0000
  H   H33       1.0  0.77028  0.46553  0.77171  1.0000
  H   H34       1.0  0.31623  0.77416  0.77364  1.0000
  H   H35       1.0  0.25151  0.55841  0.74446  1.0000
  H   H36       1.0  0.53423  0.36113  0.81139  1.0000
  H   H37       1.0  0.65610  0.18195  0.68622  1.0000
  H   H38       1.0  0.83178  0.49175  0.76695  1.0000
  H   H39       1.0  0.35438  0.83894  0.80706  1.0000
  H   H40       1.0  0.18945  0.52986  0.74589  1.0000
  H   H41       1.0  0.57435  0.49219  0.71547  1.0000
  H   H42       1.0  0.52155  0.09564  0.74630  1.0000
  H   H43       1.0  0.92400  0.44248  0.75103  1.0000
  H   H44       1.0  0.47093  0.55848  0.91621  1.0000
  H   H45       1.0  0.49099  0.92975  0.77005  1.0000
  H   H46       1.0  0.09720  0.57852  0.78015  1.0000
  H   H47       1.0  0.53727  0.41352  0.80321  1.0000
  H   H48       1.0  0.60469  0.13406  0.69604  1.0000
  H   H49       1.0  0.88118  0.48861  0.76273  1.0000
  H   H50       1.0  0.48417  0.61628  0.68723  1.0000
  H   H51       1.0  0.40211  0.88530  0.76667  1.0000
  H   H52       1.0  0.13449  0.52751  0.71125  1.0000
  H   H53       1.0  0.43313  0.97159  0.52867  1.0000
  H   H54       1.0  0.03103  0.47123  0.78974  1.0000
  H   H55       1.0  0.57532  0.04828  0.93868  1.0000
  H   H56       1.0  0.98722  0.54755  0.71214  1.0000
  H   H57       1.0  0.47703  0.03363  0.54866  1.0000
  H   H58       1.0  0.97282  0.45512  0.80368  1.0000
  H   H59       1.0  0.53186  0.98790  0.92768  1.0000
  H   H60       1.0  0.04605  0.56418  0.70278  1.0000
  C   C1        1.0  0.81436  0.42604  0.27748  1.0000
  C   C2        1.0  0.79626  0.39255  0.29006  1.0000
  C   C3        1.0  0.76216  0.37701  0.29526  1.0000
  C   C4        1.0  0.76314  0.42888  0.27404  1.0000
  C   C5        1.0  0.79727  0.44406  0.27027  1.0000
  C   C6        1.0  0.50503  0.43253  0.26881  1.0000
  C   C7        1.0  0.54732  0.05984  0.27538  1.0000
  C   C8        1.0  0.92191  0.47464  0.26112  1.0000
  C   C9        1.0  0.46580  0.53171  0.20569  1.0000
  C   C10       1.0  0.43975  0.91616  0.22066  1.0000
  C   C11       1.0  0.05992  0.50782  0.24581  1.0000
  C   C12       1.0  0.53592  0.39073  0.26202  1.0000
  C   C13       1.0  0.58265  0.12760  0.22973  1.0000
  C   C14       1.0  0.84981  0.44287  0.26976  1.0000
  C   C15       1.0  0.43786  0.57642  0.21953  1.0000
  C   C16       1.0  0.40320  0.84811  0.26099  1.0000
  C   C17       1.0  0.13116  0.53798  0.23046  1.0000
  C   C18       1.0  0.29453  0.62371  0.21023  1.0000
  C   C19       1.0  0.34980  0.65425  0.20748  1.0000
  C   C20       1.0  0.31793  0.67812  0.20052  1.0000
  C   C21       1.0  0.68700  0.35288  0.29167  1.0000
  C   C22       1.0  0.63156  0.32047  0.29024  1.0000
  C   C23       1.0  0.66521  0.29847  0.30019  1.0000
  C   C24       1.0  0.74574  0.39547  0.28647  1.0000
  C   C25       1.0  0.45368  0.96671  0.13259  1.0000
  C   C26       1.0  0.53352  0.00871  0.35965  1.0000
  C   C27       1.0  0.47849  0.00118  0.14318  1.0000
  C   C28       1.0  0.50866  0.97384  0.34610  1.0000
  C   C29       1.0  0.51875  0.02284  0.25909  1.0000
  C   C30       1.0  0.46845  0.95258  0.23304  1.0000
  C   C31       1.0  0.57846  0.40426  0.78508  1.0000
  C   C32       1.0  0.61711  0.18878  0.75143  1.0000
  C   C33       1.0  0.83339  0.44666  0.78126  1.0000
  C   C34       1.0  0.39457  0.83384  0.74587  1.0000
  C   C35       1.0  0.18468  0.57257  0.71740  1.0000
  C   C36       1.0  0.61181  0.41671  0.77143  1.0000
  C   C37       1.0  0.60855  0.21395  0.80145  1.0000
  C   C38       1.0  0.81422  0.41310  0.79253  1.0000
  C   C39       1.0  0.40482  0.80998  0.70319  1.0000
  C   C40       1.0  0.20249  0.60581  0.70255  1.0000
  C   C41       1.0  0.62672  0.39702  0.77310  1.0000
  C   C42       1.0  0.63061  0.25012  0.82186  1.0000
  C   C43       1.0  0.78002  0.39837  0.79632  1.0000
  C   C44       1.0  0.38368  0.77382  0.68387  1.0000
  C   C45       1.0  0.23701  0.62190  0.70160  1.0000
  C   C46       1.0  0.57400  0.35055  0.79757  1.0000
  C   C47       1.0  0.67180  0.23734  0.74762  1.0000
  C   C48       1.0  0.78323  0.45141  0.77858  1.0000
  C   C49       1.0  0.34103  0.78463  0.75328  1.0000
  C   C50       1.0  0.23712  0.57109  0.73190  1.0000
  C   C51       1.0  0.55970  0.37077  0.79748  1.0000
  C   C52       1.0  0.64922  0.20119  0.72576  1.0000
  C   C53       1.0  0.81743  0.46576  0.77608  1.0000
  C   C54       1.0  0.36229  0.82055  0.77060  1.0000
  C   C55       1.0  0.20255  0.55536  0.73159  1.0000
  C   C56       1.0  0.53608  0.47059  0.81064  1.0000
  C   C57       1.0  0.55812  0.08233  0.76495  1.0000
  C   C58       1.0  0.94052  0.49340  0.76179  1.0000
  C   C59       1.0  0.49632  0.56936  0.74547  1.0000
  C   C60       1.0  0.45053  0.93832  0.70795  1.0000
  C   C61       1.0  0.07741  0.52496  0.73778  1.0000
  C   C62       1.0  0.56254  0.42457  0.78651  1.0000
  C   C63       1.0  0.59478  0.15073  0.72827  1.0000
  C   C64       1.0  0.86850  0.46234  0.77044  1.0000
  C   C65       1.0  0.46440  0.61007  0.74400  1.0000
  C   C66       1.0  0.41503  0.87107  0.75825  1.0000
  C   C67       1.0  0.14891  0.55554  0.72240  1.0000
  C   C68       1.0  0.31279  0.64709  0.71133  1.0000
  C   C69       1.0  0.36779  0.67930  0.70851  1.0000
  C   C70       1.0  0.33397  0.70108  0.69863  1.0000
  C   C71       1.0  0.70499  0.37625  0.79029  1.0000
  C   C72       1.0  0.64967  0.34581  0.79321  1.0000
  C   C73       1.0  0.68139  0.32176  0.79924  1.0000
  C   C74       1.0  0.35181  0.76141  0.71042  1.0000
  C   C75       1.0  0.25416  0.60423  0.71677  1.0000
  C   C76       1.0  0.60756  0.36388  0.78702  1.0000
  C   C77       1.0  0.66212  0.26144  0.79297  1.0000
  C   C78       1.0  0.76454  0.41770  0.78742  1.0000
  C   C79       1.0  0.46433  0.98914  0.62079  1.0000
  C   C80       1.0  0.02114  0.48775  0.77279  1.0000
  C   C81       1.0  0.54417  0.03143  0.84993  1.0000
  C   C82       1.0  0.99741  0.53134  0.73159  1.0000
  C   C83       1.0  0.48917  0.02408  0.63487  1.0000
  C   C84       1.0  0.98798  0.47869  0.77747  1.0000
  C   C85       1.0  0.51937  0.99687  0.83862  1.0000
  C   C86       1.0  0.03081  0.54060  0.72863  1.0000
  C   C87       1.0  0.52939  0.04560  0.74992  1.0000
  C   C88       1.0  0.97541  0.50023  0.75543  1.0000
  C   C89       1.0  0.47910  0.97517  0.72280  1.0000
  C   C90       1.0  0.04309  0.51884  0.74856  1.0000
  N   N1        1.0  0.52715  0.43167  0.18741  1.0000
  N   N2        1.0  0.53273  0.07823  0.22891  1.0000
  N   N3        1.0  0.89669  0.43965  0.24306  1.0000
  N   N4        1.0  0.43778  0.52802  0.24678  1.0000
  N   N5        1.0  0.45295  0.89603  0.25480  1.0000
  N   N6        1.0  0.08361  0.54115  0.24659  1.0000
  N   N7        1.0  0.29002  0.64976  0.20874  1.0000
  N   N8        1.0  0.32391  0.62414  0.21027  1.0000
  N   N9        1.0  0.34850  0.68234  0.20050  1.0000
  N   N10       1.0  0.69333  0.32819  0.29996  1.0000
  N   N11       1.0  0.65658  0.35083  0.28612  1.0000
  N   N12       1.0  0.63388  0.29286  0.29617  1.0000
  N   N13       1.0  0.54320  0.41342  0.18760  1.0000
  N   N14       1.0  0.55108  0.11313  0.23750  1.0000
  N   N15       1.0  0.86349  0.42426  0.25185  1.0000
  N   N16       1.0  0.42215  0.54658  0.24197  1.0000
  N   N17       1.0  0.43312  0.86049  0.23887  1.0000
  N   N18       1.0  0.11635  0.55562  0.23307  1.0000
  N   N19       1.0  0.56359  0.47384  0.76601  1.0000
  N   N20       1.0  0.54479  0.10239  0.73123  1.0000
  N   N21       1.0  0.91634  0.45958  0.75593  1.0000
  N   N22       1.0  0.47348  0.56961  0.82294  1.0000
  N   N23       1.0  0.46534  0.92052  0.76140  1.0000
  N   N24       1.0  0.10255  0.55955  0.75205  1.0000
  N   N25       1.0  0.30615  0.67151  0.70124  1.0000
  N   N26       1.0  0.34319  0.64922  0.71592  1.0000
  N   N27       1.0  0.36518  0.70667  0.70088  1.0000
  N   N28       1.0  0.70940  0.35010  0.79123  1.0000
  N   N29       1.0  0.67551  0.37576  0.78925  1.0000
  N   N30       1.0  0.65101  0.31778  0.80095  1.0000
  N   N31       1.0  0.57857  0.45464  0.76617  1.0000
  N   N32       1.0  0.56470  0.13811  0.74906  1.0000
  N   N33       1.0  0.88352  0.44492  0.76867  1.0000
  N   N34       1.0  0.45735  0.58778  0.82085  1.0000
  N   N35       1.0  0.44712  0.88588  0.75552  1.0000
  N   N36       1.0  0.13583  0.57466  0.74420  1.0000
  O   O1        1.0  0.38153  0.65990  0.21017  1.0000
  O   O2        1.0  0.31139  0.70306  0.19051  1.0000
  O   O3        1.0  0.26921  0.59274  0.21478  1.0000
  O   O4        1.0  0.59974  0.31393  0.29077  1.0000
  O   O5        1.0  0.67221  0.27368  0.30676  1.0000
  O   O6        1.0  0.71171  0.38437  0.28878  1.0000
  O   O7        1.0  0.48190  0.55402  0.14750  1.0000
  O   O8        1.0  0.40716  0.90558  0.18390  1.0000
  O   O9        1.0  0.06624  0.48464  0.23885  1.0000
  O   O10       1.0  0.49306  0.41358  0.34910  1.0000
  O   O11       1.0  0.58092  0.07242  0.32529  1.0000
  O   O12       1.0  0.91725  0.49916  0.28560  1.0000
  O   O13       1.0  0.39948  0.68578  0.70646  1.0000
  O   O14       1.0  0.32682  0.72579  0.69251  1.0000
  O   O15       1.0  0.28865  0.61595  0.71865  1.0000
  O   O16       1.0  0.61800  0.34026  0.79098  1.0000
  O   O17       1.0  0.68755  0.29652  0.80750  1.0000
  O   O18       1.0  0.73056  0.40744  0.78807  1.0000
  O   O19       1.0  0.50852  0.58855  0.66651  1.0000
  O   O20       1.0  0.41669  0.92539  0.65372  1.0000
  O   O21       1.0  0.08194  0.50035  0.71516  1.0000
  O   O22       1.0  0.52018  0.44832  0.86951  1.0000
  O   O23       1.0  0.59087  0.09328  0.80355  1.0000
  O   O24       1.0  0.93455  0.51690  0.77235  1.0000
  C  Sn1       1.0  0.54642  0.34138  0.35678  1.0000
  C   C91       1.0  0.55850  0.37342  0.33301  1.0000
  C  Sn2       1.0  0.58444  0.38560  0.26462  1.0000
  C  Sn3       1.0  0.59858  0.36531  0.21891  1.0000
  C   C92       1.0  0.58649  0.33329  0.24264  1.0000
  C  Sn4       1.0  0.56056  0.32110  0.31106  1.0000
  O  Te1       1.0  0.52047  0.32972  0.42534  1.0000
  O  Te2       1.0  0.59612  0.41771  0.24212  1.0000
  O  Te3       1.0  0.62456  0.37700  0.15030  1.0000
  O  Te4       1.0  0.54888  0.28900  0.33353  1.0000
  Mg  Mg1       1.0  0.63188  0.42242  0.14394  1.0000
  Mg  Mg2       1.0  0.51310  0.28426  0.43160  1.0000
  C  Sn5       1.0  0.48166  0.48365  0.72053  1.0000
  C   C93       1.0  0.51471  0.48902  0.72977  1.0000
  C  Sn6       1.0  0.54586  0.52423  0.77086  1.0000
  C  Sn7       1.0  0.54395  0.55471  0.80352  1.0000
  C   C94       1.0  0.51092  0.54933  0.79431  1.0000
  C  Sn8       1.0  0.47974  0.51413  0.75319  1.0000
  O  Te5       1.0  0.45086  0.44821  0.67924  1.0000
  O  Te6       1.0  0.57859  0.52892  0.77926  1.0000
  O  Te7       1.0  0.57479  0.59017  0.84482  1.0000
  O  Te8       1.0  0.44703  0.50944  0.74482  1.0000
  Mg  Mg3       1.0  0.61309  0.58255  0.84060  1.0000
  Mg  Mg4       1.0  0.41253  0.45583  0.68359  1.0000
  C  Sn9       1.0  0.52600  0.50510  0.30517  1.0000
  C   C95       1.0  0.50611  0.47117  0.31060  1.0000
  C  Sn10      1.0  0.46733  0.45149  0.25694  1.0000
  C  Sn11      1.0  0.44801  0.46601  0.19647  1.0000
  C   C96       1.0  0.46789  0.49991  0.19102  1.0000
  C  Sn12      1.0  0.50668  0.51962  0.24469  1.0000
  O  Te9       1.0  0.56476  0.52430  0.35944  1.0000
  O  Te10      1.0  0.44806  0.41763  0.26363  1.0000
  O  Te11      1.0  0.40922  0.44677  0.14219  1.0000
  O  Te12      1.0  0.52594  0.55345  0.23800  1.0000
  Mg  Mg5       1.0  0.39539  0.40181  0.17554  1.0000
  Mg  Mg6       1.0  0.57861  0.56929  0.32595  1.0000
  C  Sn13      1.0  0.44393  0.66927  0.64071  1.0000
  C   C97       1.0  0.41187  0.66013  0.65997  1.0000
  C  Sn14      1.0  0.39771  0.63572  0.73505  1.0000
  C  Sn15      1.0  0.41598  0.62012  0.79219  1.0000
  C   C98       1.0  0.44802  0.62926  0.77295  1.0000
  C  Sn16      1.0  0.46220  0.65367  0.69785  1.0000
  O  Te13      1.0  0.45759  0.69374  0.56530  1.0000
  O  Te14      1.0  0.36561  0.62699  0.75287  1.0000
  O  Te15      1.0  0.40229  0.59563  0.86764  1.0000
  O  Te16      1.0  0.49428  0.66239  0.68005  1.0000
  Mg  Mg7       1.0  0.35775  0.59230  0.86376  1.0000
  Mg  Mg8       1.0  0.50218  0.69710  0.56928  1.0000
  C  Sn17      1.0  0.98843  0.45783  0.20836  1.0000
  C   C99       1.0  0.01434  0.48904  0.19752  1.0000
  C  Sn18      1.0  0.01334  0.51965  0.23268  1.0000
  C  Sn19      1.0  0.98590  0.51905  0.27979  1.0000
  C   C100      1.0  0.96002  0.48786  0.29065  1.0000
  C  Sn20      1.0  0.96099  0.45723  0.25547  1.0000
  O  Te17      1.0  0.98995  0.42755  0.17266  1.0000
  O  Te18      1.0  0.03952  0.55053  0.22092  1.0000
  O  Te19      1.0  0.98440  0.54937  0.31549  1.0000
  O  Te20      1.0  0.93483  0.42637  0.26725  1.0000
  Mg  Mg9       1.0  0.02610  0.58500  0.28202  1.0000
  Mg  Mg10      1.0  0.94825  0.39190  0.20627  1.0000
  C  Sn21      1.0  0.32280  0.76563  0.19584  1.0000
  C   C101      1.0  0.32816  0.73795  0.15337  1.0000
  C  Sn22      1.0  0.36305  0.74766  0.16962  1.0000
  C  Sn23      1.0  0.39323  0.78584  0.22970  1.0000
  C   C102      1.0  0.38787  0.81349  0.27216  1.0000
  C  Sn24      1.0  0.35298  0.80381  0.25592  1.0000
  O  Te21      1.0  0.28768  0.75528  0.17861  1.0000
  O  Te22      1.0  0.36772  0.71948  0.12630  1.0000
  O  Te23      1.0  0.42837  0.79617  0.24690  1.0000
  O  Te24      1.0  0.34831  0.83195  0.29923  1.0000
  Mg  Mg11      1.0  0.42085  0.74763  0.17176  1.0000
  Mg  Mg12      1.0  0.29520  0.80384  0.25392  1.0000
  C  Sn25      1.0  0.20397  0.53795  0.17477  1.0000
  C   C103      1.0  0.22615  0.57046  0.16192  1.0000
  C  Sn26      1.0  0.22007  0.59763  0.19552  1.0000
  C  Sn27      1.0  0.19123  0.59221  0.24308  1.0000
  C   C104      1.0  0.16907  0.55972  0.25595  1.0000
  C  Sn28      1.0  0.17513  0.53253  0.22234  1.0000
  O  Te25      1.0  0.21055  0.51116  0.14061  1.0000
  O  Te26      1.0  0.24259  0.62989  0.18175  1.0000
  O  Te27      1.0  0.18466  0.61903  0.27725  1.0000
  O  Te28      1.0  0.15263  0.50029  0.23611  1.0000
  Mg  Mg13      1.0  0.22277  0.65829  0.24129  1.0000
  Mg  Mg14      1.0  0.17244  0.47188  0.17671  1.0000
  C  Sn29      1.0  0.64674  0.20145  0.16955  1.0000
  C   C105      1.0  0.64192  0.22938  0.22336  1.0000
  C  Sn30      1.0  0.61906  0.22665  0.30868  1.0000
  C  Sn31      1.0  0.60065  0.19536  0.34100  1.0000
  C   C106      1.0  0.60547  0.16746  0.28723  1.0000
  C  Sn32      1.0  0.62832  0.17017  0.20187  1.0000
  O  Te29      1.0  0.66972  0.20476  0.08448  1.0000
  O  Te30      1.0  0.61467  0.25491  0.36119  1.0000
  O  Te31      1.0  0.57765  0.19208  0.42614  1.0000
  O  Te32      1.0  0.63272  0.14193  0.14941  1.0000
  Mg  Mg15      1.0  0.58049  0.23779  0.47257  1.0000
  Mg  Mg16      1.0  0.66691  0.15903  0.03812  1.0000
  C  Sn33      1.0  0.42416  0.64105  0.14177  1.0000
  C   C107      1.0  0.39218  0.63301  0.15915  1.0000
  C  Sn34      1.0  0.37580  0.60739  0.22467  1.0000
  C  Sn35      1.0  0.39174  0.58945  0.27399  1.0000
  C   C108      1.0  0.42372  0.59750  0.25664  1.0000
  C  Sn36      1.0  0.44011  0.62311  0.19109  1.0000
  O  Te33      1.0  0.44007  0.66675  0.07597  1.0000
  O  Te34      1.0  0.34382  0.59980  0.24078  1.0000
  O  Te35      1.0  0.37581  0.56373  0.33982  1.0000
  O  Te36      1.0  0.47207  0.63071  0.17500  1.0000
  Mg  Mg17      1.0  0.33240  0.56270  0.33733  1.0000
  Mg  Mg18      1.0  0.48352  0.66782  0.07858  1.0000
