data_image0
_chemical_formula_structural       H24C36N36O24SnCSn2CSnTe4Mg2SnCSn2CSnTe4Mg2SnCSn2CSnTe4Mg2SnCSn2CSnTe4Mg2SnCSn2CSnTe4Mg2SnCSn2CSnTe4Mg2SnCSn2CSnTe4Mg2SnCSn2CSnTe4Mg2SnCSn2CSnTe4Mg2SnCSn2CSnTe4Mg2SnCSn2CSnTe4Mg2SnCSn2CSnTe4Mg2SnCSn2CSnTe4Mg2SnCSn2CSnTe4Mg2SnCSn2CSnTe4Mg2SnCSn2CSnTe4Mg2SnCSn2CSnTe4Mg2SnCSn2CSnTe4Mg2
_chemical_formula_sum              "H24 C72 N36 O24 Sn72 Te72 Mg36"
_cell_length_a       46.2757
_cell_length_b       46.3856
_cell_length_c       8.08692
_cell_angle_alpha    105.746
_cell_angle_beta     106.951
_cell_angle_gamma    119.669

_symmetry_space_group_name_H-M    'P1'
_space_group_IT_number       1

loop_
  _space_group_symop_operation_xyz
  'x, y, z'

loop_
  _atom_site_type_symbol
  _atom_site_label
  _atom_site_symmetry_multiplicity
  _atom_site_fract_x
  _atom_site_fract_y
  _atom_site_fract_z
  _atom_site_occupancy
  H   H1        1.0  0.52981  0.44313  0.09548  1.0000
  H   H2        1.0  0.50747  0.06928  0.22481  1.0000
  H   H3        1.0  0.90266  0.42116  0.21804  1.0000
  H   H4        1.0  0.42665  0.50939  0.29532  1.0000
  H   H5        1.0  0.47601  0.90257  0.23827  1.0000
  H   H6        1.0  0.07554  0.55785  0.24682  1.0000
  H   H7        1.0  0.51586  0.38411  0.31702  1.0000
  H   H8        1.0  0.59506  0.11294  0.21562  1.0000
  H   H9        1.0  0.86373  0.47061  0.27748  1.0000
  H   H10       1.0  0.46346  0.58782  0.20579  1.0000
  H   H11       1.0  0.39342  0.86491  0.29326  1.0000
  H   H12       1.0  0.11844  0.51177  0.23840  1.0000
  H   H13       1.0  0.57435  0.49219  0.71547  1.0000
  H   H14       1.0  0.52155  0.09564  0.74630  1.0000
  H   H15       1.0  0.92400  0.44248  0.75103  1.0000
  H   H16       1.0  0.47093  0.55848  0.91621  1.0000
  H   H17       1.0  0.49099  0.92975  0.77005  1.0000
  H   H18       1.0  0.09720  0.57852  0.78015  1.0000
  H   H19       1.0  0.53727  0.41352  0.80321  1.0000
  H   H20       1.0  0.60469  0.13406  0.69604  1.0000
  H   H21       1.0  0.88118  0.48861  0.76273  1.0000
  H   H22       1.0  0.48417  0.61628  0.68723  1.0000
  H   H23       1.0  0.40211  0.88530  0.76667  1.0000
  H   H24       1.0  0.13449  0.52751  0.71125  1.0000
  C   C1        1.0  0.50503  0.43253  0.26881  1.0000
  C   C2        1.0  0.54732  0.05984  0.27538  1.0000
  C   C3        1.0  0.92191  0.47464  0.26112  1.0000
  C   C4        1.0  0.46580  0.53171  0.20569  1.0000
  C   C5        1.0  0.43975  0.91616  0.22066  1.0000
  C   C6        1.0  0.05992  0.50782  0.24581  1.0000
  C   C7        1.0  0.53592  0.39073  0.26202  1.0000
  C   C8        1.0  0.58265  0.12760  0.22973  1.0000
  C   C9        1.0  0.84981  0.44287  0.26976  1.0000
  C   C10       1.0  0.43786  0.57642  0.21953  1.0000
  C   C11       1.0  0.40320  0.84811  0.26099  1.0000
  C   C12       1.0  0.13116  0.53798  0.23046  1.0000
  C   C13       1.0  0.29453  0.62371  0.21023  1.0000
  C   C14       1.0  0.34980  0.65425  0.20748  1.0000
  C   C15       1.0  0.31793  0.67812  0.20052  1.0000
  C   C16       1.0  0.68700  0.35288  0.29167  1.0000
  C   C17       1.0  0.63156  0.32047  0.29024  1.0000
  C   C18       1.0  0.66521  0.29847  0.30019  1.0000
  C   C19       1.0  0.53608  0.47059  0.81064  1.0000
  C   C20       1.0  0.55812  0.08233  0.76495  1.0000
  C   C21       1.0  0.94052  0.49340  0.76179  1.0000
  C   C22       1.0  0.49632  0.56936  0.74547  1.0000
  C   C23       1.0  0.45053  0.93832  0.70795  1.0000
  C   C24       1.0  0.07741  0.52496  0.73778  1.0000
  C   C25       1.0  0.56254  0.42457  0.78651  1.0000
  C   C26       1.0  0.59478  0.15073  0.72827  1.0000
  C   C27       1.0  0.86850  0.46234  0.77044  1.0000
  C   C28       1.0  0.46440  0.61007  0.74400  1.0000
  C   C29       1.0  0.41503  0.87107  0.75825  1.0000
  C   C30       1.0  0.14891  0.55554  0.72240  1.0000
  C   C31       1.0  0.31279  0.64709  0.71133  1.0000
  C   C32       1.0  0.36779  0.67930  0.70851  1.0000
  C   C33       1.0  0.33397  0.70108  0.69863  1.0000
  C   C34       1.0  0.70499  0.37625  0.79029  1.0000
  C   C35       1.0  0.64967  0.34581  0.79321  1.0000
  C   C36       1.0  0.68139  0.32176  0.79924  1.0000
  N   N1        1.0  0.52715  0.43167  0.18741  1.0000
  N   N2        1.0  0.53273  0.07823  0.22891  1.0000
  N   N3        1.0  0.89669  0.43965  0.24306  1.0000
  N   N4        1.0  0.43778  0.52802  0.24678  1.0000
  N   N5        1.0  0.45295  0.89603  0.25480  1.0000
  N   N6        1.0  0.08361  0.54115  0.24659  1.0000
  N   N7        1.0  0.29002  0.64976  0.20874  1.0000
  N   N8        1.0  0.32391  0.62414  0.21027  1.0000
  N   N9        1.0  0.34850  0.68234  0.20050  1.0000
  N   N10       1.0  0.69333  0.32819  0.29996  1.0000
  N   N11       1.0  0.65658  0.35083  0.28612  1.0000
  N   N12       1.0  0.63388  0.29286  0.29617  1.0000
  N   N13       1.0  0.54320  0.41342  0.18760  1.0000
  N   N14       1.0  0.55108  0.11313  0.23750  1.0000
  N   N15       1.0  0.86349  0.42426  0.25185  1.0000
  N   N16       1.0  0.42215  0.54658  0.24197  1.0000
  N   N17       1.0  0.43312  0.86049  0.23887  1.0000
  N   N18       1.0  0.11635  0.55562  0.23307  1.0000
  N   N19       1.0  0.56359  0.47384  0.76601  1.0000
  N   N20       1.0  0.54479  0.10239  0.73123  1.0000
  N   N21       1.0  0.91634  0.45958  0.75593  1.0000
  N   N22       1.0  0.47348  0.56961  0.82294  1.0000
  N   N23       1.0  0.46534  0.92052  0.76140  1.0000
  N   N24       1.0  0.10255  0.55955  0.75205  1.0000
  N   N25       1.0  0.30615  0.67151  0.70124  1.0000
  N   N26       1.0  0.34319  0.64922  0.71592  1.0000
  N   N27       1.0  0.36518  0.70667  0.70088  1.0000
  N   N28       1.0  0.70940  0.35010  0.79123  1.0000
  N   N29       1.0  0.67551  0.37576  0.78925  1.0000
  N   N30       1.0  0.65101  0.31778  0.80095  1.0000
  N   N31       1.0  0.57857  0.45464  0.76617  1.0000
  N   N32       1.0  0.56470  0.13811  0.74906  1.0000
  N   N33       1.0  0.88352  0.44492  0.76867  1.0000
  N   N34       1.0  0.45735  0.58778  0.82085  1.0000
  N   N35       1.0  0.44712  0.88588  0.75552  1.0000
  N   N36       1.0  0.13583  0.57466  0.74420  1.0000
  O   O1        1.0  0.38153  0.65990  0.21017  1.0000
  O   O2        1.0  0.31139  0.70306  0.19051  1.0000
  O   O3        1.0  0.26921  0.59274  0.21478  1.0000
  O   O4        1.0  0.59974  0.31393  0.29077  1.0000
  O   O5        1.0  0.67221  0.27368  0.30676  1.0000
  O   O6        1.0  0.71171  0.38437  0.28878  1.0000
  O   O7        1.0  0.48190  0.55402  0.14750  1.0000
  O   O8        1.0  0.40716  0.90558  0.18390  1.0000
  O   O9        1.0  0.06624  0.48464  0.23885  1.0000
  O   O10       1.0  0.49306  0.41358  0.34910  1.0000
  O   O11       1.0  0.58092  0.07242  0.32529  1.0000
  O   O12       1.0  0.91725  0.49916  0.28560  1.0000
  O   O13       1.0  0.39948  0.68578  0.70646  1.0000
  O   O14       1.0  0.32682  0.72579  0.69251  1.0000
  O   O15       1.0  0.28865  0.61595  0.71865  1.0000
  O   O16       1.0  0.61800  0.34026  0.79098  1.0000
  O   O17       1.0  0.68755  0.29652  0.80750  1.0000
  O   O18       1.0  0.73056  0.40744  0.78807  1.0000
  O   O19       1.0  0.50852  0.58855  0.66651  1.0000
  O   O20       1.0  0.41669  0.92539  0.65372  1.0000
  O   O21       1.0  0.08194  0.50035  0.71516  1.0000
  O   O22       1.0  0.52018  0.44832  0.86951  1.0000
  O   O23       1.0  0.59087  0.09328  0.80355  1.0000
  O   O24       1.0  0.93455  0.51690  0.77235  1.0000
  C  Sn1       1.0  0.54226  0.31730  0.23972  1.0000
  C   C37       1.0  0.57546  0.32758  0.23067  1.0000
  C  Sn2       1.0  0.60154  0.36400  0.26137  1.0000
  C  Sn3       1.0  0.59429  0.39072  0.30208  1.0000
  C   C38       1.0  0.56110  0.38044  0.31115  1.0000
  C  Sn4       1.0  0.53501  0.34402  0.28044  1.0000
  O  Te1       1.0  0.51659  0.28073  0.20856  1.0000
  O  Te2       1.0  0.63453  0.37361  0.25151  1.0000
  O  Te3       1.0  0.61999  0.42731  0.33325  1.0000
  O  Te4       1.0  0.50204  0.33441  0.29031  1.0000
  Mg  Mg1       1.0  0.66087  0.42693  0.30468  1.0000
  Mg  Mg2       1.0  0.47569  0.28111  0.23727  1.0000
  C  Sn5       1.0  0.58940  0.19283  0.24028  1.0000
  C   C39       1.0  0.59555  0.16576  0.19754  1.0000
  C  Sn6       1.0  0.63067  0.17631  0.21388  1.0000
  C  Sn7       1.0  0.66028  0.21473  0.27433  1.0000
  C   C40       1.0  0.65413  0.24178  0.31707  1.0000
  C  Sn8       1.0  0.61901  0.23125  0.30073  1.0000
  O  Te5       1.0  0.55406  0.18164  0.22295  1.0000
  O  Te6       1.0  0.63614  0.14873  0.17029  1.0000
  O  Te7       1.0  0.69564  0.22590  0.29164  1.0000
  O  Te8       1.0  0.61354  0.25880  0.34431  1.0000
  Mg  Mg3       1.0  0.68929  0.17794  0.21603  1.0000
  Mg  Mg4       1.0  0.56041  0.22963  0.29873  1.0000
  C  Sn9       1.0  0.79628  0.44934  0.33077  1.0000
  C   C41       1.0  0.81656  0.43486  0.33240  1.0000
  C  Sn10      1.0  0.79907  0.39726  0.29325  1.0000
  C  Sn11      1.0  0.76050  0.37362  0.25146  1.0000
  C   C42       1.0  0.74025  0.38810  0.24981  1.0000
  C  Sn12      1.0  0.75771  0.42570  0.28899  1.0000
  O  Te9       1.0  0.81434  0.48702  0.37033  1.0000
  O  Te10      1.0  0.81993  0.38342  0.29578  1.0000
  O  Te11      1.0  0.74245  0.33591  0.21190  1.0000
  O  Te12      1.0  0.73688  0.43953  0.28643  1.0000
  Mg  Mg5       1.0  0.78278  0.33015  0.23253  1.0000
  Mg  Mg6       1.0  0.77399  0.49280  0.34955  1.0000
  C  Sn13      1.0  0.38022  0.60329  0.28653  1.0000
  C   C43       1.0  0.39412  0.63599  0.26783  1.0000
  C  Sn14      1.0  0.42070  0.64769  0.20305  1.0000
  C  Sn15      1.0  0.43365  0.62625  0.15584  1.0000
  C   C44       1.0  0.41975  0.59357  0.17451  1.0000
  C  Sn16      1.0  0.39318  0.58184  0.23932  1.0000
  O  Te13      1.0  0.35366  0.59211  0.35156  1.0000
  O  Te14      1.0  0.43418  0.68049  0.18559  1.0000
  O  Te15      1.0  0.46023  0.63745  0.09078  1.0000
  O  Te16      1.0  0.37969  0.54906  0.25676  1.0000
  Mg  Mg7       1.0  0.47014  0.68415  0.09083  1.0000
  Mg  Mg8       1.0  0.34372  0.54537  0.35140  1.0000
  C  Sn17      1.0  0.37969  0.77229  0.12567  1.0000
  C   C45       1.0  0.37499  0.80040  0.17358  1.0000
  C  Sn18      1.0  0.35224  0.79864  0.25835  1.0000
  C  Sn19      1.0  0.33382  0.76817  0.29615  1.0000
  C   C46       1.0  0.33852  0.74008  0.24828  1.0000
  C  Sn20      1.0  0.36127  0.74182  0.16346  1.0000
  O  Te17      1.0  0.40257  0.77462  0.04104  1.0000
  O  Te18      1.0  0.34796  0.82707  0.30491  1.0000
  O  Te19      1.0  0.31092  0.76586  0.38084  1.0000
  O  Te20      1.0  0.36556  0.71342  0.11695  1.0000
  Mg  Mg9       1.0  0.31389  0.81141  0.41812  1.0000
  Mg  Mg10      1.0  0.39963  0.72905  0.00384  1.0000
  C  Sn21      1.0  0.20397  0.53795  0.17477  1.0000
  C   C47       1.0  0.22615  0.57046  0.16192  1.0000
  C  Sn22      1.0  0.22007  0.59763  0.19552  1.0000
  C  Sn23      1.0  0.19123  0.59221  0.24308  1.0000
  C   C48       1.0  0.16907  0.55972  0.25595  1.0000
  C  Sn24      1.0  0.17513  0.53253  0.22234  1.0000
  O  Te21      1.0  0.21055  0.51116  0.14061  1.0000
  O  Te22      1.0  0.24259  0.62989  0.18175  1.0000
  O  Te23      1.0  0.18466  0.61903  0.27725  1.0000
  O  Te24      1.0  0.15263  0.50029  0.23611  1.0000
  Mg  Mg11      1.0  0.22277  0.65829  0.24129  1.0000
  Mg  Mg12      1.0  0.17244  0.47188  0.17671  1.0000
  C  Sn25      1.0  0.45868  0.47427  0.30900  1.0000
  C   C49       1.0  0.47695  0.50644  0.28719  1.0000
  C  Sn26      1.0  0.50532  0.51480  0.23566  1.0000
  C  Sn27      1.0  0.51565  0.49049  0.20516  1.0000
  C   C50       1.0  0.49738  0.45834  0.22693  1.0000
  C  Sn28      1.0  0.46900  0.44996  0.27850  1.0000
  O  Te25      1.0  0.43039  0.46647  0.36059  1.0000
  O  Te26      1.0  0.52319  0.54713  0.21478  1.0000
  O  Te27      1.0  0.54396  0.49832  0.15354  1.0000
  O  Te28      1.0  0.45114  0.41765  0.29934  1.0000
  Mg  Mg13      1.0  0.56001  0.54570  0.14255  1.0000
  Mg  Mg14      1.0  0.41430  0.41904  0.37146  1.0000
  C  Sn29      1.0  0.02668  0.99610  0.31778  1.0000
  C   C51       1.0  0.01680  0.01441  0.23024  1.0000
  C  Sn30      1.0  0.97942  0.00307  0.15448  1.0000
  C  Sn31      1.0  0.95132  0.97282  0.16657  1.0000
  C   C52       1.0  0.96121  0.95453  0.25410  1.0000
  C  Sn32      1.0  0.99859  0.96585  0.32987  1.0000
  O  Te29      1.0  0.06423  0.00791  0.39255  1.0000
  O  Te30      1.0  0.47406  0.02180  0.06758  1.0000
  O  Te31      1.0  0.91375  0.96101  0.09171  1.0000
  O  Te32      1.0  0.00779  0.94715  0.41676  1.0000
  Mg  Mg15      1.0  0.01378  0.09136  0.98711  1.0000
  Mg  Mg16      1.0  0.06280  0.97356  0.49736  1.0000
  C  Sn33      1.0  0.98843  0.45783  0.20836  1.0000
  C   C53       1.0  0.01434  0.48904  0.19752  1.0000
  C  Sn34      1.0  0.01334  0.51965  0.23268  1.0000
  C  Sn35      1.0  0.98590  0.51905  0.27979  1.0000
  C   C54       1.0  0.96002  0.48786  0.29065  1.0000
  C  Sn36      1.0  0.96099  0.45723  0.25547  1.0000
  O  Te33      1.0  0.98995  0.42755  0.17266  1.0000
  O  Te34      1.0  0.03952  0.55053  0.22092  1.0000
  O  Te35      1.0  0.98440  0.54937  0.31549  1.0000
  O  Te36      1.0  0.93483  0.42637  0.26725  1.0000
  Mg  Mg17      1.0  0.02610  0.58500  0.28202  1.0000
  Mg  Mg18      1.0  0.94825  0.39190  0.20627  1.0000
  C  Sn37      1.0  0.63236  0.40959  0.83189  1.0000
  C   C55       1.0  0.61728  0.37582  0.84072  1.0000
  C  Sn38      1.0  0.57949  0.35323  0.80313  1.0000
  C  Sn39      1.0  0.55628  0.36462  0.75559  1.0000
  C   C56       1.0  0.57135  0.39836  0.74675  1.0000
  C  Sn40      1.0  0.60914  0.42097  0.78435  1.0000
  O  Te37      1.0  0.67021  0.43172  0.87001  1.0000
  O  Te38      1.0  0.56506  0.31960  0.81291  1.0000
  O  Te39      1.0  0.51840  0.34245  0.71747  1.0000
  O  Te40      1.0  0.62357  0.45458  0.77456  1.0000
  Mg  Mg19      1.0  0.51176  0.29907  0.74886  1.0000
  Mg  Mg20      1.0  0.67685  0.47512  0.83848  1.0000
  C  Sn41      1.0  0.63146  0.24766  0.88028  1.0000
  C   C57       1.0  0.66276  0.26357  0.84980  1.0000
  C  Sn42      1.0  0.67014  0.24045  0.75203  1.0000
  C  Sn43      1.0  0.64570  0.20059  0.68317  1.0000
  C   C58       1.0  0.61441  0.18470  0.71363  1.0000
  C  Sn44      1.0  0.60702  0.20780  0.81142  1.0000
  O  Te41      1.0  0.62463  0.27132  0.97838  1.0000
  O  Te42      1.0  0.70162  0.25702  0.72335  1.0000
  O  Te43      1.0  0.65256  0.17694  0.58501  1.0000
  O  Te44      1.0  0.57555  0.19126  0.84007  1.0000
  Mg  Mg21      1.0  0.69902  0.21290  0.58146  1.0000
  Mg  Mg22      1.0  0.57812  0.23534  0.98185  1.0000
  C  Sn45      1.0  0.80070  0.40159  0.73373  1.0000
  C   C59       1.0  0.82355  0.43486  0.72805  1.0000
  C  Sn46      1.0  0.81847  0.46272  0.77185  1.0000
  C  Sn47      1.0  0.78996  0.45722  0.82251  1.0000
  C   C60       1.0  0.76713  0.42397  0.82820  1.0000
  C  Sn48      1.0  0.77219  0.39609  0.78439  1.0000
  O  Te45      1.0  0.80629  0.37413  0.68941  1.0000
  O  Te46      1.0  0.84165  0.49573  0.76513  1.0000
  O  Te47      1.0  0.78439  0.48472  0.86684  1.0000
  O  Te48      1.0  0.74903  0.36310  0.79113  1.0000
  Mg  Mg23      1.0  0.82311  0.52488  0.83762  1.0000
  Mg  Mg24      1.0  0.76757  0.33395  0.71876  1.0000
  C  Sn49      1.0  0.40002  0.60896  0.68649  1.0000
  C   C61       1.0  0.43363  0.61970  0.68120  1.0000
  C  Sn50      1.0  0.45942  0.65607  0.71058  1.0000
  C  Sn51      1.0  0.45146  0.68228  0.74612  1.0000
  C   C62       1.0  0.41787  0.67155  0.75143  1.0000
  C  Sn52      1.0  0.39206  0.63517  0.72202  1.0000
  O  Te49      1.0  0.37464  0.57245  0.65672  1.0000
  O  Te50      1.0  0.49283  0.66614  0.70455  1.0000
  O  Te51      1.0  0.47686  0.71881  0.77589  1.0000
  O  Te52      1.0  0.35867  0.62510  0.72808  1.0000
  Mg  Mg25      1.0  0.51853  0.71918  0.75391  1.0000
  Mg  Mg26      1.0  0.33296  0.57208  0.67884  1.0000
  C  Sn53      1.0  0.39504  0.79727  0.63742  1.0000
  C   C63       1.0  0.38957  0.82478  0.68617  1.0000
  C  Sn54      1.0  0.36618  0.82186  0.76814  1.0000
  C  Sn55      1.0  0.34789  0.79081  0.80222  1.0000
  C   C64       1.0  0.35337  0.76332  0.75351  1.0000
  C  Sn56      1.0  0.37675  0.76621  0.67150  1.0000
  O  Te53      1.0  0.41855  0.80076  0.55564  1.0000
  O  Te54      1.0  0.36113  0.84971  0.81560  1.0000
  O  Te55      1.0  0.32437  0.78733  0.88406  1.0000
  O  Te56      1.0  0.38180  0.73839  0.62409  1.0000
  Mg  Mg27      1.0  0.32640  0.83247  0.92396  1.0000
  Mg  Mg28      1.0  0.41654  0.75561  0.51582  1.0000
  C  Sn57      1.0  0.20378  0.60461  0.64093  1.0000
  C   C65       1.0  0.18329  0.57262  0.66081  1.0000
  C  Sn58      1.0  0.20083  0.55765  0.72915  1.0000
  C  Sn59      1.0  0.23968  0.57504  0.77878  1.0000
  C   C66       1.0  0.26016  0.60702  0.75893  1.0000
  C  Sn60      1.0  0.24263  0.62200  0.69056  1.0000
  O  Te57      1.0  0.18566  0.61909  0.57233  1.0000
  O  Te58      1.0  0.17976  0.52563  0.74774  1.0000
  O  Te59      1.0  0.25779  0.56053  0.84742  1.0000
  O  Te60      1.0  0.26369  0.65400  0.67200  1.0000
  Mg  Mg29      1.0  0.21710  0.51646  0.84762  1.0000
  Mg  Mg30      1.0  0.22638  0.66321  0.57224  1.0000
  C  Sn61      1.0  0.48166  0.48365  0.72053  1.0000
  C   C67       1.0  0.51471  0.48902  0.72977  1.0000
  C  Sn62      1.0  0.54586  0.52423  0.77086  1.0000
  C  Sn63      1.0  0.54395  0.55471  0.80352  1.0000
  C   C68       1.0  0.51092  0.54933  0.79431  1.0000
  C  Sn64      1.0  0.47974  0.51413  0.75319  1.0000
  O  Te61      1.0  0.45086  0.44821  0.67924  1.0000
  O  Te62      1.0  0.57859  0.52892  0.77926  1.0000
  O  Te63      1.0  0.57479  0.59017  0.84482  1.0000
  O  Te64      1.0  0.44703  0.50944  0.74482  1.0000
  Mg  Mg31      1.0  0.61309  0.58255  0.84060  1.0000
  Mg  Mg32      1.0  0.41253  0.45583  0.68359  1.0000
  C  Sn65      1.0  0.03736  0.01873  0.81017  1.0000
  C   C69       1.0  0.02744  0.03631  0.71645  1.0000
  C  Sn66      1.0  0.99003  0.02491  0.63801  1.0000
  C  Sn67      1.0  0.96194  0.99535  0.65368  1.0000
  C   C70       1.0  0.97187  0.97779  0.74739  1.0000
  C  Sn68      1.0  0.00928  0.98916  0.82584  1.0000
  O  Te65      1.0  0.07494  0.03058  0.88753  1.0000
  O  Te66      1.0  0.98079  0.04290  0.54491  1.0000
  O  Te67      1.0  0.92434  0.98351  0.57622  1.0000
  O  Te68      1.0  0.01852  0.97120  0.91892  1.0000
  Mg  Mg33      1.0  0.92574  0.01673  0.46300  1.0000
  Mg  Mg34      1.0  0.97498  0.90137  0.00097  1.0000
  C  Sn69      1.0  0.99832  0.52827  0.66861  1.0000
  C   C71       1.0  0.97442  0.49940  0.69936  1.0000
  C  Sn70      1.0  0.98695  0.48145  0.77492  1.0000
  C  Sn71      1.0  0.02416  0.49259  0.82082  1.0000
  C   C72       1.0  0.04804  0.52144  0.79011  1.0000
  C  Sn72      1.0  0.03553  0.53941  0.71451  1.0000
  O  Te69      1.0  0.98520  0.54583  0.59294  1.0000
  O  Te70      1.0  0.96254  0.45265  0.80433  1.0000
  O  Te71      1.0  0.03727  0.47500  0.89654  1.0000
  O  Te72      1.0  0.05992  0.56819  0.68514  1.0000
  Mg  Mg35      1.0  0.99345  0.43728  0.91073  1.0000
  Mg  Mg36      1.0  0.02905  0.58359  0.57885  1.0000
