data_image0
_chemical_formula_structural       H36C60N24O12SnCSn2CSnTe4Mg2SnCSn2CSnTe4Mg2SnCSn2CSnTe4Mg2SnCSn2CSnTe4Mg2SnCSn2CSnTe4Mg2SnCSn2CSnTe4Mg2
_chemical_formula_sum              "H36 C72 N24 O12 Sn24 Te24 Mg12"
_cell_length_a       32.2378
_cell_length_b       32.4292
_cell_length_c       7.97783
_cell_angle_alpha    121.043
_cell_angle_beta     69.9043
_cell_angle_gamma    120.162

_symmetry_space_group_name_H-M    'P1'
_space_group_IT_number       1

loop_
  _space_group_symop_operation_xyz
  'x, y, z'

loop_
  _atom_site_type_symbol
  _atom_site_label
  _atom_site_symmetry_multiplicity
  _atom_site_fract_x
  _atom_site_fract_y
  _atom_site_fract_z
  _atom_site_occupancy
  H   H1        1.0  0.81862  0.49201  0.23825  1.0000
  H   H2        1.0  0.48761  0.67059  0.30590  1.0000
  H   H3        1.0  0.33327  0.81731  0.21467  1.0000
  H   H4        1.0  0.90545  0.51795  0.25150  1.0000
  H   H5        1.0  0.50929  0.60380  0.28785  1.0000
  H   H6        1.0  0.39725  0.90498  0.22775  1.0000
  H   H7        1.0  0.86533  0.37233  0.27069  1.0000
  H   H8        1.0  0.36618  0.48727  0.15004  1.0000
  H   H9        1.0  0.50028  0.87077  0.30591  1.0000
  H   H10       1.0  0.77970  0.34588  0.25112  1.0000
  H   H11       1.0  0.34454  0.55361  0.17147  1.0000
  H   H12       1.0  0.43726  0.78338  0.28717  1.0000
  H   H13       1.0  0.94888  0.43395  0.28972  1.0000
  H   H14       1.0  0.56604  0.52007  0.27768  1.0000
  H   H15       1.0  0.47953  0.04278  0.21556  1.0000
  H   H16       1.0  0.04924  0.57634  0.23244  1.0000
  H   H17       1.0  0.42246  0.46120  0.16666  1.0000
  H   H18       1.0  0.52672  0.95581  0.31016  1.0000
  H   H19       1.0  0.82634  0.48901  0.72465  1.0000
  H   H20       1.0  0.66748  0.18183  0.77254  1.0000
  H   H21       1.0  0.32719  0.81931  0.73247  1.0000
  H   H22       1.0  0.91197  0.51098  0.73853  1.0000
  H   H23       1.0  0.60376  0.09465  0.76543  1.0000
  H   H24       1.0  0.38873  0.90843  0.75157  1.0000
  H   H25       1.0  0.86430  0.36619  0.77882  1.0000
  H   H26       1.0  0.49725  0.13370  0.74215  1.0000
  H   H27       1.0  0.49748  0.87514  0.79117  1.0000
  H   H28       1.0  0.77958  0.34396  0.76148  1.0000
  H   H29       1.0  0.56029  0.22087  0.75543  1.0000
  H   H30       1.0  0.43689  0.78654  0.76758  1.0000
  H   H31       1.0  0.94952  0.42511  0.79244  1.0000
  H   H32       1.0  0.57788  0.53486  0.79608  1.0000
  H   H33       1.0  0.47209  0.04734  0.72278  1.0000
  H   H34       1.0  0.05079  0.56492  0.71816  1.0000
  H   H35       1.0  0.43475  0.47600  0.68139  1.0000
  H   H36       1.0  0.52091  0.95934  0.80297  1.0000
  C   C1        1.0  0.79450  0.41770  0.24446  1.0000
  C   C2        1.0  0.41530  0.61559  0.23882  1.0000
  C   C3        1.0  0.38177  0.79600  0.25092  1.0000
  C   C4        1.0  0.82966  0.46646  0.24600  1.0000
  C   C5        1.0  0.46169  0.63013  0.27250  1.0000
  C   C6        1.0  0.37018  0.83001  0.23478  1.0000
  C   C7        1.0  0.87762  0.48073  0.25339  1.0000
  C   C8        1.0  0.47359  0.59322  0.26143  1.0000
  C   C9        1.0  0.40552  0.87848  0.24283  1.0000
  C   C10       1.0  0.89136  0.44680  0.26091  1.0000
  C   C11       1.0  0.43931  0.54091  0.21594  1.0000
  C   C12       1.0  0.45313  0.89408  0.26949  1.0000
  C   C13       1.0  0.85540  0.39851  0.26105  1.0000
  C   C14       1.0  0.39305  0.52746  0.18377  1.0000
  C   C15       1.0  0.46373  0.85911  0.28430  1.0000
  C   C16       1.0  0.80704  0.38321  0.25122  1.0000
  C   C17       1.0  0.38034  0.56424  0.19546  1.0000
  C   C18       1.0  0.42869  0.80986  0.27446  1.0000
  C   C19       1.0  0.94113  0.46044  0.27036  1.0000
  C   C20       1.0  0.53798  0.48018  0.24669  1.0000
  C   C21       1.0  0.51574  0.05416  0.24225  1.0000
  C   C22       1.0  0.05605  0.54903  0.25043  1.0000
  C   C23       1.0  0.45063  0.50123  0.20323  1.0000
  C   C24       1.0  0.49102  0.94466  0.27915  1.0000
  C   C25       1.0  0.70651  0.36764  0.23579  1.0000
  C   C26       1.0  0.62636  0.33341  0.23690  1.0000
  C   C27       1.0  0.66033  0.28986  0.25086  1.0000
  C   C28       1.0  0.28981  0.63050  0.26509  1.0000
  C   C29       1.0  0.36977  0.65933  0.24971  1.0000
  C   C30       1.0  0.33918  0.70800  0.25143  1.0000
  C   C31       1.0  0.79844  0.41547  0.74279  1.0000
  C   C32       1.0  0.61744  0.20569  0.76338  1.0000
  C   C33       1.0  0.37866  0.79833  0.74910  1.0000
  C   C34       1.0  0.83547  0.46279  0.73750  1.0000
  C   C35       1.0  0.62989  0.17035  0.76585  1.0000
  C   C36       1.0  0.36478  0.83248  0.74538  1.0000
  C   C37       1.0  0.88274  0.47486  0.74525  1.0000
  C   C38       1.0  0.59467  0.12217  0.76117  1.0000
  C   C39       1.0  0.39880  0.88174  0.75660  1.0000
  C   C40       1.0  0.89399  0.44000  0.75872  1.0000
  C   C41       1.0  0.54620  0.10816  0.75145  1.0000
  C   C42       1.0  0.44734  0.89788  0.77324  1.0000
  C   C43       1.0  0.85626  0.39308  0.76491  1.0000
  C   C44       1.0  0.53465  0.14430  0.74971  1.0000
  C   C45       1.0  0.46019  0.86290  0.77657  1.0000
  C   C46       1.0  0.80844  0.38009  0.75586  1.0000
  C   C47       1.0  0.56964  0.19339  0.75720  1.0000
  C   C48       1.0  0.42654  0.81299  0.76365  1.0000
  C   C49       1.0  0.94322  0.45167  0.76757  1.0000
  C   C50       1.0  0.54961  0.49499  0.76232  1.0000
  C   C51       1.0  0.50833  0.05810  0.74698  1.0000
  C   C52       1.0  0.05843  0.53901  0.74149  1.0000
  C   C53       1.0  0.46255  0.51621  0.71865  1.0000
  C   C54       1.0  0.48438  0.94863  0.78177  1.0000
  C   C55       1.0  0.71012  0.36993  0.73751  1.0000
  C   C56       1.0  0.63042  0.34032  0.74266  1.0000
  C   C57       1.0  0.66032  0.29271  0.75300  1.0000
  C   C58       1.0  0.29358  0.63370  0.77201  1.0000
  C   C59       1.0  0.37409  0.66624  0.75618  1.0000
  C   C60       1.0  0.33971  0.71077  0.75140  1.0000
  N   N1        1.0  0.97619  0.50278  0.25571  1.0000
  N   N2        1.0  0.49535  0.46873  0.21857  1.0000
  N   N3        1.0  0.52442  0.02241  0.26541  1.0000
  N   N4        1.0  0.02052  0.50708  0.26599  1.0000
  N   N5        1.0  0.49276  0.51227  0.23459  1.0000
  N   N6        1.0  0.48322  0.97630  0.25167  1.0000
  N   N7        1.0  0.29331  0.67251  0.26070  1.0000
  N   N8        1.0  0.32665  0.62154  0.26271  1.0000
  N   N9        1.0  0.37885  0.70400  0.24371  1.0000
  N   N10       1.0  0.70524  0.32737  0.24563  1.0000
  N   N11       1.0  0.66839  0.37293  0.22778  1.0000
  N   N12       1.0  0.61961  0.29049  0.24950  1.0000
  N   N13       1.0  0.97910  0.49276  0.74668  1.0000
  N   N14       1.0  0.50732  0.48391  0.73250  1.0000
  N   N15       1.0  0.51670  0.02634  0.77126  1.0000
  N   N16       1.0  0.02324  0.49718  0.75959  1.0000
  N   N17       1.0  0.50477  0.52766  0.75047  1.0000
  N   N18       1.0  0.47537  0.98070  0.76221  1.0000
  N   N19       1.0  0.29467  0.67408  0.76346  1.0000
  N   N20       1.0  0.33199  0.62760  0.77254  1.0000
  N   N21       1.0  0.38063  0.70917  0.74425  1.0000
  N   N22       1.0  0.70622  0.32825  0.74569  1.0000
  N   N23       1.0  0.67363  0.37840  0.73317  1.0000
  N   N24       1.0  0.62099  0.29607  0.75291  1.0000
  O   O1        1.0  0.24678  0.59065  0.27406  1.0000
  O   O2        1.0  0.41084  0.65709  0.24439  1.0000
  O   O3        1.0  0.34094  0.75010  0.24821  1.0000
  O   O4        1.0  0.74829  0.40937  0.23244  1.0000
  O   O5        1.0  0.58420  0.33181  0.23132  1.0000
  O   O6        1.0  0.66081  0.24969  0.26047  1.0000
  O   O7        1.0  0.25174  0.59280  0.78272  1.0000
  O   O8        1.0  0.41658  0.66686  0.75215  1.0000
  O   O9        1.0  0.33923  0.75128  0.74397  1.0000
  O   O10       1.0  0.75326  0.40995  0.73215  1.0000
  O   O11       1.0  0.58952  0.34180  0.74094  1.0000
  O   O12       1.0  0.65823  0.25147  0.76413  1.0000
  C  Sn1       1.0  0.53668  0.36823  0.64912  1.0000
  C   C61       1.0  0.58055  0.37610  0.68155  1.0000
  C  Sn2       1.0  0.61517  0.42700  0.76849  1.0000
  C  Sn3       1.0  0.60574  0.47097  0.82430  1.0000
  C   C62       1.0  0.56189  0.46309  0.79190  1.0000
  C  Sn4       1.0  0.52725  0.41220  0.70493  1.0000
  O  Te1       1.0  0.50260  0.31700  0.56200  1.0000
  O  Te2       1.0  0.65877  0.43387  0.79936  1.0000
  O  Te3       1.0  0.63987  0.52223  0.91147  1.0000
  O  Te4       1.0  0.48367  0.40532  0.67409  1.0000
  Mg  Mg1       1.0  0.69381  0.51135  0.92311  1.0000
  Mg  Mg2       1.0  0.44860  0.32786  0.55045  1.0000
  C  Sn5       1.0  0.38472  0.56864  0.75813  1.0000
  C   C63       1.0  0.41320  0.62152  0.79505  1.0000
  C  Sn6       1.0  0.46338  0.64127  0.78277  1.0000
  C  Sn7       1.0  0.48557  0.60746  0.73242  1.0000
  C   C64       1.0  0.45710  0.55461  0.69550  1.0000
  C  Sn8       1.0  0.40691  0.53483  0.70778  1.0000
  O  Te5       1.0  0.33463  0.54974  0.77124  1.0000
  O  Te6       1.0  0.49109  0.69428  0.82040  1.0000
  O  Te7       1.0  0.53571  0.62641  0.71933  1.0000
  O  Te8       1.0  0.37921  0.48185  0.67015  1.0000
  Mg  Mg3       1.0  0.55798  0.70152  0.78381  1.0000
  Mg  Mg4       1.0  0.31232  0.47456  0.70660  1.0000
  C  Sn9       1.0  0.12967  0.52780  0.82869  1.0000
  C   C65       1.0  0.10973  0.55447  0.80913  1.0000
  C  Sn10      1.0  0.13934  0.59531  0.75007  1.0000
  C  Sn11      1.0  0.18996  0.60977  0.70959  1.0000
  C   C66       1.0  0.20988  0.58311  0.72911  1.0000
  C  Sn12      1.0  0.18029  0.54227  0.78820  1.0000
  O  Te9       1.0  0.09938  0.48710  0.88792  1.0000
  O  Te10      1.0  0.11857  0.62141  0.73162  1.0000
  O  Te11      1.0  0.22025  0.65052  0.65032  1.0000
  O  Te12      1.0  0.20104  0.51617  0.80662  1.0000
  Mg  Mg5       1.0  0.17488  0.67422  0.64638  1.0000
  Mg  Mg6       1.0  0.14476  0.46334  0.89175  1.0000
  C  Sn13      1.0  0.51221  0.38375  0.25721  1.0000
  C   C67       1.0  0.54084  0.43609  0.28637  1.0000
  C  Sn14      1.0  0.59108  0.45553  0.27006  1.0000
  C  Sn15      1.0  0.61317  0.42194  0.22352  1.0000
  C   C68       1.0  0.58454  0.36964  0.19436  1.0000
  C  Sn16      1.0  0.53430  0.35017  0.21067  1.0000
  O  Te13      1.0  0.46205  0.36516  0.27424  1.0000
  O  Te14      1.0  0.61895  0.50800  0.29993  1.0000
  O  Te15      1.0  0.66337  0.44058  0.20651  1.0000
  O  Te16      1.0  0.50643  0.29773  0.18080  1.0000
  Mg  Mg7       1.0  0.68587  0.51498  0.26047  1.0000
  Mg  Mg8       1.0  0.43952  0.29070  0.22011  1.0000
  C  Sn17      1.0  0.15573  0.52424  0.20391  1.0000
  C   C69       1.0  0.19647  0.57035  0.21138  1.0000
  C  Sn18      1.0  0.19140  0.61568  0.25952  1.0000
  C  Sn19      1.0  0.14462  0.61492  0.30117  1.0000
  C   C70       1.0  0.10391  0.56883  0.29372  1.0000
  C  Sn20      1.0  0.10895  0.52348  0.24556  1.0000
  O  Te17      1.0  0.16165  0.47939  0.15547  1.0000
  O  Te18      1.0  0.23267  0.66130  0.26599  1.0000
  O  Te19      1.0  0.13872  0.65982  0.34963  1.0000
  O  Te20      1.0  0.06771  0.47788  0.23911  1.0000
  Mg  Mg9       1.0  0.20593  0.71240  0.33937  1.0000
  Mg  Mg10      1.0  0.09441  0.42677  0.16585  1.0000
  C  Sn21      1.0  0.54794  0.14286  0.17614  1.0000
  C   C71       1.0  0.55440  0.10598  0.19495  1.0000
  C  Sn22      1.0  0.59548  0.12049  0.26918  1.0000
  C  Sn23      1.0  0.63084  0.17298  0.32591  1.0000
  C   C72       1.0  0.62438  0.20983  0.30713  1.0000
  C  Sn24      1.0  0.58331  0.19535  0.23288  1.0000
  O  Te21      1.0  0.50659  0.12748  0.10159  1.0000
  O  Te22      1.0  0.60114  0.08292  0.28655  1.0000
  O  Te23      1.0  0.67221  0.18834  0.40051  1.0000
  O  Te24      1.0  0.57763  0.23289  0.21553  1.0000
  Mg  Mg11      1.0  0.66361  0.12294  0.39629  1.0000
  Mg  Mg12      1.0  0.51517  0.19292  0.10591  1.0000
