data_image0
_chemical_formula_structural       H36C60N24O12C2Sn2C2HTe2HMgC2Sn2C2HTe2HMgC2Sn2C2HTe2HMgC2Sn2C2HTe2HMgC2Sn2C2HTe2HMgC2Sn2C2HTe2HMg
_chemical_formula_sum              "H48 C84 N24 O12 Sn12 Te12 Mg6"
_cell_length_a       32.2378
_cell_length_b       32.4292
_cell_length_c       7.97783
_cell_angle_alpha    121.043
_cell_angle_beta     69.9043
_cell_angle_gamma    120.162

_symmetry_space_group_name_H-M    'P1'
_space_group_IT_number       1

loop_
  _space_group_symop_operation_xyz
  'x, y, z'

loop_
  _atom_site_type_symbol
  _atom_site_label
  _atom_site_symmetry_multiplicity
  _atom_site_fract_x
  _atom_site_fract_y
  _atom_site_fract_z
  _atom_site_occupancy
  H   H1        1.0  0.50511  0.31416  0.16945  1.0000
  H   H2        1.0  0.67229  0.18517  0.29838  1.0000
  H   H3        1.0  0.48761  0.67059  0.30590  1.0000
  H   H4        1.0  0.48051  0.37745  0.17783  1.0000
  H   H5        1.0  0.61091  0.09707  0.28955  1.0000
  H   H6        1.0  0.50929  0.60380  0.28785  1.0000
  H   H7        1.0  0.62321  0.49759  0.29999  1.0000
  H   H8        1.0  0.50292  0.12539  0.21615  1.0000
  H   H9        1.0  0.36618  0.48727  0.15004  1.0000
  H   H10       1.0  0.64761  0.43508  0.29189  1.0000
  H   H11       1.0  0.56342  0.21293  0.22847  1.0000
  H   H12       1.0  0.34454  0.55361  0.17147  1.0000
  H   H13       1.0  0.94888  0.43395  0.28972  1.0000
  H   H14       1.0  0.56604  0.52007  0.27768  1.0000
  H   H15       1.0  0.47953  0.04278  0.21556  1.0000
  H   H16       1.0  0.04924  0.57634  0.23244  1.0000
  H   H17       1.0  0.42246  0.46120  0.16666  1.0000
  H   H18       1.0  0.52672  0.95581  0.31016  1.0000
  H   H19       1.0  0.82634  0.48901  0.72465  1.0000
  H   H20       1.0  0.51205  0.32770  0.68345  1.0000
  H   H21       1.0  0.66748  0.18183  0.77254  1.0000
  H   H22       1.0  0.91197  0.51098  0.73853  1.0000
  H   H23       1.0  0.49033  0.39325  0.69183  1.0000
  H   H24       1.0  0.60376  0.09465  0.76543  1.0000
  H   H25       1.0  0.86430  0.36619  0.77882  1.0000
  H   H26       1.0  0.63460  0.50933  0.80941  1.0000
  H   H27       1.0  0.49725  0.13370  0.74215  1.0000
  H   H28       1.0  0.77958  0.34396  0.76148  1.0000
  H   H29       1.0  0.65628  0.44426  0.79878  1.0000
  H   H30       1.0  0.56029  0.22087  0.75543  1.0000
  H   H31       1.0  0.94952  0.42511  0.79244  1.0000
  H   H32       1.0  0.57788  0.53486  0.79608  1.0000
  H   H33       1.0  0.47209  0.04734  0.72278  1.0000
  H   H34       1.0  0.05079  0.56492  0.71816  1.0000
  H   H35       1.0  0.43475  0.47600  0.68139  1.0000
  H   H36       1.0  0.52091  0.95934  0.80297  1.0000
  C   C1        1.0  0.57748  0.37119  0.23060  1.0000
  C   C2        1.0  0.62130  0.20331  0.26177  1.0000
  C   C3        1.0  0.41530  0.61559  0.23882  1.0000
  C   C4        1.0  0.53041  0.35455  0.19727  1.0000
  C   C5        1.0  0.63495  0.17100  0.27927  1.0000
  C   C6        1.0  0.46169  0.63013  0.27250  1.0000
  C   C7        1.0  0.51687  0.38959  0.20248  1.0000
  C   C8        1.0  0.60097  0.12230  0.27413  1.0000
  C   C9        1.0  0.47359  0.59322  0.26143  1.0000
  C   C10       1.0  0.55025  0.44188  0.23948  1.0000
  C   C11       1.0  0.55267  0.10493  0.25038  1.0000
  C   C12       1.0  0.43931  0.54091  0.21594  1.0000
  C   C13       1.0  0.59713  0.45731  0.27123  1.0000
  C   C14       1.0  0.54001  0.13842  0.23552  1.0000
  C   C15       1.0  0.39305  0.52746  0.18377  1.0000
  C   C16       1.0  0.61139  0.42265  0.26679  1.0000
  C   C17       1.0  0.57362  0.18769  0.24155  1.0000
  C   C18       1.0  0.38034  0.56424  0.19546  1.0000
  C   C19       1.0  0.94113  0.46044  0.27036  1.0000
  C   C20       1.0  0.53798  0.48018  0.24669  1.0000
  C   C21       1.0  0.51574  0.05416  0.24225  1.0000
  C   C22       1.0  0.05605  0.54903  0.25043  1.0000
  C   C23       1.0  0.45063  0.50123  0.20323  1.0000
  C   C24       1.0  0.49102  0.94466  0.27915  1.0000
  C   C25       1.0  0.70651  0.36764  0.23579  1.0000
  C   C26       1.0  0.62636  0.33341  0.23690  1.0000
  C   C27       1.0  0.66033  0.28986  0.25086  1.0000
  C   C28       1.0  0.28981  0.63050  0.26509  1.0000
  C   C29       1.0  0.36977  0.65933  0.24971  1.0000
  C   C30       1.0  0.33918  0.70800  0.25143  1.0000
  C   C31       1.0  0.79844  0.41547  0.74279  1.0000
  C   C32       1.0  0.58500  0.38251  0.74067  1.0000
  C   C33       1.0  0.61744  0.20569  0.76338  1.0000
  C   C34       1.0  0.83547  0.46279  0.73750  1.0000
  C   C35       1.0  0.53827  0.36770  0.70941  1.0000
  C   C36       1.0  0.62989  0.17035  0.76585  1.0000
  C   C37       1.0  0.88274  0.47486  0.74525  1.0000
  C   C38       1.0  0.52639  0.40392  0.71487  1.0000
  C   C39       1.0  0.59467  0.12217  0.76117  1.0000
  C   C40       1.0  0.89399  0.44000  0.75872  1.0000
  C   C41       1.0  0.56102  0.45574  0.75215  1.0000
  C   C42       1.0  0.54620  0.10816  0.75145  1.0000
  C   C43       1.0  0.85626  0.39308  0.76491  1.0000
  C   C44       1.0  0.60760  0.46943  0.78156  1.0000
  C   C45       1.0  0.53465  0.14430  0.74971  1.0000
  C   C46       1.0  0.80844  0.38009  0.75586  1.0000
  C   C47       1.0  0.62032  0.43336  0.77548  1.0000
  C   C48       1.0  0.56964  0.19339  0.75720  1.0000
  C   C49       1.0  0.94322  0.45167  0.76757  1.0000
  C   C50       1.0  0.54961  0.49499  0.76232  1.0000
  C   C51       1.0  0.50833  0.05810  0.74698  1.0000
  C   C52       1.0  0.05843  0.53901  0.74149  1.0000
  C   C53       1.0  0.46255  0.51621  0.71865  1.0000
  C   C54       1.0  0.48438  0.94863  0.78177  1.0000
  C   C55       1.0  0.71012  0.36993  0.73751  1.0000
  C   C56       1.0  0.63042  0.34032  0.74266  1.0000
  C   C57       1.0  0.66032  0.29271  0.75300  1.0000
  C   C58       1.0  0.29358  0.63370  0.77201  1.0000
  C   C59       1.0  0.37409  0.66624  0.75618  1.0000
  C   C60       1.0  0.33971  0.71077  0.75140  1.0000
  N   N1        1.0  0.97619  0.50278  0.25571  1.0000
  N   N2        1.0  0.49535  0.46873  0.21857  1.0000
  N   N3        1.0  0.52442  0.02241  0.26541  1.0000
  N   N4        1.0  0.02052  0.50708  0.26599  1.0000
  N   N5        1.0  0.49276  0.51227  0.23459  1.0000
  N   N6        1.0  0.48322  0.97630  0.25167  1.0000
  N   N7        1.0  0.29331  0.67251  0.26070  1.0000
  N   N8        1.0  0.32665  0.62154  0.26271  1.0000
  N   N9        1.0  0.37885  0.70400  0.24371  1.0000
  N   N10       1.0  0.70524  0.32737  0.24563  1.0000
  N   N11       1.0  0.66839  0.37293  0.22778  1.0000
  N   N12       1.0  0.61961  0.29049  0.24950  1.0000
  N   N13       1.0  0.97910  0.49276  0.74668  1.0000
  N   N14       1.0  0.50732  0.48391  0.73250  1.0000
  N   N15       1.0  0.51670  0.02634  0.77126  1.0000
  N   N16       1.0  0.02324  0.49718  0.75959  1.0000
  N   N17       1.0  0.50477  0.52766  0.75047  1.0000
  N   N18       1.0  0.47537  0.98070  0.76221  1.0000
  N   N19       1.0  0.29467  0.67408  0.76346  1.0000
  N   N20       1.0  0.33199  0.62760  0.77254  1.0000
  N   N21       1.0  0.38063  0.70917  0.74425  1.0000
  N   N22       1.0  0.70622  0.32825  0.74569  1.0000
  N   N23       1.0  0.67363  0.37840  0.73317  1.0000
  N   N24       1.0  0.62099  0.29607  0.75291  1.0000
  O   O1        1.0  0.24678  0.59065  0.27406  1.0000
  O   O2        1.0  0.41084  0.65709  0.24439  1.0000
  O   O3        1.0  0.34094  0.75010  0.24821  1.0000
  O   O4        1.0  0.74829  0.40937  0.23244  1.0000
  O   O5        1.0  0.58420  0.33181  0.23132  1.0000
  O   O6        1.0  0.66081  0.24969  0.26047  1.0000
  O   O7        1.0  0.25174  0.59280  0.78272  1.0000
  O   O8        1.0  0.41658  0.66686  0.75215  1.0000
  O   O9        1.0  0.33923  0.75128  0.74397  1.0000
  O   O10       1.0  0.75326  0.40995  0.73215  1.0000
  O   O11       1.0  0.58952  0.34180  0.74094  1.0000
  O   O12       1.0  0.65823  0.25147  0.76413  1.0000
  C   C61       1.0  0.47924  0.64123  0.79457  1.0000
  C   C62       1.0  0.43635  0.63239  0.75012  1.0000
  C  Sn1       1.0  0.39815  0.58273  0.70234  1.0000
  C  Sn2       1.0  0.40307  0.54124  0.69917  1.0000
  C   C63       1.0  0.44611  0.55049  0.74400  1.0000
  C   C64       1.0  0.48411  0.60033  0.79156  1.0000
  H   H37       1.0  0.50864  0.67980  0.83147  1.0000
  O  Te1       1.0  0.35556  0.57457  0.65824  1.0000
  O  Te2       1.0  0.36545  0.49123  0.65198  1.0000
  H   H38       1.0  0.51730  0.60718  0.82609  1.0000
  Mg  Mg1       1.0  0.31451  0.49953  0.60271  1.0000
  C   C65       1.0  0.18213  0.62521  0.25864  1.0000
  C   C66       1.0  0.20026  0.59722  0.27976  1.0000
  C  Sn3       1.0  0.16970  0.54788  0.28044  1.0000
  C  Sn4       1.0  0.12009  0.52626  0.25951  1.0000
  C   C67       1.0  0.10231  0.55457  0.23833  1.0000
  C   C68       1.0  0.13321  0.60391  0.23792  1.0000
  H   H39       1.0  0.20603  0.66338  0.25821  1.0000
  O  Te3       1.0  0.18840  0.52044  0.30176  1.0000
  O  Te4       1.0  0.08875  0.47702  0.25962  1.0000
  H   H40       1.0  0.11917  0.62556  0.22143  1.0000
  Mg  Mg2       1.0  0.13133  0.45477  0.29303  1.0000
  C   C69       1.0  0.44181  0.81891  0.27526  1.0000
  C   C70       1.0  0.39244  0.79808  0.26388  1.0000
  C  Sn5       1.0  0.37338  0.82571  0.24556  1.0000
  C  Sn6       1.0  0.40440  0.87509  0.23850  1.0000
  C   C71       1.0  0.45374  0.89558  0.24987  1.0000
  C   C72       1.0  0.47244  0.86761  0.26824  1.0000
  H   H41       1.0  0.45628  0.79726  0.28937  1.0000
  O  Te5       1.0  0.32397  0.80433  0.23444  1.0000
  O  Te6       1.0  0.38631  0.90353  0.22018  1.0000
  H   H42       1.0  0.51066  0.88373  0.27692  1.0000
  Mg  Mg3       1.0  0.31643  0.85799  0.21048  1.0000
  C   C73       1.0  0.45715  0.85062  0.78036  1.0000
  C   C74       1.0  0.45190  0.88872  0.76481  1.0000
  C  Sn7       1.0  0.40658  0.88105  0.74770  1.0000
  C  Sn8       1.0  0.36582  0.83434  0.74622  1.0000
  C   C75       1.0  0.37145  0.79648  0.76200  1.0000
  C   C76       1.0  0.41697  0.80455  0.77900  1.0000
  H   H43       1.0  0.49236  0.85688  0.79362  1.0000
  O  Te7       1.0  0.40197  0.91950  0.73222  1.0000
  O  Te8       1.0  0.32011  0.82567  0.72936  1.0000
  H   H44       1.0  0.42102  0.77506  0.79117  1.0000
  Mg  Mg4       1.0  0.33219  0.88966  0.71220  1.0000
  C   C77       1.0  0.13180  0.51679  0.76487  1.0000
  C   C78       1.0  0.11033  0.54513  0.76580  1.0000
  C  Sn9       1.0  0.13879  0.59410  0.75963  1.0000
  C  Sn10      1.0  0.18969  0.61498  0.75235  1.0000
  C   C79       1.0  0.21083  0.58631  0.75134  1.0000
  C   C80       1.0  0.18201  0.53734  0.75761  1.0000
  H   H45       1.0  0.10951  0.47889  0.76961  1.0000
  O  Te9       1.0  0.11674  0.62190  0.76073  1.0000
  O  Te10      1.0  0.21900  0.66383  0.74601  1.0000
  H   H46       1.0  0.19865  0.51540  0.75676  1.0000
  Mg  Mg5       1.0  0.17204  0.68682  0.75042  1.0000
  C   C81       1.0  0.84248  0.38911  0.26436  1.0000
  C   C82       1.0  0.88322  0.43339  0.25293  1.0000
  C  Sn11      1.0  0.87827  0.47251  0.24339  1.0000
  C  Sn12      1.0  0.83163  0.46710  0.24542  1.0000
  C   C83       1.0  0.79109  0.42266  0.25704  1.0000
  C   C84       1.0  0.79646  0.38375  0.26645  1.0000
  H   H47       1.0  0.84663  0.35901  0.27176  1.0000
  O  Te11      1.0  0.91935  0.51649  0.23195  1.0000
  O  Te12      1.0  0.82564  0.50561  0.23612  1.0000
  H   H48       1.0  0.76491  0.34948  0.27544  1.0000
  Mg  Mg6       1.0  0.89262  0.55835  0.22209  1.0000
