data_image0
_chemical_formula_structural       H60C90N36O24C2Sn2C2HTe2HMgC2Sn2C2HTe2HMgC2Sn2C2HTe2HMgC2Sn2C2HTe2HMgC2Sn2C2HTe2HMgC2Sn2C2HTe2HMgC2Sn2C2HTe2HMgC2Sn2C2HTe2HMgC2Sn2C2HTe2HMg
_chemical_formula_sum              "H78 C126 N36 O24 Sn18 Te18 Mg9"
_cell_length_a       46.2757
_cell_length_b       46.3856
_cell_length_c       8.08692
_cell_angle_alpha    105.746
_cell_angle_beta     106.951
_cell_angle_gamma    119.669

_symmetry_space_group_name_H-M    'P1'
_space_group_IT_number       1

loop_
  _space_group_symop_operation_xyz
  'x, y, z'

loop_
  _atom_site_type_symbol
  _atom_site_label
  _atom_site_symmetry_multiplicity
  _atom_site_fract_x
  _atom_site_fract_y
  _atom_site_fract_z
  _atom_site_occupancy
  H   H1        1.0  0.56949  0.17971  0.31757  1.0000
  H   H2        1.0  0.17161  0.60017  0.18690  1.0000
  H   H3        1.0  0.60775  0.24427  0.35253  1.0000
  H   H4        1.0  0.23254  0.62566  0.17814  1.0000
  H   H5        1.0  0.68114  0.22428  0.21235  1.0000
  H   H6        1.0  0.23113  0.53653  0.24804  1.0000
  H   H7        1.0  0.64260  0.15930  0.17608  1.0000
  H   H8        1.0  0.16958  0.51040  0.25235  1.0000
  H   H9        1.0  0.52981  0.44313  0.09548  1.0000
  H   H10       1.0  0.50747  0.06928  0.22481  1.0000
  H   H11       1.0  0.90266  0.42116  0.21804  1.0000
  H   H12       1.0  0.42665  0.50939  0.29532  1.0000
  H   H13       1.0  0.47601  0.90257  0.23827  1.0000
  H   H14       1.0  0.07554  0.55785  0.24682  1.0000
  H   H15       1.0  0.51586  0.38411  0.31702  1.0000
  H   H16       1.0  0.59506  0.11294  0.21562  1.0000
  H   H17       1.0  0.86373  0.47061  0.27748  1.0000
  H   H18       1.0  0.46346  0.58782  0.20579  1.0000
  H   H19       1.0  0.39342  0.86491  0.29326  1.0000
  H   H20       1.0  0.11844  0.51177  0.23840  1.0000
  H   H21       1.0  0.52763  0.54084  0.22764  1.0000
  H   H22       1.0  0.42252  0.94994  0.04452  1.0000
  H   H23       1.0  0.01206  0.45219  0.28224  1.0000
  H   H24       1.0  0.44558  0.42609  0.27063  1.0000
  H   H25       1.0  0.56473  0.02608  0.45086  1.0000
  H   H26       1.0  0.96995  0.53054  0.22577  1.0000
  H   H27       1.0  0.54662  0.49986  0.25111  1.0000
  H   H28       1.0  0.46613  0.01021  0.05383  1.0000
  H   H29       1.0  0.95252  0.43452  0.28528  1.0000
  H   H30       1.0  0.42555  0.46552  0.23809  1.0000
  H   H31       1.0  0.52079  0.96413  0.43110  1.0000
  H   H32       1.0  0.02909  0.54792  0.22054  1.0000
  H   H33       1.0  0.82651  0.39833  0.79784  1.0000
  H   H34       1.0  0.39942  0.58884  0.76458  1.0000
  H   H35       1.0  0.76543  0.37251  0.80510  1.0000
  H   H36       1.0  0.36909  0.62060  0.74708  1.0000
  H   H37       1.0  0.77028  0.46553  0.77171  1.0000
  H   H38       1.0  0.45731  0.70306  0.68187  1.0000
  H   H39       1.0  0.83178  0.49175  0.76695  1.0000
  H   H40       1.0  0.48714  0.67065  0.69388  1.0000
  H   H41       1.0  0.57435  0.49219  0.71547  1.0000
  H   H42       1.0  0.52155  0.09564  0.74630  1.0000
  H   H43       1.0  0.92400  0.44248  0.75103  1.0000
  H   H44       1.0  0.47093  0.55848  0.91621  1.0000
  H   H45       1.0  0.49099  0.92975  0.77005  1.0000
  H   H46       1.0  0.09720  0.57852  0.78015  1.0000
  H   H47       1.0  0.53727  0.41352  0.80321  1.0000
  H   H48       1.0  0.60469  0.13406  0.69604  1.0000
  H   H49       1.0  0.88118  0.48861  0.76273  1.0000
  H   H50       1.0  0.48417  0.61628  0.68723  1.0000
  H   H51       1.0  0.40211  0.88530  0.76667  1.0000
  H   H52       1.0  0.13449  0.52751  0.71125  1.0000
  H   H53       1.0  0.55599  0.57615  0.74551  1.0000
  H   H54       1.0  0.03103  0.47123  0.78974  1.0000
  H   H55       1.0  0.47448  0.46171  0.79203  1.0000
  H   H56       1.0  0.98722  0.54755  0.71214  1.0000
  H   H57       1.0  0.57637  0.53697  0.77982  1.0000
  H   H58       1.0  0.97282  0.45512  0.80368  1.0000
  H   H59       1.0  0.45517  0.50227  0.76589  1.0000
  H   H60       1.0  0.04605  0.56418  0.70278  1.0000
  C   C1        1.0  0.60328  0.16501  0.24425  1.0000
  C   C2        1.0  0.16625  0.55355  0.21961  1.0000
  C   C3        1.0  0.59361  0.18926  0.29174  1.0000
  C   C4        1.0  0.18457  0.58613  0.19948  1.0000
  C   C5        1.0  0.61505  0.22558  0.31310  1.0000
  C   C6        1.0  0.21870  0.60072  0.19518  1.0000
  C   C7        1.0  0.65672  0.21407  0.23573  1.0000
  C   C8        1.0  0.21739  0.54980  0.23298  1.0000
  C   C9        1.0  0.63517  0.17801  0.21629  1.0000
  C   C10       1.0  0.18312  0.53542  0.23465  1.0000
  C   C11       1.0  0.50503  0.43253  0.26881  1.0000
  C   C12       1.0  0.54732  0.05984  0.27538  1.0000
  C   C13       1.0  0.92191  0.47464  0.26112  1.0000
  C   C14       1.0  0.46580  0.53171  0.20569  1.0000
  C   C15       1.0  0.43975  0.91616  0.22066  1.0000
  C   C16       1.0  0.05992  0.50782  0.24581  1.0000
  C   C17       1.0  0.53592  0.39073  0.26202  1.0000
  C   C18       1.0  0.58265  0.12760  0.22973  1.0000
  C   C19       1.0  0.84981  0.44287  0.26976  1.0000
  C   C20       1.0  0.43786  0.57642  0.21953  1.0000
  C   C21       1.0  0.40320  0.84811  0.26099  1.0000
  C   C22       1.0  0.13116  0.53798  0.23046  1.0000
  C   C23       1.0  0.29453  0.62371  0.21023  1.0000
  C   C24       1.0  0.34980  0.65425  0.20748  1.0000
  C   C25       1.0  0.31793  0.67812  0.20052  1.0000
  C   C26       1.0  0.68700  0.35288  0.29167  1.0000
  C   C27       1.0  0.63156  0.32047  0.29024  1.0000
  C   C28       1.0  0.66521  0.29847  0.30019  1.0000
  C   C29       1.0  0.23515  0.58244  0.21436  1.0000
  C   C30       1.0  0.64666  0.23776  0.28442  1.0000
  C   C31       1.0  0.50972  0.51542  0.23500  1.0000
  C   C32       1.0  0.45368  0.96671  0.13259  1.0000
  C   C33       1.0  0.00217  0.46877  0.26692  1.0000
  C   C34       1.0  0.46314  0.45112  0.25946  1.0000
  C   C35       1.0  0.53352  0.00871  0.35965  1.0000
  C   C36       1.0  0.97938  0.51349  0.23757  1.0000
  C   C37       1.0  0.52005  0.49221  0.24781  1.0000
  C   C38       1.0  0.47849  0.00118  0.14318  1.0000
  C   C39       1.0  0.96844  0.45905  0.26698  1.0000
  C   C40       1.0  0.45257  0.47404  0.24442  1.0000
  C   C41       1.0  0.50866  0.97384  0.34610  1.0000
  C   C42       1.0  0.01296  0.52311  0.23656  1.0000
  C   C43       1.0  0.49651  0.45942  0.25665  1.0000
  C   C44       1.0  0.51875  0.02284  0.25909  1.0000
  C   C45       1.0  0.95657  0.48131  0.25253  1.0000
  C   C46       1.0  0.47562  0.50638  0.23082  1.0000
  C   C47       1.0  0.46845  0.95258  0.23304  1.0000
  C   C48       1.0  0.02496  0.50090  0.25177  1.0000
  C   C49       1.0  0.83339  0.44666  0.78126  1.0000
  C   C50       1.0  0.44569  0.62776  0.73383  1.0000
  C   C51       1.0  0.81422  0.41310  0.79253  1.0000
  C   C52       1.0  0.41221  0.61395  0.74721  1.0000
  C   C53       1.0  0.78002  0.39837  0.79632  1.0000
  C   C54       1.0  0.39499  0.63153  0.73774  1.0000
  C   C55       1.0  0.78323  0.45141  0.77858  1.0000
  C   C56       1.0  0.44520  0.67813  0.70098  1.0000
  C   C57       1.0  0.81743  0.46576  0.77608  1.0000
  C   C58       1.0  0.46160  0.65992  0.70791  1.0000
  C   C59       1.0  0.53608  0.47059  0.81064  1.0000
  C   C60       1.0  0.55812  0.08233  0.76495  1.0000
  C   C61       1.0  0.94052  0.49340  0.76179  1.0000
  C   C62       1.0  0.49632  0.56936  0.74547  1.0000
  C   C63       1.0  0.45053  0.93832  0.70795  1.0000
  C   C64       1.0  0.07741  0.52496  0.73778  1.0000
  C   C65       1.0  0.56254  0.42457  0.78651  1.0000
  C   C66       1.0  0.59478  0.15073  0.72827  1.0000
  C   C67       1.0  0.86850  0.46234  0.77044  1.0000
  C   C68       1.0  0.46440  0.61007  0.74400  1.0000
  C   C69       1.0  0.41503  0.87107  0.75825  1.0000
  C   C70       1.0  0.14891  0.55554  0.72240  1.0000
  C   C71       1.0  0.31279  0.64709  0.71133  1.0000
  C   C72       1.0  0.36779  0.67930  0.70851  1.0000
  C   C73       1.0  0.33397  0.70108  0.69863  1.0000
  C   C74       1.0  0.70499  0.37625  0.79029  1.0000
  C   C75       1.0  0.64967  0.34581  0.79321  1.0000
  C   C76       1.0  0.68139  0.32176  0.79924  1.0000
  C   C77       1.0  0.41199  0.66390  0.71616  1.0000
  C   C78       1.0  0.76454  0.41770  0.78742  1.0000
  C   C79       1.0  0.53860  0.55119  0.75754  1.0000
  C   C80       1.0  0.02114  0.48775  0.77279  1.0000
  C   C81       1.0  0.49229  0.48701  0.78350  1.0000
  C   C82       1.0  0.99741  0.53134  0.73159  1.0000
  C   C83       1.0  0.54933  0.52842  0.77342  1.0000
  C   C84       1.0  0.98798  0.47869  0.77747  1.0000
  C   C85       1.0  0.48180  0.51008  0.76979  1.0000
  C   C86       1.0  0.03081  0.54060  0.72863  1.0000
  C   C87       1.0  0.52636  0.49607  0.78727  1.0000
  C   C88       1.0  0.97541  0.50023  0.75543  1.0000
  C   C89       1.0  0.50515  0.54277  0.75972  1.0000
  C   C90       1.0  0.04309  0.51884  0.74856  1.0000
  N   N1        1.0  0.52715  0.43167  0.18741  1.0000
  N   N2        1.0  0.53273  0.07823  0.22891  1.0000
  N   N3        1.0  0.89669  0.43965  0.24306  1.0000
  N   N4        1.0  0.43778  0.52802  0.24678  1.0000
  N   N5        1.0  0.45295  0.89603  0.25480  1.0000
  N   N6        1.0  0.08361  0.54115  0.24659  1.0000
  N   N7        1.0  0.29002  0.64976  0.20874  1.0000
  N   N8        1.0  0.32391  0.62414  0.21027  1.0000
  N   N9        1.0  0.34850  0.68234  0.20050  1.0000
  N   N10       1.0  0.69333  0.32819  0.29996  1.0000
  N   N11       1.0  0.65658  0.35083  0.28612  1.0000
  N   N12       1.0  0.63388  0.29286  0.29617  1.0000
  N   N13       1.0  0.54320  0.41342  0.18760  1.0000
  N   N14       1.0  0.55108  0.11313  0.23750  1.0000
  N   N15       1.0  0.86349  0.42426  0.25185  1.0000
  N   N16       1.0  0.42215  0.54658  0.24197  1.0000
  N   N17       1.0  0.43312  0.86049  0.23887  1.0000
  N   N18       1.0  0.11635  0.55562  0.23307  1.0000
  N   N19       1.0  0.56359  0.47384  0.76601  1.0000
  N   N20       1.0  0.54479  0.10239  0.73123  1.0000
  N   N21       1.0  0.91634  0.45958  0.75593  1.0000
  N   N22       1.0  0.47348  0.56961  0.82294  1.0000
  N   N23       1.0  0.46534  0.92052  0.76140  1.0000
  N   N24       1.0  0.10255  0.55955  0.75205  1.0000
  N   N25       1.0  0.30615  0.67151  0.70124  1.0000
  N   N26       1.0  0.34319  0.64922  0.71592  1.0000
  N   N27       1.0  0.36518  0.70667  0.70088  1.0000
  N   N28       1.0  0.70940  0.35010  0.79123  1.0000
  N   N29       1.0  0.67551  0.37576  0.78925  1.0000
  N   N30       1.0  0.65101  0.31778  0.80095  1.0000
  N   N31       1.0  0.57857  0.45464  0.76617  1.0000
  N   N32       1.0  0.56470  0.13811  0.74906  1.0000
  N   N33       1.0  0.88352  0.44492  0.76867  1.0000
  N   N34       1.0  0.45735  0.58778  0.82085  1.0000
  N   N35       1.0  0.44712  0.88588  0.75552  1.0000
  N   N36       1.0  0.13583  0.57466  0.74420  1.0000
  O   O1        1.0  0.38153  0.65990  0.21017  1.0000
  O   O2        1.0  0.31139  0.70306  0.19051  1.0000
  O   O3        1.0  0.26921  0.59274  0.21478  1.0000
  O   O4        1.0  0.59974  0.31393  0.29077  1.0000
  O   O5        1.0  0.67221  0.27368  0.30676  1.0000
  O   O6        1.0  0.71171  0.38437  0.28878  1.0000
  O   O7        1.0  0.48190  0.55402  0.14750  1.0000
  O   O8        1.0  0.40716  0.90558  0.18390  1.0000
  O   O9        1.0  0.06624  0.48464  0.23885  1.0000
  O   O10       1.0  0.49306  0.41358  0.34910  1.0000
  O   O11       1.0  0.58092  0.07242  0.32529  1.0000
  O   O12       1.0  0.91725  0.49916  0.28560  1.0000
  O   O13       1.0  0.39948  0.68578  0.70646  1.0000
  O   O14       1.0  0.32682  0.72579  0.69251  1.0000
  O   O15       1.0  0.28865  0.61595  0.71865  1.0000
  O   O16       1.0  0.61800  0.34026  0.79098  1.0000
  O   O17       1.0  0.68755  0.29652  0.80750  1.0000
  O   O18       1.0  0.73056  0.40744  0.78807  1.0000
  O   O19       1.0  0.50852  0.58855  0.66651  1.0000
  O   O20       1.0  0.41669  0.92539  0.65372  1.0000
  O   O21       1.0  0.08194  0.50035  0.71516  1.0000
  O   O22       1.0  0.52018  0.44832  0.86951  1.0000
  O   O23       1.0  0.59087  0.09328  0.80355  1.0000
  O   O24       1.0  0.93455  0.51690  0.77235  1.0000
  C   C91       1.0  0.77149  0.43707  0.27646  1.0000
  C   C92       1.0  0.74818  0.40291  0.27402  1.0000
  C  Sn1       1.0  0.75979  0.38044  0.28254  1.0000
  C  Sn2       1.0  0.79543  0.39247  0.29377  1.0000
  C   C93       1.0  0.81855  0.42670  0.29627  1.0000
  C   C94       1.0  0.80665  0.44896  0.28762  1.0000
  H   H61       1.0  0.76229  0.45430  0.26988  1.0000
  O  Te1       1.0  0.73614  0.34639  0.27987  1.0000
  O  Te2       1.0  0.80774  0.37057  0.30252  1.0000
  H   H62       1.0  0.82471  0.47542  0.28965  1.0000
  Mg  Mg1       1.0  0.76544  0.32639  0.29463  1.0000
  C   C95       1.0  0.62700  0.40471  0.76508  1.0000
  C   C96       1.0  0.61481  0.37327  0.79440  1.0000
  C  Sn3       1.0  0.58192  0.35575  0.81124  1.0000
  C  Sn4       1.0  0.56089  0.37003  0.79838  1.0000
  C   C97       1.0  0.57330  0.40148  0.76888  1.0000
  C   C98       1.0  0.60626  0.41881  0.75230  1.0000
  H   H63       1.0  0.65248  0.41810  0.75214  1.0000
  O  Te3       1.0  0.57016  0.32437  0.84058  1.0000
  O  Te4       1.0  0.52791  0.35305  0.81463  1.0000
  H   H64       1.0  0.61567  0.44313  0.72946  1.0000
  Mg  Mg2       1.0  0.52338  0.31099  0.85380  1.0000
  C   C99       1.0  0.34308  0.79411  0.76849  1.0000
  C   C100      1.0  0.34670  0.76539  0.70975  1.0000
  C  Sn5       1.0  0.37682  0.77220  0.67580  1.0000
  C  Sn6       1.0  0.40377  0.80847  0.70130  1.0000
  C   C101      1.0  0.39991  0.83703  0.76023  1.0000
  C   C102      1.0  0.36966  0.82990  0.79374  1.0000
  H   H65       1.0  0.31968  0.78861  0.79452  1.0000
  O  Te5       1.0  0.38001  0.74318  0.61712  1.0000
  O  Te6       1.0  0.43416  0.81606  0.66844  1.0000
  H   H66       1.0  0.36687  0.85215  0.83934  1.0000
  Mg  Mg3       1.0  0.42633  0.76732  0.59024  1.0000
  C   C103      1.0  0.53737  0.33190  0.29274  1.0000
  C   C104      1.0  0.55113  0.36611  0.28986  1.0000
  C  Sn7       1.0  0.58407  0.38504  0.27468  1.0000
  C  Sn8       1.0  0.60352  0.36934  0.26213  1.0000
  C   C105      1.0  0.58951  0.33508  0.26499  1.0000
  C   C106      1.0  0.55653  0.31639  0.28029  1.0000
  H   H67       1.0  0.51184  0.31742  0.30447  1.0000
  O  Te7       1.0  0.59743  0.41920  0.27208  1.0000
  O  Te8       1.0  0.63650  0.38765  0.24677  1.0000
  H   H68       1.0  0.54587  0.28989  0.28238  1.0000
  Mg  Mg4       1.0  0.64355  0.43352  0.24918  1.0000
  C   C107      1.0  0.97529  0.01496  0.61009  1.0000
  C   C108      1.0  0.01548  0.04236  0.72920  1.0000
  C  Sn9       1.0  0.03687  0.03526  0.84809  1.0000
  C  Sn10      1.0  0.01759  0.00005  0.84737  1.0000
  C   C109      1.0  0.97738  0.97281  0.72758  1.0000
  C   C110      1.0  0.95625  0.98021  0.60923  1.0000
  H   H69       1.0  0.95895  0.02067  0.51843  1.0000
  O  Te9       1.0  0.07700  0.06296  0.96625  1.0000
  O  Te10      1.0  0.03826  0.99221  0.96471  1.0000
  H   H70       1.0  0.92514  0.95898  0.51693  1.0000
  Mg  Mg5       1.0  0.99392  0.94298  0.10056  1.0000
  C   C111      1.0  0.37122  0.59407  0.22198  1.0000
  C   C112      1.0  0.38674  0.62888  0.22417  1.0000
  C  Sn11      1.0  0.42023  0.64710  0.21286  1.0000
  C  Sn12      1.0  0.43844  0.63007  0.19905  1.0000
  C   C113      1.0  0.42267  0.59522  0.19683  1.0000
  C   C114      1.0  0.38916  0.57724  0.20829  1.0000
  H   H71       1.0  0.34528  0.58015  0.23074  1.0000
  O  Te11      1.0  0.43536  0.68188  0.21530  1.0000
  O  Te12      1.0  0.47193  0.64765  0.18748  1.0000
  H   H72       1.0  0.37714  0.55028  0.20646  1.0000
  Mg  Mg6       1.0  0.48153  0.69479  0.19621  1.0000
  C   C115      1.0  0.21083  0.61405  0.70521  1.0000
  C   C116      1.0  0.18780  0.57999  0.70416  1.0000
  C  Sn13      1.0  0.20020  0.55831  0.71921  1.0000
  C  Sn14      1.0  0.23634  0.57105  0.73565  1.0000
  C   C117      1.0  0.25918  0.60518  0.73671  1.0000
  C   C118      1.0  0.24648  0.62665  0.72150  1.0000
  H   H73       1.0  0.20102  0.63067  0.69356  1.0000
  O  Te13      1.0  0.17683  0.52434  0.71785  1.0000
  O  Te14      1.0  0.24944  0.54995  0.75097  1.0000
  H   H74       1.0  0.26433  0.65304  0.72245  1.0000
  Mg  Mg7       1.0  0.20724  0.50556  0.74237  1.0000
  C   C119      1.0  0.34013  0.79037  0.26333  1.0000
  C   C120      1.0  0.37421  0.80869  0.25720  1.0000
  C  Sn15      1.0  0.38876  0.78937  0.21210  1.0000
  C  Sn16      1.0  0.36875  0.75100  0.17240  1.0000
  C   C121      1.0  0.33466  0.73292  0.17877  1.0000
  C   C122      1.0  0.32037  0.75252  0.22412  1.0000
  H   H75       1.0  0.32906  0.80553  0.29831  1.0000
  O  Te15      1.0  0.42285  0.80810  0.20668  1.0000
  O  Te16      1.0  0.38263  0.73102  0.12685  1.0000
  H   H76       1.0  0.29398  0.73833  0.22873  1.0000
  Mg  Mg8       1.0  0.43026  0.76884  0.13759  1.0000
  C   C123      1.0  0.65704  0.20804  0.71947  1.0000
  C   C124      1.0  0.62631  0.19187  0.75400  1.0000
  C  Sn17      1.0  0.61226  0.21151  0.80334  1.0000
  C  Sn18      1.0  0.62935  0.24800  0.81822  1.0000
  C   C125      1.0  0.66007  0.26391  0.78326  1.0000
  C   C126      1.0  0.67391  0.24401  0.73405  1.0000
  H   H77       1.0  0.66774  0.19264  0.68129  1.0000
  O  Te17      1.0  0.58154  0.19496  0.83743  1.0000
  O  Te18      1.0  0.61587  0.26824  0.86722  1.0000
  H   H78       1.0  0.69770  0.25652  0.70719  1.0000
  Mg  Mg9       1.0  0.57336  0.23372  0.90003  1.0000
