data_image0
_chemical_formula_structural       H12C24N24O12SnCSn2CSnTe4Mg2SnCSn2CSnTe4Mg2SnCSn2CSnTe4Mg2SnCSn2CSnTe4Mg2SnCSn2CSnTe4Mg2SnCSn2CSnTe4Mg2SnCSn2CSnTe4Mg2SnCSn2CSnTe4Mg2SnCSn2CSnTe4Mg2SnCSn2CSnTe4Mg2SnCSn2CSnTe4Mg2SnCSn2CSnTe4Mg2SnCSn2CSnTe4Mg2SnCSn2CSnTe4Mg2SnCSn2CSnTe4Mg2SnCSn2CSnTe4Mg2SnCSn2CSnTe4Mg2SnCSn2CSnTe4Mg2
_chemical_formula_sum              "H12 C60 N24 O12 Sn72 Te72 Mg36"
_cell_length_a       39.4962
_cell_length_b       39.6876
_cell_length_c       8.16155
_cell_angle_alpha    109.495
_cell_angle_beta     102.988
_cell_angle_gamma    120.055

_symmetry_space_group_name_H-M    'P1'
_space_group_IT_number       1

loop_
  _space_group_symop_operation_xyz
  'x, y, z'

loop_
  _atom_site_type_symbol
  _atom_site_label
  _atom_site_symmetry_multiplicity
  _atom_site_fract_x
  _atom_site_fract_y
  _atom_site_fract_z
  _atom_site_occupancy
  H   H1        1.0  0.90653  0.42374  0.29904  1.0000
  H   H2        1.0  0.58558  0.48505  0.24478  1.0000
  H   H3        1.0  0.51673  0.10310  0.23425  1.0000
  H   H4        1.0  0.09873  0.57758  0.21682  1.0000
  H   H5        1.0  0.41816  0.52202  0.28359  1.0000
  H   H6        1.0  0.48698  0.90195  0.25061  1.0000
  H   H7        1.0  0.90324  0.42551  0.81236  1.0000
  H   H8        1.0  0.57005  0.46778  0.66858  1.0000
  H   H9        1.0  0.51823  0.09990  0.76628  1.0000
  H   H10       1.0  0.09522  0.57739  0.72722  1.0000
  H   H11       1.0  0.42876  0.53049  0.84274  1.0000
  H   H12       1.0  0.47616  0.89092  0.71099  1.0000
  C   C1        1.0  0.66584  0.30207  0.24534  1.0000
  C   C2        1.0  0.70163  0.36590  0.23601  1.0000
  C   C3        1.0  0.63811  0.33954  0.25142  1.0000
  C   C4        1.0  0.33879  0.70377  0.24419  1.0000
  C   C5        1.0  0.30404  0.64103  0.26147  1.0000
  C   C6        1.0  0.36764  0.66751  0.24732  1.0000
  C   C7        1.0  0.89844  0.44528  0.27774  1.0000
  C   C8        1.0  0.56198  0.45554  0.25087  1.0000
  C   C9        1.0  0.54770  0.10977  0.24002  1.0000
  C   C10       1.0  0.10875  0.55771  0.24271  1.0000
  C   C11       1.0  0.44049  0.54944  0.26369  1.0000
  C   C12       1.0  0.45580  0.89520  0.24168  1.0000
  C   C13       1.0  0.65992  0.29589  0.74299  1.0000
  C   C14       1.0  0.69518  0.35995  0.73511  1.0000
  C   C15       1.0  0.63224  0.33357  0.75618  1.0000
  C   C16       1.0  0.33343  0.69773  0.74795  1.0000
  C   C17       1.0  0.29825  0.63436  0.76067  1.0000
  C   C18       1.0  0.36180  0.66095  0.74525  1.0000
  C   C19       1.0  0.89367  0.44558  0.78473  1.0000
  C   C20       1.0  0.55267  0.44539  0.72056  1.0000
  C   C21       1.0  0.54676  0.10407  0.75002  1.0000
  C   C22       1.0  0.10399  0.55636  0.74904  1.0000
  C   C23       1.0  0.44450  0.55196  0.78453  1.0000
  C   C24       1.0  0.44765  0.88699  0.72649  1.0000
  N   N1        1.0  0.63348  0.30373  0.25441  1.0000
  N   N2        1.0  0.70090  0.33197  0.23393  1.0000
  N   N3        1.0  0.67121  0.37193  0.24443  1.0000
  N   N4        1.0  0.37168  0.70265  0.23906  1.0000
  N   N5        1.0  0.30365  0.67387  0.25563  1.0000
  N   N6        1.0  0.33500  0.63571  0.25773  1.0000
  N   N7        1.0  0.92518  0.47992  0.26793  1.0000
  N   N8        1.0  0.52607  0.44686  0.25550  1.0000
  N   N9        1.0  0.55752  0.08352  0.24707  1.0000
  N   N10       1.0  0.08380  0.52369  0.25998  1.0000
  N   N11       1.0  0.47436  0.55546  0.24412  1.0000
  N   N12       1.0  0.44603  0.92135  0.23246  1.0000
  N   N13       1.0  0.62785  0.29762  0.75696  1.0000
  N   N14       1.0  0.69484  0.32611  0.73158  1.0000
  N   N15       1.0  0.66475  0.36574  0.74603  1.0000
  N   N16       1.0  0.36612  0.69655  0.74112  1.0000
  N   N17       1.0  0.29849  0.66786  0.76012  1.0000
  N   N18       1.0  0.32892  0.62862  0.75347  1.0000
  N   N19       1.0  0.91951  0.47984  0.77063  1.0000
  N   N20       1.0  0.52174  0.44277  0.75938  1.0000
  N   N21       1.0  0.55457  0.07568  0.74090  1.0000
  N   N22       1.0  0.07822  0.52237  0.76480  1.0000
  N   N23       1.0  0.47395  0.55358  0.73537  1.0000
  N   N24       1.0  0.44010  0.91555  0.73543  1.0000
  O   O1        1.0  0.60398  0.33916  0.25680  1.0000
  O   O2        1.0  0.66710  0.26900  0.24866  1.0000
  O   O3        1.0  0.73440  0.39925  0.22648  1.0000
  O   O4        1.0  0.40176  0.66758  0.24456  1.0000
  O   O5        1.0  0.33703  0.73627  0.23618  1.0000
  O   O6        1.0  0.27217  0.60794  0.27493  1.0000
  O   O7        1.0  0.59883  0.33388  0.76885  1.0000
  O   O8        1.0  0.66111  0.26232  0.73989  1.0000
  O   O9        1.0  0.72747  0.39353  0.72464  1.0000
  O   O10       1.0  0.39579  0.66137  0.73754  1.0000
  O   O11       1.0  0.33159  0.73021  0.74067  1.0000
  O   O12       1.0  0.26566  0.60105  0.77113  1.0000
  C  Sn1       1.0  0.81171  0.38012  0.19929  1.0000
  C   C25       1.0  0.84479  0.41902  0.20859  1.0000
  C  Sn2       1.0  0.84364  0.45540  0.24815  1.0000
  C  Sn3       1.0  0.80872  0.45285  0.27918  1.0000
  C   C26       1.0  0.77567  0.41398  0.26991  1.0000
  C  Sn4       1.0  0.77679  0.37758  0.23033  1.0000
  O  Te1       1.0  0.81352  0.34417  0.15956  1.0000
  O  Te2       1.0  0.87708  0.49393  0.25664  1.0000
  O  Te3       1.0  0.80693  0.48885  0.31894  1.0000
  O  Te4       1.0  0.74338  0.33908  0.22186  1.0000
  Mg  Mg1       1.0  0.86012  0.53406  0.31552  1.0000
  Mg  Mg2       1.0  0.76032  0.29893  0.16310  1.0000
  C  Sn5       1.0  0.61395  0.42783  0.20425  1.0000
  C   C27       1.0  0.57551  0.42128  0.20080  1.0000
  C  Sn6       1.0  0.54841  0.38996  0.24441  1.0000
  C  Sn7       1.0  0.55998  0.36468  0.29261  1.0000
  C   C28       1.0  0.59840  0.37124  0.29608  1.0000
  C  Sn8       1.0  0.62552  0.40255  0.25244  1.0000
  O  Te5       1.0  0.64055  0.45932  0.16016  1.0000
  O  Te6       1.0  0.51015  0.38398  0.23994  1.0000
  O  Te7       1.0  0.53334  0.33317  0.33671  1.0000
  O  Te8       1.0  0.66376  0.40854  0.25693  1.0000
  Mg  Mg3       1.0  0.48460  0.33712  0.31113  1.0000
  Mg  Mg4       1.0  0.68935  0.45541  0.18588  1.0000
  C  Sn9       1.0  0.56470  0.18186  0.18398  1.0000
  C   C29       1.0  0.57084  0.15025  0.18665  1.0000
  C  Sn10      1.0  0.61287  0.16145  0.23899  1.0000
  C  Sn11      1.0  0.64954  0.20516  0.28984  1.0000
  C   C30       1.0  0.64339  0.23674  0.28719  1.0000
  C  Sn12      1.0  0.60137  0.22557  0.23484  1.0000
  O  Te9       1.0  0.52239  0.16993  0.13121  1.0000
  O  Te10      1.0  0.61819  0.12928  0.24051  1.0000
  O  Te11      1.0  0.69187  0.21707  0.34263  1.0000
  O  Te12      1.0  0.59604  0.25771  0.23333  1.0000
  Mg  Mg5       1.0  0.68233  0.16160  0.32278  1.0000
  Mg  Mg6       1.0  0.53192  0.22544  0.15119  1.0000
  C  Sn13      1.0  0.18150  0.55629  0.33851  1.0000
  C   C31       1.0  0.16074  0.57553  0.31352  1.0000
  C  Sn14      1.0  0.17495  0.60567  0.24625  1.0000
  C  Sn15      1.0  0.21064  0.61678  0.20293  1.0000
  C   C32       1.0  0.23137  0.59754  0.22789  1.0000
  C  Sn16      1.0  0.21718  0.56741  0.29519  1.0000
  O  Te13      1.0  0.16674  0.52624  0.40592  1.0000
  O  Te14      1.0  0.15369  0.62448  0.22249  1.0000
  O  Te15      1.0  0.22538  0.64686  0.13548  1.0000
  O  Te16      1.0  0.23842  0.54859  0.31892  1.0000
  Mg  Mg7       1.0  0.18581  0.66365  0.12665  1.0000
  Mg  Mg8       1.0  0.20631  0.50940  0.41464  1.0000
  C  Sn17      1.0  0.37776  0.56390  0.17664  1.0000
  C   C33       1.0  0.41802  0.57218  0.20420  1.0000
  C  Sn18      1.0  0.45613  0.61605  0.27362  1.0000
  C  Sn19      1.0  0.45397  0.65241  0.31651  1.0000
  C   C34       1.0  0.41374  0.64412  0.28899  1.0000
  C  Sn20      1.0  0.37560  0.60026  0.21954  1.0000
  O  Te17      1.0  0.34008  0.51977  0.10711  1.0000
  O  Te18      1.0  0.49599  0.62349  0.29993  1.0000
  O  Te19      1.0  0.49170  0.69656  0.38609  1.0000
  O  Te20      1.0  0.33576  0.59281  0.19326  1.0000
  Mg  Mg9       1.0  0.53827  0.68959  0.39801  1.0000
  Mg  Mg10      1.0  0.29347  0.52674  0.09528  1.0000
  C  Sn21      1.0  0.38317  0.84087  0.29450  1.0000
  C   C35       1.0  0.42359  0.85741  0.29209  1.0000
  C  Sn22      1.0  0.43519  0.82894  0.24083  1.0000
  C  Sn23      1.0  0.40577  0.78297  0.19082  1.0000
  C   C36       1.0  0.36538  0.76645  0.19322  1.0000
  C  Sn24      1.0  0.35375  0.79490  0.24449  1.0000
  O  Te21      1.0  0.37225  0.86994  0.34619  1.0000
  O  Te22      1.0  0.47579  0.84625  0.23954  1.0000
  O  Te23      1.0  0.41673  0.75390  0.13911  1.0000
  O  Te24      1.0  0.31317  0.77761  0.24577  1.0000
  Mg  Mg11      1.0  0.47575  0.79332  0.15887  1.0000
  Mg  Mg12      1.0  0.31317  0.83050  0.32631  1.0000
  C  Sn25      1.0  0.99475  0.46042  0.12717  1.0000
  C   C37       1.0  0.03370  0.50448  0.20487  1.0000
  C  Sn26      1.0  0.03974  0.54304  0.33356  1.0000
  C  Sn27      1.0  0.00617  0.53746  0.38580  1.0000
  C   C38       1.0  0.96726  0.49342  0.30815  1.0000
  C  Sn28      1.0  0.96118  0.45483  0.17941  1.0000
  O  Te25      1.0  0.09751  0.54485  0.99879  1.0000
  O  Te26      1.0  0.07895  0.58674  0.40928  1.0000
  O  Te27      1.0  0.01153  0.57557  0.51429  1.0000
  O  Te28      1.0  0.92201  0.41116  0.10374  1.0000
  Mg  Mg13      1.0  0.07076  0.62800  0.57880  1.0000
  Mg  Mg14      1.0  0.03827  0.49238  0.93430  1.0000
  C  Sn29      1.0  0.46981  0.48981  0.32649  1.0000
  C   C39       1.0  0.48788  0.52724  0.30226  1.0000
  C  Sn30      1.0  0.51844  0.53717  0.23047  1.0000
  C  Sn31      1.0  0.53119  0.50907  0.18174  1.0000
  C   C40       1.0  0.51313  0.47166  0.20594  1.0000
  C  Sn32      1.0  0.48257  0.46172  0.27776  1.0000
  O  Te29      1.0  0.43931  0.48053  0.39849  1.0000
  O  Te30      1.0  0.53606  0.57479  0.20757  1.0000
  O  Te31      1.0  0.56172  0.51839  0.10970  1.0000
  O  Te32      1.0  0.46495  0.42412  0.30063  1.0000
  Mg  Mg15      1.0  0.57645  0.57343  0.10417  1.0000
  Mg  Mg16      1.0  0.42454  0.42542  0.40391  1.0000
  C  Sn33      1.0  0.53184  0.99616  0.33111  1.0000
  C   C41       1.0  0.48787  0.97199  0.29751  1.0000
  C  Sn34      1.0  0.46076  0.98108  0.21537  1.0000
  C  Sn35      1.0  0.47795  0.01501  0.16564  1.0000
  C   C42       1.0  0.01863  0.03914  0.19920  1.0000
  C  Sn36      1.0  0.54903  0.03008  0.28138  1.0000
  O  Te33      1.0  0.55834  0.98650  0.41337  1.0000
  O  Te34      1.0  0.41691  0.95648  0.18322  1.0000
  O  Te35      1.0  0.94815  0.02464  0.08332  1.0000
  O  Te36      1.0  0.08958  0.05465  0.31350  1.0000
  Mg  Mg17      1.0  0.39386  0.98200  0.06763  1.0000
  Mg  Mg18      1.0  0.61592  0.02915  0.42898  1.0000
  C  Sn37      1.0  0.79479  0.38494  0.81713  1.0000
  C   C43       1.0  0.77398  0.40388  0.78685  1.0000
  C  Sn38      1.0  0.78979  0.43514  0.72594  1.0000
  C  Sn39      1.0  0.82717  0.44771  0.69451  1.0000
  C   C44       1.0  0.84795  0.42877  0.72475  1.0000
  C  Sn40      1.0  0.83216  0.39751  0.78570  1.0000
  O  Te37      1.0  0.77841  0.35375  0.87802  1.0000
  O  Te38      1.0  0.76845  0.45363  0.69670  1.0000
  O  Te39      1.0  0.84353  0.47892  0.63358  1.0000
  O  Te40      1.0  0.85348  0.37902  0.81490  1.0000
  Mg  Mg19      1.0  0.80315  0.49472  0.61341  1.0000
  Mg  Mg20      1.0  0.81879  0.33791  0.89808  1.0000
  C  Sn41      1.0  0.62537  0.41799  0.79972  1.0000
  C   C45       1.0  0.60356  0.37988  0.81788  1.0000
  C  Sn42      1.0  0.55918  0.35701  0.77743  1.0000
  C  Sn43      1.0  0.53610  0.37252  0.71746  1.0000
  C   C46       1.0  0.55791  0.41060  0.69930  1.0000
  C  Sn44      1.0  0.60229  0.43350  0.73975  1.0000
  O  Te41      1.0  0.66974  0.44033  0.84090  1.0000
  O  Te42      1.0  0.53809  0.31900  0.79669  1.0000
  O  Te43      1.0  0.49170  0.35014  0.67628  1.0000
  O  Te44      1.0  0.62338  0.47148  0.72048  1.0000
  Mg  Mg21      1.0  0.47738  0.29999  0.72383  1.0000
  Mg  Mg22      1.0  0.68408  0.49050  0.79321  1.0000
  C  Sn45      1.0  0.59077  0.21322  0.81428  1.0000
  C   C47       1.0  0.62959  0.22899  0.79740  1.0000
  C  Sn46      1.0  0.64022  0.19996  0.73507  1.0000
  C  Sn47      1.0  0.61143  0.15421  0.68853  1.0000
  C   C48       1.0  0.57263  0.13846  0.70538  1.0000
  C  Sn48      1.0  0.56198  0.16747  0.76773  1.0000
  O  Te45      1.0  0.58080  0.24284  0.87685  1.0000
  O  Te46      1.0  0.67922  0.21651  0.71940  1.0000
  O  Te47      1.0  0.62143  0.12460  0.62592  1.0000
  O  Te48      1.0  0.52300  0.15094  0.78338  1.0000
  Mg  Mg23      1.0  0.67836  0.16304  0.62773  1.0000
  Mg  Mg24      1.0  0.52382  0.20437  0.87493  1.0000
  C  Sn49      1.0  0.17431  0.55105  0.83366  1.0000
  C   C49       1.0  0.15502  0.57187  0.81386  1.0000
  C  Sn50      1.0  0.17049  0.60276  0.75093  1.0000
  C  Sn51      1.0  0.20596  0.61304  0.70674  1.0000
  C   C50       1.0  0.22522  0.59222  0.72651  1.0000
  C  Sn52      1.0  0.20978  0.56133  0.78947  1.0000
  O  Te49      1.0  0.15831  0.52027  0.89679  1.0000
  O  Te50      1.0  0.15069  0.62315  0.73232  1.0000
  O  Te51      1.0  0.22195  0.64385  0.64357  1.0000
  O  Te52      1.0  0.22955  0.54094  0.80805  1.0000
  Mg  Mg25      1.0  0.18414  0.66280  0.64102  1.0000
  Mg  Mg26      1.0  0.19612  0.50127  0.89924  1.0000
  C  Sn53      1.0  0.46272  0.63187  0.79980  1.0000
  C   C51       1.0  0.44141  0.59363  0.81742  1.0000
  C  Sn54      1.0  0.39740  0.57094  0.78231  1.0000
  C  Sn55      1.0  0.37417  0.58678  0.72833  1.0000
  C   C52       1.0  0.39547  0.62499  0.71070  1.0000
  C  Sn56      1.0  0.43949  0.64771  0.74582  1.0000
  O  Te53      1.0  0.50674  0.65403  0.83559  1.0000
  O  Te54      1.0  0.37681  0.53279  0.80092  1.0000
  O  Te55      1.0  0.33012  0.56459  0.69255  1.0000
  O  Te56      1.0  0.46008  0.68583  0.72721  1.0000
  Mg  Mg27      1.0  0.31644  0.51414  0.73679  1.0000
  Mg  Mg28      1.0  0.52044  0.70450  0.79120  1.0000
  C  Sn57      1.0  0.41655  0.79264  0.78414  1.0000
  C   C53       1.0  0.37663  0.77637  0.79130  1.0000
  C  Sn58      1.0  0.35419  0.79311  0.74885  1.0000
  C  Sn59      1.0  0.37201  0.82678  0.69806  1.0000
  C   C54       1.0  0.41190  0.84302  0.69089  1.0000
  C  Sn60      1.0  0.43437  0.82631  0.73335  1.0000
  O  Te57      1.0  0.43841  0.77542  0.82712  1.0000
  O  Te58      1.0  0.31435  0.77634  0.75704  1.0000
  O  Te59      1.0  0.35011  0.84399  0.65507  1.0000
  O  Te60      1.0  0.47419  0.84305  0.72514  1.0000
  Mg  Mg29      1.0  0.29687  0.81042  0.68602  1.0000
  Mg  Mg30      1.0  0.49167  0.80898  0.79603  1.0000
  C  Sn61      1.0  0.03165  0.54975  0.90307  1.0000
  C   C55       1.0  0.04211  0.52094  0.83174  1.0000
  C  Sn62      1.0  0.00841  0.47355  0.70656  1.0000
  C  Sn63      1.0  0.96331  0.45456  0.65140  1.0000
  C   C56       1.0  0.95287  0.48336  0.72268  1.0000
  C  Sn64      1.0  0.98656  0.53075  0.84791  1.0000
  O  Te61      1.0  0.95779  0.47452  0.02804  1.0000
  O  Te62      1.0  0.01968  0.44545  0.63720  1.0000
  O  Te63      1.0  0.92907  0.40725  0.52633  1.0000
  O  Te64      1.0  0.97530  0.55885  0.91722  1.0000
  Mg  Mg31      1.0  0.96121  0.38316  0.47035  1.0000
  Mg  Mg32      1.0  0.92565  0.49864  0.08398  1.0000
  C  Sn65      1.0  0.54521  0.52844  0.83784  1.0000
  C   C57       1.0  0.52020  0.48484  0.81069  1.0000
  C  Sn66      1.0  0.47381  0.45756  0.72571  1.0000
  C  Sn67      1.0  0.45195  0.47421  0.66650  1.0000
  C   C58       1.0  0.47696  0.51778  0.69362  1.0000
  C  Sn68      1.0  0.52336  0.54508  0.77863  1.0000
  O  Te65      1.0  0.59156  0.55512  0.92309  1.0000
  O  Te66      1.0  0.44952  0.41409  0.70014  1.0000
  O  Te67      1.0  0.40557  0.44749  0.58120  1.0000
  O  Te68      1.0  0.54764  0.58852  0.80417  1.0000
  Mg  Mg33      1.0  0.38707  0.39061  0.57709  1.0000
  Mg  Mg34      1.0  0.61008  0.61203  0.92711  1.0000
  C  Sn69      1.0  0.97849  0.01512  0.73833  1.0000
  C   C59       1.0  0.02300  0.03892  0.77976  1.0000
  C  Sn70      1.0  0.04337  0.01873  0.78777  1.0000
  C  Sn71      1.0  0.01874  0.97380  0.75353  1.0000
  C   C60       1.0  0.97426  0.95002  0.71210  1.0000
  C  Sn72      1.0  0.95386  0.97019  0.70410  1.0000
  O  Te69      1.0  0.95880  0.03598  0.73105  1.0000
  O  Te70      1.0  0.08791  0.04320  0.82952  1.0000
  O  Te71      1.0  0.03848  0.95296  0.76085  1.0000
  O  Te72      1.0  0.90935  0.94574  0.66234  1.0000
  Mg  Mg35      1.0  0.09998  0.00013  0.82317  1.0000
  Mg  Mg36      1.0  0.89724  0.98877  0.66854  1.0000
