data_image0
_chemical_formula_structural       H12C24N24O12C2Sn2C2HTe2HMgC2Sn2C2HTe2HMgC2Sn2C2HTe2HMgC2Sn2C2HTe2HMgC2Sn2C2HTe2HMgC2Sn2C2HTe2HMgC2Sn2C2HTe2HMgC2Sn2C2HTe2HMgC2Sn2C2HTe2HMgC2Sn2C2HTe2HMgC2Sn2C2HTe2HMgC2Sn2C2HTe2HMgC2Sn2C2HTe2HMgC2Sn2C2HTe2HMgC2Sn2C2HTe2HMgC2Sn2C2HTe2HMgC2Sn2C2HTe2HMgC2Sn2C2HTe2HMg
_chemical_formula_sum              "H48 C96 N24 O12 Sn36 Te36 Mg18"
_cell_length_a       39.4962
_cell_length_b       39.6876
_cell_length_c       8.16155
_cell_angle_alpha    109.495
_cell_angle_beta     102.988
_cell_angle_gamma    120.055

_symmetry_space_group_name_H-M    'P1'
_space_group_IT_number       1

loop_
  _space_group_symop_operation_xyz
  'x, y, z'

loop_
  _atom_site_type_symbol
  _atom_site_label
  _atom_site_symmetry_multiplicity
  _atom_site_fract_x
  _atom_site_fract_y
  _atom_site_fract_z
  _atom_site_occupancy
  H   H1        1.0  0.90653  0.42374  0.29904  1.0000
  H   H2        1.0  0.58558  0.48505  0.24478  1.0000
  H   H3        1.0  0.51673  0.10310  0.23425  1.0000
  H   H4        1.0  0.09873  0.57758  0.21682  1.0000
  H   H5        1.0  0.41816  0.52202  0.28359  1.0000
  H   H6        1.0  0.48698  0.90195  0.25061  1.0000
  H   H7        1.0  0.90324  0.42551  0.81236  1.0000
  H   H8        1.0  0.57005  0.46778  0.66858  1.0000
  H   H9        1.0  0.51823  0.09990  0.76628  1.0000
  H   H10       1.0  0.09522  0.57739  0.72722  1.0000
  H   H11       1.0  0.42876  0.53049  0.84274  1.0000
  H   H12       1.0  0.47616  0.89092  0.71099  1.0000
  C   C1        1.0  0.66584  0.30207  0.24534  1.0000
  C   C2        1.0  0.70163  0.36590  0.23601  1.0000
  C   C3        1.0  0.63811  0.33954  0.25142  1.0000
  C   C4        1.0  0.33879  0.70377  0.24419  1.0000
  C   C5        1.0  0.30404  0.64103  0.26147  1.0000
  C   C6        1.0  0.36764  0.66751  0.24732  1.0000
  C   C7        1.0  0.89844  0.44528  0.27774  1.0000
  C   C8        1.0  0.56198  0.45554  0.25087  1.0000
  C   C9        1.0  0.54770  0.10977  0.24002  1.0000
  C   C10       1.0  0.10875  0.55771  0.24271  1.0000
  C   C11       1.0  0.44049  0.54944  0.26369  1.0000
  C   C12       1.0  0.45580  0.89520  0.24168  1.0000
  C   C13       1.0  0.65992  0.29589  0.74299  1.0000
  C   C14       1.0  0.69518  0.35995  0.73511  1.0000
  C   C15       1.0  0.63224  0.33357  0.75618  1.0000
  C   C16       1.0  0.33343  0.69773  0.74795  1.0000
  C   C17       1.0  0.29825  0.63436  0.76067  1.0000
  C   C18       1.0  0.36180  0.66095  0.74525  1.0000
  C   C19       1.0  0.89367  0.44558  0.78473  1.0000
  C   C20       1.0  0.55267  0.44539  0.72056  1.0000
  C   C21       1.0  0.54676  0.10407  0.75002  1.0000
  C   C22       1.0  0.10399  0.55636  0.74904  1.0000
  C   C23       1.0  0.44450  0.55196  0.78453  1.0000
  C   C24       1.0  0.44765  0.88699  0.72649  1.0000
  N   N1        1.0  0.63348  0.30373  0.25441  1.0000
  N   N2        1.0  0.70090  0.33197  0.23393  1.0000
  N   N3        1.0  0.67121  0.37193  0.24443  1.0000
  N   N4        1.0  0.37168  0.70265  0.23906  1.0000
  N   N5        1.0  0.30365  0.67387  0.25563  1.0000
  N   N6        1.0  0.33500  0.63571  0.25773  1.0000
  N   N7        1.0  0.92518  0.47992  0.26793  1.0000
  N   N8        1.0  0.52607  0.44686  0.25550  1.0000
  N   N9        1.0  0.55752  0.08352  0.24707  1.0000
  N   N10       1.0  0.08380  0.52369  0.25998  1.0000
  N   N11       1.0  0.47436  0.55546  0.24412  1.0000
  N   N12       1.0  0.44603  0.92135  0.23246  1.0000
  N   N13       1.0  0.62785  0.29762  0.75696  1.0000
  N   N14       1.0  0.69484  0.32611  0.73158  1.0000
  N   N15       1.0  0.66475  0.36574  0.74603  1.0000
  N   N16       1.0  0.36612  0.69655  0.74112  1.0000
  N   N17       1.0  0.29849  0.66786  0.76012  1.0000
  N   N18       1.0  0.32892  0.62862  0.75347  1.0000
  N   N19       1.0  0.91951  0.47984  0.77063  1.0000
  N   N20       1.0  0.52174  0.44277  0.75938  1.0000
  N   N21       1.0  0.55457  0.07568  0.74090  1.0000
  N   N22       1.0  0.07822  0.52237  0.76480  1.0000
  N   N23       1.0  0.47395  0.55358  0.73537  1.0000
  N   N24       1.0  0.44010  0.91555  0.73543  1.0000
  O   O1        1.0  0.60398  0.33916  0.25680  1.0000
  O   O2        1.0  0.66710  0.26900  0.24866  1.0000
  O   O3        1.0  0.73440  0.39925  0.22648  1.0000
  O   O4        1.0  0.40176  0.66758  0.24456  1.0000
  O   O5        1.0  0.33703  0.73627  0.23618  1.0000
  O   O6        1.0  0.27217  0.60794  0.27493  1.0000
  O   O7        1.0  0.59883  0.33388  0.76885  1.0000
  O   O8        1.0  0.66111  0.26232  0.73989  1.0000
  O   O9        1.0  0.72747  0.39353  0.72464  1.0000
  O   O10       1.0  0.39579  0.66137  0.73754  1.0000
  O   O11       1.0  0.33159  0.73021  0.74067  1.0000
  O   O12       1.0  0.26566  0.60105  0.77113  1.0000
  C   C25       1.0  0.81283  0.45483  0.24130  1.0000
  C   C26       1.0  0.77859  0.41534  0.22436  1.0000
  C  Sn1       1.0  0.78447  0.38411  0.23556  1.0000
  C  Sn2       1.0  0.82543  0.39269  0.26431  1.0000
  C   C27       1.0  0.85950  0.43231  0.28122  1.0000
  C   C28       1.0  0.85325  0.46332  0.26974  1.0000
  H   H13       1.0  0.80802  0.47883  0.23253  1.0000
  O  Te1       1.0  0.74990  0.34482  0.21827  1.0000
  O  Te2       1.0  0.83220  0.36206  0.27611  1.0000
  H   H14       1.0  0.87979  0.49391  0.28299  1.0000
  Mg  Mg1       1.0  0.77511  0.31334  0.24399  1.0000
  C   C29       1.0  0.54876  0.36029  0.24899  1.0000
  C   C30       1.0  0.58570  0.36476  0.24135  1.0000
  C  Sn3       1.0  0.61894  0.40306  0.24793  1.0000
  C  Sn4       1.0  0.61505  0.43747  0.26250  1.0000
  C   C31       1.0  0.57798  0.43270  0.27019  1.0000
  C   C32       1.0  0.54490  0.39422  0.26343  1.0000
  H   H15       1.0  0.52317  0.33054  0.24387  1.0000
  O  Te3       1.0  0.65562  0.40698  0.24007  1.0000
  O  Te4       1.0  0.64779  0.47611  0.26942  1.0000
  H   H16       1.0  0.51631  0.39079  0.26948  1.0000
  Mg  Mg2       1.0  0.69151  0.46594  0.25415  1.0000
  C   C33       1.0  0.62820  0.17018  0.23904  1.0000
  C   C34       1.0  0.58902  0.15450  0.25267  1.0000
  C  Sn5       1.0  0.57184  0.17797  0.25646  1.0000
  C  Sn6       1.0  0.59436  0.21785  0.24634  1.0000
  C   C35       1.0  0.63352  0.23323  0.23259  1.0000
  C   C36       1.0  0.65043  0.20950  0.22898  1.0000
  H   H17       1.0  0.64127  0.15180  0.23613  1.0000
  O  Te5       1.0  0.53267  0.16185  0.27020  1.0000
  O  Te6       1.0  0.57791  0.24195  0.24978  1.0000
  H   H18       1.0  0.68074  0.22163  0.21829  1.0000
  Mg  Mg3       1.0  0.52341  0.20648  0.26988  1.0000
  C   C37       1.0  0.17484  0.54497  0.27501  1.0000
  C   C38       1.0  0.15561  0.56636  0.27072  1.0000
  C  Sn7       1.0  0.17590  0.60513  0.25626  1.0000
  C  Sn8       1.0  0.21618  0.62272  0.24588  1.0000
  C   C39       1.0  0.23513  0.60105  0.25014  1.0000
  C   C40       1.0  0.21456  0.56228  0.26470  1.0000
  H   H19       1.0  0.15891  0.51496  0.28617  1.0000
  O  Te7       1.0  0.15625  0.62610  0.25223  1.0000
  O  Te8       1.0  0.23715  0.66140  0.23128  1.0000
  H   H20       1.0  0.22944  0.54571  0.26789  1.0000
  Mg  Mg4       1.0  0.19747  0.67796  0.23112  1.0000
  C   C41       1.0  0.38019  0.56940  0.23984  1.0000
  C   C42       1.0  0.41827  0.57457  0.24671  1.0000
  C  Sn9       1.0  0.45310  0.61363  0.26348  1.0000
  C  Sn10      1.0  0.44965  0.64810  0.27359  1.0000
  C   C43       1.0  0.41143  0.64262  0.26674  1.0000
  C   C44       1.0  0.37676  0.60339  0.24988  1.0000
  H   H21       1.0  0.35338  0.53906  0.22690  1.0000
  O  Te9       1.0  0.49091  0.61825  0.27006  1.0000
  O  Te10      1.0  0.48398  0.68749  0.29046  1.0000
  H   H22       1.0  0.34729  0.59941  0.24470  1.0000
  Mg  Mg5       1.0  0.52880  0.67810  0.29366  1.0000
  C   C45       1.0  0.41877  0.79235  0.23174  1.0000
  C   C46       1.0  0.37943  0.77636  0.24420  1.0000
  C  Sn11      1.0  0.36176  0.79932  0.24530  1.0000
  C  Sn12      1.0  0.38395  0.83901  0.23365  1.0000
  C   C47       1.0  0.42326  0.85472  0.22109  1.0000
  C   C48       1.0  0.44066  0.83149  0.22016  1.0000
  H   H23       1.0  0.43222  0.77437  0.23092  1.0000
  O  Te11      1.0  0.32244  0.78288  0.25790  1.0000
  O  Te12      1.0  0.36700  0.86260  0.23439  1.0000
  H   H24       1.0  0.47110  0.84386  0.21039  1.0000
  Mg  Mg6       1.0  0.31247  0.82686  0.25384  1.0000
  C   C49       1.0  0.03266  0.55098  0.35098  1.0000
  C   C50       1.0  0.04547  0.52378  0.29508  1.0000
  C  Sn13      1.0  0.01506  0.47641  0.21049  1.0000
  C  Sn14      1.0  0.97102  0.45601  0.18145  1.0000
  C   C51       1.0  0.95852  0.48353  0.23774  1.0000
  C   C52       1.0  0.98922  0.53089  0.32232  1.0000
  H   H25       1.0  0.05640  0.58762  0.41632  1.0000
  O  Te13      1.0  0.02842  0.44974  0.15556  1.0000
  O  Te14      1.0  0.93995  0.40876  0.09716  1.0000
  H   H26       1.0  0.97928  0.55194  0.36546  1.0000
  Mg  Mg7       1.0  0.97403  0.38686  0.04657  1.0000
  C   C53       1.0  0.53265  0.53713  0.23148  1.0000
  C   C54       1.0  0.49408  0.52914  0.23355  1.0000
  C  Sn15      1.0  0.46567  0.49322  0.25347  1.0000
  C  Sn16      1.0  0.47616  0.46485  0.27169  1.0000
  C   C55       1.0  0.51484  0.47315  0.26960  1.0000
  C   C56       1.0  0.54304  0.50917  0.24952  1.0000
  H   H27       1.0  0.55448  0.56501  0.21605  1.0000
  O  Te15      1.0  0.42726  0.48571  0.25518  1.0000
  O  Te16      1.0  0.44835  0.42873  0.29187  1.0000
  H   H28       1.0  0.57291  0.51537  0.24805  1.0000
  Mg  Mg8       1.0  0.39983  0.43219  0.28602  1.0000
  C   C57       1.0  0.46027  0.99454  0.20979  1.0000
  C   C58       1.0  0.46995  0.96571  0.22053  1.0000
  C  Sn17      1.0  0.51175  0.97788  0.25202  1.0000
  C  Sn18      1.0  0.54439  0.01971  0.27315  1.0000
  C   C59       1.0  0.03113  0.04833  0.26232  1.0000
  C   C60       1.0  0.98920  0.03581  0.23070  1.0000
  H   H29       1.0  0.42784  0.98487  0.18543  1.0000
  O  Te17      1.0  0.52086  0.94867  0.26228  1.0000
  O  Te18      1.0  0.58643  0.03271  0.30482  1.0000
  H   H30       1.0  0.98172  0.05815  0.22252  1.0000
  Mg  Mg9       1.0  0.58298  0.98140  0.30754  1.0000
  C   C61       1.0  0.80457  0.44991  0.73256  1.0000
  C   C62       1.0  0.77173  0.41058  0.72157  1.0000
  C  Sn19      1.0  0.77977  0.38127  0.74129  1.0000
  C  Sn20      1.0  0.82150  0.39163  0.77263  1.0000
  C   C63       1.0  0.85415  0.43107  0.78353  1.0000
  C   C64       1.0  0.84574  0.46015  0.76354  1.0000
  H   H31       1.0  0.79807  0.47243  0.71720  1.0000
  O  Te19      1.0  0.74659  0.34212  0.72986  1.0000
  O  Te20      1.0  0.83043  0.36293  0.79291  1.0000
  H   H32       1.0  0.87119  0.49061  0.77218  1.0000
  Mg  Mg10      1.0  0.77460  0.31361  0.76641  1.0000
  C   C65       1.0  0.54518  0.35713  0.77458  1.0000
  C   C66       1.0  0.57993  0.35897  0.75114  1.0000
  C  Sn21      1.0  0.61013  0.39347  0.72931  1.0000
  C  Sn22      1.0  0.60536  0.42672  0.73109  1.0000
  C   C67       1.0  0.57050  0.42460  0.75477  1.0000
  C   C68       1.0  0.54047  0.38991  0.77643  1.0000
  H   H33       1.0  0.52195  0.33030  0.79145  1.0000
  O  Te21      1.0  0.64465  0.39480  0.70597  1.0000
  O  Te22      1.0  0.63508  0.46158  0.70965  1.0000
  H   H34       1.0  0.51358  0.38851  0.79471  1.0000
  Mg  Mg11      1.0  0.67669  0.44894  0.68208  1.0000
  C   C69       1.0  0.62463  0.16350  0.72754  1.0000
  C   C70       1.0  0.58666  0.14791  0.75145  1.0000
  C  Sn23      1.0  0.56925  0.17130  0.76363  1.0000
  C  Sn24      1.0  0.59032  0.21101  0.75154  1.0000
  C   C71       1.0  0.62827  0.22631  0.72748  1.0000
  C   C72       1.0  0.64542  0.20266  0.71552  1.0000
  H   H35       1.0  0.63789  0.14519  0.71818  1.0000
  O  Te23      1.0  0.53130  0.15526  0.78760  1.0000
  O  Te24      1.0  0.57361  0.23502  0.76322  1.0000
  H   H36       1.0  0.67480  0.21472  0.69688  1.0000
  Mg  Mg12      1.0  0.52112  0.19972  0.79589  1.0000
  C   C73       1.0  0.19049  0.54837  0.78397  1.0000
  C   C74       1.0  0.22007  0.58276  0.75979  1.0000
  C  Sn25      1.0  0.21270  0.61259  0.74148  1.0000
  C  Sn26      1.0  0.17500  0.60783  0.74760  1.0000
  C   C75       1.0  0.14562  0.57333  0.77199  1.0000
  C   C76       1.0  0.15330  0.54366  0.79010  1.0000
  H   H37       1.0  0.19644  0.52543  0.79810  1.0000
  O  Te25      1.0  0.24258  0.64675  0.71734  1.0000
  O  Te26      1.0  0.16685  0.63718  0.72973  1.0000
  H   H38       1.0  0.13041  0.51705  0.80895  1.0000
  Mg  Mg13      1.0  0.21716  0.67838  0.69940  1.0000
  C   C77       1.0  0.38496  0.57233  0.78869  1.0000
  C   C78       1.0  0.42002  0.57489  0.76553  1.0000
  C  Sn27      1.0  0.44909  0.60893  0.73843  1.0000
  C  Sn28      1.0  0.44287  0.64095  0.73456  1.0000
  C   C79       1.0  0.40772  0.63813  0.75801  1.0000
  C   C80       1.0  0.37882  0.60392  0.78497  1.0000
  H   H39       1.0  0.36261  0.54589  0.80967  1.0000
  O  Te27      1.0  0.48394  0.61098  0.71545  1.0000
  O  Te28      1.0  0.47145  0.67533  0.70777  1.0000
  H   H40       1.0  0.35170  0.60197  0.80303  1.0000
  Mg  Mg14      1.0  0.51405  0.66403  0.68302  1.0000
  C   C81       1.0  0.35476  0.80746  0.74974  1.0000
  C   C82       1.0  0.35761  0.77257  0.72570  1.0000
  C  Sn29      1.0  0.39387  0.77637  0.71221  1.0000
  C  Sn30      1.0  0.42787  0.81587  0.72311  1.0000
  C   C83       1.0  0.42472  0.85059  0.74731  1.0000
  C   C84       1.0  0.38828  0.84644  0.76057  1.0000
  H   H41       1.0  0.32658  0.80426  0.76011  1.0000
  O  Te29      1.0  0.39619  0.74119  0.68814  1.0000
  O  Te30      1.0  0.46448  0.82055  0.71012  1.0000
  H   H42       1.0  0.38610  0.87347  0.77932  1.0000
  Mg  Mg15      1.0  0.45266  0.76338  0.67783  1.0000
  C   C85       1.0  0.00642  0.54460  0.85909  1.0000
  C   C86       1.0  0.96658  0.50096  0.77856  1.0000
  C  Sn31      1.0  0.96422  0.46229  0.69813  1.0000
  C  Sn32      1.0  0.00251  0.46750  0.69860  1.0000
  C   C87       1.0  0.04222  0.51131  0.77965  1.0000
  C   C88       1.0  0.04421  0.54978  0.85968  1.0000
  H   H43       1.0  0.00798  0.57436  0.92111  1.0000
  O  Te31      1.0  0.92415  0.41894  0.61821  1.0000
  O  Te32      1.0  0.00108  0.42943  0.61926  1.0000
  H   H44       1.0  0.07507  0.58356  0.92214  1.0000
  Mg  Mg16      1.0  0.93881  0.37750  0.52736  1.0000
  C   C89       1.0  0.54318  0.52464  0.77574  1.0000
  C   C90       1.0  0.52044  0.48325  0.76950  1.0000
  C  Sn33      1.0  0.47654  0.46048  0.73627  1.0000
  C  Sn34      1.0  0.45509  0.47957  0.70877  1.0000
  C   C91       1.0  0.47812  0.52097  0.71514  1.0000
  C   C92       1.0  0.52204  0.54348  0.74856  1.0000
  H   H45       1.0  0.57716  0.54204  0.80148  1.0000
  O  Te33      1.0  0.45432  0.41917  0.73056  1.0000
  O  Te34      1.0  0.41123  0.45752  0.67524  1.0000
  H   H46       1.0  0.53963  0.57551  0.75325  1.0000
  Mg  Mg17      1.0  0.39488  0.40202  0.68044  1.0000
  C   C93       1.0  0.97154  0.00586  0.67170  1.0000
  C   C94       1.0  0.01716  0.03291  0.73187  1.0000
  C  Sn35      1.0  0.04181  0.01957  0.79310  1.0000
  C  Sn36      1.0  0.02031  0.97838  0.79389  1.0000
  C   C95       1.0  0.97465  0.95154  0.73329  1.0000
  C   C96       1.0  0.95029  0.96521  0.67236  1.0000
  H   H47       1.0  0.95269  0.01642  0.62445  1.0000
  O  Te35      1.0  0.08737  0.04701  0.85282  1.0000
  O  Te36      1.0  0.04415  0.96424  0.85431  1.0000
  H   H48       1.0  0.91497  0.94425  0.62566  1.0000
  Mg  Mg18      1.0  0.10555  0.01325  0.92250  1.0000
