data_image0
_chemical_formula_structural       H12C24N24O12SnCSn2CSnTe4Mg2SnCSn2CSnTe4Mg2SnCSn2CSnTe4Mg2SnCSn2CSnTe4Mg2SnCSn2CSnTe4Mg2SnCSn2CSnTe4Mg2SnCSn2CSnTe4Mg2SnCSn2CSnTe4Mg2SnCSn2CSnTe4Mg2SnCSn2CSnTe4Mg2SnCSn2CSnTe4Mg2SnCSn2CSnTe4Mg2
_chemical_formula_sum              "H12 C48 N24 O12 Sn48 Te48 Mg24"
_cell_length_a       32.2378
_cell_length_b       32.4292
_cell_length_c       7.97783
_cell_angle_alpha    121.043
_cell_angle_beta     69.9043
_cell_angle_gamma    120.162

_symmetry_space_group_name_H-M    'P1'
_space_group_IT_number       1

loop_
  _space_group_symop_operation_xyz
  'x, y, z'

loop_
  _atom_site_type_symbol
  _atom_site_label
  _atom_site_symmetry_multiplicity
  _atom_site_fract_x
  _atom_site_fract_y
  _atom_site_fract_z
  _atom_site_occupancy
  H   H1        1.0  0.94888  0.43395  0.28972  1.0000
  H   H2        1.0  0.56604  0.52007  0.27768  1.0000
  H   H3        1.0  0.47953  0.04278  0.21556  1.0000
  H   H4        1.0  0.04924  0.57634  0.23244  1.0000
  H   H5        1.0  0.42246  0.46120  0.16666  1.0000
  H   H6        1.0  0.52672  0.95581  0.31016  1.0000
  H   H7        1.0  0.94952  0.42511  0.79244  1.0000
  H   H8        1.0  0.57788  0.53486  0.79608  1.0000
  H   H9        1.0  0.47209  0.04734  0.72278  1.0000
  H   H10       1.0  0.05079  0.56492  0.71816  1.0000
  H   H11       1.0  0.43475  0.47600  0.68139  1.0000
  H   H12       1.0  0.52091  0.95934  0.80297  1.0000
  C   C1        1.0  0.94113  0.46044  0.27036  1.0000
  C   C2        1.0  0.53798  0.48018  0.24669  1.0000
  C   C3        1.0  0.51574  0.05416  0.24225  1.0000
  C   C4        1.0  0.05605  0.54903  0.25043  1.0000
  C   C5        1.0  0.45063  0.50123  0.20323  1.0000
  C   C6        1.0  0.49102  0.94466  0.27915  1.0000
  C   C7        1.0  0.70651  0.36764  0.23579  1.0000
  C   C8        1.0  0.62636  0.33341  0.23690  1.0000
  C   C9        1.0  0.66033  0.28986  0.25086  1.0000
  C   C10       1.0  0.28981  0.63050  0.26509  1.0000
  C   C11       1.0  0.36977  0.65933  0.24971  1.0000
  C   C12       1.0  0.33918  0.70800  0.25143  1.0000
  C   C13       1.0  0.94322  0.45167  0.76757  1.0000
  C   C14       1.0  0.54961  0.49499  0.76232  1.0000
  C   C15       1.0  0.50833  0.05810  0.74698  1.0000
  C   C16       1.0  0.05843  0.53901  0.74149  1.0000
  C   C17       1.0  0.46255  0.51621  0.71865  1.0000
  C   C18       1.0  0.48438  0.94863  0.78177  1.0000
  C   C19       1.0  0.71012  0.36993  0.73751  1.0000
  C   C20       1.0  0.63042  0.34032  0.74266  1.0000
  C   C21       1.0  0.66032  0.29271  0.75300  1.0000
  C   C22       1.0  0.29358  0.63370  0.77201  1.0000
  C   C23       1.0  0.37409  0.66624  0.75618  1.0000
  C   C24       1.0  0.33971  0.71077  0.75140  1.0000
  N   N1        1.0  0.97619  0.50278  0.25571  1.0000
  N   N2        1.0  0.49535  0.46873  0.21857  1.0000
  N   N3        1.0  0.52442  0.02241  0.26541  1.0000
  N   N4        1.0  0.02052  0.50708  0.26599  1.0000
  N   N5        1.0  0.49276  0.51227  0.23459  1.0000
  N   N6        1.0  0.48322  0.97630  0.25167  1.0000
  N   N7        1.0  0.29331  0.67251  0.26070  1.0000
  N   N8        1.0  0.32665  0.62154  0.26271  1.0000
  N   N9        1.0  0.37885  0.70400  0.24371  1.0000
  N   N10       1.0  0.70524  0.32737  0.24563  1.0000
  N   N11       1.0  0.66839  0.37293  0.22778  1.0000
  N   N12       1.0  0.61961  0.29049  0.24950  1.0000
  N   N13       1.0  0.97910  0.49276  0.74668  1.0000
  N   N14       1.0  0.50732  0.48391  0.73250  1.0000
  N   N15       1.0  0.51670  0.02634  0.77126  1.0000
  N   N16       1.0  0.02324  0.49718  0.75959  1.0000
  N   N17       1.0  0.50477  0.52766  0.75047  1.0000
  N   N18       1.0  0.47537  0.98070  0.76221  1.0000
  N   N19       1.0  0.29467  0.67408  0.76346  1.0000
  N   N20       1.0  0.33199  0.62760  0.77254  1.0000
  N   N21       1.0  0.38063  0.70917  0.74425  1.0000
  N   N22       1.0  0.70622  0.32825  0.74569  1.0000
  N   N23       1.0  0.67363  0.37840  0.73317  1.0000
  N   N24       1.0  0.62099  0.29607  0.75291  1.0000
  O   O1        1.0  0.24678  0.59065  0.27406  1.0000
  O   O2        1.0  0.41084  0.65709  0.24439  1.0000
  O   O3        1.0  0.34094  0.75010  0.24821  1.0000
  O   O4        1.0  0.74829  0.40937  0.23244  1.0000
  O   O5        1.0  0.58420  0.33181  0.23132  1.0000
  O   O6        1.0  0.66081  0.24969  0.26047  1.0000
  O   O7        1.0  0.25174  0.59280  0.78272  1.0000
  O   O8        1.0  0.41658  0.66686  0.75215  1.0000
  O   O9        1.0  0.33923  0.75128  0.74397  1.0000
  O   O10       1.0  0.75326  0.40995  0.73215  1.0000
  O   O11       1.0  0.58952  0.34180  0.74094  1.0000
  O   O12       1.0  0.65823  0.25147  0.76413  1.0000
  C  Sn1       1.0  0.86623  0.48792  0.31117  1.0000
  C   C25       1.0  0.88609  0.45862  0.31371  1.0000
  C  Sn2       1.0  0.85968  0.40480  0.26338  1.0000
  C  Sn3       1.0  0.81245  0.37973  0.20926  1.0000
  C   C26       1.0  0.79262  0.40902  0.20671  1.0000
  C  Sn4       1.0  0.81899  0.46285  0.25705  1.0000
  O  Te1       1.0  0.89328  0.54168  0.36203  1.0000
  O  Te2       1.0  0.88030  0.37634  0.26706  1.0000
  O  Te3       1.0  0.78540  0.32592  0.15838  1.0000
  O  Te4       1.0  0.79841  0.49130  0.25335  1.0000
  Mg  Mg1       1.0  0.82915  0.30402  0.18560  1.0000
  Mg  Mg2       1.0  0.84952  0.56361  0.33468  1.0000
  C  Sn5       1.0  0.60753  0.43724  0.32912  1.0000
  C   C27       1.0  0.57965  0.38413  0.28963  1.0000
  C  Sn6       1.0  0.53677  0.35712  0.20475  1.0000
  C  Sn7       1.0  0.52146  0.38375  0.15825  1.0000
  C   C28       1.0  0.54933  0.43683  0.19771  1.0000
  C  Sn8       1.0  0.59222  0.46387  0.28263  1.0000
  O  Te5       1.0  0.65027  0.46346  0.41403  1.0000
  O  Te6       1.0  0.50950  0.30404  0.16670  1.0000
  O  Te7       1.0  0.47868  0.35749  0.07329  1.0000
  O  Te8       1.0  0.61949  0.51692  0.32064  1.0000
  Mg  Mg3       1.0  0.45399  0.28534  0.04946  1.0000
  Mg  Mg4       1.0  0.67501  0.53565  0.43777  1.0000
  C  Sn9       1.0  0.63328  0.15330  0.22061  1.0000
  C   C29       1.0  0.62638  0.19112  0.21017  1.0000
  C  Sn10      1.0  0.57988  0.18808  0.23805  1.0000
  C  Sn11      1.0  0.53943  0.14637  0.27730  1.0000
  C   C30       1.0  0.54633  0.10859  0.28775  1.0000
  C  Sn12      1.0  0.59283  0.11160  0.25985  1.0000
  O  Te9       1.0  0.68009  0.15712  0.19226  1.0000
  O  Te10      1.0  0.57389  0.22635  0.22685  1.0000
  O  Te11      1.0  0.49259  0.14258  0.30564  1.0000
  O  Te12      1.0  0.59882  0.07336  0.27107  1.0000
  Mg  Mg5       1.0  0.50298  0.20419  0.27617  1.0000
  Mg  Mg6       1.0  0.66972  0.09549  0.22188  1.0000
  C  Sn13      1.0  0.15573  0.52424  0.20391  1.0000
  C   C31       1.0  0.19647  0.57035  0.21138  1.0000
  C  Sn14      1.0  0.19140  0.61568  0.25952  1.0000
  C  Sn15      1.0  0.14462  0.61492  0.30117  1.0000
  C   C32       1.0  0.10391  0.56883  0.29372  1.0000
  C  Sn16      1.0  0.10895  0.52348  0.24556  1.0000
  O  Te13      1.0  0.16165  0.47939  0.15547  1.0000
  O  Te14      1.0  0.23267  0.66130  0.26599  1.0000
  O  Te15      1.0  0.13872  0.65982  0.34963  1.0000
  O  Te16      1.0  0.06771  0.47788  0.23911  1.0000
  Mg  Mg7       1.0  0.20593  0.71240  0.33937  1.0000
  Mg  Mg8       1.0  0.09441  0.42677  0.16585  1.0000
  C  Sn17      1.0  0.37507  0.55745  0.24787  1.0000
  C   C33       1.0  0.40483  0.61017  0.28564  1.0000
  C  Sn18      1.0  0.45487  0.62831  0.27168  1.0000
  C  Sn19      1.0  0.47560  0.59301  0.21873  1.0000
  C   C34       1.0  0.44585  0.54033  0.18095  1.0000
  C  Sn20      1.0  0.39580  0.52216  0.19492  1.0000
  O  Te17      1.0  0.32514  0.54018  0.26270  1.0000
  O  Te18      1.0  0.48388  0.68119  0.31020  1.0000
  O  Te19      1.0  0.52558  0.61033  0.20392  1.0000
  O  Te20      1.0  0.36680  0.46931  0.15639  1.0000
  Mg  Mg9       1.0  0.54996  0.68593  0.27053  1.0000
  Mg  Mg10      1.0  0.30072  0.46452  0.19592  1.0000
  C  Sn21      1.0  0.46192  0.84156  0.22448  1.0000
  C   C35       1.0  0.45696  0.88108  0.21776  1.0000
  C  Sn22      1.0  0.41120  0.87964  0.24395  1.0000
  C  Sn23      1.0  0.36952  0.83786  0.27769  1.0000
  C   C36       1.0  0.37450  0.79838  0.28443  1.0000
  C  Sn24      1.0  0.42025  0.79978  0.25822  1.0000
  O  Te21      1.0  0.50802  0.84380  0.19792  1.0000
  O  Te22      1.0  0.40715  0.91958  0.23654  1.0000
  O  Te23      1.0  0.32340  0.83565  0.30425  1.0000
  O  Te24      1.0  0.42431  0.75988  0.26565  1.0000
  Mg  Mg11      1.0  0.33653  0.89921  0.28146  1.0000
  Mg  Mg12      1.0  0.49491  0.78022  0.22085  1.0000
  C  Sn25      1.0  0.84724  0.37981  0.70416  1.0000
  C   C37       1.0  0.88834  0.42519  0.70606  1.0000
  C  Sn26      1.0  0.88387  0.46994  0.74330  1.0000
  C  Sn27      1.0  0.83735  0.46934  0.77952  1.0000
  C   C38       1.0  0.79628  0.42398  0.77765  1.0000
  C  Sn28      1.0  0.80072  0.37920  0.74039  1.0000
  O  Te25      1.0  0.85256  0.33553  0.66661  1.0000
  O  Te26      1.0  0.92549  0.51484  0.74436  1.0000
  O  Te27      1.0  0.83205  0.51367  0.81709  1.0000
  O  Te28      1.0  0.75913  0.33433  0.73935  1.0000
  Mg  Mg13      1.0  0.89954  0.56536  0.80294  1.0000
  Mg  Mg14      1.0  0.78503  0.28381  0.68089  1.0000
  C  Sn29      1.0  0.52144  0.39810  0.76988  1.0000
  C   C39       1.0  0.55160  0.45007  0.79725  1.0000
  C  Sn30      1.0  0.60167  0.46762  0.77874  1.0000
  C  Sn31      1.0  0.62204  0.43249  0.73176  1.0000
  C   C40       1.0  0.59189  0.38055  0.70438  1.0000
  C  Sn32      1.0  0.54180  0.36297  0.72290  1.0000
  O  Te29      1.0  0.47148  0.38141  0.78910  1.0000
  O  Te30      1.0  0.63109  0.51976  0.80685  1.0000
  O  Te31      1.0  0.67204  0.44923  0.71256  1.0000
  O  Te32      1.0  0.51240  0.31086  0.69478  1.0000
  Mg  Mg15      1.0  0.69704  0.52391  0.76470  1.0000
  Mg  Mg16      1.0  0.44645  0.30667  0.73680  1.0000
  C  Sn33      1.0  0.60250  0.13807  0.82205  1.0000
  C   C41       1.0  0.55324  0.11770  0.80991  1.0000
  C  Sn34      1.0  0.53598  0.14030  0.75471  1.0000
  C  Sn35      1.0  0.56864  0.18415  0.71060  1.0000
  C   C42       1.0  0.61787  0.20449  0.72272  1.0000
  C  Sn36      1.0  0.63516  0.18192  0.77795  1.0000
  O  Te33      1.0  0.61895  0.11485  0.87753  1.0000
  O  Te34      1.0  0.48658  0.11925  0.74366  1.0000
  O  Te35      1.0  0.55215  0.20736  0.65509  1.0000
  O  Te36      1.0  0.68453  0.20294  0.78897  1.0000
  Mg  Mg17      1.0  0.48165  0.16455  0.66117  1.0000
  Mg  Mg18      1.0  0.68950  0.15765  0.87134  1.0000
  C  Sn37      1.0  0.16138  0.52175  0.71478  1.0000
  C   C43       1.0  0.20075  0.56804  0.71426  1.0000
  C  Sn38      1.0  0.19345  0.61102  0.75024  1.0000
  C  Sn39      1.0  0.14579  0.60768  0.78766  1.0000
  C   C44       1.0  0.10645  0.56141  0.78820  1.0000
  C  Sn40      1.0  0.11372  0.51840  0.75220  1.0000
  O  Te37      1.0  0.16953  0.47927  0.67845  1.0000
  O  Te38      1.0  0.23338  0.65688  0.74889  1.0000
  O  Te39      1.0  0.13767  0.65021  0.82399  1.0000
  O  Te40      1.0  0.07382  0.47257  0.75357  1.0000
  Mg  Mg19      1.0  0.20371  0.70416  0.80657  1.0000
  Mg  Mg20      1.0  0.10344  0.42528  0.69601  1.0000
  C  Sn41      1.0  0.38472  0.56864  0.75813  1.0000
  C   C45       1.0  0.41320  0.62152  0.79505  1.0000
  C  Sn42      1.0  0.46338  0.64127  0.78277  1.0000
  C  Sn43      1.0  0.48557  0.60746  0.73242  1.0000
  C   C46       1.0  0.45710  0.55461  0.69550  1.0000
  C  Sn44      1.0  0.40691  0.53483  0.70778  1.0000
  O  Te41      1.0  0.33463  0.54974  0.77124  1.0000
  O  Te42      1.0  0.49109  0.69428  0.82040  1.0000
  O  Te43      1.0  0.53571  0.62641  0.71933  1.0000
  O  Te44      1.0  0.37921  0.48185  0.67015  1.0000
  Mg  Mg21      1.0  0.55798  0.70152  0.78381  1.0000
  Mg  Mg22      1.0  0.31232  0.47456  0.70660  1.0000
  C  Sn45      1.0  0.45834  0.84565  0.71508  1.0000
  C   C47       1.0  0.45113  0.88528  0.71960  1.0000
  C  Sn46      1.0  0.40456  0.88290  0.75608  1.0000
  C  Sn47      1.0  0.36435  0.84005  0.78886  1.0000
  C   C48       1.0  0.37157  0.80046  0.78437  1.0000
  C  Sn48      1.0  0.41813  0.80280  0.74786  1.0000
  O  Te45      1.0  0.50521  0.84883  0.67835  1.0000
  O  Te46      1.0  0.39826  0.92298  0.75981  1.0000
  O  Te47      1.0  0.31746  0.83690  0.82560  1.0000
  O  Te48      1.0  0.42444  0.76276  0.74416  1.0000
  Mg  Mg23      1.0  0.32738  0.90107  0.81598  1.0000
  Mg  Mg24      1.0  0.49530  0.78464  0.68810  1.0000
