data_image0
_chemical_formula_structural       H12C24N24O12C2Sn2C2HTe2HMgC2Sn2C2HTe2HMgC2Sn2C2HTe2HMgC2Sn2C2HTe2HMgC2Sn2C2HTe2HMgC2Sn2C2HTe2HMgC2Sn2C2HTe2HMgC2Sn2C2HTe2HMgC2Sn2C2HTe2HMgC2Sn2C2HTe2HMgC2Sn2C2HTe2HMgC2Sn2C2HTe2HMg
_chemical_formula_sum              "H36 C72 N24 O12 Sn24 Te24 Mg12"
_cell_length_a       32.2378
_cell_length_b       32.4292
_cell_length_c       7.97783
_cell_angle_alpha    121.043
_cell_angle_beta     69.9043
_cell_angle_gamma    120.162

_symmetry_space_group_name_H-M    'P1'
_space_group_IT_number       1

loop_
  _space_group_symop_operation_xyz
  'x, y, z'

loop_
  _atom_site_type_symbol
  _atom_site_label
  _atom_site_symmetry_multiplicity
  _atom_site_fract_x
  _atom_site_fract_y
  _atom_site_fract_z
  _atom_site_occupancy
  H   H1        1.0  0.94888  0.43395  0.28972  1.0000
  H   H2        1.0  0.56604  0.52007  0.27768  1.0000
  H   H3        1.0  0.47953  0.04278  0.21556  1.0000
  H   H4        1.0  0.04924  0.57634  0.23244  1.0000
  H   H5        1.0  0.42246  0.46120  0.16666  1.0000
  H   H6        1.0  0.52672  0.95581  0.31016  1.0000
  H   H7        1.0  0.94952  0.42511  0.79244  1.0000
  H   H8        1.0  0.57788  0.53486  0.79608  1.0000
  H   H9        1.0  0.47209  0.04734  0.72278  1.0000
  H   H10       1.0  0.05079  0.56492  0.71816  1.0000
  H   H11       1.0  0.43475  0.47600  0.68139  1.0000
  H   H12       1.0  0.52091  0.95934  0.80297  1.0000
  C   C1        1.0  0.94113  0.46044  0.27036  1.0000
  C   C2        1.0  0.53798  0.48018  0.24669  1.0000
  C   C3        1.0  0.51574  0.05416  0.24225  1.0000
  C   C4        1.0  0.05605  0.54903  0.25043  1.0000
  C   C5        1.0  0.45063  0.50123  0.20323  1.0000
  C   C6        1.0  0.49102  0.94466  0.27915  1.0000
  C   C7        1.0  0.70651  0.36764  0.23579  1.0000
  C   C8        1.0  0.62636  0.33341  0.23690  1.0000
  C   C9        1.0  0.66033  0.28986  0.25086  1.0000
  C   C10       1.0  0.28981  0.63050  0.26509  1.0000
  C   C11       1.0  0.36977  0.65933  0.24971  1.0000
  C   C12       1.0  0.33918  0.70800  0.25143  1.0000
  C   C13       1.0  0.94322  0.45167  0.76757  1.0000
  C   C14       1.0  0.54961  0.49499  0.76232  1.0000
  C   C15       1.0  0.50833  0.05810  0.74698  1.0000
  C   C16       1.0  0.05843  0.53901  0.74149  1.0000
  C   C17       1.0  0.46255  0.51621  0.71865  1.0000
  C   C18       1.0  0.48438  0.94863  0.78177  1.0000
  C   C19       1.0  0.71012  0.36993  0.73751  1.0000
  C   C20       1.0  0.63042  0.34032  0.74266  1.0000
  C   C21       1.0  0.66032  0.29271  0.75300  1.0000
  C   C22       1.0  0.29358  0.63370  0.77201  1.0000
  C   C23       1.0  0.37409  0.66624  0.75618  1.0000
  C   C24       1.0  0.33971  0.71077  0.75140  1.0000
  N   N1        1.0  0.97619  0.50278  0.25571  1.0000
  N   N2        1.0  0.49535  0.46873  0.21857  1.0000
  N   N3        1.0  0.52442  0.02241  0.26541  1.0000
  N   N4        1.0  0.02052  0.50708  0.26599  1.0000
  N   N5        1.0  0.49276  0.51227  0.23459  1.0000
  N   N6        1.0  0.48322  0.97630  0.25167  1.0000
  N   N7        1.0  0.29331  0.67251  0.26070  1.0000
  N   N8        1.0  0.32665  0.62154  0.26271  1.0000
  N   N9        1.0  0.37885  0.70400  0.24371  1.0000
  N   N10       1.0  0.70524  0.32737  0.24563  1.0000
  N   N11       1.0  0.66839  0.37293  0.22778  1.0000
  N   N12       1.0  0.61961  0.29049  0.24950  1.0000
  N   N13       1.0  0.97910  0.49276  0.74668  1.0000
  N   N14       1.0  0.50732  0.48391  0.73250  1.0000
  N   N15       1.0  0.51670  0.02634  0.77126  1.0000
  N   N16       1.0  0.02324  0.49718  0.75959  1.0000
  N   N17       1.0  0.50477  0.52766  0.75047  1.0000
  N   N18       1.0  0.47537  0.98070  0.76221  1.0000
  N   N19       1.0  0.29467  0.67408  0.76346  1.0000
  N   N20       1.0  0.33199  0.62760  0.77254  1.0000
  N   N21       1.0  0.38063  0.70917  0.74425  1.0000
  N   N22       1.0  0.70622  0.32825  0.74569  1.0000
  N   N23       1.0  0.67363  0.37840  0.73317  1.0000
  N   N24       1.0  0.62099  0.29607  0.75291  1.0000
  O   O1        1.0  0.24678  0.59065  0.27406  1.0000
  O   O2        1.0  0.41084  0.65709  0.24439  1.0000
  O   O3        1.0  0.34094  0.75010  0.24821  1.0000
  O   O4        1.0  0.74829  0.40937  0.23244  1.0000
  O   O5        1.0  0.58420  0.33181  0.23132  1.0000
  O   O6        1.0  0.66081  0.24969  0.26047  1.0000
  O   O7        1.0  0.25174  0.59280  0.78272  1.0000
  O   O8        1.0  0.41658  0.66686  0.75215  1.0000
  O   O9        1.0  0.33923  0.75128  0.74397  1.0000
  O   O10       1.0  0.75326  0.40995  0.73215  1.0000
  O   O11       1.0  0.58952  0.34180  0.74094  1.0000
  O   O12       1.0  0.65823  0.25147  0.76413  1.0000
  C   C25       1.0  0.81637  0.37929  0.24938  1.0000
  C   C26       1.0  0.79542  0.40843  0.25271  1.0000
  C  Sn1       1.0  0.82428  0.45805  0.25246  1.0000
  C  Sn2       1.0  0.87505  0.47876  0.24875  1.0000
  C   C27       1.0  0.89566  0.44928  0.24530  1.0000
  C   C28       1.0  0.86644  0.39968  0.24564  1.0000
  H   H13       1.0  0.79376  0.34091  0.24953  1.0000
  O  Te1       1.0  0.80276  0.48665  0.25590  1.0000
  O  Te2       1.0  0.90475  0.52823  0.24835  1.0000
  H   H14       1.0  0.88267  0.37711  0.24293  1.0000
  Mg  Mg1       1.0  0.85844  0.55221  0.25391  1.0000
  C   C29       1.0  0.60632  0.45518  0.28088  1.0000
  C   C30       1.0  0.56304  0.44591  0.23817  1.0000
  C  Sn3       1.0  0.52453  0.39657  0.19751  1.0000
  C  Sn4       1.0  0.52954  0.35584  0.19981  1.0000
  C   C31       1.0  0.57298  0.36552  0.24284  1.0000
  C   C32       1.0  0.61129  0.41503  0.28325  1.0000
  H   H15       1.0  0.63596  0.49350  0.31225  1.0000
  O  Te3       1.0  0.48154  0.38798  0.15505  1.0000
  O  Te4       1.0  0.49162  0.30616  0.15978  1.0000
  H   H16       1.0  0.64479  0.42221  0.31644  1.0000
  Mg  Mg2       1.0  0.44020  0.31365  0.11007  1.0000
  C   C33       1.0  0.54256  0.15145  0.23915  1.0000
  C   C34       1.0  0.54914  0.11176  0.23719  1.0000
  C  Sn5       1.0  0.59438  0.12038  0.25920  1.0000
  C  Sn6       1.0  0.63370  0.16970  0.28365  1.0000
  C   C35       1.0  0.62673  0.20916  0.28554  1.0000
  C   C36       1.0  0.58131  0.20010  0.26333  1.0000
  H   H17       1.0  0.50741  0.14445  0.22207  1.0000
  O  Te5       1.0  0.60034  0.08030  0.25683  1.0000
  O  Te6       1.0  0.67930  0.17938  0.30603  1.0000
  H   H18       1.0  0.57622  0.23085  0.26498  1.0000
  Mg  Mg3       1.0  0.66938  0.11240  0.29285  1.0000
  C   C37       1.0  0.18213  0.62521  0.25864  1.0000
  C   C38       1.0  0.20026  0.59722  0.27976  1.0000
  C  Sn7       1.0  0.16970  0.54788  0.28044  1.0000
  C  Sn8       1.0  0.12009  0.52626  0.25951  1.0000
  C   C39       1.0  0.10231  0.55457  0.23833  1.0000
  C   C40       1.0  0.13321  0.60391  0.23792  1.0000
  H   H19       1.0  0.20603  0.66338  0.25821  1.0000
  O  Te7       1.0  0.18840  0.52044  0.30176  1.0000
  O  Te8       1.0  0.08875  0.47702  0.25962  1.0000
  H   H20       1.0  0.11917  0.62556  0.22143  1.0000
  Mg  Mg4       1.0  0.13133  0.45477  0.29303  1.0000
  C   C41       1.0  0.47787  0.60668  0.26480  1.0000
  C   C42       1.0  0.44802  0.55479  0.23926  1.0000
  C  Sn9       1.0  0.40016  0.53252  0.20370  1.0000
  C  Sn10      1.0  0.38196  0.56285  0.19354  1.0000
  C   C43       1.0  0.41213  0.61472  0.21915  1.0000
  C   C44       1.0  0.45995  0.63662  0.25473  1.0000
  H   H21       1.0  0.51488  0.62362  0.29221  1.0000
  O  Te9       1.0  0.37082  0.48063  0.17860  1.0000
  O  Te10      1.0  0.33428  0.54157  0.15811  1.0000
  H   H22       1.0  0.48307  0.67678  0.27437  1.0000
  Mg  Mg5       1.0  0.30838  0.46914  0.13370  1.0000
  C   C45       1.0  0.46008  0.84698  0.29038  1.0000
  C   C46       1.0  0.45723  0.88480  0.26381  1.0000
  C  Sn11      1.0  0.41317  0.87770  0.23626  1.0000
  C  Sn12      1.0  0.37126  0.83186  0.23542  1.0000
  C   C47       1.0  0.37450  0.79427  0.26227  1.0000
  C   C48       1.0  0.41876  0.80176  0.28965  1.0000
  H   H23       1.0  0.49433  0.85279  0.31168  1.0000
  O  Te11      1.0  0.41096  0.91587  0.20985  1.0000
  O  Te12      1.0  0.32677  0.82378  0.20826  1.0000
  H   H24       1.0  0.42096  0.77249  0.31035  1.0000
  Mg  Mg6       1.0  0.34209  0.88707  0.17829  1.0000
  C   C49       1.0  0.87425  0.47810  0.73658  1.0000
  C   C50       1.0  0.89189  0.45104  0.76588  1.0000
  C  Sn13      1.0  0.86080  0.40289  0.77609  1.0000
  C  Sn14      1.0  0.81114  0.38152  0.75650  1.0000
  C   C51       1.0  0.79385  0.40888  0.72709  1.0000
  C   C52       1.0  0.82528  0.45705  0.71716  1.0000
  H   H25       1.0  0.89857  0.51535  0.72879  1.0000
  O  Te13      1.0  0.87902  0.37638  0.80550  1.0000
  O  Te14      1.0  0.77927  0.33346  0.76605  1.0000
  H   H26       1.0  0.81161  0.47797  0.69435  1.0000
  Mg  Mg7       1.0  0.82131  0.31216  0.80817  1.0000
  C   C53       1.0  0.52282  0.38989  0.70334  1.0000
  C   C54       1.0  0.55075  0.44340  0.75039  1.0000
  C  Sn15      1.0  0.59870  0.46603  0.78550  1.0000
  C  Sn16      1.0  0.61897  0.43441  0.77310  1.0000
  C   C55       1.0  0.59074  0.38091  0.72578  1.0000
  C   C56       1.0  0.54279  0.35867  0.69100  1.0000
  H   H27       1.0  0.48573  0.37267  0.67632  1.0000
  O  Te15      1.0  0.62608  0.51956  0.83241  1.0000
  O  Te16      1.0  0.66680  0.45601  0.80740  1.0000
  H   H28       1.0  0.52119  0.31723  0.65445  1.0000
  Mg  Mg8       1.0  0.68957  0.53087  0.86653  1.0000
  C   C57       1.0  0.60786  0.13080  0.75762  1.0000
  C   C58       1.0  0.55786  0.11185  0.76597  1.0000
  C  Sn17      1.0  0.53777  0.14100  0.76393  1.0000
  C  Sn18      1.0  0.56840  0.19002  0.75327  1.0000
  C   C59       1.0  0.61837  0.20861  0.74483  1.0000
  C   C60       1.0  0.63809  0.17913  0.74703  1.0000
  H   H29       1.0  0.62312  0.10798  0.75921  1.0000
  O  Te17      1.0  0.48775  0.12150  0.77244  1.0000
  O  Te18      1.0  0.54928  0.21995  0.75094  1.0000
  H   H30       1.0  0.67680  0.19380  0.74043  1.0000
  Mg  Mg9       1.0  0.47886  0.17671  0.76528  1.0000
  C   C61       1.0  0.13180  0.51679  0.76487  1.0000
  C   C62       1.0  0.11033  0.54513  0.76580  1.0000
  C  Sn19      1.0  0.13879  0.59410  0.75963  1.0000
  C  Sn20      1.0  0.18969  0.61498  0.75235  1.0000
  C   C63       1.0  0.21083  0.58631  0.75134  1.0000
  C   C64       1.0  0.18201  0.53734  0.75761  1.0000
  H   H31       1.0  0.10951  0.47889  0.76961  1.0000
  O  Te19      1.0  0.11674  0.62190  0.76073  1.0000
  O  Te20      1.0  0.21900  0.66383  0.74601  1.0000
  H   H32       1.0  0.19865  0.51540  0.75676  1.0000
  Mg  Mg10      1.0  0.17204  0.68682  0.75042  1.0000
  C   C65       1.0  0.39394  0.54286  0.69702  1.0000
  C   C66       1.0  0.43919  0.54972  0.71134  1.0000
  C  Sn21      1.0  0.47767  0.59915  0.75559  1.0000
  C  Sn22      1.0  0.47061  0.64244  0.78605  1.0000
  C   C67       1.0  0.42519  0.63517  0.77154  1.0000
  C   C68       1.0  0.38693  0.58554  0.72712  1.0000
  H   H33       1.0  0.36433  0.50447  0.66276  1.0000
  O  Te21      1.0  0.52265  0.60531  0.76927  1.0000
  O  Te22      1.0  0.50844  0.69227  0.83054  1.0000
  H   H34       1.0  0.35189  0.58025  0.71617  1.0000
  Mg  Mg11      1.0  0.56304  0.68090  0.83321  1.0000
  C   C69       1.0  0.38623  0.87147  0.74735  1.0000
  C   C70       1.0  0.43476  0.89589  0.77803  1.0000
  C  Sn23      1.0  0.45589  0.86861  0.78669  1.0000
  C  Sn24      1.0  0.42782  0.81590  0.76411  1.0000
  C   C71       1.0  0.37930  0.79180  0.73333  1.0000
  C   C72       1.0  0.35852  0.81947  0.72498  1.0000
  H   H35       1.0  0.37015  0.89286  0.74078  1.0000
  O  Te23      1.0  0.50442  0.89361  0.81752  1.0000
  O  Te24      1.0  0.44803  0.78772  0.77206  1.0000
  H   H36       1.0  0.32096  0.80054  0.70109  1.0000
  Mg  Mg12      1.0  0.51563  0.83884  0.81708  1.0000
