data_image0
_chemical_formula_structural       H48C78N24O12SnCSn2CSnTe4Mg2SnCSn2CSnTe4Mg2SnCSn2CSnTe4Mg2SnCSn2CSnTe4Mg2SnCSn2CSnTe4Mg2SnCSn2CSnTe4Mg2SnCSn2CSnTe4Mg2SnCSn2CSnTe4Mg2SnCSn2CSnTe4Mg2
_chemical_formula_sum              "H48 C96 N24 O12 Sn36 Te36 Mg18"
_cell_length_a       39.4962
_cell_length_b       39.6876
_cell_length_c       8.16155
_cell_angle_alpha    109.495
_cell_angle_beta     102.988
_cell_angle_gamma    120.055

_symmetry_space_group_name_H-M    'P1'
_space_group_IT_number       1

loop_
  _space_group_symop_operation_xyz
  'x, y, z'

loop_
  _atom_site_type_symbol
  _atom_site_label
  _atom_site_symmetry_multiplicity
  _atom_site_fract_x
  _atom_site_fract_y
  _atom_site_fract_z
  _atom_site_occupancy
  H   H1        1.0  0.79096  0.46575  0.22239  1.0000
  H   H2        1.0  0.53488  0.32625  0.24144  1.0000
  H   H3        1.0  0.32569  0.79178  0.23185  1.0000
  H   H4        1.0  0.86487  0.48931  0.24664  1.0000
  H   H5        1.0  0.51353  0.37615  0.24001  1.0000
  H   H6        1.0  0.37661  0.86377  0.23646  1.0000
  H   H7        1.0  0.83653  0.37240  0.27330  1.0000
  H   H8        1.0  0.63707  0.46999  0.26835  1.0000
  H   H9        1.0  0.46777  0.83457  0.24147  1.0000
  H   H10       1.0  0.76306  0.34849  0.24508  1.0000
  H   H11       1.0  0.65846  0.42094  0.27153  1.0000
  H   H12       1.0  0.41754  0.76353  0.23711  1.0000
  H   H13       1.0  0.90653  0.42374  0.29904  1.0000
  H   H14       1.0  0.58558  0.48505  0.24478  1.0000
  H   H15       1.0  0.51673  0.10310  0.23425  1.0000
  H   H16       1.0  0.09873  0.57758  0.21682  1.0000
  H   H17       1.0  0.41816  0.52202  0.28359  1.0000
  H   H18       1.0  0.48698  0.90195  0.25061  1.0000
  H   H19       1.0  0.45805  0.43414  0.28248  1.0000
  H   H20       1.0  0.54130  0.56710  0.21098  1.0000
  H   H21       1.0  0.43183  0.47903  0.27988  1.0000
  H   H22       1.0  0.56731  0.52203  0.21202  1.0000
  H   H23       1.0  0.78132  0.45911  0.70843  1.0000
  H   H24       1.0  0.53286  0.32512  0.78382  1.0000
  H   H25       1.0  0.67217  0.20564  0.72540  1.0000
  H   H26       1.0  0.21161  0.53637  0.78992  1.0000
  H   H27       1.0  0.85596  0.48528  0.73482  1.0000
  H   H28       1.0  0.51020  0.37330  0.76762  1.0000
  H   H29       1.0  0.62336  0.13391  0.72533  1.0000
  H   H30       1.0  0.13884  0.51343  0.78077  1.0000
  H   H31       1.0  0.83425  0.37297  0.78800  1.0000
  H   H32       1.0  0.62473  0.45599  0.71232  1.0000
  H   H33       1.0  0.53481  0.16519  0.76411  1.0000
  H   H34       1.0  0.16275  0.62694  0.73250  1.0000
  H   H35       1.0  0.75981  0.34608  0.75570  1.0000
  H   H36       1.0  0.64840  0.40996  0.73879  1.0000
  H   H37       1.0  0.58255  0.23555  0.75966  1.0000
  H   H38       1.0  0.23513  0.65030  0.74581  1.0000
  H   H39       1.0  0.90324  0.42551  0.81236  1.0000
  H   H40       1.0  0.57005  0.46778  0.66858  1.0000
  H   H41       1.0  0.51823  0.09990  0.76628  1.0000
  H   H42       1.0  0.09522  0.57739  0.72722  1.0000
  H   H43       1.0  0.42876  0.53049  0.84274  1.0000
  H   H44       1.0  0.47616  0.89092  0.71099  1.0000
  H   H45       1.0  0.57646  0.03097  0.83045  1.0000
  H   H46       1.0  0.41816  0.95993  0.64385  1.0000
  H   H47       1.0  0.52922  0.96056  0.83493  1.0000
  H   H48       1.0  0.46524  0.02997  0.63676  1.0000
  C   C1        1.0  0.66584  0.30207  0.24534  1.0000
  C   C2        1.0  0.70163  0.36590  0.23601  1.0000
  C   C3        1.0  0.63811  0.33954  0.25142  1.0000
  C   C4        1.0  0.33879  0.70377  0.24419  1.0000
  C   C5        1.0  0.30404  0.64103  0.26147  1.0000
  C   C6        1.0  0.36764  0.66751  0.24732  1.0000
  C   C7        1.0  0.59754  0.37072  0.25490  1.0000
  C   C8        1.0  0.77339  0.40624  0.23441  1.0000
  C   C9        1.0  0.36888  0.77402  0.23431  1.0000
  C   C10       1.0  0.80175  0.44589  0.23421  1.0000
  C   C11       1.0  0.55653  0.35767  0.24519  1.0000
  C   C12       1.0  0.35689  0.80183  0.23238  1.0000
  C   C13       1.0  0.84257  0.45895  0.24829  1.0000
  C   C14       1.0  0.54480  0.38520  0.24441  1.0000
  C   C15       1.0  0.38493  0.84139  0.23511  1.0000
  C   C16       1.0  0.85592  0.43274  0.26393  1.0000
  C   C17       1.0  0.57372  0.42623  0.25320  1.0000
  C   C18       1.0  0.42555  0.85394  0.23907  1.0000
  C   C19       1.0  0.82674  0.39307  0.26198  1.0000
  C   C20       1.0  0.61456  0.43854  0.26319  1.0000
  C   C21       1.0  0.43659  0.82537  0.23957  1.0000
  C   C22       1.0  0.78534  0.37912  0.24627  1.0000
  C   C23       1.0  0.62709  0.41138  0.26536  1.0000
  C   C24       1.0  0.40869  0.78526  0.23623  1.0000
  C   C25       1.0  0.89844  0.44528  0.27774  1.0000
  C   C26       1.0  0.56198  0.45554  0.25087  1.0000
  C   C27       1.0  0.54770  0.10977  0.24002  1.0000
  C   C28       1.0  0.10875  0.55771  0.24271  1.0000
  C   C29       1.0  0.44049  0.54944  0.26369  1.0000
  C   C30       1.0  0.45580  0.89520  0.24168  1.0000
  C   C31       1.0  0.51460  0.47482  0.25015  1.0000
  C   C32       1.0  0.48534  0.52707  0.24766  1.0000
  C   C33       1.0  0.47592  0.46331  0.26615  1.0000
  C   C34       1.0  0.52371  0.53823  0.22928  1.0000
  C   C35       1.0  0.46150  0.48877  0.26490  1.0000
  C   C36       1.0  0.53809  0.51278  0.23039  1.0000
  C   C37       1.0  0.65992  0.29589  0.74299  1.0000
  C   C38       1.0  0.69518  0.35995  0.73511  1.0000
  C   C39       1.0  0.63224  0.33357  0.75618  1.0000
  C   C40       1.0  0.33343  0.69773  0.74795  1.0000
  C   C41       1.0  0.29825  0.63436  0.76067  1.0000
  C   C42       1.0  0.36180  0.66095  0.74525  1.0000
  C   C43       1.0  0.59160  0.36466  0.76055  1.0000
  C   C44       1.0  0.63013  0.22436  0.74317  1.0000
  C   C45       1.0  0.76698  0.40176  0.73354  1.0000
  C   C46       1.0  0.22711  0.59439  0.76879  1.0000
  C   C47       1.0  0.79369  0.44082  0.72641  1.0000
  C   C48       1.0  0.55258  0.35407  0.76886  1.0000
  C   C49       1.0  0.64192  0.19601  0.73460  1.0000
  C   C50       1.0  0.20014  0.55569  0.77767  1.0000
  C   C51       1.0  0.83496  0.45536  0.74191  1.0000
  C   C52       1.0  0.54006  0.38067  0.75946  1.0000
  C   C53       1.0  0.61495  0.15649  0.73438  1.0000
  C   C54       1.0  0.15997  0.54297  0.77167  1.0000
  C   C55       1.0  0.85046  0.43134  0.76692  1.0000
  C   C56       1.0  0.56581  0.41783  0.73836  1.0000
  C   C57       1.0  0.57572  0.14466  0.74506  1.0000
  C   C58       1.0  0.14590  0.56859  0.75526  1.0000
  C   C59       1.0  0.82274  0.39201  0.77043  1.0000
  C   C60       1.0  0.60468  0.42770  0.73076  1.0000
  C   C61       1.0  0.56478  0.17368  0.75382  1.0000
  C   C62       1.0  0.17351  0.60713  0.74677  1.0000
  C   C63       1.0  0.78082  0.37644  0.75244  1.0000
  C   C64       1.0  0.61835  0.40196  0.74447  1.0000
  C   C65       1.0  0.59138  0.21351  0.75290  1.0000
  C   C66       1.0  0.21425  0.62071  0.75405  1.0000
  C   C67       1.0  0.89367  0.44558  0.78473  1.0000
  C   C68       1.0  0.55267  0.44539  0.72056  1.0000
  C   C69       1.0  0.54676  0.10407  0.75002  1.0000
  C   C70       1.0  0.10399  0.55636  0.74904  1.0000
  C   C71       1.0  0.44450  0.55196  0.78453  1.0000
  C   C72       1.0  0.44765  0.88699  0.72649  1.0000
  C   C73       1.0  0.52490  0.03618  0.73856  1.0000
  C   C74       1.0  0.46977  0.95487  0.73696  1.0000
  C   C75       1.0  0.54160  0.01487  0.78902  1.0000
  C   C76       1.0  0.45303  0.97608  0.68571  1.0000
  C   C77       1.0  0.51485  0.97524  0.78911  1.0000
  C   C78       1.0  0.47969  0.01554  0.68455  1.0000
  N   N1        1.0  0.63348  0.30373  0.25441  1.0000
  N   N2        1.0  0.70090  0.33197  0.23393  1.0000
  N   N3        1.0  0.67121  0.37193  0.24443  1.0000
  N   N4        1.0  0.37168  0.70265  0.23906  1.0000
  N   N5        1.0  0.30365  0.67387  0.25563  1.0000
  N   N6        1.0  0.33500  0.63571  0.25773  1.0000
  N   N7        1.0  0.92518  0.47992  0.26793  1.0000
  N   N8        1.0  0.52607  0.44686  0.25550  1.0000
  N   N9        1.0  0.55752  0.08352  0.24707  1.0000
  N   N10       1.0  0.08380  0.52369  0.25998  1.0000
  N   N11       1.0  0.47436  0.55546  0.24412  1.0000
  N   N12       1.0  0.44603  0.92135  0.23246  1.0000
  N   N13       1.0  0.62785  0.29762  0.75696  1.0000
  N   N14       1.0  0.69484  0.32611  0.73158  1.0000
  N   N15       1.0  0.66475  0.36574  0.74603  1.0000
  N   N16       1.0  0.36612  0.69655  0.74112  1.0000
  N   N17       1.0  0.29849  0.66786  0.76012  1.0000
  N   N18       1.0  0.32892  0.62862  0.75347  1.0000
  N   N19       1.0  0.91951  0.47984  0.77063  1.0000
  N   N20       1.0  0.52174  0.44277  0.75938  1.0000
  N   N21       1.0  0.55457  0.07568  0.74090  1.0000
  N   N22       1.0  0.07822  0.52237  0.76480  1.0000
  N   N23       1.0  0.47395  0.55358  0.73537  1.0000
  N   N24       1.0  0.44010  0.91555  0.73543  1.0000
  O   O1        1.0  0.60398  0.33916  0.25680  1.0000
  O   O2        1.0  0.66710  0.26900  0.24866  1.0000
  O   O3        1.0  0.73440  0.39925  0.22648  1.0000
  O   O4        1.0  0.40176  0.66758  0.24456  1.0000
  O   O5        1.0  0.33703  0.73627  0.23618  1.0000
  O   O6        1.0  0.27217  0.60794  0.27493  1.0000
  O   O7        1.0  0.59883  0.33388  0.76885  1.0000
  O   O8        1.0  0.66111  0.26232  0.73989  1.0000
  O   O9        1.0  0.72747  0.39353  0.72464  1.0000
  O   O10       1.0  0.39579  0.66137  0.73754  1.0000
  O   O11       1.0  0.33159  0.73021  0.74067  1.0000
  O   O12       1.0  0.26566  0.60105  0.77113  1.0000
  C  Sn1       1.0  0.99938  0.53892  0.79348  1.0000
  C   C79       1.0  0.96148  0.49552  0.73060  1.0000
  C  Sn2       1.0  0.96370  0.46010  0.70187  1.0000
  C  Sn3       1.0  0.00466  0.46823  0.73684  1.0000
  C   C80       1.0  0.04254  0.51161  0.79971  1.0000
  C  Sn4       1.0  0.04035  0.54705  0.82845  1.0000
  O  Te1       1.0  0.99640  0.57382  0.82126  1.0000
  O  Te2       1.0  0.92535  0.41700  0.63887  1.0000
  O  Te3       1.0  0.00762  0.43328  0.70900  1.0000
  O  Te4       1.0  0.07867  0.59013  0.89143  1.0000
  Mg  Mg1       1.0  0.94625  0.38046  0.62204  1.0000
  Mg  Mg2       1.0  0.05782  0.62670  0.90842  1.0000
  C  Sn5       1.0  0.18150  0.55629  0.33851  1.0000
  C   C81       1.0  0.16074  0.57553  0.31352  1.0000
  C  Sn6       1.0  0.17495  0.60567  0.24625  1.0000
  C  Sn7       1.0  0.21064  0.61678  0.20293  1.0000
  C   C82       1.0  0.23137  0.59754  0.22789  1.0000
  C  Sn8       1.0  0.21718  0.56741  0.29519  1.0000
  O  Te5       1.0  0.16674  0.52624  0.40592  1.0000
  O  Te6       1.0  0.15369  0.62448  0.22249  1.0000
  O  Te7       1.0  0.22538  0.64686  0.13548  1.0000
  O  Te8       1.0  0.23842  0.54859  0.31892  1.0000
  Mg  Mg3       1.0  0.18581  0.66365  0.12665  1.0000
  Mg  Mg4       1.0  0.20631  0.50940  0.41464  1.0000
  C  Sn9       1.0  0.04044  0.00444  0.21511  1.0000
  C   C83       1.0  0.52585  0.03149  0.19385  1.0000
  C  Sn10      1.0  0.99258  0.02572  0.21287  1.0000
  C  Sn11      1.0  0.96686  0.99223  0.25413  1.0000
  C   C84       1.0  0.97819  0.96522  0.27540  1.0000
  C  Sn12      1.0  0.01471  0.97096  0.25636  1.0000
  O  Te9       1.0  0.07709  0.01080  0.19549  1.0000
  O  Te10      1.0  0.47864  0.05315  0.19093  1.0000
  O  Te11      1.0  0.93018  0.98589  0.27373  1.0000
  O  Te12      1.0  0.02540  0.94355  0.27832  1.0000
  Mg  Mg5       1.0  0.42566  0.03160  0.23109  1.0000
  Mg  Mg6       1.0  0.07838  0.96509  0.23829  1.0000
  C  Sn13      1.0  0.56470  0.18186  0.18398  1.0000
  C   C85       1.0  0.57084  0.15025  0.18665  1.0000
  C  Sn14      1.0  0.61287  0.16145  0.23899  1.0000
  C  Sn15      1.0  0.64954  0.20516  0.28984  1.0000
  C   C86       1.0  0.64339  0.23674  0.28719  1.0000
  C  Sn16      1.0  0.60137  0.22557  0.23484  1.0000
  O  Te13      1.0  0.52239  0.16993  0.13121  1.0000
  O  Te14      1.0  0.61819  0.12928  0.24051  1.0000
  O  Te15      1.0  0.69187  0.21707  0.34263  1.0000
  O  Te16      1.0  0.59604  0.25771  0.23333  1.0000
  Mg  Mg7       1.0  0.68233  0.16160  0.32278  1.0000
  Mg  Mg8       1.0  0.53192  0.22544  0.15119  1.0000
  C  Sn17      1.0  0.34868  0.79820  0.68368  1.0000
  C   C87       1.0  0.35472  0.76619  0.68003  1.0000
  C  Sn18      1.0  0.39619  0.77657  0.72053  1.0000
  C  Sn19      1.0  0.43239  0.81987  0.76575  1.0000
  C   C88       1.0  0.42635  0.85185  0.76941  1.0000
  C  Sn20      1.0  0.38488  0.84149  0.72889  1.0000
  O  Te17      1.0  0.30693  0.78708  0.64272  1.0000
  O  Te18      1.0  0.40141  0.74401  0.71593  1.0000
  O  Te19      1.0  0.47416  0.83096  0.80671  1.0000
  O  Te20      1.0  0.37966  0.87403  0.73351  1.0000
  Mg  Mg9       1.0  0.46471  0.77522  0.78225  1.0000
  Mg  Mg10      1.0  0.31638  0.84287  0.66733  1.0000
  C  Sn21      1.0  0.44910  0.63868  0.21588  1.0000
  C   C89       1.0  0.41017  0.63209  0.20350  1.0000
  C  Sn22      1.0  0.38111  0.59982  0.23807  1.0000
  C  Sn23      1.0  0.39119  0.57361  0.28615  1.0000
  C   C90       1.0  0.43011  0.58021  0.29855  1.0000
  C  Sn24      1.0  0.45919  0.61247  0.26396  1.0000
  O  Te21      1.0  0.47767  0.67113  0.18074  1.0000
  O  Te22      1.0  0.34238  0.59383  0.22477  1.0000
  O  Te23      1.0  0.36259  0.54114  0.32129  1.0000
  O  Te24      1.0  0.49790  0.61847  0.27728  1.0000
  Mg  Mg11      1.0  0.31394  0.54547  0.28564  1.0000
  Mg  Mg12      1.0  0.52637  0.66683  0.21654  1.0000
  C  Sn25      1.0  0.45919  0.47993  0.77201  1.0000
  C   C91       1.0  0.48347  0.52252  0.78933  1.0000
  C  Sn26      1.0  0.52230  0.53929  0.77213  1.0000
  C  Sn27      1.0  0.53716  0.51293  0.73675  1.0000
  C   C92       1.0  0.51287  0.47036  0.71941  1.0000
  C  Sn28      1.0  0.47404  0.45356  0.73662  1.0000
  O  Te25      1.0  0.42046  0.46383  0.78970  1.0000
  O  Te26      1.0  0.54603  0.58198  0.79007  1.0000
  O  Te27      1.0  0.57591  0.52906  0.71906  1.0000
  O  Te28      1.0  0.45032  0.41090  0.71867  1.0000
  Mg  Mg13      1.0  0.59674  0.58917  0.75460  1.0000
  Mg  Mg14      1.0  0.39959  0.40366  0.75401  1.0000
  C  Sn29      1.0  0.37972  0.56430  0.72256  1.0000
  C   C93       1.0  0.41763  0.57059  0.71936  1.0000
  C  Sn30      1.0  0.45221  0.61144  0.74630  1.0000
  C  Sn31      1.0  0.44885  0.64675  0.77720  1.0000
  C   C94       1.0  0.41096  0.64046  0.78043  1.0000
  C  Sn32      1.0  0.37635  0.59962  0.75347  1.0000
  O  Te29      1.0  0.34555  0.52319  0.69532  1.0000
  O  Te30      1.0  0.48978  0.61692  0.74242  1.0000
  O  Te31      1.0  0.48306  0.68789  0.80445  1.0000
  O  Te32      1.0  0.33881  0.59413  0.75737  1.0000
  Mg  Mg15      1.0  0.52752  0.67912  0.78693  1.0000
  Mg  Mg16      1.0  0.30106  0.53196  0.71298  1.0000
  C  Sn33      1.0  0.98120  0.45668  0.23486  1.0000
  C   C95       1.0  0.96996  0.48498  0.30131  1.0000
  C  Sn34      1.0  0.99572  0.52945  0.33804  1.0000
  C  Sn35      1.0  0.03348  0.54598  0.30761  1.0000
  C   C96       1.0  0.04470  0.51769  0.24117  1.0000
  C  Sn36      1.0  0.01896  0.47322  0.20443  1.0000
  O  Te33      1.0  0.95497  0.41234  0.19907  1.0000
  O  Te34      1.0  0.98383  0.55711  0.40447  1.0000
  O  Te35      1.0  0.05971  0.59037  0.34347  1.0000
  O  Te36      1.0  0.03083  0.44557  0.13801  1.0000
  Mg  Mg17      1.0  0.02999  0.61498  0.43243  1.0000
  Mg  Mg18      1.0  0.98468  0.38768  0.10991  1.0000
