data_image0
_chemical_formula_structural       H48C78N24O12C2Sn2C2HTe2HMgC2Sn2C2HTe2HMgC2Sn2C2HTe2HMgC2Sn2C2HTe2HMgC2Sn2C2HTe2HMgC2Sn2C2HTe2HMgC2Sn2C2HTe2HMgC2Sn2C2HTe2HMgC2Sn2C2HTe2HMg
_chemical_formula_sum              "H66 C114 N24 O12 Sn18 Te18 Mg9"
_cell_length_a       39.4962
_cell_length_b       39.6876
_cell_length_c       8.16155
_cell_angle_alpha    109.495
_cell_angle_beta     102.988
_cell_angle_gamma    120.055

_symmetry_space_group_name_H-M    'P1'
_space_group_IT_number       1

loop_
  _space_group_symop_operation_xyz
  'x, y, z'

loop_
  _atom_site_type_symbol
  _atom_site_label
  _atom_site_symmetry_multiplicity
  _atom_site_fract_x
  _atom_site_fract_y
  _atom_site_fract_z
  _atom_site_occupancy
  H   H1        1.0  0.67751  0.21246  0.24758  1.0000
  H   H2        1.0  0.22031  0.54352  0.29990  1.0000
  H   H3        1.0  0.47217  0.68135  0.28586  1.0000
  H   H4        1.0  0.32569  0.79178  0.23185  1.0000
  H   H5        1.0  0.62607  0.14044  0.24108  1.0000
  H   H6        1.0  0.14677  0.51836  0.28827  1.0000
  H   H7        1.0  0.49218  0.63058  0.29146  1.0000
  H   H8        1.0  0.37661  0.86377  0.23646  1.0000
  H   H9        1.0  0.53629  0.17126  0.24411  1.0000
  H   H10       1.0  0.16553  0.62840  0.22143  1.0000
  H   H11       1.0  0.36460  0.53513  0.22968  1.0000
  H   H12       1.0  0.46777  0.83457  0.24147  1.0000
  H   H13       1.0  0.58696  0.24234  0.25002  1.0000
  H   H14       1.0  0.23893  0.65421  0.23889  1.0000
  H   H15       1.0  0.34417  0.58434  0.21658  1.0000
  H   H16       1.0  0.41754  0.76353  0.23711  1.0000
  H   H17       1.0  0.90653  0.42374  0.29904  1.0000
  H   H18       1.0  0.58558  0.48505  0.24478  1.0000
  H   H19       1.0  0.51673  0.10310  0.23425  1.0000
  H   H20       1.0  0.09873  0.57758  0.21682  1.0000
  H   H21       1.0  0.41816  0.52202  0.28359  1.0000
  H   H22       1.0  0.48698  0.90195  0.25061  1.0000
  H   H23       1.0  0.67217  0.20564  0.72540  1.0000
  H   H24       1.0  0.21161  0.53637  0.78992  1.0000
  H   H25       1.0  0.46098  0.67036  0.71494  1.0000
  H   H26       1.0  0.62336  0.13391  0.72533  1.0000
  H   H27       1.0  0.13884  0.51343  0.78077  1.0000
  H   H28       1.0  0.48498  0.62322  0.73158  1.0000
  H   H29       1.0  0.53481  0.16519  0.76411  1.0000
  H   H30       1.0  0.16275  0.62694  0.73250  1.0000
  H   H31       1.0  0.37364  0.54182  0.80690  1.0000
  H   H32       1.0  0.58255  0.23555  0.75966  1.0000
  H   H33       1.0  0.23513  0.65030  0.74581  1.0000
  H   H34       1.0  0.34879  0.58717  0.78203  1.0000
  H   H35       1.0  0.90324  0.42551  0.81236  1.0000
  H   H36       1.0  0.57005  0.46778  0.66858  1.0000
  H   H37       1.0  0.51823  0.09990  0.76628  1.0000
  H   H38       1.0  0.09522  0.57739  0.72722  1.0000
  H   H39       1.0  0.42876  0.53049  0.84274  1.0000
  H   H40       1.0  0.47616  0.89092  0.71099  1.0000
  H   H41       1.0  0.99032  0.56108  0.89929  1.0000
  H   H42       1.0  0.57646  0.03097  0.83045  1.0000
  H   H43       1.0  0.00818  0.44202  0.64168  1.0000
  H   H44       1.0  0.41816  0.95993  0.64385  1.0000
  H   H45       1.0  0.06160  0.58278  0.90215  1.0000
  H   H46       1.0  0.52922  0.96056  0.83493  1.0000
  H   H47       1.0  0.93661  0.42018  0.63626  1.0000
  H   H48       1.0  0.46524  0.02997  0.63676  1.0000
  C   C1        1.0  0.66584  0.30207  0.24534  1.0000
  C   C2        1.0  0.70163  0.36590  0.23601  1.0000
  C   C3        1.0  0.63811  0.33954  0.25142  1.0000
  C   C4        1.0  0.33879  0.70377  0.24419  1.0000
  C   C5        1.0  0.30404  0.64103  0.26147  1.0000
  C   C6        1.0  0.36764  0.66751  0.24732  1.0000
  C   C7        1.0  0.63503  0.23115  0.24932  1.0000
  C   C8        1.0  0.40732  0.63569  0.25110  1.0000
  C   C9        1.0  0.36888  0.77402  0.23431  1.0000
  C   C10       1.0  0.23310  0.59995  0.27016  1.0000
  C   C11       1.0  0.64648  0.20281  0.24796  1.0000
  C   C12       1.0  0.20752  0.56156  0.28326  1.0000
  C   C13       1.0  0.44920  0.64910  0.27361  1.0000
  C   C14       1.0  0.35689  0.80183  0.23238  1.0000
  C   C15       1.0  0.61812  0.16313  0.24361  1.0000
  C   C16       1.0  0.16702  0.54765  0.27598  1.0000
  C   C17       1.0  0.46010  0.62104  0.27642  1.0000
  C   C18       1.0  0.38493  0.84139  0.23511  1.0000
  C   C19       1.0  0.57773  0.15093  0.24140  1.0000
  C   C20       1.0  0.15130  0.57162  0.25284  1.0000
  C   C21       1.0  0.42962  0.57932  0.25944  1.0000
  C   C22       1.0  0.42555  0.85394  0.23907  1.0000
  C   C23       1.0  0.56711  0.17992  0.24328  1.0000
  C   C24       1.0  0.17770  0.60998  0.24095  1.0000
  C   C25       1.0  0.38816  0.56692  0.23942  1.0000
  C   C26       1.0  0.43659  0.82537  0.23957  1.0000
  C   C27       1.0  0.59537  0.22017  0.24827  1.0000
  C   C28       1.0  0.21889  0.62492  0.25053  1.0000
  C   C29       1.0  0.37623  0.59431  0.23213  1.0000
  C   C30       1.0  0.40869  0.78526  0.23623  1.0000
  C   C31       1.0  0.89844  0.44528  0.27774  1.0000
  C   C32       1.0  0.56198  0.45554  0.25087  1.0000
  C   C33       1.0  0.54770  0.10977  0.24002  1.0000
  C   C34       1.0  0.10875  0.55771  0.24271  1.0000
  C   C35       1.0  0.44049  0.54944  0.26369  1.0000
  C   C36       1.0  0.45580  0.89520  0.24168  1.0000
  C   C37       1.0  0.65992  0.29589  0.74299  1.0000
  C   C38       1.0  0.69518  0.35995  0.73511  1.0000
  C   C39       1.0  0.63224  0.33357  0.75618  1.0000
  C   C40       1.0  0.33343  0.69773  0.74795  1.0000
  C   C41       1.0  0.29825  0.63436  0.76067  1.0000
  C   C42       1.0  0.36180  0.66095  0.74525  1.0000
  C   C43       1.0  0.63013  0.22436  0.74317  1.0000
  C   C44       1.0  0.40370  0.63125  0.74753  1.0000
  C   C45       1.0  0.22711  0.59439  0.76879  1.0000
  C   C46       1.0  0.64192  0.19601  0.73460  1.0000
  C   C47       1.0  0.20014  0.55569  0.77767  1.0000
  C   C48       1.0  0.44226  0.64187  0.73410  1.0000
  C   C49       1.0  0.61495  0.15649  0.73438  1.0000
  C   C50       1.0  0.15997  0.54297  0.77167  1.0000
  C   C51       1.0  0.45547  0.61585  0.74363  1.0000
  C   C52       1.0  0.57572  0.14466  0.74506  1.0000
  C   C53       1.0  0.14590  0.56859  0.75526  1.0000
  C   C54       1.0  0.43083  0.57925  0.76949  1.0000
  C   C55       1.0  0.56478  0.17368  0.75382  1.0000
  C   C56       1.0  0.17351  0.60713  0.74677  1.0000
  C   C57       1.0  0.39257  0.56954  0.78360  1.0000
  C   C58       1.0  0.59138  0.21351  0.75290  1.0000
  C   C59       1.0  0.21425  0.62071  0.75405  1.0000
  C   C60       1.0  0.37827  0.59482  0.77061  1.0000
  C   C61       1.0  0.89367  0.44558  0.78473  1.0000
  C   C62       1.0  0.55267  0.44539  0.72056  1.0000
  C   C63       1.0  0.54676  0.10407  0.75002  1.0000
  C   C64       1.0  0.10399  0.55636  0.74904  1.0000
  C   C65       1.0  0.44450  0.55196  0.78453  1.0000
  C   C66       1.0  0.44765  0.88699  0.72649  1.0000
  C   C67       1.0  0.95884  0.48951  0.77143  1.0000
  C   C68       1.0  0.52490  0.03618  0.73856  1.0000
  C   C69       1.0  0.03944  0.51343  0.76851  1.0000
  C   C70       1.0  0.46977  0.95487  0.73696  1.0000
  C   C71       1.0  0.99449  0.53523  0.84203  1.0000
  C   C72       1.0  0.54160  0.01487  0.78902  1.0000
  C   C73       1.0  0.00388  0.46778  0.69859  1.0000
  C   C74       1.0  0.45303  0.97608  0.68571  1.0000
  C   C75       1.0  0.03414  0.54710  0.84274  1.0000
  C   C76       1.0  0.51485  0.97524  0.78911  1.0000
  C   C77       1.0  0.96420  0.45590  0.69729  1.0000
  C   C78       1.0  0.47969  0.01554  0.68455  1.0000
  N   N1        1.0  0.63348  0.30373  0.25441  1.0000
  N   N2        1.0  0.70090  0.33197  0.23393  1.0000
  N   N3        1.0  0.67121  0.37193  0.24443  1.0000
  N   N4        1.0  0.37168  0.70265  0.23906  1.0000
  N   N5        1.0  0.30365  0.67387  0.25563  1.0000
  N   N6        1.0  0.33500  0.63571  0.25773  1.0000
  N   N7        1.0  0.92518  0.47992  0.26793  1.0000
  N   N8        1.0  0.52607  0.44686  0.25550  1.0000
  N   N9        1.0  0.55752  0.08352  0.24707  1.0000
  N   N10       1.0  0.08380  0.52369  0.25998  1.0000
  N   N11       1.0  0.47436  0.55546  0.24412  1.0000
  N   N12       1.0  0.44603  0.92135  0.23246  1.0000
  N   N13       1.0  0.62785  0.29762  0.75696  1.0000
  N   N14       1.0  0.69484  0.32611  0.73158  1.0000
  N   N15       1.0  0.66475  0.36574  0.74603  1.0000
  N   N16       1.0  0.36612  0.69655  0.74112  1.0000
  N   N17       1.0  0.29849  0.66786  0.76012  1.0000
  N   N18       1.0  0.32892  0.62862  0.75347  1.0000
  N   N19       1.0  0.91951  0.47984  0.77063  1.0000
  N   N20       1.0  0.52174  0.44277  0.75938  1.0000
  N   N21       1.0  0.55457  0.07568  0.74090  1.0000
  N   N22       1.0  0.07822  0.52237  0.76480  1.0000
  N   N23       1.0  0.47395  0.55358  0.73537  1.0000
  N   N24       1.0  0.44010  0.91555  0.73543  1.0000
  O   O1        1.0  0.60398  0.33916  0.25680  1.0000
  O   O2        1.0  0.66710  0.26900  0.24866  1.0000
  O   O3        1.0  0.73440  0.39925  0.22648  1.0000
  O   O4        1.0  0.40176  0.66758  0.24456  1.0000
  O   O5        1.0  0.33703  0.73627  0.23618  1.0000
  O   O6        1.0  0.27217  0.60794  0.27493  1.0000
  O   O7        1.0  0.59883  0.33388  0.76885  1.0000
  O   O8        1.0  0.66111  0.26232  0.73989  1.0000
  O   O9        1.0  0.72747  0.39353  0.72464  1.0000
  O   O10       1.0  0.39579  0.66137  0.73754  1.0000
  O   O11       1.0  0.33159  0.73021  0.74067  1.0000
  O   O12       1.0  0.26566  0.60105  0.77113  1.0000
  C   C79       1.0  0.45924  0.47827  0.26319  1.0000
  C   C80       1.0  0.47923  0.51852  0.25976  1.0000
  C  Sn1       1.0  0.51785  0.53671  0.24058  1.0000
  C  Sn2       1.0  0.53672  0.51410  0.22453  1.0000
  C   C81       1.0  0.51645  0.47383  0.22798  1.0000
  C   C82       1.0  0.47782  0.45593  0.24729  1.0000
  H   H49       1.0  0.42933  0.46440  0.27802  1.0000
  O  Te1       1.0  0.53741  0.57697  0.23748  1.0000
  O  Te2       1.0  0.57529  0.53153  0.20514  1.0000
  H   H50       1.0  0.46233  0.42475  0.24982  1.0000
  Mg  Mg1       1.0  0.58969  0.58733  0.20847  1.0000
  C   C83       1.0  0.81660  0.38536  0.26466  1.0000
  C   C84       1.0  0.84816  0.42134  0.25374  1.0000
  C  Sn3       1.0  0.84199  0.45218  0.23947  1.0000
  C  Sn4       1.0  0.80347  0.44681  0.23617  1.0000
  C   C85       1.0  0.77211  0.41073  0.24732  1.0000
  C   C86       1.0  0.77861  0.38006  0.26149  1.0000
  H   H51       1.0  0.82164  0.36165  0.27574  1.0000
  O  Te3       1.0  0.87384  0.48793  0.22862  1.0000
  O  Te4       1.0  0.79648  0.47715  0.22208  1.0000
  H   H52       1.0  0.75418  0.35222  0.27008  1.0000
  Mg  Mg2       1.0  0.84941  0.52043  0.21099  1.0000
  C   C87       1.0  0.35476  0.80746  0.74974  1.0000
  C   C88       1.0  0.35761  0.77257  0.72570  1.0000
  C  Sn5       1.0  0.39387  0.77637  0.71221  1.0000
  C  Sn6       1.0  0.42787  0.81587  0.72311  1.0000
  C   C89       1.0  0.42472  0.85059  0.74731  1.0000
  C   C90       1.0  0.38828  0.84644  0.76057  1.0000
  H   H53       1.0  0.32658  0.80426  0.76011  1.0000
  O  Te5       1.0  0.39619  0.74119  0.68814  1.0000
  O  Te6       1.0  0.46448  0.82055  0.71012  1.0000
  H   H54       1.0  0.38610  0.87347  0.77932  1.0000
  Mg  Mg3       1.0  0.45266  0.76338  0.67783  1.0000
  C   C91       1.0  0.62341  0.43718  0.27023  1.0000
  C   C92       1.0  0.58334  0.42903  0.24630  1.0000
  C  Sn7       1.0  0.54973  0.39029  0.23599  1.0000
  C  Sn8       1.0  0.55645  0.35922  0.24999  1.0000
  C   C93       1.0  0.59667  0.36770  0.27406  1.0000
  C   C94       1.0  0.63008  0.40656  0.28413  1.0000
  H   H55       1.0  0.64927  0.46726  0.27813  1.0000
  O  Te7       1.0  0.50989  0.38265  0.21198  1.0000
  O  Te8       1.0  0.52342  0.32025  0.24021  1.0000
  H   H56       1.0  0.66110  0.41288  0.30279  1.0000
  Mg  Mg4       1.0  0.47487  0.32471  0.20667  1.0000
  C   C95       1.0  0.03266  0.55098  0.35098  1.0000
  C   C96       1.0  0.04547  0.52378  0.29508  1.0000
  C  Sn9       1.0  0.01506  0.47641  0.21049  1.0000
  C  Sn10      1.0  0.97102  0.45601  0.18145  1.0000
  C   C97       1.0  0.95852  0.48353  0.23774  1.0000
  C   C98       1.0  0.98922  0.53089  0.32232  1.0000
  H   H57       1.0  0.05640  0.58762  0.41632  1.0000
  O  Te9       1.0  0.02842  0.44974  0.15556  1.0000
  O  Te10      1.0  0.93995  0.40876  0.09716  1.0000
  H   H58       1.0  0.97928  0.55194  0.36546  1.0000
  Mg  Mg5       1.0  0.97403  0.38686  0.04657  1.0000
  C   C99       1.0  0.53698  0.54019  0.78415  1.0000
  C   C100      1.0  0.49485  0.52853  0.73711  1.0000
  C  Sn11      1.0  0.46021  0.48707  0.70583  1.0000
  C  Sn12      1.0  0.46800  0.45680  0.72210  1.0000
  C   C101      1.0  0.51027  0.46880  0.76937  1.0000
  C   C102      1.0  0.54469  0.51037  0.80031  1.0000
  H   H59       1.0  0.56362  0.57236  0.80820  1.0000
  O  Te11      1.0  0.41832  0.47594  0.65887  1.0000
  O  Te12      1.0  0.43398  0.41516  0.69166  1.0000
  H   H60       1.0  0.57732  0.51940  0.83685  1.0000
  Mg  Mg6       1.0  0.38262  0.41528  0.63084  1.0000
  C   C103      1.0  0.52952  0.98856  0.26919  1.0000
  C   C104      1.0  0.48734  0.96638  0.25637  1.0000
  C  Sn13      1.0  0.46352  0.98243  0.22603  1.0000
  C  Sn14      1.0  0.48238  0.02140  0.20819  1.0000
  C   C105      1.0  0.02133  0.04332  0.22108  1.0000
  C   C106      1.0  0.54813  0.02698  0.25153  1.0000
  H   H61       1.0  0.54773  0.97591  0.29264  1.0000
  O  Te13      1.0  0.42143  0.95988  0.21366  1.0000
  O  Te14      1.0  0.95604  0.03815  0.17773  1.0000
  H   H62       1.0  0.07752  0.04414  0.26131  1.0000
  Mg  Mg7       1.0  0.40299  0.99570  0.17119  1.0000
  C   C107      1.0  0.80457  0.44991  0.73256  1.0000
  C   C108      1.0  0.77173  0.41058  0.72157  1.0000
  C  Sn15      1.0  0.77977  0.38127  0.74129  1.0000
  C  Sn16      1.0  0.82150  0.39163  0.77263  1.0000
  C   C109      1.0  0.85415  0.43107  0.78353  1.0000
  C   C110      1.0  0.84574  0.46015  0.76354  1.0000
  H   H63       1.0  0.79807  0.47243  0.71720  1.0000
  O  Te15      1.0  0.74659  0.34212  0.72986  1.0000
  O  Te16      1.0  0.83043  0.36293  0.79291  1.0000
  H   H64       1.0  0.87119  0.49061  0.77218  1.0000
  Mg  Mg8       1.0  0.77460  0.31361  0.76641  1.0000
  C   C111      1.0  0.61994  0.41091  0.73329  1.0000
  C   C112      1.0  0.60130  0.37579  0.77188  1.0000
  C  Sn17      1.0  0.56209  0.35992  0.78527  1.0000
  C  Sn18      1.0  0.54122  0.37963  0.75942  1.0000
  C   C113      1.0  0.56012  0.41472  0.72073  1.0000
  C   C114      1.0  0.59937  0.43035  0.70770  1.0000
  H   H65       1.0  0.65030  0.42299  0.72310  1.0000
  O  Te17      1.0  0.54392  0.32482  0.82399  1.0000
  O  Te18      1.0  0.50200  0.36441  0.77196  1.0000
  H   H66       1.0  0.61378  0.45752  0.67769  1.0000
  Mg  Mg9       1.0  0.49006  0.31577  0.82742  1.0000
