data_image0
_chemical_formula_structural       H160C216N16Cl16O16SnCSn2CSnTe4Mg2SnCSn2CSnTe4Mg2SnCSn2CSnTe4Mg2SnCSn2CSnTe4Mg2SnCSn2CSnTe4Mg2SnCSn2CSnTe4Mg2SnCSn2CSnTe4Mg2SnCSn2CSnTe4Mg2SnCSn2CSnTe4Mg2SnCSn2CSnTe4Mg2SnCSn2CSnTe4Mg2SnCSn2CSnTe4Mg2SnCSn2CSnTe4Mg2SnCSn2CSnTe4Mg2SnCSn2CSnTe4Mg2SnCSn2CSnTe4Mg2
_chemical_formula_sum              "H160 C248 N16 Cl16 O16 Sn64 Te64 Mg32"
_cell_length_a       41.9135
_cell_length_b       20.0399
_cell_length_c       14.0201
_cell_angle_alpha    91.1704
_cell_angle_beta     105.341
_cell_angle_gamma    89.9868

_symmetry_space_group_name_H-M    'P1'
_space_group_IT_number       1

loop_
  _space_group_symop_operation_xyz
  'x, y, z'

loop_
  _atom_site_type_symbol
  _atom_site_label
  _atom_site_symmetry_multiplicity
  _atom_site_fract_x
  _atom_site_fract_y
  _atom_site_fract_z
  _atom_site_occupancy
  H   H1        1.0  0.18597  0.34480  0.85120  1.0000
  H   H2        1.0  0.81398  0.34439  0.15201  1.0000
  H   H3        1.0  0.68666  0.84387  0.84834  1.0000
  H   H4        1.0  0.31500  0.84596  0.15571  1.0000
  H   H5        1.0  0.29503  0.45666  0.89220  1.0000
  H   H6        1.0  0.70571  0.45574  0.12302  1.0000
  H   H7        1.0  0.79381  0.95973  0.87486  1.0000
  H   H8        1.0  0.20689  0.95878  0.12394  1.0000
  H   H9        1.0  0.25706  0.49583  0.99108  1.0000
  H   H10       1.0  0.74333  0.49570  0.02537  1.0000
  H   H11       1.0  0.75614  0.00091  0.97332  1.0000
  H   H12       1.0  0.24495  0.99780  0.02739  1.0000
  H   H13       1.0  0.23916  0.22417  0.63503  1.0000
  H   H14       1.0  0.76046  0.22151  0.36031  1.0000
  H   H15       1.0  0.73987  0.71800  0.63702  1.0000
  H   H16       1.0  0.26085  0.72365  0.36137  1.0000
  H   H17       1.0  0.29745  0.26969  0.49358  1.0000
  H   H18       1.0  0.70284  0.26364  0.50608  1.0000
  H   H19       1.0  0.79713  0.75957  0.49016  1.0000
  H   H20       1.0  0.20301  0.76011  0.50547  1.0000
  H   H21       1.0  0.25797  0.25696  0.51273  1.0000
  H   H22       1.0  0.74207  0.25116  0.48429  1.0000
  H   H23       1.0  0.75811  0.74608  0.51215  1.0000
  H   H24       1.0  0.24167  0.74489  0.48197  1.0000
  H   H25       1.0  0.28053  0.15406  0.61425  1.0000
  H   H26       1.0  0.71626  0.15246  0.36647  1.0000
  H   H27       1.0  0.78221  0.64709  0.61961  1.0000
  H   H28       1.0  0.21325  0.65386  0.35379  1.0000
  H   H29       1.0  0.31966  0.16889  0.59242  1.0000
  H   H30       1.0  0.67926  0.16415  0.40345  1.0000
  H   H31       1.0  0.82134  0.66389  0.59910  1.0000
  H   H32       1.0  0.17596  0.66966  0.38734  1.0000
  H   H33       1.0  0.28511  0.14743  0.49164  1.0000
  H   H34       1.0  0.71625  0.14069  0.49202  1.0000
  H   H35       1.0  0.78784  0.63723  0.49845  1.0000
  H   H36       1.0  0.21072  0.63695  0.47594  1.0000
  H   H37       1.0  0.19454  0.19693  0.69202  1.0000
  H   H38       1.0  0.80533  0.19605  0.30450  1.0000
  H   H39       1.0  0.69541  0.69254  0.69567  1.0000
  H   H40       1.0  0.30545  0.69824  0.30985  1.0000
  H   H41       1.0  0.91956  0.26466  0.93388  1.0000
  H   H42       1.0  0.08094  0.26123  0.06446  1.0000
  H   H43       1.0  0.41913  0.75957  0.93566  1.0000
  H   H44       1.0  0.57942  0.76530  0.05712  1.0000
  H   H45       1.0  0.79840  0.27960  0.89728  1.0000
  H   H46       1.0  0.20221  0.27778  0.10361  1.0000
  H   H47       1.0  0.29848  0.78853  0.89683  1.0000
  H   H48       1.0  0.70085  0.78133  0.09803  1.0000
  H   H49       1.0  0.83787  0.27475  0.06380  1.0000
  H   H50       1.0  0.16289  0.27390  0.93658  1.0000
  H   H51       1.0  0.33751  0.78160  0.06379  1.0000
  H   H52       1.0  0.66160  0.78328  0.93097  1.0000
  H   H53       1.0  0.86915  0.27418  0.58299  1.0000
  H   H54       1.0  0.13043  0.27543  0.41573  1.0000
  H   H55       1.0  0.37011  0.77624  0.58467  1.0000
  H   H56       1.0  0.62906  0.76934  0.40886  1.0000
  H   H57       1.0  0.82854  0.32277  0.43881  1.0000
  H   H58       1.0  0.17173  0.32666  0.56466  1.0000
  H   H59       1.0  0.32954  0.82932  0.43943  1.0000
  H   H60       1.0  0.67180  0.81914  0.56264  1.0000
  H   H61       1.0  0.84479  0.37793  0.54093  1.0000
  H   H62       1.0  0.15589  0.37813  0.46116  1.0000
  H   H63       1.0  0.34505  0.88171  0.54534  1.0000
  H   H64       1.0  0.65485  0.87037  0.45976  1.0000
  H   H65       1.0  0.77411  0.38507  0.40478  1.0000
  H   H66       1.0  0.22574  0.38901  0.60318  1.0000
  H   H67       1.0  0.27483  0.89039  0.40637  1.0000
  H   H68       1.0  0.72601  0.88271  0.59211  1.0000
  H   H69       1.0  0.80710  0.43721  0.39375  1.0000
  H   H70       1.0  0.19268  0.44481  0.60153  1.0000
  H   H71       1.0  0.30800  0.94440  0.40256  1.0000
  H   H72       1.0  0.69307  0.93568  0.60201  1.0000
  H   H73       1.0  0.79219  0.44230  0.50224  1.0000
  H   H74       1.0  0.21030  0.43979  0.49853  1.0000
  H   H75       1.0  0.29199  0.94477  0.50881  1.0000
  H   H76       1.0  0.70735  0.93571  0.49272  1.0000
  H   H77       1.0  0.93235  0.22950  0.81410  1.0000
  H   H78       1.0  0.06815  0.22511  0.18144  1.0000
  H   H79       1.0  0.43181  0.72592  0.81608  1.0000
  H   H80       1.0  0.56603  0.72647  0.17484  1.0000
  H   H81       1.0  0.87170  0.05195  0.62589  1.0000
  H   H82       1.0  0.12888  0.05761  0.37592  1.0000
  H   H83       1.0  0.37270  0.55104  0.63247  1.0000
  H   H84       1.0  0.62880  0.55484  0.37524  1.0000
  H   H85       1.0  0.76332  0.95713  0.63989  1.0000
  H   H86       1.0  0.23715  0.96393  0.35766  1.0000
  H   H87       1.0  0.26410  0.45955  0.65027  1.0000
  H   H88       1.0  0.73687  0.45977  0.35737  1.0000
  H   H89       1.0  0.76572  0.05717  0.54151  1.0000
  H   H90       1.0  0.23490  0.06563  0.45869  1.0000
  H   H91       1.0  0.26677  0.55847  0.54995  1.0000
  H   H92       1.0  0.73480  0.56275  0.45585  1.0000
  H   H93       1.0  0.89849  0.86362  0.83990  1.0000
  H   H94       1.0  0.10199  0.86405  0.16026  1.0000
  H   H95       1.0  0.39906  0.36443  0.84887  1.0000
  H   H96       1.0  0.60140  0.36303  0.15579  1.0000
  H   H97       1.0  0.88555  0.82069  0.97587  1.0000
  H   H98       1.0  0.11364  0.81256  0.02636  1.0000
  H   H99       1.0  0.38845  0.32312  0.97922  1.0000
  H   H100      1.0  0.61319  0.31317  0.02289  1.0000
  H   H101      1.0  0.88622  0.76050  0.88132  1.0000
  H   H102      1.0  0.11440  0.75900  0.12662  1.0000
  H   H103      1.0  0.38489  0.25819  0.88815  1.0000
  H   H104      1.0  0.61424  0.25547  0.11853  1.0000
  H   H105      1.0  0.88237  0.70461  0.03703  1.0000
  H   H106      1.0  0.11759  0.69106  0.97707  1.0000
  H   H107      1.0  0.35009  0.26075  0.05718  1.0000
  H   H108      1.0  0.61725  0.19557  0.96114  1.0000
  H   H109      1.0  0.84620  0.68795  0.93956  1.0000
  H   H110      1.0  0.15516  0.68380  0.07186  1.0000
  H   H111      1.0  0.38477  0.21072  0.05211  1.0000
  H   H112      1.0  0.65429  0.18341  0.05618  1.0000
  H   H113      1.0  0.84495  0.74812  0.03319  1.0000
  H   H114      1.0  0.15339  0.73636  0.97000  1.0000
  H   H115      1.0  0.34569  0.19594  0.96616  1.0000
  H   H116      1.0  0.65366  0.24139  0.96154  1.0000
  H   H117      1.0  0.90984  0.98443  0.65809  1.0000
  H   H118      1.0  0.08973  0.99176  0.33751  1.0000
  H   H119      1.0  0.41012  0.48412  0.66483  1.0000
  H   H120      1.0  0.59018  0.48713  0.34005  1.0000
  H   H121      1.0  0.17467  0.70864  0.69182  1.0000
  H   H122      1.0  0.82498  0.70573  0.29682  1.0000
  H   H123      1.0  0.67444  0.20524  0.69193  1.0000
  H   H124      1.0  0.32557  0.20491  0.29839  1.0000
  H   H125      1.0  0.29427  0.67062  0.72153  1.0000
  H   H126      1.0  0.70627  0.66344  0.27651  1.0000
  H   H127      1.0  0.79381  0.16780  0.71706  1.0000
  H   H128      1.0  0.20682  0.16469  0.28025  1.0000
  H   H129      1.0  0.25707  0.57577  0.72716  1.0000
  H   H130      1.0  0.74425  0.56930  0.27230  1.0000
  H   H131      1.0  0.75651  0.07240  0.71858  1.0000
  H   H132      1.0  0.24421  0.07000  0.27405  1.0000
  H   H133      1.0  0.22224  0.92713  0.69261  1.0000
  H   H134      1.0  0.77582  0.92278  0.29620  1.0000
  H   H135      1.0  0.72269  0.42418  0.70821  1.0000
  H   H136      1.0  0.27767  0.42289  0.30091  1.0000
  H   H137      1.0  0.30205  0.00557  0.79050  1.0000
  H   H138      1.0  0.69640  0.00121  0.21981  1.0000
  H   H139      1.0  0.80215  0.50663  0.77661  1.0000
  H   H140      1.0  0.19809  0.50183  0.22693  1.0000
  H   H141      1.0  0.26289  0.97623  0.79704  1.0000
  H   H142      1.0  0.73447  0.97288  0.20234  1.0000
  H   H143      1.0  0.76451  0.47923  0.79775  1.0000
  H   H144      1.0  0.23660  0.47460  0.21078  1.0000
  H   H145      1.0  0.27999  0.03214  0.61253  1.0000
  H   H146      1.0  0.72107  0.02497  0.39694  1.0000
  H   H147      1.0  0.77553  0.51849  0.59686  1.0000
  H   H148      1.0  0.22223  0.52476  0.40505  1.0000
  H   H149      1.0  0.25486  0.07159  0.68115  1.0000
  H   H150      1.0  0.74854  0.05940  0.33341  1.0000
  H   H151      1.0  0.75276  0.56532  0.66553  1.0000
  H   H152      1.0  0.24860  0.56317  0.34139  1.0000
  H   H153      1.0  0.24079  0.99785  0.61003  1.0000
  H   H154      1.0  0.75810  0.98284  0.39495  1.0000
  H   H155      1.0  0.73727  0.48754  0.60997  1.0000
  H   H156      1.0  0.26022  0.48693  0.40212  1.0000
  H   H157      1.0  0.15836  0.80472  0.69491  1.0000
  H   H158      1.0  0.84059  0.80184  0.29546  1.0000
  H   H159      1.0  0.65869  0.30233  0.70522  1.0000
  H   H160      1.0  0.34244  0.30131  0.30534  1.0000
  C   C1        1.0  0.21961  0.42127  0.92689  1.0000
  C   C2        1.0  0.78050  0.42096  0.08284  1.0000
  C   C3        1.0  0.71951  0.92347  0.91656  1.0000
  C   C4        1.0  0.28185  0.92284  0.08557  1.0000
  C   C5        1.0  0.21002  0.36805  0.86143  1.0000
  C   C6        1.0  0.79008  0.36753  0.14444  1.0000
  C   C7        1.0  0.71030  0.86807  0.85524  1.0000
  C   C8        1.0  0.29112  0.86941  0.14732  1.0000
  C   C9        1.0  0.23125  0.34431  0.80465  1.0000
  C   C10       1.0  0.76896  0.34321  0.20026  1.0000
  C   C11       1.0  0.73135  0.84319  0.79858  1.0000
  C   C12       1.0  0.26976  0.84546  0.20254  1.0000
  C   C13       1.0  0.26254  0.37752  0.81563  1.0000
  C   C14       1.0  0.73789  0.37621  0.19251  1.0000
  C   C15       1.0  0.76215  0.87732  0.80569  1.0000
  C   C16       1.0  0.23870  0.87883  0.19450  1.0000
  C   C17       1.0  0.27125  0.43223  0.88397  1.0000
  C   C18       1.0  0.72931  0.43139  0.12864  1.0000
  C   C19       1.0  0.77045  0.93437  0.86969  1.0000
  C   C20       1.0  0.23042  0.93394  0.13024  1.0000
  C   C21       1.0  0.25033  0.45402  0.93904  1.0000
  C   C22       1.0  0.75003  0.45368  0.07433  1.0000
  C   C23       1.0  0.74968  0.95740  0.92446  1.0000
  C   C24       1.0  0.25140  0.95576  0.07636  1.0000
  C   C25       1.0  0.28389  0.35725  0.75704  1.0000
  C   C26       1.0  0.71649  0.35526  0.24963  1.0000
  C   C27       1.0  0.78349  0.85533  0.74794  1.0000
  C   C28       1.0  0.21713  0.85816  0.25147  1.0000
  C   C29       1.0  0.27495  0.30320  0.69060  1.0000
  C   C30       1.0  0.72511  0.30074  0.31164  1.0000
  C   C31       1.0  0.77501  0.79906  0.68575  1.0000
  C   C32       1.0  0.22576  0.80355  0.31366  1.0000
  C   C33       1.0  0.24557  0.26721  0.68504  1.0000
  C   C34       1.0  0.75429  0.26499  0.31394  1.0000
  C   C35       1.0  0.74603  0.76266  0.68372  1.0000
  C   C36       1.0  0.25477  0.76739  0.31551  1.0000
  C   C37       1.0  0.22333  0.28753  0.73824  1.0000
  C   C38       1.0  0.77658  0.28595  0.26215  1.0000
  C   C39       1.0  0.72385  0.78430  0.73637  1.0000
  C   C40       1.0  0.27723  0.78807  0.26424  1.0000
  C   C41       1.0  0.28452  0.24874  0.54458  1.0000
  C   C42       1.0  0.71538  0.24388  0.45227  1.0000
  C   C43       1.0  0.78484  0.73986  0.54360  1.0000
  C   C44       1.0  0.21483  0.74180  0.44916  1.0000
  C   C45       1.0  0.29292  0.17549  0.56222  1.0000
  C   C46       1.0  0.70621  0.17109  0.42656  1.0000
  C   C47       1.0  0.79456  0.66778  0.56690  1.0000
  C   C48       1.0  0.20304  0.67149  0.41413  1.0000
  C   C49       1.0  0.19264  0.24848  0.71872  1.0000
  C   C50       1.0  0.80707  0.24713  0.27862  1.0000
  C   C51       1.0  0.69341  0.74466  0.71987  1.0000
  C   C52       1.0  0.30761  0.74866  0.28209  1.0000
  C   C53       1.0  0.04938  0.10828  0.67730  1.0000
  C   C54       1.0  0.94927  0.10685  0.31093  1.0000
  C   C55       1.0  0.54968  0.60676  0.68099  1.0000
  C   C56       1.0  0.45009  0.60581  0.32025  1.0000
  C   C57       1.0  0.04965  0.03933  0.68034  1.0000
  C   C58       1.0  0.94859  0.03784  0.30665  1.0000
  C   C59       1.0  0.55019  0.53791  0.68493  1.0000
  C   C60       1.0  0.44977  0.53677  0.31704  1.0000
  C   C61       1.0  0.88086  0.27080  0.00592  1.0000
  C   C62       1.0  0.11978  0.26852  0.99346  1.0000
  C   C63       1.0  0.38044  0.77110  0.00671  1.0000
  C   C64       1.0  0.61838  0.77621  0.98713  1.0000
  C   C65       1.0  0.89300  0.26630  0.92365  1.0000
  C   C66       1.0  0.10753  0.26309  0.07514  1.0000
  C   C67       1.0  0.39265  0.76449  0.92481  1.0000
  C   C68       1.0  0.60602  0.76773  0.06809  1.0000
  C   C69       1.0  0.87107  0.26729  0.82747  1.0000
  C   C70       1.0  0.12934  0.26426  0.17157  1.0000
  C   C71       1.0  0.37100  0.76754  0.82837  1.0000
  C   C72       1.0  0.62781  0.76605  0.16453  1.0000
  C   C73       1.0  0.83621  0.27507  0.81769  1.0000
  C   C74       1.0  0.16426  0.27230  0.18248  1.0000
  C   C75       1.0  0.33628  0.77803  0.81799  1.0000
  C   C76       1.0  0.66279  0.77367  0.17605  1.0000
  C   C77       1.0  0.82479  0.27524  0.90467  1.0000
  C   C78       1.0  0.17580  0.27300  0.09572  1.0000
  C   C79       1.0  0.32472  0.78091  0.90467  1.0000
  C   C80       1.0  0.67439  0.77718  0.08963  1.0000
  C   C81       1.0  0.84655  0.27304  0.99735  1.0000
  C   C82       1.0  0.15412  0.27125  0.00270  1.0000
  C   C83       1.0  0.34624  0.77766  0.99758  1.0000
  C   C84       1.0  0.65275  0.77873  0.99671  1.0000
  C   C85       1.0  0.81410  0.28763  0.72349  1.0000
  C   C86       1.0  0.18630  0.28476  0.27787  1.0000
  C   C87       1.0  0.31443  0.79027  0.72326  1.0000
  C   C88       1.0  0.68497  0.78310  0.27194  1.0000
  C   C89       1.0  0.82704  0.29429  0.64200  1.0000
  C   C90       1.0  0.17312  0.29252  0.35914  1.0000
  C   C91       1.0  0.32767  0.79603  0.64219  1.0000
  C   C92       1.0  0.67195  0.78808  0.35376  1.0000
  C   C93       1.0  0.86022  0.27771  0.64901  1.0000
  C   C94       1.0  0.13967  0.27698  0.35025  1.0000
  C   C95       1.0  0.36089  0.77917  0.65026  1.0000
  C   C96       1.0  0.63840  0.77311  0.34378  1.0000
  C   C97       1.0  0.88225  0.26345  0.73922  1.0000
  C   C98       1.0  0.11788  0.26114  0.25927  1.0000
  C   C99       1.0  0.38248  0.76344  0.74060  1.0000
  C   C100      1.0  0.61640  0.76054  0.25198  1.0000
  C   C101      1.0  0.82193  0.35558  0.49405  1.0000
  C   C102      1.0  0.17856  0.35680  0.50860  1.0000
  C   C103      1.0  0.32248  0.85970  0.49642  1.0000
  C   C104      1.0  0.67791  0.84950  0.50567  1.0000
  C   C105      1.0  0.79742  0.40843  0.44594  1.0000
  C   C106      1.0  0.20333  0.41094  0.55563  1.0000
  C   C107      1.0  0.29784  0.91312  0.45105  1.0000
  C   C108      1.0  0.70256  0.90427  0.55060  1.0000
  C   C109      1.0  0.91572  0.24139  0.74183  1.0000
  C   C110      1.0  0.08444  0.23787  0.25470  1.0000
  C   C111      1.0  0.41576  0.73978  0.74390  1.0000
  C   C112      1.0  0.58284  0.73817  0.24778  1.0000
  C   C113      1.0  0.81919  0.05860  0.57763  1.0000
  C   C114      1.0  0.18144  0.06549  0.42387  1.0000
  C   C115      1.0  0.32021  0.55882  0.58507  1.0000
  C   C116      1.0  0.68134  0.56276  0.42190  1.0000
  C   C117      1.0  0.84840  0.02925  0.62814  1.0000
  C   C118      1.0  0.15217  0.03519  0.37271  1.0000
  C   C119      1.0  0.34931  0.52922  0.63574  1.0000
  C   C120      1.0  0.65202  0.53214  0.37186  1.0000
  C   C121      1.0  0.84782  0.97143  0.68478  1.0000
  C   C122      1.0  0.15265  0.97628  0.31482  1.0000
  C   C123      1.0  0.34857  0.47205  0.69347  1.0000
  C   C124      1.0  0.65239  0.47309  0.31411  1.0000
  C   C125      1.0  0.81646  0.94522  0.69076  1.0000
  C   C126      1.0  0.18402  0.94992  0.30831  1.0000
  C   C127      1.0  0.31718  0.44672  0.70061  1.0000
  C   C128      1.0  0.68367  0.44660  0.30742  1.0000
  C   C129      1.0  0.78709  0.97686  0.63620  1.0000
  C   C130      1.0  0.21340  0.98323  0.36250  1.0000
  C   C131      1.0  0.28792  0.47861  0.64593  1.0000
  C   C132      1.0  0.71315  0.47962  0.36164  1.0000
  C   C133      1.0  0.78824  0.03243  0.58093  1.0000
  C   C134      1.0  0.21237  0.03980  0.41913  1.0000
  C   C135      1.0  0.28921  0.53357  0.58956  1.0000
  C   C136      1.0  0.71221  0.53673  0.41721  1.0000
  C   C137      1.0  0.81518  0.88939  0.75063  1.0000
  C   C138      1.0  0.18535  0.89215  0.24872  1.0000
  C   C139      1.0  0.31576  0.39132  0.76130  1.0000
  C   C140      1.0  0.68479  0.38923  0.24688  1.0000
  C   C141      1.0  0.84467  0.86207  0.80751  1.0000
  C   C142      1.0  0.15577  0.86310  0.19243  1.0000
  C   C143      1.0  0.34524  0.36415  0.81856  1.0000
  C   C144      1.0  0.65524  0.36088  0.18921  1.0000
  C   C145      1.0  0.87539  0.88642  0.80026  1.0000
  C   C146      1.0  0.12512  0.88788  0.19979  1.0000
  C   C147      1.0  0.37597  0.38746  0.80970  1.0000
  C   C148      1.0  0.62462  0.38594  0.19662  1.0000
  C   C149      1.0  0.87731  0.93858  0.73806  1.0000
  C   C150      1.0  0.12315  0.94212  0.26134  1.0000
  C   C151      1.0  0.37796  0.43880  0.74627  1.0000
  C   C152      1.0  0.62283  0.43931  0.26006  1.0000
  C   C153      1.0  0.87106  0.78124  0.92783  1.0000
  C   C154      1.0  0.12885  0.77649  0.07682  1.0000
  C   C155      1.0  0.37210  0.28350  0.93776  1.0000
  C   C156      1.0  0.62855  0.27575  0.07021  1.0000
  C   C157      1.0  0.86042  0.72740  0.98783  1.0000
  C   C158      1.0  0.13944  0.71860  0.02071  1.0000
  C   C159      1.0  0.36246  0.23493  0.00720  1.0000
  C   C160      1.0  0.63914  0.22087  0.00885  1.0000
  C   C161      1.0  0.90959  0.95682  0.72477  1.0000
  C   C162      1.0  0.09062  0.96076  0.27274  1.0000
  C   C163      1.0  0.41010  0.45597  0.73121  1.0000
  C   C164      1.0  0.59052  0.45761  0.27344  1.0000
  C   C165      1.0  0.21378  0.63810  0.71043  1.0000
  C   C166      1.0  0.78675  0.63352  0.28434  1.0000
  C   C167      1.0  0.71336  0.13466  0.70569  1.0000
  C   C168      1.0  0.28694  0.13338  0.28527  1.0000
  C   C169      1.0  0.20094  0.70178  0.70010  1.0000
  C   C170      1.0  0.79893  0.69794  0.29140  1.0000
  C   C171      1.0  0.70069  0.19850  0.69955  1.0000
  C   C172      1.0  0.29953  0.19754  0.29362  1.0000
  C   C173      1.0  0.22191  0.75757  0.70109  1.0000
  C   C174      1.0  0.77758  0.75310  0.29087  1.0000
  C   C175      1.0  0.72184  0.25447  0.70383  1.0000
  C   C176      1.0  0.27856  0.25310  0.29466  1.0000
  C   C177      1.0  0.25654  0.74633  0.70914  1.0000
  C   C178      1.0  0.74319  0.74057  0.28517  1.0000
  C   C179      1.0  0.75634  0.24343  0.70995  1.0000
  C   C180      1.0  0.24413  0.24126  0.28899  1.0000
  C   C181      1.0  0.26829  0.67946  0.71668  1.0000
  C   C182      1.0  0.73209  0.67311  0.27982  1.0000
  C   C183      1.0  0.76792  0.17650  0.71361  1.0000
  C   C184      1.0  0.23261  0.17405  0.28283  1.0000
  C   C185      1.0  0.24763  0.62636  0.71905  1.0000
  C   C186      1.0  0.75314  0.62049  0.27809  1.0000
  C   C187      1.0  0.74718  0.12310  0.71348  1.0000
  C   C188      1.0  0.25333  0.12103  0.27987  1.0000
  C   C189      1.0  0.27855  0.80102  0.71183  1.0000
  C   C190      1.0  0.72081  0.79449  0.28276  1.0000
  C   C191      1.0  0.77832  0.29829  0.71372  1.0000
  C   C192      1.0  0.22213  0.29564  0.28827  1.0000
  C   C193      1.0  0.26629  0.86608  0.70889  1.0000
  C   C194      1.0  0.73238  0.86008  0.28396  1.0000
  C   C195      1.0  0.76624  0.36336  0.71422  1.0000
  C   C196      1.0  0.23407  0.36099  0.29015  1.0000
  C   C197      1.0  0.23241  0.87711  0.69780  1.0000
  C   C198      1.0  0.76604  0.87239  0.29255  1.0000
  C   C199      1.0  0.73267  0.37424  0.70804  1.0000
  C   C200      1.0  0.26769  0.37269  0.29771  1.0000
  C   C201      1.0  0.21011  0.82493  0.69307  1.0000
  C   C202      1.0  0.78872  0.82105  0.29700  1.0000
  C   C203      1.0  0.71030  0.32189  0.70087  1.0000
  C   C204      1.0  0.29013  0.32083  0.30238  1.0000
  C   C205      1.0  0.27897  0.98210  0.74732  1.0000
  C   C206      1.0  0.71956  0.97611  0.25592  1.0000
  C   C207      1.0  0.77874  0.48072  0.74234  1.0000
  C   C208      1.0  0.22142  0.47755  0.26368  1.0000
  C   C209      1.0  0.26268  0.02300  0.65745  1.0000
  C   C210      1.0  0.73779  0.01266  0.35085  1.0000
  C   C211      1.0  0.75992  0.51465  0.64818  1.0000
  C   C212      1.0  0.23910  0.51495  0.35850  1.0000
  C   C213      1.0  0.17538  0.84272  0.68109  1.0000
  C   C214      1.0  0.82324  0.84015  0.30745  1.0000
  C   C215      1.0  0.67567  0.33991  0.68995  1.0000
  C   C216      1.0  0.32488  0.33944  0.31658  1.0000
  N   N1        1.0  0.16444  0.27197  0.72445  1.0000
  N   N2        1.0  0.83504  0.27045  0.27104  1.0000
  N   N3        1.0  0.66526  0.76851  0.72516  1.0000
  N   N4        1.0  0.33579  0.77055  0.27407  1.0000
  N   N5        1.0  0.92490  0.23135  0.66164  1.0000
  N   N6        1.0  0.07504  0.22745  0.33390  1.0000
  N   N7        1.0  0.42535  0.73062  0.66425  1.0000
  N   N8        1.0  0.57415  0.72741  0.32805  1.0000
  N   N9        1.0  0.93701  0.94082  0.78718  1.0000
  N   N10       1.0  0.06365  0.94095  0.21015  1.0000
  N   N11       1.0  0.43766  0.43884  0.79183  1.0000
  N   N12       1.0  0.56320  0.43919  0.21110  1.0000
  N   N13       1.0  0.16565  0.90255  0.65507  1.0000
  N   N14       1.0  0.83248  0.90127  0.33083  1.0000
  N   N15       1.0  0.66614  0.39962  0.66255  1.0000
  N   N16       1.0  0.33416  0.40020  0.34292  1.0000
  Cl  Cl1       1.0  0.19335  0.44882  0.99746  1.0000
  Cl  Cl2       1.0  0.80653  0.44943  0.01336  1.0000
  Cl  Cl3       1.0  0.69343  0.95255  0.98681  1.0000
  Cl  Cl4       1.0  0.30808  0.95072  0.01633  1.0000
  Cl  Cl5       1.0  0.90817  0.27725  0.12312  1.0000
  Cl  Cl6       1.0  0.09265  0.27603  0.87661  1.0000
  Cl  Cl7       1.0  0.40756  0.77462  0.12440  1.0000
  Cl  Cl8       1.0  0.59138  0.78721  0.87078  1.0000
  Cl  Cl9       1.0  0.82001  0.13001  0.50881  1.0000
  Cl  Cl10      1.0  0.18067  0.13779  0.49491  1.0000
  Cl  Cl11      1.0  0.32132  0.62913  0.51436  1.0000
  Cl  Cl12      1.0  0.68080  0.63599  0.49127  1.0000
  Cl  Cl13      1.0  0.18806  0.57012  0.71359  1.0000
  Cl  Cl14      1.0  0.81299  0.56605  0.28293  1.0000
  Cl  Cl15      1.0  0.68747  0.06621  0.70421  1.0000
  Cl  Cl16      1.0  0.31272  0.06549  0.28113  1.0000
  O   O1        1.0  0.29613  0.28925  0.63413  1.0000
  O   O2        1.0  0.70393  0.28616  0.36721  1.0000
  O   O3        1.0  0.79630  0.78320  0.63023  1.0000
  O   O4        1.0  0.20480  0.78939  0.37020  1.0000
  O   O5        1.0  0.80630  0.31622  0.55587  1.0000
  O   O6        1.0  0.19377  0.31374  0.44752  1.0000
  O   O7        1.0  0.30709  0.81682  0.55500  1.0000
  O   O8        1.0  0.69275  0.80677  0.44329  1.0000
  O   O9        1.0  0.84135  0.80992  0.86554  1.0000
  O   O10       1.0  0.15877  0.80926  0.13419  1.0000
  O   O11       1.0  0.34206  0.31324  0.87894  1.0000
  O   O12       1.0  0.65841  0.30734  0.13029  1.0000
  O   O13       1.0  0.28897  0.91670  0.72000  1.0000
  O   O14       1.0  0.70923  0.90952  0.27364  1.0000
  O   O15       1.0  0.78886  0.41375  0.72302  1.0000
  O   O16       1.0  0.21128  0.41082  0.28191  1.0000
  C  Sn1       1.0  0.11555  0.14404  0.77591  1.0000
  C   C217      1.0  0.08360  0.15565  0.71687  1.0000
  C  Sn2       1.0  0.07820  0.20317  0.64284  1.0000
  C  Sn3       1.0  0.10529  0.23981  0.62743  1.0000
  C   C218      1.0  0.13721  0.22818  0.68643  1.0000
  C  Sn4       1.0  0.14264  0.18068  0.76050  1.0000
  O  Te1       1.0  0.12037  0.09630  0.84949  1.0000
  O  Te2       1.0  0.04604  0.21392  0.58478  1.0000
  O  Te3       1.0  0.10044  0.28758  0.55378  1.0000
  O  Te4       1.0  0.17477  0.16991  0.81853  1.0000
  Mg  Mg1       1.0  0.05206  0.28425  0.49383  1.0000
  Mg  Mg2       1.0  0.16878  0.09957  0.90945  1.0000
  C  Sn5       1.0  0.90264  0.25304  0.33095  1.0000
  C   C219      1.0  0.87046  0.24041  0.27317  1.0000
  C  Sn6       1.0  0.86109  0.17621  0.23545  1.0000
  C  Sn7       1.0  0.88436  0.12354  0.25596  1.0000
  C   C220      1.0  0.91651  0.13618  0.31372  1.0000
  C  Sn8       1.0  0.92591  0.20036  0.35146  1.0000
  O  Te5       1.0  0.91147  0.31760  0.36789  1.0000
  O  Te6       1.0  0.82878  0.16481  0.17785  1.0000
  O  Te7       1.0  0.87550  0.05895  0.21896  1.0000
  O  Te8       1.0  0.95819  0.21178  0.40904  1.0000
  Mg  Mg3       1.0  0.82858  0.06833  0.14428  1.0000
  Mg  Mg4       1.0  0.95842  0.30822  0.44269  1.0000
  C  Sn9       1.0  0.59771  0.75101  0.66086  1.0000
  C   C221      1.0  0.62952  0.73941  0.72081  1.0000
  C  Sn10      1.0  0.63803  0.67659  0.76098  1.0000
  C  Sn11      1.0  0.61425  0.62427  0.74076  1.0000
  C   C222      1.0  0.58247  0.63588  0.68082  1.0000
  C  Sn12      1.0  0.57393  0.69868  0.64063  1.0000
  O  Te9       1.0  0.58974  0.81419  0.62148  1.0000
  O  Te10      1.0  0.66998  0.66621  0.82074  1.0000
  O  Te11      1.0  0.62225  0.56105  0.78020  1.0000
  O  Te12      1.0  0.54200  0.70908  0.58090  1.0000
  Mg  Mg5       1.0  0.66898  0.57145  0.85721  1.0000
  Mg  Mg6       1.0  0.54299  0.80379  0.54435  1.0000
  C  Sn13      1.0  0.36368  0.64388  0.26352  1.0000
  C   C223      1.0  0.36121  0.70704  0.30506  1.0000
  C  Sn14      1.0  0.38963  0.74500  0.34656  1.0000
  C  Sn15      1.0  0.42116  0.71933  0.34650  1.0000
  C   C224      1.0  0.42361  0.65622  0.30497  1.0000
  C  Sn16      1.0  0.39521  0.61822  0.26346  1.0000
  O  Te13      1.0  0.33494  0.60680  0.22244  1.0000
  O  Te14      1.0  0.38654  0.80800  0.38768  1.0000
  O  Te15      1.0  0.44990  0.75648  0.38764  1.0000
  O  Te16      1.0  0.39828  0.55527  0.22235  1.0000
  Mg  Mg7       1.0  0.43292  0.83957  0.43471  1.0000
  Mg  Mg8       1.0  0.35192  0.52366  0.17526  1.0000
  C  Sn17      1.0  0.09926  0.94597  0.75024  1.0000
  C   C225      1.0  0.08364  0.99748  0.68986  1.0000
  C  Sn18      1.0  0.09187  0.01056  0.60163  1.0000
  C  Sn19      1.0  0.11599  0.97132  0.57310  1.0000
  C   C226      1.0  0.13159  0.91983  0.63345  1.0000
  C  Sn20      1.0  0.12349  0.90672  0.72171  1.0000
  O  Te17      1.0  0.09074  0.93377  0.83813  1.0000
  O  Te18      1.0  0.07592  0.06235  0.54250  1.0000
  O  Te19      1.0  0.12449  0.98356  0.48513  1.0000
  O  Te20      1.0  0.13941  0.85497  0.78081  1.0000
  Mg  Mg9       1.0  0.09600  0.05957  0.42957  1.0000
  Mg  Mg10      1.0  0.11934  0.85768  0.89372  1.0000
  C  Sn21      1.0  0.90313  0.99768  0.41792  1.0000
  C   C227      1.0  0.92300  0.98657  0.35336  1.0000
  C  Sn22      1.0  0.91148  0.94712  0.26783  1.0000
  C  Sn23      1.0  0.87942  0.91819  0.24633  1.0000
  C   C228      1.0  0.85956  0.92931  0.31086  1.0000
  C  Sn24      1.0  0.87106  0.96875  0.39642  1.0000
  O  Te21      1.0  0.91526  0.03730  0.50299  1.0000
  O  Te22      1.0  0.93180  0.93671  0.20443  1.0000
  O  Te23      1.0  0.86741  0.87855  0.16118  1.0000
  O  Te24      1.0  0.85076  0.97917  0.45978  1.0000
  Mg  Mg11      1.0  0.90434  0.87899  0.09772  1.0000
  Mg  Mg12      1.0  0.87829  0.03691  0.56648  1.0000
  C  Sn25      1.0  0.59593  0.49485  0.57485  1.0000
  C   C229      1.0  0.57568  0.48528  0.63823  1.0000
  C  Sn26      1.0  0.58677  0.44766  0.72334  1.0000
  C  Sn27      1.0  0.61878  0.41905  0.74562  1.0000
  C   C230      1.0  0.63902  0.42864  0.68227  1.0000
  C  Sn28      1.0  0.62795  0.46624  0.59713  1.0000
  O  Te25      1.0  0.58434  0.53264  0.49018  1.0000
  O  Te26      1.0  0.56607  0.43876  0.78556  1.0000
  O  Te27      1.0  0.63037  0.38124  0.83037  1.0000
  O  Te28      1.0  0.64863  0.47516  0.53494  1.0000
  Mg  Mg13      1.0  0.59302  0.38327  0.89214  1.0000
  Mg  Mg14      1.0  0.62171  0.53067  0.42837  1.0000
  C  Sn29      1.0  0.40030  0.44107  0.24803  1.0000
  C   C231      1.0  0.41587  0.49465  0.30768  1.0000
  C  Sn30      1.0  0.40786  0.51060  0.39598  1.0000
  C  Sn31      1.0  0.38380  0.47218  0.42532  1.0000
  C   C232      1.0  0.36825  0.41863  0.36570  1.0000
  C  Sn32      1.0  0.37624  0.40264  0.27737  1.0000
  O  Te29      1.0  0.40870  0.42601  0.16006  1.0000
  O  Te30      1.0  0.42375  0.56442  0.45436  1.0000
  O  Te31      1.0  0.37542  0.48728  0.51337  1.0000
  O  Te32      1.0  0.36037  0.34886  0.21901  1.0000
  Mg  Mg15      1.0  0.40388  0.56527  0.56774  1.0000
  Mg  Mg16      1.0  0.38024  0.34794  0.10566  1.0000
  C  Sn33      1.0  0.01726  0.00372  0.82692  1.0000
  C   C233      1.0  0.02576  0.99331  0.73788  1.0000
  C  Sn34      1.0  0.00272  0.96631  0.65521  1.0000
  C  Sn35      1.0  0.97050  0.94940  0.66163  1.0000
  C   C234      1.0  0.96202  0.95982  0.75062  1.0000
  C  Sn36      1.0  0.98505  0.98681  0.83334  1.0000
  O  Te33      1.0  0.04080  0.03078  0.90863  1.0000
  O  Te34      1.0  0.01179  0.95634  0.56700  1.0000
  O  Te35      1.0  0.94707  0.92232  0.57982  1.0000
  O  Te36      1.0  0.97599  0.99679  0.92149  1.0000
  Mg  Mg17      1.0  0.97119  0.91814  0.47607  1.0000
  Mg  Mg18      1.0  0.92818  0.02077  0.01246  1.0000
  C  Sn37      1.0  0.00936  0.01842  0.17588  1.0000
  C   C235      1.0  0.03280  0.97418  0.22906  1.0000
  C  Sn38      1.0  0.02630  0.93742  0.30547  1.0000
  C  Sn39      1.0  0.99562  0.94499  0.32920  1.0000
  C   C236      1.0  0.97209  0.98920  0.27603  1.0000
  C  Sn40      1.0  0.97868  0.02599  0.19961  1.0000
  O  Te37      1.0  0.01638  0.05466  0.09978  1.0000
  O  Te38      1.0  0.05023  0.89352  0.35760  1.0000
  O  Te39      1.0  0.98861  0.90871  0.40537  1.0000
  O  Te40      1.0  0.95476  0.06986  0.14748  1.0000
  Mg  Mg19      1.0  0.02909  0.85519  0.45493  1.0000
  Mg  Mg20      1.0  0.97587  0.10819  0.05012  1.0000
  C  Sn41      1.0  0.48315  0.42224  0.67764  1.0000
  C   C237      1.0  0.47265  0.43847  0.76186  1.0000
  C  Sn42      1.0  0.48669  0.49262  0.82286  1.0000
  C  Sn43      1.0  0.51173  0.53139  0.79914  1.0000
  C   C238      1.0  0.52222  0.51517  0.71496  1.0000
  C  Sn44      1.0  0.50820  0.46101  0.65393  1.0000
  O  Te41      1.0  0.46877  0.36789  0.61772  1.0000
  O  Te42      1.0  0.47579  0.50786  0.90668  1.0000
  O  Te43      1.0  0.52611  0.58578  0.85915  1.0000
  O  Te44      1.0  0.51908  0.44578  0.57014  1.0000
  Mg  Mg21      1.0  0.50295  0.58671  0.96523  1.0000
  Mg  Mg22      1.0  0.49193  0.36696  0.51152  1.0000
  C  Sn45      1.0  0.51028  0.46845  0.36236  1.0000
  C   C239      1.0  0.48418  0.50523  0.30443  1.0000
  C  Sn46      1.0  0.48080  0.51183  0.20324  1.0000
  C  Sn47      1.0  0.50396  0.48099  0.15901  1.0000
  C   C240      1.0  0.53003  0.44423  0.21692  1.0000
  C  Sn48      1.0  0.53344  0.43761  0.31813  1.0000
  O  Te45      1.0  0.51318  0.46252  0.46337  1.0000
  O  Te46      1.0  0.45451  0.54887  0.14685  1.0000
  O  Te47      1.0  0.50103  0.48696  0.05791  1.0000
  O  Te48      1.0  0.55970  0.40059  0.37450  1.0000
  Mg  Mg23      1.0  0.46105  0.54249  0.01219  1.0000
  Mg  Mg24      1.0  0.55317  0.40690  0.50915  1.0000
  C  Sn49      1.0  0.96185  0.13175  0.61561  1.0000
  C   C241      1.0  0.95619  0.18727  0.67071  1.0000
  C  Sn50      1.0  0.98261  0.22679  0.72407  1.0000
  C  Sn51      1.0  0.01538  0.21050  0.72227  1.0000
  C   C242      1.0  0.02103  0.15501  0.66718  1.0000
  C  Sn52      1.0  0.99462  0.11546  0.61381  1.0000
  O  Te49      1.0  0.93506  0.09295  0.56282  1.0000
  O  Te50      1.0  0.97633  0.28204  0.77864  1.0000
  O  Te51      1.0  0.04218  0.24936  0.77512  1.0000
  O  Te52      1.0  0.00089  0.06025  0.55926  1.0000
  Mg  Mg25      1.0  0.02102  0.31959  0.83834  1.0000
  Mg  Mg26      1.0  0.95622  0.02269  0.49948  1.0000
  C  Sn53      1.0  0.03692  0.12932  0.37653  1.0000
  C   C243      1.0  0.04341  0.18283  0.32195  1.0000
  C  Sn54      1.0  0.01754  0.22203  0.26821  1.0000
  C  Sn55      1.0  0.98451  0.20747  0.26908  1.0000
  C   C244      1.0  0.97804  0.15400  0.32365  1.0000
  C  Sn56      1.0  0.00388  0.11477  0.37741  1.0000
  O  Te53      1.0  0.06315  0.09080  0.42971  1.0000
  O  Te54      1.0  0.02464  0.27524  0.21417  1.0000
  O  Te55      1.0  0.95827  0.24604  0.21584  1.0000
  O  Te56      1.0  0.99680  0.06159  0.43143  1.0000
  Mg  Mg27      1.0  0.98048  0.31321  0.15361  1.0000
  Mg  Mg28      1.0  0.04094  0.02361  0.49205  1.0000
  C  Sn57      1.0  0.49510  0.73622  0.72427  1.0000
  C   C245      1.0  0.46363  0.71959  0.66477  1.0000
  C  Sn58      1.0  0.45815  0.65863  0.61281  1.0000
  C  Sn59      1.0  0.48467  0.61331  0.62054  1.0000
  C   C246      1.0  0.51611  0.62994  0.68002  1.0000
  C  Sn60      1.0  0.52162  0.69091  0.73200  1.0000
  O  Te57      1.0  0.50001  0.79744  0.77556  1.0000
  O  Te58      1.0  0.42648  0.64312  0.55376  1.0000
  O  Te59      1.0  0.47974  0.55206  0.56918  1.0000
  O  Te60      1.0  0.55326  0.70642  0.79103  1.0000
  Mg  Mg29      1.0  0.43216  0.55361  0.49830  1.0000
  Mg  Mg30      1.0  0.54761  0.79590  0.84656  1.0000
  C  Sn61      1.0  0.51725  0.63928  0.41603  1.0000
  C   C247      1.0  0.48598  0.65080  0.35267  1.0000
  C  Sn62      1.0  0.48271  0.68679  0.26637  1.0000
  C  Sn63      1.0  0.51130  0.71176  0.24285  1.0000
  C   C248      1.0  0.54256  0.70023  0.30617  1.0000
  C  Sn64      1.0  0.54585  0.66425  0.39251  1.0000
  O  Te61      1.0  0.51994  0.60316  0.50191  1.0000
  O  Te62      1.0  0.45118  0.69769  0.20420  1.0000
  O  Te63      1.0  0.50860  0.74790  0.15688  1.0000
  O  Te64      1.0  0.57736  0.65334  0.45464  1.0000
  Mg  Mg31      1.0  0.46030  0.74971  0.09570  1.0000
  Mg  Mg32      1.0  0.56827  0.60129  0.56313  1.0000
