data_image0
_chemical_formula_structural       H160C216N16Cl16O16C2Sn2C2HTe2HMgC2Sn2C2HTe2HMgC2Sn2C2HTe2HMgC2Sn2C2HTe2HMgC2Sn2C2HTe2HMgC2Sn2C2HTe2HMgC2Sn2C2HTe2HMgC2Sn2C2HTe2HMgC2Sn2C2HTe2HMgC2Sn2C2HTe2HMgC2Sn2C2HTe2HMgC2Sn2C2HTe2HMgC2Sn2C2HTe2HMgC2Sn2C2HTe2HMgC2Sn2C2HTe2HMgC2Sn2C2HTe2HMg
_chemical_formula_sum              "H192 C280 N16 Cl16 O16 Sn32 Te32 Mg16"
_cell_length_a       41.9135
_cell_length_b       20.0399
_cell_length_c       14.0201
_cell_angle_alpha    91.1704
_cell_angle_beta     105.341
_cell_angle_gamma    89.9868

_symmetry_space_group_name_H-M    'P1'
_space_group_IT_number       1

loop_
  _space_group_symop_operation_xyz
  'x, y, z'

loop_
  _atom_site_type_symbol
  _atom_site_label
  _atom_site_symmetry_multiplicity
  _atom_site_fract_x
  _atom_site_fract_y
  _atom_site_fract_z
  _atom_site_occupancy
  H   H1        1.0  0.18597  0.34480  0.85120  1.0000
  H   H2        1.0  0.81398  0.34439  0.15201  1.0000
  H   H3        1.0  0.68666  0.84387  0.84834  1.0000
  H   H4        1.0  0.31500  0.84596  0.15571  1.0000
  H   H5        1.0  0.29503  0.45666  0.89220  1.0000
  H   H6        1.0  0.70571  0.45574  0.12302  1.0000
  H   H7        1.0  0.79381  0.95973  0.87486  1.0000
  H   H8        1.0  0.20689  0.95878  0.12394  1.0000
  H   H9        1.0  0.25706  0.49583  0.99108  1.0000
  H   H10       1.0  0.74333  0.49570  0.02537  1.0000
  H   H11       1.0  0.75614  0.00091  0.97332  1.0000
  H   H12       1.0  0.24495  0.99780  0.02739  1.0000
  H   H13       1.0  0.23916  0.22417  0.63503  1.0000
  H   H14       1.0  0.76046  0.22151  0.36031  1.0000
  H   H15       1.0  0.73987  0.71800  0.63702  1.0000
  H   H16       1.0  0.26085  0.72365  0.36137  1.0000
  H   H17       1.0  0.29745  0.26969  0.49358  1.0000
  H   H18       1.0  0.70284  0.26364  0.50608  1.0000
  H   H19       1.0  0.79713  0.75957  0.49016  1.0000
  H   H20       1.0  0.20301  0.76011  0.50547  1.0000
  H   H21       1.0  0.25797  0.25696  0.51273  1.0000
  H   H22       1.0  0.74207  0.25116  0.48429  1.0000
  H   H23       1.0  0.75811  0.74608  0.51215  1.0000
  H   H24       1.0  0.24167  0.74489  0.48197  1.0000
  H   H25       1.0  0.28053  0.15406  0.61425  1.0000
  H   H26       1.0  0.71626  0.15246  0.36647  1.0000
  H   H27       1.0  0.78221  0.64709  0.61961  1.0000
  H   H28       1.0  0.21325  0.65386  0.35379  1.0000
  H   H29       1.0  0.31966  0.16889  0.59242  1.0000
  H   H30       1.0  0.67926  0.16415  0.40345  1.0000
  H   H31       1.0  0.82134  0.66389  0.59910  1.0000
  H   H32       1.0  0.17596  0.66966  0.38734  1.0000
  H   H33       1.0  0.28511  0.14743  0.49164  1.0000
  H   H34       1.0  0.71625  0.14069  0.49202  1.0000
  H   H35       1.0  0.78784  0.63723  0.49845  1.0000
  H   H36       1.0  0.21072  0.63695  0.47594  1.0000
  H   H37       1.0  0.19454  0.19693  0.69202  1.0000
  H   H38       1.0  0.80533  0.19605  0.30450  1.0000
  H   H39       1.0  0.69541  0.69254  0.69567  1.0000
  H   H40       1.0  0.30545  0.69824  0.30985  1.0000
  H   H41       1.0  0.91956  0.26466  0.93388  1.0000
  H   H42       1.0  0.08094  0.26123  0.06446  1.0000
  H   H43       1.0  0.41913  0.75957  0.93566  1.0000
  H   H44       1.0  0.57942  0.76530  0.05712  1.0000
  H   H45       1.0  0.79840  0.27960  0.89728  1.0000
  H   H46       1.0  0.20221  0.27778  0.10361  1.0000
  H   H47       1.0  0.29848  0.78853  0.89683  1.0000
  H   H48       1.0  0.70085  0.78133  0.09803  1.0000
  H   H49       1.0  0.83787  0.27475  0.06380  1.0000
  H   H50       1.0  0.16289  0.27390  0.93658  1.0000
  H   H51       1.0  0.33751  0.78160  0.06379  1.0000
  H   H52       1.0  0.66160  0.78328  0.93097  1.0000
  H   H53       1.0  0.86915  0.27418  0.58299  1.0000
  H   H54       1.0  0.13043  0.27543  0.41573  1.0000
  H   H55       1.0  0.37011  0.77624  0.58467  1.0000
  H   H56       1.0  0.62906  0.76934  0.40886  1.0000
  H   H57       1.0  0.82854  0.32277  0.43881  1.0000
  H   H58       1.0  0.17173  0.32666  0.56466  1.0000
  H   H59       1.0  0.32954  0.82932  0.43943  1.0000
  H   H60       1.0  0.67180  0.81914  0.56264  1.0000
  H   H61       1.0  0.84479  0.37793  0.54093  1.0000
  H   H62       1.0  0.15589  0.37813  0.46116  1.0000
  H   H63       1.0  0.34505  0.88171  0.54534  1.0000
  H   H64       1.0  0.65485  0.87037  0.45976  1.0000
  H   H65       1.0  0.77411  0.38507  0.40478  1.0000
  H   H66       1.0  0.22574  0.38901  0.60318  1.0000
  H   H67       1.0  0.27483  0.89039  0.40637  1.0000
  H   H68       1.0  0.72601  0.88271  0.59211  1.0000
  H   H69       1.0  0.80710  0.43721  0.39375  1.0000
  H   H70       1.0  0.19268  0.44481  0.60153  1.0000
  H   H71       1.0  0.30800  0.94440  0.40256  1.0000
  H   H72       1.0  0.69307  0.93568  0.60201  1.0000
  H   H73       1.0  0.79219  0.44230  0.50224  1.0000
  H   H74       1.0  0.21030  0.43979  0.49853  1.0000
  H   H75       1.0  0.29199  0.94477  0.50881  1.0000
  H   H76       1.0  0.70735  0.93571  0.49272  1.0000
  H   H77       1.0  0.93235  0.22950  0.81410  1.0000
  H   H78       1.0  0.06815  0.22511  0.18144  1.0000
  H   H79       1.0  0.43181  0.72592  0.81608  1.0000
  H   H80       1.0  0.56603  0.72647  0.17484  1.0000
  H   H81       1.0  0.87170  0.05195  0.62589  1.0000
  H   H82       1.0  0.12888  0.05761  0.37592  1.0000
  H   H83       1.0  0.37270  0.55104  0.63247  1.0000
  H   H84       1.0  0.62880  0.55484  0.37524  1.0000
  H   H85       1.0  0.76332  0.95713  0.63989  1.0000
  H   H86       1.0  0.23715  0.96393  0.35766  1.0000
  H   H87       1.0  0.26410  0.45955  0.65027  1.0000
  H   H88       1.0  0.73687  0.45977  0.35737  1.0000
  H   H89       1.0  0.76572  0.05717  0.54151  1.0000
  H   H90       1.0  0.23490  0.06563  0.45869  1.0000
  H   H91       1.0  0.26677  0.55847  0.54995  1.0000
  H   H92       1.0  0.73480  0.56275  0.45585  1.0000
  H   H93       1.0  0.89849  0.86362  0.83990  1.0000
  H   H94       1.0  0.10199  0.86405  0.16026  1.0000
  H   H95       1.0  0.39906  0.36443  0.84887  1.0000
  H   H96       1.0  0.60140  0.36303  0.15579  1.0000
  H   H97       1.0  0.88555  0.82069  0.97587  1.0000
  H   H98       1.0  0.11364  0.81256  0.02636  1.0000
  H   H99       1.0  0.38845  0.32312  0.97922  1.0000
  H   H100      1.0  0.61319  0.31317  0.02289  1.0000
  H   H101      1.0  0.88622  0.76050  0.88132  1.0000
  H   H102      1.0  0.11440  0.75900  0.12662  1.0000
  H   H103      1.0  0.38489  0.25819  0.88815  1.0000
  H   H104      1.0  0.61424  0.25547  0.11853  1.0000
  H   H105      1.0  0.88237  0.70461  0.03703  1.0000
  H   H106      1.0  0.11759  0.69106  0.97707  1.0000
  H   H107      1.0  0.35009  0.26075  0.05718  1.0000
  H   H108      1.0  0.61725  0.19557  0.96114  1.0000
  H   H109      1.0  0.84620  0.68795  0.93956  1.0000
  H   H110      1.0  0.15516  0.68380  0.07186  1.0000
  H   H111      1.0  0.38477  0.21072  0.05211  1.0000
  H   H112      1.0  0.65429  0.18341  0.05618  1.0000
  H   H113      1.0  0.84495  0.74812  0.03319  1.0000
  H   H114      1.0  0.15339  0.73636  0.97000  1.0000
  H   H115      1.0  0.34569  0.19594  0.96616  1.0000
  H   H116      1.0  0.65366  0.24139  0.96154  1.0000
  H   H117      1.0  0.90984  0.98443  0.65809  1.0000
  H   H118      1.0  0.08973  0.99176  0.33751  1.0000
  H   H119      1.0  0.41012  0.48412  0.66483  1.0000
  H   H120      1.0  0.59018  0.48713  0.34005  1.0000
  H   H121      1.0  0.17467  0.70864  0.69182  1.0000
  H   H122      1.0  0.82498  0.70573  0.29682  1.0000
  H   H123      1.0  0.67444  0.20524  0.69193  1.0000
  H   H124      1.0  0.32557  0.20491  0.29839  1.0000
  H   H125      1.0  0.29427  0.67062  0.72153  1.0000
  H   H126      1.0  0.70627  0.66344  0.27651  1.0000
  H   H127      1.0  0.79381  0.16780  0.71706  1.0000
  H   H128      1.0  0.20682  0.16469  0.28025  1.0000
  H   H129      1.0  0.25707  0.57577  0.72716  1.0000
  H   H130      1.0  0.74425  0.56930  0.27230  1.0000
  H   H131      1.0  0.75651  0.07240  0.71858  1.0000
  H   H132      1.0  0.24421  0.07000  0.27405  1.0000
  H   H133      1.0  0.22224  0.92713  0.69261  1.0000
  H   H134      1.0  0.77582  0.92278  0.29620  1.0000
  H   H135      1.0  0.72269  0.42418  0.70821  1.0000
  H   H136      1.0  0.27767  0.42289  0.30091  1.0000
  H   H137      1.0  0.30205  0.00557  0.79050  1.0000
  H   H138      1.0  0.69640  0.00121  0.21981  1.0000
  H   H139      1.0  0.80215  0.50663  0.77661  1.0000
  H   H140      1.0  0.19809  0.50183  0.22693  1.0000
  H   H141      1.0  0.26289  0.97623  0.79704  1.0000
  H   H142      1.0  0.73447  0.97288  0.20234  1.0000
  H   H143      1.0  0.76451  0.47923  0.79775  1.0000
  H   H144      1.0  0.23660  0.47460  0.21078  1.0000
  H   H145      1.0  0.27999  0.03214  0.61253  1.0000
  H   H146      1.0  0.72107  0.02497  0.39694  1.0000
  H   H147      1.0  0.77553  0.51849  0.59686  1.0000
  H   H148      1.0  0.22223  0.52476  0.40505  1.0000
  H   H149      1.0  0.25486  0.07159  0.68115  1.0000
  H   H150      1.0  0.74854  0.05940  0.33341  1.0000
  H   H151      1.0  0.75276  0.56532  0.66553  1.0000
  H   H152      1.0  0.24860  0.56317  0.34139  1.0000
  H   H153      1.0  0.24079  0.99785  0.61003  1.0000
  H   H154      1.0  0.75810  0.98284  0.39495  1.0000
  H   H155      1.0  0.73727  0.48754  0.60997  1.0000
  H   H156      1.0  0.26022  0.48693  0.40212  1.0000
  H   H157      1.0  0.15836  0.80472  0.69491  1.0000
  H   H158      1.0  0.84059  0.80184  0.29546  1.0000
  H   H159      1.0  0.65869  0.30233  0.70522  1.0000
  H   H160      1.0  0.34244  0.30131  0.30534  1.0000
  C   C1        1.0  0.21961  0.42127  0.92689  1.0000
  C   C2        1.0  0.78050  0.42096  0.08284  1.0000
  C   C3        1.0  0.71951  0.92347  0.91656  1.0000
  C   C4        1.0  0.28185  0.92284  0.08557  1.0000
  C   C5        1.0  0.21002  0.36805  0.86143  1.0000
  C   C6        1.0  0.79008  0.36753  0.14444  1.0000
  C   C7        1.0  0.71030  0.86807  0.85524  1.0000
  C   C8        1.0  0.29112  0.86941  0.14732  1.0000
  C   C9        1.0  0.23125  0.34431  0.80465  1.0000
  C   C10       1.0  0.76896  0.34321  0.20026  1.0000
  C   C11       1.0  0.73135  0.84319  0.79858  1.0000
  C   C12       1.0  0.26976  0.84546  0.20254  1.0000
  C   C13       1.0  0.26254  0.37752  0.81563  1.0000
  C   C14       1.0  0.73789  0.37621  0.19251  1.0000
  C   C15       1.0  0.76215  0.87732  0.80569  1.0000
  C   C16       1.0  0.23870  0.87883  0.19450  1.0000
  C   C17       1.0  0.27125  0.43223  0.88397  1.0000
  C   C18       1.0  0.72931  0.43139  0.12864  1.0000
  C   C19       1.0  0.77045  0.93437  0.86969  1.0000
  C   C20       1.0  0.23042  0.93394  0.13024  1.0000
  C   C21       1.0  0.25033  0.45402  0.93904  1.0000
  C   C22       1.0  0.75003  0.45368  0.07433  1.0000
  C   C23       1.0  0.74968  0.95740  0.92446  1.0000
  C   C24       1.0  0.25140  0.95576  0.07636  1.0000
  C   C25       1.0  0.28389  0.35725  0.75704  1.0000
  C   C26       1.0  0.71649  0.35526  0.24963  1.0000
  C   C27       1.0  0.78349  0.85533  0.74794  1.0000
  C   C28       1.0  0.21713  0.85816  0.25147  1.0000
  C   C29       1.0  0.27495  0.30320  0.69060  1.0000
  C   C30       1.0  0.72511  0.30074  0.31164  1.0000
  C   C31       1.0  0.77501  0.79906  0.68575  1.0000
  C   C32       1.0  0.22576  0.80355  0.31366  1.0000
  C   C33       1.0  0.24557  0.26721  0.68504  1.0000
  C   C34       1.0  0.75429  0.26499  0.31394  1.0000
  C   C35       1.0  0.74603  0.76266  0.68372  1.0000
  C   C36       1.0  0.25477  0.76739  0.31551  1.0000
  C   C37       1.0  0.22333  0.28753  0.73824  1.0000
  C   C38       1.0  0.77658  0.28595  0.26215  1.0000
  C   C39       1.0  0.72385  0.78430  0.73637  1.0000
  C   C40       1.0  0.27723  0.78807  0.26424  1.0000
  C   C41       1.0  0.28452  0.24874  0.54458  1.0000
  C   C42       1.0  0.71538  0.24388  0.45227  1.0000
  C   C43       1.0  0.78484  0.73986  0.54360  1.0000
  C   C44       1.0  0.21483  0.74180  0.44916  1.0000
  C   C45       1.0  0.29292  0.17549  0.56222  1.0000
  C   C46       1.0  0.70621  0.17109  0.42656  1.0000
  C   C47       1.0  0.79456  0.66778  0.56690  1.0000
  C   C48       1.0  0.20304  0.67149  0.41413  1.0000
  C   C49       1.0  0.19264  0.24848  0.71872  1.0000
  C   C50       1.0  0.80707  0.24713  0.27862  1.0000
  C   C51       1.0  0.69341  0.74466  0.71987  1.0000
  C   C52       1.0  0.30761  0.74866  0.28209  1.0000
  C   C53       1.0  0.04938  0.10828  0.67730  1.0000
  C   C54       1.0  0.94927  0.10685  0.31093  1.0000
  C   C55       1.0  0.54968  0.60676  0.68099  1.0000
  C   C56       1.0  0.45009  0.60581  0.32025  1.0000
  C   C57       1.0  0.04965  0.03933  0.68034  1.0000
  C   C58       1.0  0.94859  0.03784  0.30665  1.0000
  C   C59       1.0  0.55019  0.53791  0.68493  1.0000
  C   C60       1.0  0.44977  0.53677  0.31704  1.0000
  C   C61       1.0  0.88086  0.27080  0.00592  1.0000
  C   C62       1.0  0.11978  0.26852  0.99346  1.0000
  C   C63       1.0  0.38044  0.77110  0.00671  1.0000
  C   C64       1.0  0.61838  0.77621  0.98713  1.0000
  C   C65       1.0  0.89300  0.26630  0.92365  1.0000
  C   C66       1.0  0.10753  0.26309  0.07514  1.0000
  C   C67       1.0  0.39265  0.76449  0.92481  1.0000
  C   C68       1.0  0.60602  0.76773  0.06809  1.0000
  C   C69       1.0  0.87107  0.26729  0.82747  1.0000
  C   C70       1.0  0.12934  0.26426  0.17157  1.0000
  C   C71       1.0  0.37100  0.76754  0.82837  1.0000
  C   C72       1.0  0.62781  0.76605  0.16453  1.0000
  C   C73       1.0  0.83621  0.27507  0.81769  1.0000
  C   C74       1.0  0.16426  0.27230  0.18248  1.0000
  C   C75       1.0  0.33628  0.77803  0.81799  1.0000
  C   C76       1.0  0.66279  0.77367  0.17605  1.0000
  C   C77       1.0  0.82479  0.27524  0.90467  1.0000
  C   C78       1.0  0.17580  0.27300  0.09572  1.0000
  C   C79       1.0  0.32472  0.78091  0.90467  1.0000
  C   C80       1.0  0.67439  0.77718  0.08963  1.0000
  C   C81       1.0  0.84655  0.27304  0.99735  1.0000
  C   C82       1.0  0.15412  0.27125  0.00270  1.0000
  C   C83       1.0  0.34624  0.77766  0.99758  1.0000
  C   C84       1.0  0.65275  0.77873  0.99671  1.0000
  C   C85       1.0  0.81410  0.28763  0.72349  1.0000
  C   C86       1.0  0.18630  0.28476  0.27787  1.0000
  C   C87       1.0  0.31443  0.79027  0.72326  1.0000
  C   C88       1.0  0.68497  0.78310  0.27194  1.0000
  C   C89       1.0  0.82704  0.29429  0.64200  1.0000
  C   C90       1.0  0.17312  0.29252  0.35914  1.0000
  C   C91       1.0  0.32767  0.79603  0.64219  1.0000
  C   C92       1.0  0.67195  0.78808  0.35376  1.0000
  C   C93       1.0  0.86022  0.27771  0.64901  1.0000
  C   C94       1.0  0.13967  0.27698  0.35025  1.0000
  C   C95       1.0  0.36089  0.77917  0.65026  1.0000
  C   C96       1.0  0.63840  0.77311  0.34378  1.0000
  C   C97       1.0  0.88225  0.26345  0.73922  1.0000
  C   C98       1.0  0.11788  0.26114  0.25927  1.0000
  C   C99       1.0  0.38248  0.76344  0.74060  1.0000
  C   C100      1.0  0.61640  0.76054  0.25198  1.0000
  C   C101      1.0  0.82193  0.35558  0.49405  1.0000
  C   C102      1.0  0.17856  0.35680  0.50860  1.0000
  C   C103      1.0  0.32248  0.85970  0.49642  1.0000
  C   C104      1.0  0.67791  0.84950  0.50567  1.0000
  C   C105      1.0  0.79742  0.40843  0.44594  1.0000
  C   C106      1.0  0.20333  0.41094  0.55563  1.0000
  C   C107      1.0  0.29784  0.91312  0.45105  1.0000
  C   C108      1.0  0.70256  0.90427  0.55060  1.0000
  C   C109      1.0  0.91572  0.24139  0.74183  1.0000
  C   C110      1.0  0.08444  0.23787  0.25470  1.0000
  C   C111      1.0  0.41576  0.73978  0.74390  1.0000
  C   C112      1.0  0.58284  0.73817  0.24778  1.0000
  C   C113      1.0  0.81919  0.05860  0.57763  1.0000
  C   C114      1.0  0.18144  0.06549  0.42387  1.0000
  C   C115      1.0  0.32021  0.55882  0.58507  1.0000
  C   C116      1.0  0.68134  0.56276  0.42190  1.0000
  C   C117      1.0  0.84840  0.02925  0.62814  1.0000
  C   C118      1.0  0.15217  0.03519  0.37271  1.0000
  C   C119      1.0  0.34931  0.52922  0.63574  1.0000
  C   C120      1.0  0.65202  0.53214  0.37186  1.0000
  C   C121      1.0  0.84782  0.97143  0.68478  1.0000
  C   C122      1.0  0.15265  0.97628  0.31482  1.0000
  C   C123      1.0  0.34857  0.47205  0.69347  1.0000
  C   C124      1.0  0.65239  0.47309  0.31411  1.0000
  C   C125      1.0  0.81646  0.94522  0.69076  1.0000
  C   C126      1.0  0.18402  0.94992  0.30831  1.0000
  C   C127      1.0  0.31718  0.44672  0.70061  1.0000
  C   C128      1.0  0.68367  0.44660  0.30742  1.0000
  C   C129      1.0  0.78709  0.97686  0.63620  1.0000
  C   C130      1.0  0.21340  0.98323  0.36250  1.0000
  C   C131      1.0  0.28792  0.47861  0.64593  1.0000
  C   C132      1.0  0.71315  0.47962  0.36164  1.0000
  C   C133      1.0  0.78824  0.03243  0.58093  1.0000
  C   C134      1.0  0.21237  0.03980  0.41913  1.0000
  C   C135      1.0  0.28921  0.53357  0.58956  1.0000
  C   C136      1.0  0.71221  0.53673  0.41721  1.0000
  C   C137      1.0  0.81518  0.88939  0.75063  1.0000
  C   C138      1.0  0.18535  0.89215  0.24872  1.0000
  C   C139      1.0  0.31576  0.39132  0.76130  1.0000
  C   C140      1.0  0.68479  0.38923  0.24688  1.0000
  C   C141      1.0  0.84467  0.86207  0.80751  1.0000
  C   C142      1.0  0.15577  0.86310  0.19243  1.0000
  C   C143      1.0  0.34524  0.36415  0.81856  1.0000
  C   C144      1.0  0.65524  0.36088  0.18921  1.0000
  C   C145      1.0  0.87539  0.88642  0.80026  1.0000
  C   C146      1.0  0.12512  0.88788  0.19979  1.0000
  C   C147      1.0  0.37597  0.38746  0.80970  1.0000
  C   C148      1.0  0.62462  0.38594  0.19662  1.0000
  C   C149      1.0  0.87731  0.93858  0.73806  1.0000
  C   C150      1.0  0.12315  0.94212  0.26134  1.0000
  C   C151      1.0  0.37796  0.43880  0.74627  1.0000
  C   C152      1.0  0.62283  0.43931  0.26006  1.0000
  C   C153      1.0  0.87106  0.78124  0.92783  1.0000
  C   C154      1.0  0.12885  0.77649  0.07682  1.0000
  C   C155      1.0  0.37210  0.28350  0.93776  1.0000
  C   C156      1.0  0.62855  0.27575  0.07021  1.0000
  C   C157      1.0  0.86042  0.72740  0.98783  1.0000
  C   C158      1.0  0.13944  0.71860  0.02071  1.0000
  C   C159      1.0  0.36246  0.23493  0.00720  1.0000
  C   C160      1.0  0.63914  0.22087  0.00885  1.0000
  C   C161      1.0  0.90959  0.95682  0.72477  1.0000
  C   C162      1.0  0.09062  0.96076  0.27274  1.0000
  C   C163      1.0  0.41010  0.45597  0.73121  1.0000
  C   C164      1.0  0.59052  0.45761  0.27344  1.0000
  C   C165      1.0  0.21378  0.63810  0.71043  1.0000
  C   C166      1.0  0.78675  0.63352  0.28434  1.0000
  C   C167      1.0  0.71336  0.13466  0.70569  1.0000
  C   C168      1.0  0.28694  0.13338  0.28527  1.0000
  C   C169      1.0  0.20094  0.70178  0.70010  1.0000
  C   C170      1.0  0.79893  0.69794  0.29140  1.0000
  C   C171      1.0  0.70069  0.19850  0.69955  1.0000
  C   C172      1.0  0.29953  0.19754  0.29362  1.0000
  C   C173      1.0  0.22191  0.75757  0.70109  1.0000
  C   C174      1.0  0.77758  0.75310  0.29087  1.0000
  C   C175      1.0  0.72184  0.25447  0.70383  1.0000
  C   C176      1.0  0.27856  0.25310  0.29466  1.0000
  C   C177      1.0  0.25654  0.74633  0.70914  1.0000
  C   C178      1.0  0.74319  0.74057  0.28517  1.0000
  C   C179      1.0  0.75634  0.24343  0.70995  1.0000
  C   C180      1.0  0.24413  0.24126  0.28899  1.0000
  C   C181      1.0  0.26829  0.67946  0.71668  1.0000
  C   C182      1.0  0.73209  0.67311  0.27982  1.0000
  C   C183      1.0  0.76792  0.17650  0.71361  1.0000
  C   C184      1.0  0.23261  0.17405  0.28283  1.0000
  C   C185      1.0  0.24763  0.62636  0.71905  1.0000
  C   C186      1.0  0.75314  0.62049  0.27809  1.0000
  C   C187      1.0  0.74718  0.12310  0.71348  1.0000
  C   C188      1.0  0.25333  0.12103  0.27987  1.0000
  C   C189      1.0  0.27855  0.80102  0.71183  1.0000
  C   C190      1.0  0.72081  0.79449  0.28276  1.0000
  C   C191      1.0  0.77832  0.29829  0.71372  1.0000
  C   C192      1.0  0.22213  0.29564  0.28827  1.0000
  C   C193      1.0  0.26629  0.86608  0.70889  1.0000
  C   C194      1.0  0.73238  0.86008  0.28396  1.0000
  C   C195      1.0  0.76624  0.36336  0.71422  1.0000
  C   C196      1.0  0.23407  0.36099  0.29015  1.0000
  C   C197      1.0  0.23241  0.87711  0.69780  1.0000
  C   C198      1.0  0.76604  0.87239  0.29255  1.0000
  C   C199      1.0  0.73267  0.37424  0.70804  1.0000
  C   C200      1.0  0.26769  0.37269  0.29771  1.0000
  C   C201      1.0  0.21011  0.82493  0.69307  1.0000
  C   C202      1.0  0.78872  0.82105  0.29700  1.0000
  C   C203      1.0  0.71030  0.32189  0.70087  1.0000
  C   C204      1.0  0.29013  0.32083  0.30238  1.0000
  C   C205      1.0  0.27897  0.98210  0.74732  1.0000
  C   C206      1.0  0.71956  0.97611  0.25592  1.0000
  C   C207      1.0  0.77874  0.48072  0.74234  1.0000
  C   C208      1.0  0.22142  0.47755  0.26368  1.0000
  C   C209      1.0  0.26268  0.02300  0.65745  1.0000
  C   C210      1.0  0.73779  0.01266  0.35085  1.0000
  C   C211      1.0  0.75992  0.51465  0.64818  1.0000
  C   C212      1.0  0.23910  0.51495  0.35850  1.0000
  C   C213      1.0  0.17538  0.84272  0.68109  1.0000
  C   C214      1.0  0.82324  0.84015  0.30745  1.0000
  C   C215      1.0  0.67567  0.33991  0.68995  1.0000
  C   C216      1.0  0.32488  0.33944  0.31658  1.0000
  N   N1        1.0  0.16444  0.27197  0.72445  1.0000
  N   N2        1.0  0.83504  0.27045  0.27104  1.0000
  N   N3        1.0  0.66526  0.76851  0.72516  1.0000
  N   N4        1.0  0.33579  0.77055  0.27407  1.0000
  N   N5        1.0  0.92490  0.23135  0.66164  1.0000
  N   N6        1.0  0.07504  0.22745  0.33390  1.0000
  N   N7        1.0  0.42535  0.73062  0.66425  1.0000
  N   N8        1.0  0.57415  0.72741  0.32805  1.0000
  N   N9        1.0  0.93701  0.94082  0.78718  1.0000
  N   N10       1.0  0.06365  0.94095  0.21015  1.0000
  N   N11       1.0  0.43766  0.43884  0.79183  1.0000
  N   N12       1.0  0.56320  0.43919  0.21110  1.0000
  N   N13       1.0  0.16565  0.90255  0.65507  1.0000
  N   N14       1.0  0.83248  0.90127  0.33083  1.0000
  N   N15       1.0  0.66614  0.39962  0.66255  1.0000
  N   N16       1.0  0.33416  0.40020  0.34292  1.0000
  Cl  Cl1       1.0  0.19335  0.44882  0.99746  1.0000
  Cl  Cl2       1.0  0.80653  0.44943  0.01336  1.0000
  Cl  Cl3       1.0  0.69343  0.95255  0.98681  1.0000
  Cl  Cl4       1.0  0.30808  0.95072  0.01633  1.0000
  Cl  Cl5       1.0  0.90817  0.27725  0.12312  1.0000
  Cl  Cl6       1.0  0.09265  0.27603  0.87661  1.0000
  Cl  Cl7       1.0  0.40756  0.77462  0.12440  1.0000
  Cl  Cl8       1.0  0.59138  0.78721  0.87078  1.0000
  Cl  Cl9       1.0  0.82001  0.13001  0.50881  1.0000
  Cl  Cl10      1.0  0.18067  0.13779  0.49491  1.0000
  Cl  Cl11      1.0  0.32132  0.62913  0.51436  1.0000
  Cl  Cl12      1.0  0.68080  0.63599  0.49127  1.0000
  Cl  Cl13      1.0  0.18806  0.57012  0.71359  1.0000
  Cl  Cl14      1.0  0.81299  0.56605  0.28293  1.0000
  Cl  Cl15      1.0  0.68747  0.06621  0.70421  1.0000
  Cl  Cl16      1.0  0.31272  0.06549  0.28113  1.0000
  O   O1        1.0  0.29613  0.28925  0.63413  1.0000
  O   O2        1.0  0.70393  0.28616  0.36721  1.0000
  O   O3        1.0  0.79630  0.78320  0.63023  1.0000
  O   O4        1.0  0.20480  0.78939  0.37020  1.0000
  O   O5        1.0  0.80630  0.31622  0.55587  1.0000
  O   O6        1.0  0.19377  0.31374  0.44752  1.0000
  O   O7        1.0  0.30709  0.81682  0.55500  1.0000
  O   O8        1.0  0.69275  0.80677  0.44329  1.0000
  O   O9        1.0  0.84135  0.80992  0.86554  1.0000
  O   O10       1.0  0.15877  0.80926  0.13419  1.0000
  O   O11       1.0  0.34206  0.31324  0.87894  1.0000
  O   O12       1.0  0.65841  0.30734  0.13029  1.0000
  O   O13       1.0  0.28897  0.91670  0.72000  1.0000
  O   O14       1.0  0.70923  0.90952  0.27364  1.0000
  O   O15       1.0  0.78886  0.41375  0.72302  1.0000
  O   O16       1.0  0.21128  0.41082  0.28191  1.0000
  C   C217      1.0  0.11949  0.13082  0.75513  1.0000
  C   C218      1.0  0.08674  0.14458  0.70486  1.0000
  C  Sn1       1.0  0.07911  0.20249  0.64975  1.0000
  C  Sn2       1.0  0.10480  0.24736  0.64498  1.0000
  C   C219      1.0  0.13749  0.23311  0.69547  1.0000
  C   C220      1.0  0.14484  0.17503  0.75044  1.0000
  H   H161      1.0  0.12518  0.08587  0.79761  1.0000
  O  Te1       1.0  0.04625  0.21549  0.60000  1.0000
  O  Te2       1.0  0.09787  0.30559  0.59040  1.0000
  H   H162      1.0  0.17021  0.16437  0.78930  1.0000
  Mg  Mg1       1.0  0.04925  0.30139  0.53541  1.0000
  C   C221      1.0  0.91743  0.22540  0.36139  1.0000
  C   C222      1.0  0.91996  0.16134  0.32288  1.0000
  C  Sn3       1.0  0.89252  0.13103  0.25747  1.0000
  C  Sn4       1.0  0.86202  0.16563  0.23022  1.0000
  C   C223      1.0  0.85975  0.22972  0.26910  1.0000
  C   C224      1.0  0.88735  0.25957  0.33452  1.0000
  H   H163      1.0  0.93879  0.24852  0.41197  1.0000
  O  Te3       1.0  0.89548  0.06699  0.21971  1.0000
  O  Te4       1.0  0.83421  0.13652  0.16495  1.0000
  H   H164      1.0  0.88539  0.30919  0.36428  1.0000
  Mg  Mg2       1.0  0.85059  0.04833  0.13328  1.0000
  C   C225      1.0  0.61931  0.63110  0.76452  1.0000
  C   C226      1.0  0.58688  0.64393  0.71028  1.0000
  C  Sn5       1.0  0.57995  0.69955  0.64988  1.0000
  C  Sn6       1.0  0.60603  0.74302  0.64380  1.0000
  C   C227      1.0  0.63839  0.72972  0.69830  1.0000
  C   C228      1.0  0.64505  0.67393  0.75854  1.0000
  H   H165      1.0  0.62447  0.58792  0.81109  1.0000
  O  Te5       1.0  0.54741  0.71165  0.59621  1.0000
  O  Te6       1.0  0.59980  0.79895  0.58398  1.0000
  H   H166      1.0  0.67016  0.66399  0.80048  1.0000
  Mg  Mg3       1.0  0.55137  0.79432  0.52504  1.0000
  C   C229      1.0  0.37997  0.62714  0.24358  1.0000
  C   C230      1.0  0.41284  0.64202  0.29298  1.0000
  C  Sn7       1.0  0.42079  0.70167  0.34746  1.0000
  C  Sn8       1.0  0.39531  0.74718  0.35246  1.0000
  C   C231      1.0  0.36251  0.73181  0.30284  1.0000
  C   C232      1.0  0.35483  0.67198  0.24851  1.0000
  H   H167      1.0  0.37402  0.58084  0.20159  1.0000
  O  Te7       1.0  0.45375  0.71576  0.39634  1.0000
  O  Te8       1.0  0.40257  0.80715  0.40641  1.0000
  H   H168      1.0  0.32938  0.66046  0.21032  1.0000
  Mg  Mg4       1.0  0.45123  0.80393  0.46032  1.0000
  C   C233      1.0  0.09351  0.92819  0.73396  1.0000
  C   C234      1.0  0.07934  0.98415  0.68154  1.0000
  C  Sn9       1.0  0.09275  0.01016  0.60860  1.0000
  C  Sn10      1.0  0.12065  0.97946  0.58790  1.0000
  C   C235      1.0  0.13463  0.92347  0.64071  1.0000
  C   C236      1.0  0.12113  0.89786  0.71357  1.0000
  H   H169      1.0  0.08306  0.90835  0.79030  1.0000
  O  Te9       1.0  0.07830  0.06612  0.55695  1.0000
  O  Te10      1.0  0.13443  0.00441  0.51536  1.0000
  H   H170      1.0  0.13209  0.85451  0.75410  1.0000
  Mg  Mg5       1.0  0.10604  0.08167  0.46496  1.0000
  C   C237      1.0  0.88208  0.99331  0.40737  1.0000
  C   C238      1.0  0.86531  0.94191  0.34529  1.0000
  C  Sn11      1.0  0.87840  0.91445  0.27148  1.0000
  C  Sn12      1.0  0.90886  0.93900  0.25979  1.0000
  C   C239      1.0  0.92546  0.99041  0.32232  1.0000
  C   C240      1.0  0.91224  0.01754  0.39592  1.0000
  H   H171      1.0  0.87189  0.01428  0.46436  1.0000
  O  Te11      1.0  0.86131  0.86314  0.21007  1.0000
  O  Te12      1.0  0.92251  0.91245  0.18665  1.0000
  H   H172      1.0  0.92525  0.05731  0.44402  1.0000
  Mg  Mg6       1.0  0.88994  0.84315  0.12118  1.0000
  C   C241      1.0  0.59381  0.42633  0.73990  1.0000
  C   C242      1.0  0.58013  0.48296  0.68834  1.0000
  C  Sn13      1.0  0.59398  0.50945  0.61689  1.0000
  C  Sn14      1.0  0.62204  0.47857  0.59682  1.0000
  C   C243      1.0  0.63553  0.42191  0.64876  1.0000
  C   C244      1.0  0.62148  0.39582  0.72013  1.0000
  H   H173      1.0  0.58293  0.40612  0.79508  1.0000
  O  Te13      1.0  0.58000  0.56607  0.56608  1.0000
  O  Te14      1.0  0.63637  0.50399  0.52576  1.0000
  H   H174      1.0  0.63207  0.35195  0.75999  1.0000
  Mg  Mg7       1.0  0.60839  0.58209  0.47606  1.0000
  C   C245      1.0  0.38408  0.49196  0.42106  1.0000
  C   C246      1.0  0.36716  0.44058  0.35924  1.0000
  C  Sn15      1.0  0.38007  0.41297  0.28514  1.0000
  C  Sn16      1.0  0.41049  0.43734  0.27290  1.0000
  C   C247      1.0  0.42724  0.48872  0.33518  1.0000
  C   C248      1.0  0.41409  0.51600  0.40907  1.0000
  H   H175      1.0  0.37392  0.51304  0.47827  1.0000
  O  Te15      1.0  0.36284  0.36169  0.22399  1.0000
  O  Te16      1.0  0.42396  0.41063  0.19946  1.0000
  H   H176      1.0  0.42721  0.55575  0.45697  1.0000
  Mg  Mg8       1.0  0.39123  0.34145  0.13453  1.0000
  C   C249      1.0  0.99378  0.94743  0.64309  1.0000
  C   C250      1.0  0.01790  0.99276  0.69431  1.0000
  C  Sn17      1.0  0.01704  0.01820  0.78703  1.0000
  C  Sn18      1.0  0.99131  0.99777  0.82906  1.0000
  C   C251      1.0  0.96730  0.95236  0.77725  1.0000
  C   C252      1.0  0.96850  0.92723  0.68451  1.0000
  H   H177      1.0  0.99471  0.92796  0.57136  1.0000
  O  Te17      1.0  0.04133  0.06347  0.83719  1.0000
  O  Te18      1.0  0.98986  0.02239  0.92162  1.0000
  H   H178      1.0  0.94983  0.89210  0.64489  1.0000
  Mg  Mg9       1.0  0.02863  0.08302  0.96123  1.0000
  C   C253      1.0  0.00251  0.00392  0.15500  1.0000
  C   C254      1.0  0.02804  0.96531  0.21136  1.0000
  C  Sn19      1.0  0.02642  0.94183  0.30312  1.0000
  C  Sn20      1.0  0.99858  0.95736  0.33891  1.0000
  C   C255      1.0  0.97305  0.99598  0.28193  1.0000
  C   C256      1.0  0.97504  0.01924  0.19023  1.0000
  H   H179      1.0  0.00395  0.02188  0.08402  1.0000
  O  Te19      1.0  0.05225  0.90333  0.35849  1.0000
  O  Te20      1.0  0.99632  0.93451  0.43035  1.0000
  H   H180      1.0  0.95518  0.04909  0.14658  1.0000
  Mg  Mg10      1.0  0.03781  0.88376  0.47862  1.0000
  C   C257      1.0  0.49374  0.44729  0.64541  1.0000
  C   C258      1.0  0.51820  0.49157  0.69775  1.0000
  C  Sn21      1.0  0.51752  0.51588  0.79129  1.0000
  C  Sn22      1.0  0.49184  0.49537  0.83303  1.0000
  C   C259      1.0  0.46749  0.45101  0.78011  1.0000
  C   C260      1.0  0.46841  0.42702  0.68654  1.0000
  H   H181      1.0  0.49446  0.42870  0.57304  1.0000
  O  Te21      1.0  0.54215  0.56011  0.84256  1.0000
  O  Te22      1.0  0.49057  0.51887  0.92641  1.0000
  H   H182      1.0  0.44948  0.39270  0.64606  1.0000
  Mg  Mg11      1.0  0.52974  0.57834  0.96742  1.0000
  C   C261      1.0  0.50167  0.50107  0.15961  1.0000
  C   C262      1.0  0.52771  0.46299  0.21503  1.0000
  C  Sn23      1.0  0.52709  0.44066  0.30827  1.0000
  C  Sn24      1.0  0.49985  0.45681  0.34654  1.0000
  C   C263      1.0  0.47390  0.49489  0.29049  1.0000
  C   C264      1.0  0.47478  0.51700  0.19728  1.0000
  H   H183      1.0  0.50234  0.51815  0.08747  1.0000
  O  Te23      1.0  0.55333  0.40268  0.36268  1.0000
  O  Te24      1.0  0.49859  0.43510  0.43950  1.0000
  H   H184      1.0  0.45460  0.54644  0.15436  1.0000
  Mg  Mg12      1.0  0.54029  0.38469  0.48561  1.0000
  C   C265      1.0  0.01158  0.21263  0.74460  1.0000
  C   C266      1.0  0.01790  0.15707  0.69069  1.0000
  C  Sn25      1.0  0.99236  0.12722  0.61744  1.0000
  C  Sn26      1.0  0.95991  0.15362  0.59794  1.0000
  C   C267      1.0  0.95384  0.20925  0.65223  1.0000
  C   C268      1.0  0.97958  0.23871  0.72539  1.0000
  H   H185      1.0  0.03149  0.23545  0.80116  1.0000
  O  Te25      1.0  0.99911  0.07172  0.56430  1.0000
  O  Te26      1.0  0.93393  0.12478  0.52512  1.0000
  H   H186      1.0  0.97468  0.28176  0.76707  1.0000
  Mg  Mg13      1.0  0.95549  0.04988  0.47249  1.0000
  C   C269      1.0  0.00526  0.22191  0.24484  1.0000
  C   C270      1.0  0.03609  0.21131  0.31126  1.0000
  C  Sn27      1.0  0.03985  0.16186  0.38214  1.0000
  C  Sn28      1.0  0.01220  0.12235  0.38642  1.0000
  C   C271      1.0  0.98147  0.13331  0.31960  1.0000
  C   C272      1.0  0.97798  0.18294  0.24899  1.0000
  H   H187      1.0  0.00256  0.26029  0.19017  1.0000
  O  Te27      1.0  0.07082  0.15195  0.44796  1.0000
  O  Te28      1.0  0.01527  0.07256  0.45650  1.0000
  H   H188      1.0  0.95411  0.19111  0.19753  1.0000
  Mg  Mg14      1.0  0.06256  0.07804  0.53017  1.0000
  C   C273      1.0  0.47942  0.62230  0.59583  1.0000
  C   C274      1.0  0.51111  0.63750  0.65501  1.0000
  C  Sn29      1.0  0.51572  0.68852  0.72684  1.0000
  C  Sn30      1.0  0.48804  0.72490  0.73951  1.0000
  C   C275      1.0  0.45642  0.70928  0.67998  1.0000
  C   C276      1.0  0.45209  0.65814  0.60830  1.0000
  H   H189      1.0  0.47606  0.58271  0.54041  1.0000
  O  Te29      1.0  0.54757  0.70306  0.78531  1.0000
  O  Te30      1.0  0.49194  0.77612  0.81077  1.0000
  H   H190      1.0  0.42754  0.64636  0.56254  1.0000
  Mg  Mg15      1.0  0.54025  0.77732  0.87241  1.0000
  C   C277      1.0  0.48738  0.70762  0.25074  1.0000
  C   C278      1.0  0.48144  0.65357  0.30520  1.0000
  C  Sn31      1.0  0.50738  0.62532  0.37662  1.0000
  C  Sn32      1.0  0.53984  0.65179  0.39368  1.0000
  C   C279      1.0  0.54553  0.70591  0.33885  1.0000
  C   C280      1.0  0.51939  0.73378  0.26755  1.0000
  H   H191      1.0  0.46716  0.72921  0.19561  1.0000
  O  Te31      1.0  0.50101  0.57132  0.43034  1.0000
  O  Te32      1.0  0.56622  0.62453  0.46463  1.0000
  H   H192      1.0  0.52400  0.77566  0.22544  1.0000
  Mg  Mg16      1.0  0.54509  0.55131  0.51896  1.0000
