data_image0
_chemical_formula_structural       H48C72N12C2Sn2C2HTe2HMgC2Sn2C2HTe2HMgC2Sn2C2HTe2HMgC2Sn2C2HTe2HMgC2Sn2C2HTe2HMgC2Sn2C2HTe2HMg
_chemical_formula_sum              "H60 C96 N12 Sn12 Te12 Mg6"
_cell_length_a       30.0706
_cell_length_b       29.9029
_cell_length_c       7.23626
_cell_angle_alpha    107.081
_cell_angle_beta     110.281
_cell_angle_gamma    119.556

_symmetry_space_group_name_H-M    'P1'
_space_group_IT_number       1

loop_
  _space_group_symop_operation_xyz
  'x, y, z'

loop_
  _atom_site_type_symbol
  _atom_site_label
  _atom_site_symmetry_multiplicity
  _atom_site_fract_x
  _atom_site_fract_y
  _atom_site_fract_z
  _atom_site_occupancy
  H   H1        1.0  0.67781  0.21479  0.24450  1.0000
  H   H2        1.0  0.78150  0.46101  0.27400  1.0000
  H   H3        1.0  0.53106  0.31213  0.20915  1.0000
  H   H4        1.0  0.32630  0.78864  0.78768  1.0000
  H   H5        1.0  0.21672  0.53645  0.71330  1.0000
  H   H6        1.0  0.46024  0.68167  0.73558  1.0000
  H   H7        1.0  0.32634  0.87126  0.88402  1.0000
  H   H8        1.0  0.10659  0.73401  0.63915  1.0000
  H   H9        1.0  0.27370  0.91348  0.89428  1.0000
  H   H10       1.0  0.16031  0.69351  0.63998  1.0000
  H   H11       1.0  0.66647  0.44186  0.21987  1.0000
  H   H12       1.0  0.55804  0.23099  0.30077  1.0000
  H   H13       1.0  0.77741  0.32908  0.28435  1.0000
  H   H14       1.0  0.32381  0.54812  0.70396  1.0000
  H   H15       1.0  0.45656  0.78586  0.80240  1.0000
  H   H16       1.0  0.22218  0.67209  0.72634  1.0000
  H   H17       1.0  0.97813  0.10141  0.19337  1.0000
  H   H18       1.0  0.88971  0.87172  0.26107  1.0000
  H   H19       1.0  0.13042  0.01105  0.26927  1.0000
  H   H20       1.0  0.01323  0.88994  0.76916  1.0000
  H   H21       1.0  0.12023  0.13472  0.80163  1.0000
  H   H22       1.0  0.86378  0.98263  0.70166  1.0000
  H   H23       1.0  0.95094  0.15860  0.10984  1.0000
  H   H24       1.0  0.83574  0.80452  0.34142  1.0000
  H   H25       1.0  0.20676  0.01795  0.22331  1.0000
  H   H26       1.0  0.04036  0.83084  0.84754  1.0000
  H   H27       1.0  0.19280  0.21783  0.80250  1.0000
  H   H28       1.0  0.81100  0.09812  0.36841  1.0000
  H   H29       1.0  0.90666  0.69043  0.15670  1.0000
  H   H30       1.0  0.29557  0.21945  0.30684  1.0000
  H   H31       1.0  0.19572  0.91047  0.66187  1.0000
  H   H32       1.0  0.06141  0.27407  0.63700  1.0000
  H   H33       1.0  0.89793  0.20082  0.11336  1.0000
  H   H34       1.0  0.80109  0.71509  0.37673  1.0000
  H   H35       1.0  0.29374  0.06846  0.18658  1.0000
  H   H36       1.0  0.10050  0.79656  0.86897  1.0000
  H   H37       1.0  0.22565  0.30225  0.74386  1.0000
  H   H38       1.0  0.86076  0.05360  0.35412  1.0000
  H   H39       1.0  0.94667  0.78285  0.14426  1.0000
  H   H40       1.0  0.20754  0.16783  0.33882  1.0000
  H   H41       1.0  0.13880  0.94746  0.65466  1.0000
  H   H42       1.0  0.03128  0.19292  0.71146  1.0000
  H   H43       1.0  0.97933  0.86782  0.15337  1.0000
  H   H44       1.0  0.12450  0.11383  0.32044  1.0000
  H   H45       1.0  0.90314  0.01422  0.31527  1.0000
  H   H46       1.0  0.01654  0.12849  0.81982  1.0000
  H   H47       1.0  0.88083  0.89056  0.72519  1.0000
  H   H48       1.0  0.10076  0.98897  0.71428  1.0000
  C   C1        1.0  0.72083  0.24460  0.25972  1.0000
  C   C2        1.0  0.75146  0.47224  0.25383  1.0000
  C   C3        1.0  0.52255  0.27639  0.24263  1.0000
  C   C4        1.0  0.28210  0.75812  0.76570  1.0000
  C   C5        1.0  0.24303  0.52155  0.70441  1.0000
  C   C6        1.0  0.47791  0.72666  0.76555  1.0000
  C   C7        1.0  0.73616  0.29686  0.27319  1.0000
  C   C8        1.0  0.69877  0.43381  0.23702  1.0000
  C   C9        1.0  0.56317  0.26649  0.27248  1.0000
  C   C10       1.0  0.26474  0.70453  0.74335  1.0000
  C   C11       1.0  0.29400  0.55843  0.70905  1.0000
  C   C12       1.0  0.44345  0.74258  0.77931  1.0000
  C   C13       1.0  0.24808  0.77978  0.76501  1.0000
  C   C14       1.0  0.18568  0.74190  0.69858  1.0000
  C   C15       1.0  0.15549  0.76504  0.70000  1.0000
  C   C16       1.0  0.18587  0.82705  0.76875  1.0000
  C   C17       1.0  0.24816  0.86499  0.83535  1.0000
  C   C18       1.0  0.27813  0.84153  0.83164  1.0000
  C   C19       1.0  0.69884  0.31471  0.26861  1.0000
  C   C20       1.0  0.68208  0.38036  0.24873  1.0000
  C   C21       1.0  0.61665  0.30080  0.26297  1.0000
  C   C22       1.0  0.30142  0.68581  0.74350  1.0000
  C   C23       1.0  0.31434  0.61585  0.72530  1.0000
  C   C24       1.0  0.38617  0.70317  0.76071  1.0000
  C   C25       1.0  0.94445  0.08118  0.23479  1.0000
  C   C26       1.0  0.91086  0.85284  0.22166  1.0000
  C   C27       1.0  0.14652  0.05507  0.29056  1.0000
  C   C28       1.0  0.05074  0.91372  0.74810  1.0000
  C   C29       1.0  0.09345  0.14943  0.80267  1.0000
  C   C30       1.0  0.85271  0.94374  0.71599  1.0000
  C   C31       1.0  0.93743  0.03818  0.28141  1.0000
  C   C32       1.0  0.95508  0.88325  0.18639  1.0000
  C   C33       1.0  0.11225  0.07130  0.30342  1.0000
  C   C34       1.0  0.06311  0.96183  0.72978  1.0000
  C   C35       1.0  0.04448  0.11580  0.81279  1.0000
  C   C36       1.0  0.88953  0.92990  0.71987  1.0000
  C   C37       1.0  0.91064  0.10315  0.23288  1.0000
  C   C38       1.0  0.89218  0.79964  0.23315  1.0000
  C   C39       1.0  0.20027  0.08889  0.28419  1.0000
  C   C40       1.0  0.08498  0.89235  0.75043  1.0000
  C   C41       1.0  0.11094  0.20001  0.77181  1.0000
  C   C42       1.0  0.86951  0.08584  0.30110  1.0000
  C   C43       1.0  0.91348  0.76774  0.18980  1.0000
  C   C44       1.0  0.22643  0.14595  0.30509  1.0000
  C   C45       1.0  0.13001  0.91418  0.70128  1.0000
  C   C46       1.0  0.07452  0.21735  0.72313  1.0000
  C   C47       1.0  0.84035  0.11010  0.30541  1.0000
  C   C48       1.0  0.89237  0.71642  0.20274  1.0000
  C   C49       1.0  0.27600  0.17495  0.28562  1.0000
  C   C50       1.0  0.16283  0.89378  0.70802  1.0000
  C   C51       1.0  0.09224  0.26410  0.68296  1.0000
  C   C52       1.0  0.84976  0.15227  0.23932  1.0000
  C   C53       1.0  0.85019  0.69536  0.26517  1.0000
  C   C54       1.0  0.30227  0.14828  0.24454  1.0000
  C   C55       1.0  0.15251  0.85018  0.76589  1.0000
  C   C56       1.0  0.14789  0.29790  0.69556  1.0000
  C   C57       1.0  0.89043  0.16921  0.16921  1.0000
  C   C58       1.0  0.83154  0.72914  0.31969  1.0000
  C   C59       1.0  0.27586  0.09124  0.22307  1.0000
  C   C60       1.0  0.10803  0.82876  0.81735  1.0000
  C   C61       1.0  0.18302  0.27902  0.73690  1.0000
  C   C62       1.0  0.92013  0.14529  0.16653  1.0000
  C   C63       1.0  0.85138  0.77955  0.30165  1.0000
  C   C64       1.0  0.22645  0.06233  0.24304  1.0000
  C   C65       1.0  0.07466  0.84872  0.80821  1.0000
  C   C66       1.0  0.16472  0.23134  0.77193  1.0000
  C   C67       1.0  0.97148  0.01700  0.27071  1.0000
  C   C68       1.0  0.97908  0.94277  0.22088  1.0000
  C   C69       1.0  0.05418  0.03189  0.27802  1.0000
  C   C70       1.0  0.02909  0.98292  0.74271  1.0000
  C   C71       1.0  0.02140  0.05708  0.78796  1.0000
  C   C72       1.0  0.94617  0.96806  0.73356  1.0000
  N   N1        1.0  0.64841  0.28071  0.27062  1.0000
  N   N2        1.0  0.71862  0.36559  0.26350  1.0000
  N   N3        1.0  0.63061  0.34932  0.24647  1.0000
  N   N4        1.0  0.35507  0.72367  0.76421  1.0000
  N   N5        1.0  0.27883  0.63152  0.72268  1.0000
  N   N6        1.0  0.36795  0.64967  0.74244  1.0000
  N   N7        1.0  0.02435  0.05349  0.28671  1.0000
  N   N8        1.0  0.94753  0.96194  0.24277  1.0000
  N   N9        1.0  0.03305  0.97606  0.24090  1.0000
  N   N10       1.0  0.97544  0.94586  0.72245  1.0000
  N   N11       1.0  0.05412  0.03874  0.77555  1.0000
  N   N12       1.0  0.96696  0.02323  0.76491  1.0000
  C   C73       1.0  0.60333  0.75432  0.74299  1.0000
  C   C74       1.0  0.63689  0.81170  0.77062  1.0000
  C  Sn1       1.0  0.62099  0.84819  0.82059  1.0000
  C  Sn2       1.0  0.57056  0.82671  0.84327  1.0000
  C   C75       1.0  0.53731  0.76926  0.81548  1.0000
  C   C76       1.0  0.55359  0.73312  0.76543  1.0000
  H   H49       1.0  0.61595  0.72637  0.70439  1.0000
  O  Te1       1.0  0.65499  0.90540  0.84757  1.0000
  O  Te2       1.0  0.55369  0.86225  0.89324  1.0000
  H   H50       1.0  0.52763  0.68871  0.74420  1.0000
  Mg  Mg1       1.0  0.61416  0.93700  0.91446  1.0000
  C   C77       1.0  0.14282  0.39242  0.70130  1.0000
  C   C78       1.0  0.16024  0.35674  0.67232  1.0000
  C  Sn3       1.0  0.21147  0.37664  0.66042  1.0000
  C  Sn4       1.0  0.24581  0.43335  0.67798  1.0000
  C   C79       1.0  0.22804  0.46874  0.70711  1.0000
  C   C80       1.0  0.17669  0.44837  0.71872  1.0000
  H   H51       1.0  0.10312  0.37668  0.71042  1.0000
  O  Te3       1.0  0.22822  0.34041  0.63134  1.0000
  O  Te4       1.0  0.29722  0.45436  0.66673  1.0000
  H   H52       1.0  0.16324  0.47603  0.74132  1.0000
  Mg  Mg2       1.0  0.30180  0.38865  0.62585  1.0000
  C   C81       1.0  0.74598  0.13973  0.21107  1.0000
  C   C82       1.0  0.80100  0.16526  0.22209  1.0000
  C  Sn5       1.0  0.83698  0.22466  0.26707  1.0000
  C  Sn6       1.0  0.81742  0.25904  0.30165  1.0000
  C   C83       1.0  0.76233  0.23310  0.29044  1.0000
  C   C84       1.0  0.72666  0.17361  0.24525  1.0000
  H   H53       1.0  0.71840  0.09372  0.17623  1.0000
  O  Te5       1.0  0.89181  0.24946  0.27740  1.0000
  O  Te6       1.0  0.85251  0.31852  0.34697  1.0000
  H   H54       1.0  0.68409  0.15388  0.23688  1.0000
  Mg  Mg3       1.0  0.92371  0.33231  0.34404  1.0000
  C   C85       1.0  0.71983  0.90965  0.68954  1.0000
  C   C86       1.0  0.69942  0.86642  0.74851  1.0000
  C  Sn7       1.0  0.73428  0.84921  0.82175  1.0000
  C  Sn8       1.0  0.79061  0.87586  0.83611  1.0000
  C   C87       1.0  0.81066  0.91911  0.77689  1.0000
  C   C88       1.0  0.77541  0.93598  0.70374  1.0000
  H   H55       1.0  0.69258  0.92273  0.63306  1.0000
  O  Te7       1.0  0.71319  0.80593  0.87993  1.0000
  O  Te8       1.0  0.82638  0.85951  0.90887  1.0000
  H   H56       1.0  0.79125  0.96949  0.65824  1.0000
  Mg  Mg4       1.0  0.77819  0.79852  0.96942  1.0000
  C   C89       1.0  0.38089  0.23333  0.15832  1.0000
  C   C90       1.0  0.35697  0.18710  0.20137  1.0000
  C  Sn9       1.0  0.39176  0.17052  0.28438  1.0000
  C  Sn10      1.0  0.45159  0.20088  0.32495  1.0000
  C   C91       1.0  0.47512  0.24710  0.28150  1.0000
  C   C92       1.0  0.43991  0.26332  0.19837  1.0000
  H   H57       1.0  0.35366  0.24591  0.09412  1.0000
  O  Te9       1.0  0.36715  0.12421  0.32639  1.0000
  O  Te10      1.0  0.48736  0.18523  0.40797  1.0000
  H   H58       1.0  0.45845  0.29914  0.16521  1.0000
  Mg  Mg5       1.0  0.43365  0.11919  0.43882  1.0000
  C   C93       1.0  0.84786  0.57968  0.31563  1.0000
  C   C94       1.0  0.78993  0.53788  0.27383  1.0000
  C  Sn11      1.0  0.74635  0.54612  0.21606  1.0000
  C  Sn12      1.0  0.76116  0.59718  0.19990  1.0000
  C   C95       1.0  0.81923  0.63871  0.24188  1.0000
  C   C96       1.0  0.86251  0.63004  0.29965  1.0000
  H   H59       1.0  0.88134  0.57296  0.36020  1.0000
  O  Te11      1.0  0.68870  0.50393  0.17493  1.0000
  O  Te12      1.0  0.71846  0.60649  0.14238  1.0000
  H   H60       1.0  0.90734  0.66239  0.33185  1.0000
  Mg  Mg6       1.0  0.64604  0.53638  0.10215  1.0000
