data_image0
_chemical_formula_structural       H24C36N12SnCSn2CSnTe4Mg2SnCSn2CSnTe4Mg2SnCSn2CSnTe4Mg2SnCSn2CSnTe4Mg2SnCSn2CSnTe4Mg2SnCSn2CSnTe4Mg2SnCSn2CSnTe4Mg2SnCSn2CSnTe4Mg2SnCSn2CSnTe4Mg2SnCSn2CSnTe4Mg2SnCSn2CSnTe4Mg2SnCSn2CSnTe4Mg2
_chemical_formula_sum              "H24 C60 N12 Sn48 Te48 Mg24"
_cell_length_a       30.0706
_cell_length_b       29.9029
_cell_length_c       7.23626
_cell_angle_alpha    107.081
_cell_angle_beta     110.281
_cell_angle_gamma    119.556

_symmetry_space_group_name_H-M    'P1'
_space_group_IT_number       1

loop_
  _space_group_symop_operation_xyz
  'x, y, z'

loop_
  _atom_site_type_symbol
  _atom_site_label
  _atom_site_symmetry_multiplicity
  _atom_site_fract_x
  _atom_site_fract_y
  _atom_site_fract_z
  _atom_site_occupancy
  H   H1        1.0  0.67781  0.21479  0.24450  1.0000
  H   H2        1.0  0.78150  0.46101  0.27400  1.0000
  H   H3        1.0  0.53106  0.31213  0.20915  1.0000
  H   H4        1.0  0.32630  0.78864  0.78768  1.0000
  H   H5        1.0  0.21672  0.53645  0.71330  1.0000
  H   H6        1.0  0.46024  0.68167  0.73558  1.0000
  H   H7        1.0  0.66647  0.44186  0.21987  1.0000
  H   H8        1.0  0.55804  0.23099  0.30077  1.0000
  H   H9        1.0  0.77741  0.32908  0.28435  1.0000
  H   H10       1.0  0.32381  0.54812  0.70396  1.0000
  H   H11       1.0  0.45656  0.78586  0.80240  1.0000
  H   H12       1.0  0.22218  0.67209  0.72634  1.0000
  H   H13       1.0  0.97813  0.10141  0.19337  1.0000
  H   H14       1.0  0.88971  0.87172  0.26107  1.0000
  H   H15       1.0  0.13042  0.01105  0.26927  1.0000
  H   H16       1.0  0.01323  0.88994  0.76916  1.0000
  H   H17       1.0  0.12023  0.13472  0.80163  1.0000
  H   H18       1.0  0.86378  0.98263  0.70166  1.0000
  H   H19       1.0  0.97933  0.86782  0.15337  1.0000
  H   H20       1.0  0.12450  0.11383  0.32044  1.0000
  H   H21       1.0  0.90314  0.01422  0.31527  1.0000
  H   H22       1.0  0.01654  0.12849  0.81982  1.0000
  H   H23       1.0  0.88083  0.89056  0.72519  1.0000
  H   H24       1.0  0.10076  0.98897  0.71428  1.0000
  C   C1        1.0  0.72083  0.24460  0.25972  1.0000
  C   C2        1.0  0.75146  0.47224  0.25383  1.0000
  C   C3        1.0  0.52255  0.27639  0.24263  1.0000
  C   C4        1.0  0.28210  0.75812  0.76570  1.0000
  C   C5        1.0  0.24303  0.52155  0.70441  1.0000
  C   C6        1.0  0.47791  0.72666  0.76555  1.0000
  C   C7        1.0  0.73616  0.29686  0.27319  1.0000
  C   C8        1.0  0.69877  0.43381  0.23702  1.0000
  C   C9        1.0  0.56317  0.26649  0.27248  1.0000
  C   C10       1.0  0.26474  0.70453  0.74335  1.0000
  C   C11       1.0  0.29400  0.55843  0.70905  1.0000
  C   C12       1.0  0.44345  0.74258  0.77931  1.0000
  C   C13       1.0  0.69884  0.31471  0.26861  1.0000
  C   C14       1.0  0.68208  0.38036  0.24873  1.0000
  C   C15       1.0  0.61665  0.30080  0.26297  1.0000
  C   C16       1.0  0.30142  0.68581  0.74350  1.0000
  C   C17       1.0  0.31434  0.61585  0.72530  1.0000
  C   C18       1.0  0.38617  0.70317  0.76071  1.0000
  C   C19       1.0  0.94445  0.08118  0.23479  1.0000
  C   C20       1.0  0.91086  0.85284  0.22166  1.0000
  C   C21       1.0  0.14652  0.05507  0.29056  1.0000
  C   C22       1.0  0.05074  0.91372  0.74810  1.0000
  C   C23       1.0  0.09345  0.14943  0.80267  1.0000
  C   C24       1.0  0.85271  0.94374  0.71599  1.0000
  C   C25       1.0  0.93743  0.03818  0.28141  1.0000
  C   C26       1.0  0.95508  0.88325  0.18639  1.0000
  C   C27       1.0  0.11225  0.07130  0.30342  1.0000
  C   C28       1.0  0.06311  0.96183  0.72978  1.0000
  C   C29       1.0  0.04448  0.11580  0.81279  1.0000
  C   C30       1.0  0.88953  0.92990  0.71987  1.0000
  C   C31       1.0  0.97148  0.01700  0.27071  1.0000
  C   C32       1.0  0.97908  0.94277  0.22088  1.0000
  C   C33       1.0  0.05418  0.03189  0.27802  1.0000
  C   C34       1.0  0.02909  0.98292  0.74271  1.0000
  C   C35       1.0  0.02140  0.05708  0.78796  1.0000
  C   C36       1.0  0.94617  0.96806  0.73356  1.0000
  N   N1        1.0  0.64841  0.28071  0.27062  1.0000
  N   N2        1.0  0.71862  0.36559  0.26350  1.0000
  N   N3        1.0  0.63061  0.34932  0.24647  1.0000
  N   N4        1.0  0.35507  0.72367  0.76421  1.0000
  N   N5        1.0  0.27883  0.63152  0.72268  1.0000
  N   N6        1.0  0.36795  0.64967  0.74244  1.0000
  N   N7        1.0  0.02435  0.05349  0.28671  1.0000
  N   N8        1.0  0.94753  0.96194  0.24277  1.0000
  N   N9        1.0  0.03305  0.97606  0.24090  1.0000
  N   N10       1.0  0.97544  0.94586  0.72245  1.0000
  N   N11       1.0  0.05412  0.03874  0.77555  1.0000
  N   N12       1.0  0.96696  0.02323  0.76491  1.0000
  C  Sn1       1.0  0.81515  0.25063  0.22482  1.0000
  C   C37       1.0  0.75783  0.22233  0.19749  1.0000
  C  Sn2       1.0  0.73068  0.17116  0.21291  1.0000
  C  Sn3       1.0  0.76149  0.14781  0.25673  1.0000
  C   C38       1.0  0.81879  0.17610  0.28408  1.0000
  C  Sn4       1.0  0.84596  0.22727  0.26864  1.0000
  O  Te1       1.0  0.84143  0.30173  0.20872  1.0000
  O  Te2       1.0  0.67332  0.14364  0.18489  1.0000
  O  Te3       1.0  0.73516  0.09666  0.27281  1.0000
  O  Te4       1.0  0.90329  0.25479  0.29668  1.0000
  Mg  Mg1       1.0  0.65635  0.07512  0.22214  1.0000
  Mg  Mg2       1.0  0.92032  0.32333  0.25959  1.0000
  C  Sn5       1.0  0.85094  0.58827  0.38663  1.0000
  C   C39       1.0  0.79022  0.54379  0.32006  1.0000
  C  Sn6       1.0  0.74217  0.54361  0.20199  1.0000
  C  Sn7       1.0  0.75508  0.58881  0.14921  1.0000
  C   C40       1.0  0.81576  0.63325  0.21573  1.0000
  C  Sn8       1.0  0.86384  0.63346  0.33386  1.0000
  O  Te5       1.0  0.89825  0.58757  0.50451  1.0000
  O  Te6       1.0  0.68184  0.49869  0.13729  1.0000
  O  Te7       1.0  0.70770  0.58948  0.03124  1.0000
  O  Te8       1.0  0.92414  0.67834  0.39850  1.0000
  Mg  Mg3       1.0  0.78943  0.66738  0.97956  1.0000
  Mg  Mg4       1.0  0.97289  0.65831  0.55612  1.0000
  C  Sn9       1.0  0.37078  0.21529  0.09021  1.0000
  C   C41       1.0  0.35113  0.17396  0.15798  1.0000
  C  Sn10      1.0  0.39362  0.17086  0.29899  1.0000
  C  Sn11      1.0  0.45709  0.20990  0.37397  1.0000
  C   C42       1.0  0.47671  0.25119  0.30625  1.0000
  C  Sn12      1.0  0.43425  0.25432  0.16519  1.0000
  O  Te9       1.0  0.48381  0.36623  0.94919  1.0000
  O  Te10      1.0  0.37287  0.12916  0.36441  1.0000
  O  Te11      1.0  0.50038  0.20754  0.51509  1.0000
  O  Te12      1.0  0.45498  0.29600  0.09981  1.0000
  Mg  Mg5       1.0  0.44956  0.14316  0.55813  1.0000
  Mg  Mg6       1.0  0.53465  0.43068  0.90622  1.0000
  C  Sn13      1.0  0.25126  0.85833  0.77076  1.0000
  C   C43       1.0  0.19094  0.82815  0.71804  1.0000
  C  Sn14      1.0  0.15831  0.77266  0.70390  1.0000
  C  Sn15      1.0  0.18657  0.74680  0.74343  1.0000
  C   C44       1.0  0.24686  0.77698  0.79615  1.0000
  C  Sn16      1.0  0.27952  0.83247  0.81028  1.0000
  O  Te13      1.0  0.28301  0.91376  0.78400  1.0000
  O  Te14      1.0  0.09805  0.74333  0.65085  1.0000
  O  Te15      1.0  0.15476  0.69132  0.73013  1.0000
  O  Te16      1.0  0.33975  0.86180  0.86333  1.0000
  Mg  Mg7       1.0  0.07372  0.66878  0.65263  1.0000
  Mg  Mg8       1.0  0.36414  0.93637  0.86172  1.0000
  C  Sn17      1.0  0.23230  0.41521  0.60120  1.0000
  C   C45       1.0  0.21327  0.44949  0.62631  1.0000
  C  Sn18      1.0  0.17383  0.43862  0.69967  1.0000
  C  Sn19      1.0  0.15301  0.39255  0.74911  1.0000
  C   C46       1.0  0.17206  0.35831  0.72404  1.0000
  C  Sn20      1.0  0.21149  0.36914  0.65064  1.0000
  O  Te17      1.0  0.27175  0.42686  0.52764  1.0000
  O  Te18      1.0  0.15541  0.47346  0.72341  1.0000
  O  Te19      1.0  0.11354  0.38092  0.82271  1.0000
  O  Te20      1.0  0.22991  0.33433  0.62694  1.0000
  Mg  Mg9       1.0  0.10135  0.44048  0.82892  1.0000
  Mg  Mg10      1.0  0.28400  0.36729  0.52157  1.0000
  C  Sn21      1.0  0.58366  0.74668  0.80740  1.0000
  C   C47       1.0  0.55211  0.76630  0.84497  1.0000
  C  Sn22      1.0  0.56375  0.81692  0.83792  1.0000
  C  Sn23      1.0  0.60782  0.84857  0.79222  1.0000
  C   C48       1.0  0.63934  0.82893  0.75465  1.0000
  C  Sn24      1.0  0.62773  0.77832  0.76170  1.0000
  O  Te21      1.0  0.57128  0.69596  0.81524  1.0000
  O  Te22      1.0  0.53164  0.83570  0.87611  1.0000
  O  Te23      1.0  0.62019  0.89932  0.78441  1.0000
  O  Te24      1.0  0.65980  0.75954  0.72351  1.0000
  Mg  Mg11      1.0  0.56461  0.90732  0.84752  1.0000
  Mg  Mg12      1.0  0.62685  0.68791  0.75193  1.0000
  C  Sn25      1.0  0.93076  0.16738  0.22982  1.0000
  C   C49       1.0  0.92570  0.12519  0.28753  1.0000
  C  Sn26      1.0  0.87676  0.09033  0.30424  1.0000
  C  Sn27      1.0  0.83191  0.09776  0.26224  1.0000
  C   C50       1.0  0.83697  0.13991  0.20452  1.0000
  C  Sn28      1.0  0.88591  0.17480  0.18782  1.0000
  O  Te25      1.0  0.98008  0.20174  0.21408  1.0000
  O  Te26      1.0  0.36321  0.04846  0.36228  1.0000
  O  Te27      1.0  0.78257  0.06335  0.27804  1.0000
  O  Te28      1.0  0.88999  0.21664  0.12978  1.0000
  Mg  Mg13      1.0  0.28754  0.01222  0.36231  1.0000
  Mg  Mg14      1.0  0.96562  0.25288  0.12958  1.0000
  C  Sn29      1.0  0.81815  0.72836  0.24987  1.0000
  C   C51       1.0  0.83568  0.69282  0.21819  1.0000
  C  Sn30      1.0  0.88813  0.71411  0.21368  1.0000
  C  Sn31      1.0  0.92384  0.77215  0.24158  1.0000
  C   C52       1.0  0.90632  0.80766  0.27328  1.0000
  C  Sn32      1.0  0.85386  0.78640  0.27777  1.0000
  O  Te29      1.0  0.76555  0.70617  0.25381  1.0000
  O  Te30      1.0  0.90472  0.67774  0.18169  1.0000
  O  Te31      1.0  0.97648  0.79433  0.23761  1.0000
  O  Te32      1.0  0.83728  0.82274  0.30978  1.0000
  Mg  Mg15      1.0  0.98027  0.72795  0.18918  1.0000
  Mg  Mg16      1.0  0.76176  0.77260  0.30245  1.0000
  C  Sn33      1.0  0.27803  0.18157  0.36370  1.0000
  C   C53       1.0  0.30781  0.16059  0.31646  1.0000
  C  Sn34      1.0  0.27976  0.09845  0.22675  1.0000
  C  Sn35      1.0  0.22069  0.05638  0.18320  1.0000
  C   C54       1.0  0.19093  0.07737  0.23040  1.0000
  C  Sn36      1.0  0.21896  0.13951  0.32016  1.0000
  O  Te33      1.0  0.30694  0.24390  0.45333  1.0000
  O  Te34      1.0  0.31045  0.07857  0.18099  1.0000
  O  Te35      1.0  0.68232  0.99402  0.09351  1.0000
  O  Te36      1.0  0.18830  0.15939  0.36587  1.0000
  Mg  Mg17      1.0  0.74264  0.98918  0.05958  1.0000
  Mg  Mg18      1.0  0.24658  0.24875  0.48716  1.0000
  C  Sn37      1.0  0.08502  0.81597  0.74880  1.0000
  C   C55       1.0  0.13234  0.83492  0.71347  1.0000
  C  Sn38      1.0  0.16151  0.88844  0.71299  1.0000
  C  Sn39      1.0  0.14303  0.92379  0.74873  1.0000
  C   C56       1.0  0.09575  0.90485  0.78408  1.0000
  C  Sn40      1.0  0.06654  0.85132  0.78454  1.0000
  O  Te37      1.0  0.05651  0.76231  0.74860  1.0000
  O  Te38      1.0  0.20869  0.90644  0.67722  1.0000
  O  Te39      1.0  0.17159  0.97749  0.74890  1.0000
  O  Te40      1.0  0.01940  0.83332  0.82032  1.0000
  Mg  Mg19      1.0  0.23351  0.98304  0.69281  1.0000
  Mg  Mg20      1.0  0.99457  0.75675  0.80490  1.0000
  C  Sn41      1.0  0.09572  0.26683  0.76108  1.0000
  C   C57       1.0  0.14640  0.30095  0.75121  1.0000
  C  Sn42      1.0  0.17906  0.28126  0.73108  1.0000
  C  Sn43      1.0  0.16065  0.22630  0.72043  1.0000
  C   C58       1.0  0.10999  0.19221  0.73026  1.0000
  C  Sn44      1.0  0.07731  0.21187  0.75044  1.0000
  O  Te41      1.0  0.06375  0.28738  0.78119  1.0000
  O  Te42      1.0  0.22959  0.31615  0.72161  1.0000
  O  Te43      1.0  0.19267  0.20577  0.70031  1.0000
  O  Te44      1.0  0.02680  0.17701  0.75986  1.0000
  Mg  Mg21      1.0  0.25837  0.26915  0.69390  1.0000
  Mg  Mg22      1.0  0.99797  0.22395  0.78744  1.0000
  C  Sn45      1.0  0.76577  0.86827  0.91641  1.0000
  C   C59       1.0  0.71954  0.87301  0.85746  1.0000
  C  Sn46      1.0  0.70947  0.89423  0.71275  1.0000
  C  Sn47      1.0  0.74636  0.91104  0.62500  1.0000
  C   C60       1.0  0.79255  0.90630  0.68392  1.0000
  C  Sn48      1.0  0.80265  0.88508  0.82867  1.0000
  O  Te45      1.0  0.61870  0.69831  0.06134  1.0000
  O  Te46      1.0  0.66300  0.89859  0.65630  1.0000
  O  Te47      1.0  0.73707  0.93240  0.47998  1.0000
  O  Te48      1.0  0.84909  0.88072  0.88508  1.0000
  Mg  Mg23      1.0  0.66810  0.93019  0.45266  1.0000
  Mg  Mg24      1.0  0.68768  0.70047  0.08858  1.0000
