data_image0
_chemical_formula_structural       H48C72N12SnCSn2CSnTe4Mg2SnCSn2CSnTe4Mg2SnCSn2CSnTe4Mg2SnCSn2CSnTe4Mg2SnCSn2CSnTe4Mg2SnCSn2CSnTe4Mg2
_chemical_formula_sum              "H48 C84 N12 Sn24 Te24 Mg12"
_cell_length_a       30.0706
_cell_length_b       29.9029
_cell_length_c       7.23626
_cell_angle_alpha    107.081
_cell_angle_beta     110.281
_cell_angle_gamma    119.556

_symmetry_space_group_name_H-M    'P1'
_space_group_IT_number       1

loop_
  _space_group_symop_operation_xyz
  'x, y, z'

loop_
  _atom_site_type_symbol
  _atom_site_label
  _atom_site_symmetry_multiplicity
  _atom_site_fract_x
  _atom_site_fract_y
  _atom_site_fract_z
  _atom_site_occupancy
  H   H1        1.0  0.67781  0.21479  0.24450  1.0000
  H   H2        1.0  0.78150  0.46101  0.27400  1.0000
  H   H3        1.0  0.53106  0.31213  0.20915  1.0000
  H   H4        1.0  0.32630  0.78864  0.78768  1.0000
  H   H5        1.0  0.21672  0.53645  0.71330  1.0000
  H   H6        1.0  0.46024  0.68167  0.73558  1.0000
  H   H7        1.0  0.43362  0.28367  0.11270  1.0000
  H   H8        1.0  0.32634  0.87126  0.88402  1.0000
  H   H9        1.0  0.53842  0.68921  0.69966  1.0000
  H   H10       1.0  0.39199  0.14084  0.37390  1.0000
  H   H11       1.0  0.10659  0.73401  0.63915  1.0000
  H   H12       1.0  0.64353  0.90249  0.88526  1.0000
  H   H13       1.0  0.33675  0.22727  0.09419  1.0000
  H   H14       1.0  0.27370  0.91348  0.89428  1.0000
  H   H15       1.0  0.63317  0.74566  0.70555  1.0000
  H   H16       1.0  0.48650  0.19420  0.38030  1.0000
  H   H17       1.0  0.16031  0.69351  0.63998  1.0000
  H   H18       1.0  0.54836  0.84637  0.87468  1.0000
  H   H19       1.0  0.66647  0.44186  0.21987  1.0000
  H   H20       1.0  0.55804  0.23099  0.30077  1.0000
  H   H21       1.0  0.77741  0.32908  0.28435  1.0000
  H   H22       1.0  0.32381  0.54812  0.70396  1.0000
  H   H23       1.0  0.45656  0.78586  0.80240  1.0000
  H   H24       1.0  0.22218  0.67209  0.72634  1.0000
  H   H25       1.0  0.97813  0.10141  0.19337  1.0000
  H   H26       1.0  0.88971  0.87172  0.26107  1.0000
  H   H27       1.0  0.13042  0.01105  0.26927  1.0000
  H   H28       1.0  0.01323  0.88994  0.76916  1.0000
  H   H29       1.0  0.12023  0.13472  0.80163  1.0000
  H   H30       1.0  0.86378  0.98263  0.70166  1.0000
  H   H31       1.0  0.95094  0.15860  0.10984  1.0000
  H   H32       1.0  0.83574  0.80452  0.34142  1.0000
  H   H33       1.0  0.20676  0.01795  0.22331  1.0000
  H   H34       1.0  0.81100  0.09812  0.36841  1.0000
  H   H35       1.0  0.90666  0.69043  0.15670  1.0000
  H   H36       1.0  0.29557  0.21945  0.30684  1.0000
  H   H37       1.0  0.89793  0.20082  0.11336  1.0000
  H   H38       1.0  0.80109  0.71509  0.37673  1.0000
  H   H39       1.0  0.29374  0.06846  0.18658  1.0000
  H   H40       1.0  0.86076  0.05360  0.35412  1.0000
  H   H41       1.0  0.94667  0.78285  0.14426  1.0000
  H   H42       1.0  0.20754  0.16783  0.33882  1.0000
  H   H43       1.0  0.97933  0.86782  0.15337  1.0000
  H   H44       1.0  0.12450  0.11383  0.32044  1.0000
  H   H45       1.0  0.90314  0.01422  0.31527  1.0000
  H   H46       1.0  0.01654  0.12849  0.81982  1.0000
  H   H47       1.0  0.88083  0.89056  0.72519  1.0000
  H   H48       1.0  0.10076  0.98897  0.71428  1.0000
  C   C1        1.0  0.72083  0.24460  0.25972  1.0000
  C   C2        1.0  0.75146  0.47224  0.25383  1.0000
  C   C3        1.0  0.52255  0.27639  0.24263  1.0000
  C   C4        1.0  0.28210  0.75812  0.76570  1.0000
  C   C5        1.0  0.24303  0.52155  0.70441  1.0000
  C   C6        1.0  0.47791  0.72666  0.76555  1.0000
  C   C7        1.0  0.73616  0.29686  0.27319  1.0000
  C   C8        1.0  0.69877  0.43381  0.23702  1.0000
  C   C9        1.0  0.56317  0.26649  0.27248  1.0000
  C   C10       1.0  0.26474  0.70453  0.74335  1.0000
  C   C11       1.0  0.29400  0.55843  0.70905  1.0000
  C   C12       1.0  0.44345  0.74258  0.77931  1.0000
  C   C13       1.0  0.46745  0.24317  0.24431  1.0000
  C   C14       1.0  0.24808  0.77978  0.76501  1.0000
  C   C15       1.0  0.53517  0.76278  0.78139  1.0000
  C   C16       1.0  0.45402  0.20167  0.31588  1.0000
  C   C17       1.0  0.18568  0.74190  0.69858  1.0000
  C   C18       1.0  0.56630  0.82366  0.83518  1.0000
  C   C19       1.0  0.40044  0.17119  0.31166  1.0000
  C   C20       1.0  0.15549  0.76504  0.70000  1.0000
  C   C21       1.0  0.61991  0.85535  0.84031  1.0000
  C   C22       1.0  0.35700  0.17980  0.23555  1.0000
  C   C23       1.0  0.18587  0.82705  0.76875  1.0000
  C   C24       1.0  0.64509  0.82792  0.79191  1.0000
  C   C25       1.0  0.36996  0.22077  0.16206  1.0000
  C   C26       1.0  0.24816  0.86499  0.83535  1.0000
  C   C27       1.0  0.61499  0.76796  0.74536  1.0000
  C   C28       1.0  0.42416  0.25203  0.16922  1.0000
  C   C29       1.0  0.27813  0.84153  0.83164  1.0000
  C   C30       1.0  0.56133  0.73602  0.74010  1.0000
  C   C31       1.0  0.69884  0.31471  0.26861  1.0000
  C   C32       1.0  0.68208  0.38036  0.24873  1.0000
  C   C33       1.0  0.61665  0.30080  0.26297  1.0000
  C   C34       1.0  0.30142  0.68581  0.74350  1.0000
  C   C35       1.0  0.31434  0.61585  0.72530  1.0000
  C   C36       1.0  0.38617  0.70317  0.76071  1.0000
  C   C37       1.0  0.94445  0.08118  0.23479  1.0000
  C   C38       1.0  0.91086  0.85284  0.22166  1.0000
  C   C39       1.0  0.14652  0.05507  0.29056  1.0000
  C   C40       1.0  0.05074  0.91372  0.74810  1.0000
  C   C41       1.0  0.09345  0.14943  0.80267  1.0000
  C   C42       1.0  0.85271  0.94374  0.71599  1.0000
  C   C43       1.0  0.93743  0.03818  0.28141  1.0000
  C   C44       1.0  0.95508  0.88325  0.18639  1.0000
  C   C45       1.0  0.11225  0.07130  0.30342  1.0000
  C   C46       1.0  0.06311  0.96183  0.72978  1.0000
  C   C47       1.0  0.04448  0.11580  0.81279  1.0000
  C   C48       1.0  0.88953  0.92990  0.71987  1.0000
  C   C49       1.0  0.91064  0.10315  0.23288  1.0000
  C   C50       1.0  0.89218  0.79964  0.23315  1.0000
  C   C51       1.0  0.20027  0.08889  0.28419  1.0000
  C   C52       1.0  0.86951  0.08584  0.30110  1.0000
  C   C53       1.0  0.91348  0.76774  0.18980  1.0000
  C   C54       1.0  0.22643  0.14595  0.30509  1.0000
  C   C55       1.0  0.84035  0.11010  0.30541  1.0000
  C   C56       1.0  0.89237  0.71642  0.20274  1.0000
  C   C57       1.0  0.27600  0.17495  0.28562  1.0000
  C   C58       1.0  0.84976  0.15227  0.23932  1.0000
  C   C59       1.0  0.85019  0.69536  0.26517  1.0000
  C   C60       1.0  0.30227  0.14828  0.24454  1.0000
  C   C61       1.0  0.89043  0.16921  0.16921  1.0000
  C   C62       1.0  0.83154  0.72914  0.31969  1.0000
  C   C63       1.0  0.27586  0.09124  0.22307  1.0000
  C   C64       1.0  0.92013  0.14529  0.16653  1.0000
  C   C65       1.0  0.85138  0.77955  0.30165  1.0000
  C   C66       1.0  0.22645  0.06233  0.24304  1.0000
  C   C67       1.0  0.97148  0.01700  0.27071  1.0000
  C   C68       1.0  0.97908  0.94277  0.22088  1.0000
  C   C69       1.0  0.05418  0.03189  0.27802  1.0000
  C   C70       1.0  0.02909  0.98292  0.74271  1.0000
  C   C71       1.0  0.02140  0.05708  0.78796  1.0000
  C   C72       1.0  0.94617  0.96806  0.73356  1.0000
  N   N1        1.0  0.64841  0.28071  0.27062  1.0000
  N   N2        1.0  0.71862  0.36559  0.26350  1.0000
  N   N3        1.0  0.63061  0.34932  0.24647  1.0000
  N   N4        1.0  0.35507  0.72367  0.76421  1.0000
  N   N5        1.0  0.27883  0.63152  0.72268  1.0000
  N   N6        1.0  0.36795  0.64967  0.74244  1.0000
  N   N7        1.0  0.02435  0.05349  0.28671  1.0000
  N   N8        1.0  0.94753  0.96194  0.24277  1.0000
  N   N9        1.0  0.03305  0.97606  0.24090  1.0000
  N   N10       1.0  0.97544  0.94586  0.72245  1.0000
  N   N11       1.0  0.05412  0.03874  0.77555  1.0000
  N   N12       1.0  0.96696  0.02323  0.76491  1.0000
  C  Sn1       1.0  0.76159  0.59808  0.27259  1.0000
  C   C73       1.0  0.82023  0.63970  0.31868  1.0000
  C  Sn2       1.0  0.85584  0.62280  0.31433  1.0000
  C  Sn3       1.0  0.83233  0.56303  0.26269  1.0000
  C   C74       1.0  0.77372  0.52144  0.21659  1.0000
  C  Sn4       1.0  0.73808  0.53831  0.22094  1.0000
  O  Te1       1.0  0.72679  0.61597  0.27787  1.0000
  O  Te2       1.0  0.91435  0.66521  0.36108  1.0000
  O  Te3       1.0  0.86719  0.54517  0.25744  1.0000
  O  Te4       1.0  0.67960  0.49594  0.17419  1.0000
  Mg  Mg1       1.0  0.94420  0.61921  0.33288  1.0000
  Mg  Mg2       1.0  0.64970  0.54187  0.20222  1.0000
  C  Sn5       1.0  0.17215  0.91501  0.77310  1.0000
  C   C75       1.0  0.16591  0.87073  0.81883  1.0000
  C  Sn6       1.0  0.11388  0.83130  0.81348  1.0000
  C  Sn7       1.0  0.06707  0.83619  0.76119  1.0000
  C   C76       1.0  0.07332  0.88044  0.71546  1.0000
  C  Sn8       1.0  0.12535  0.91990  0.72081  1.0000
  O  Te5       1.0  0.22456  0.95394  0.77939  1.0000
  O  Te6       1.0  0.10868  0.78741  0.85988  1.0000
  O  Te7       1.0  0.01464  0.79720  0.75494  1.0000
  O  Te8       1.0  0.13055  0.96376  0.67441  1.0000
  Mg  Mg3       1.0  0.02863  0.74484  0.83026  1.0000
  Mg  Mg4       1.0  0.21056  0.00632  0.70386  1.0000
  C  Sn9       1.0  0.77087  0.85226  0.76714  1.0000
  C   C77       1.0  0.78708  0.89108  0.68712  1.0000
  C  Sn10      1.0  0.76247  0.92016  0.67131  1.0000
  C  Sn11      1.0  0.72082  0.91027  0.73699  1.0000
  C   C78       1.0  0.70464  0.87147  0.81700  1.0000
  C  Sn12      1.0  0.72922  0.84236  0.83283  1.0000
  O  Te9       1.0  0.79603  0.82367  0.78153  1.0000
  O  Te10      1.0  0.77935  0.95876  0.59072  1.0000
  O  Te11      1.0  0.69566  0.93890  0.72253  1.0000
  O  Te12      1.0  0.71237  0.80380  0.91340  1.0000
  Mg  Mg5       1.0  0.73277  0.98733  0.60233  1.0000
  Mg  Mg6       1.0  0.75895  0.77523  0.90197  1.0000
  C  Sn13      1.0  0.81515  0.25063  0.22482  1.0000
  C   C79       1.0  0.75783  0.22233  0.19749  1.0000
  C  Sn14      1.0  0.73068  0.17116  0.21291  1.0000
  C  Sn15      1.0  0.76149  0.14781  0.25673  1.0000
  C   C80       1.0  0.81879  0.17610  0.28408  1.0000
  C  Sn16      1.0  0.84596  0.22727  0.26864  1.0000
  O  Te13      1.0  0.84143  0.30173  0.20872  1.0000
  O  Te14      1.0  0.67332  0.14364  0.18489  1.0000
  O  Te15      1.0  0.73516  0.09666  0.27281  1.0000
  O  Te16      1.0  0.90329  0.25479  0.29668  1.0000
  Mg  Mg7       1.0  0.65635  0.07512  0.22214  1.0000
  Mg  Mg8       1.0  0.92032  0.32333  0.25959  1.0000
  C  Sn17      1.0  0.09572  0.26683  0.76108  1.0000
  C   C81       1.0  0.14640  0.30095  0.75121  1.0000
  C  Sn18      1.0  0.17906  0.28126  0.73108  1.0000
  C  Sn19      1.0  0.16065  0.22630  0.72043  1.0000
  C   C82       1.0  0.10999  0.19221  0.73026  1.0000
  C  Sn20      1.0  0.07731  0.21187  0.75044  1.0000
  O  Te17      1.0  0.06375  0.28738  0.78119  1.0000
  O  Te18      1.0  0.22959  0.31615  0.72161  1.0000
  O  Te19      1.0  0.19267  0.20577  0.70031  1.0000
  O  Te20      1.0  0.02680  0.17701  0.75986  1.0000
  Mg  Mg9       1.0  0.25837  0.26915  0.69390  1.0000
  Mg  Mg10      1.0  0.99797  0.22395  0.78744  1.0000
  C  Sn21      1.0  0.17062  0.43254  0.77016  1.0000
  C   C83       1.0  0.21988  0.46640  0.75328  1.0000
  C  Sn22      1.0  0.24293  0.44032  0.67549  1.0000
  C  Sn23      1.0  0.21616  0.37910  0.61312  1.0000
  C   C84       1.0  0.16692  0.34527  0.62997  1.0000
  C  Sn24      1.0  0.14384  0.37132  0.70779  1.0000
  O  Te21      1.0  0.14832  0.45954  0.84836  1.0000
  O  Te22      1.0  0.29223  0.47509  0.66016  1.0000
  O  Te23      1.0  0.23850  0.35212  0.53489  1.0000
  O  Te24      1.0  0.09457  0.33659  0.72310  1.0000
  Mg  Mg11      1.0  0.30636  0.41802  0.54382  1.0000
  Mg  Mg12      1.0  0.08038  0.39359  0.83929  1.0000
