data_image0
_chemical_formula_structural       H24C36N12C2Sn2C2HTe2HMgC2Sn2C2HTe2HMgC2Sn2C2HTe2HMgC2Sn2C2HTe2HMgC2Sn2C2HTe2HMgC2Sn2C2HTe2HMgC2Sn2C2HTe2HMgC2Sn2C2HTe2HMgC2Sn2C2HTe2HMgC2Sn2C2HTe2HMgC2Sn2C2HTe2HMgC2Sn2C2HTe2HMg
_chemical_formula_sum              "H48 C84 N12 Sn24 Te24 Mg12"
_cell_length_a       30.0706
_cell_length_b       29.9029
_cell_length_c       7.23626
_cell_angle_alpha    107.081
_cell_angle_beta     110.281
_cell_angle_gamma    119.556

_symmetry_space_group_name_H-M    'P1'
_space_group_IT_number       1

loop_
  _space_group_symop_operation_xyz
  'x, y, z'

loop_
  _atom_site_type_symbol
  _atom_site_label
  _atom_site_symmetry_multiplicity
  _atom_site_fract_x
  _atom_site_fract_y
  _atom_site_fract_z
  _atom_site_occupancy
  H   H1        1.0  0.67781  0.21479  0.24450  1.0000
  H   H2        1.0  0.78150  0.46101  0.27400  1.0000
  H   H3        1.0  0.53106  0.31213  0.20915  1.0000
  H   H4        1.0  0.32630  0.78864  0.78768  1.0000
  H   H5        1.0  0.21672  0.53645  0.71330  1.0000
  H   H6        1.0  0.46024  0.68167  0.73558  1.0000
  H   H7        1.0  0.66647  0.44186  0.21987  1.0000
  H   H8        1.0  0.55804  0.23099  0.30077  1.0000
  H   H9        1.0  0.77741  0.32908  0.28435  1.0000
  H   H10       1.0  0.32381  0.54812  0.70396  1.0000
  H   H11       1.0  0.45656  0.78586  0.80240  1.0000
  H   H12       1.0  0.22218  0.67209  0.72634  1.0000
  H   H13       1.0  0.97813  0.10141  0.19337  1.0000
  H   H14       1.0  0.88971  0.87172  0.26107  1.0000
  H   H15       1.0  0.13042  0.01105  0.26927  1.0000
  H   H16       1.0  0.01323  0.88994  0.76916  1.0000
  H   H17       1.0  0.12023  0.13472  0.80163  1.0000
  H   H18       1.0  0.86378  0.98263  0.70166  1.0000
  H   H19       1.0  0.97933  0.86782  0.15337  1.0000
  H   H20       1.0  0.12450  0.11383  0.32044  1.0000
  H   H21       1.0  0.90314  0.01422  0.31527  1.0000
  H   H22       1.0  0.01654  0.12849  0.81982  1.0000
  H   H23       1.0  0.88083  0.89056  0.72519  1.0000
  H   H24       1.0  0.10076  0.98897  0.71428  1.0000
  C   C1        1.0  0.72083  0.24460  0.25972  1.0000
  C   C2        1.0  0.75146  0.47224  0.25383  1.0000
  C   C3        1.0  0.52255  0.27639  0.24263  1.0000
  C   C4        1.0  0.28210  0.75812  0.76570  1.0000
  C   C5        1.0  0.24303  0.52155  0.70441  1.0000
  C   C6        1.0  0.47791  0.72666  0.76555  1.0000
  C   C7        1.0  0.73616  0.29686  0.27319  1.0000
  C   C8        1.0  0.69877  0.43381  0.23702  1.0000
  C   C9        1.0  0.56317  0.26649  0.27248  1.0000
  C   C10       1.0  0.26474  0.70453  0.74335  1.0000
  C   C11       1.0  0.29400  0.55843  0.70905  1.0000
  C   C12       1.0  0.44345  0.74258  0.77931  1.0000
  C   C13       1.0  0.69884  0.31471  0.26861  1.0000
  C   C14       1.0  0.68208  0.38036  0.24873  1.0000
  C   C15       1.0  0.61665  0.30080  0.26297  1.0000
  C   C16       1.0  0.30142  0.68581  0.74350  1.0000
  C   C17       1.0  0.31434  0.61585  0.72530  1.0000
  C   C18       1.0  0.38617  0.70317  0.76071  1.0000
  C   C19       1.0  0.94445  0.08118  0.23479  1.0000
  C   C20       1.0  0.91086  0.85284  0.22166  1.0000
  C   C21       1.0  0.14652  0.05507  0.29056  1.0000
  C   C22       1.0  0.05074  0.91372  0.74810  1.0000
  C   C23       1.0  0.09345  0.14943  0.80267  1.0000
  C   C24       1.0  0.85271  0.94374  0.71599  1.0000
  C   C25       1.0  0.93743  0.03818  0.28141  1.0000
  C   C26       1.0  0.95508  0.88325  0.18639  1.0000
  C   C27       1.0  0.11225  0.07130  0.30342  1.0000
  C   C28       1.0  0.06311  0.96183  0.72978  1.0000
  C   C29       1.0  0.04448  0.11580  0.81279  1.0000
  C   C30       1.0  0.88953  0.92990  0.71987  1.0000
  C   C31       1.0  0.97148  0.01700  0.27071  1.0000
  C   C32       1.0  0.97908  0.94277  0.22088  1.0000
  C   C33       1.0  0.05418  0.03189  0.27802  1.0000
  C   C34       1.0  0.02909  0.98292  0.74271  1.0000
  C   C35       1.0  0.02140  0.05708  0.78796  1.0000
  C   C36       1.0  0.94617  0.96806  0.73356  1.0000
  N   N1        1.0  0.64841  0.28071  0.27062  1.0000
  N   N2        1.0  0.71862  0.36559  0.26350  1.0000
  N   N3        1.0  0.63061  0.34932  0.24647  1.0000
  N   N4        1.0  0.35507  0.72367  0.76421  1.0000
  N   N5        1.0  0.27883  0.63152  0.72268  1.0000
  N   N6        1.0  0.36795  0.64967  0.74244  1.0000
  N   N7        1.0  0.02435  0.05349  0.28671  1.0000
  N   N8        1.0  0.94753  0.96194  0.24277  1.0000
  N   N9        1.0  0.03305  0.97606  0.24090  1.0000
  N   N10       1.0  0.97544  0.94586  0.72245  1.0000
  N   N11       1.0  0.05412  0.03874  0.77555  1.0000
  N   N12       1.0  0.96696  0.02323  0.76491  1.0000
  C   C37       1.0  0.82893  0.26248  0.30562  1.0000
  C   C38       1.0  0.76881  0.23263  0.25460  1.0000
  C  Sn1       1.0  0.73221  0.17270  0.20475  1.0000
  C  Sn2       1.0  0.75637  0.14221  0.20620  1.0000
  C   C39       1.0  0.81659  0.17249  0.25763  1.0000
  C   C40       1.0  0.85281  0.23245  0.30718  1.0000
  H   H25       1.0  0.85697  0.30888  0.34410  1.0000
  O  Te1       1.0  0.67223  0.14355  0.15405  1.0000
  O  Te2       1.0  0.72080  0.08233  0.15709  1.0000
  H   H26       1.0  0.89937  0.25556  0.34684  1.0000
  Mg  Mg1       1.0  0.64172  0.06187  0.09828  1.0000
  C   C41       1.0  0.74923  0.58546  0.19162  1.0000
  C   C42       1.0  0.80996  0.63111  0.26099  1.0000
  C  Sn3       1.0  0.85382  0.62325  0.32146  1.0000
  C  Sn4       1.0  0.83641  0.56863  0.31207  1.0000
  C   C43       1.0  0.77552  0.52322  0.24229  1.0000
  C   C44       1.0  0.73201  0.53156  0.18223  1.0000
  H   H27       1.0  0.71555  0.59190  0.14502  1.0000
  O  Te3       1.0  0.91430  0.66932  0.39047  1.0000
  O  Te4       1.0  0.87931  0.55958  0.37149  1.0000
  H   H28       1.0  0.68498  0.49620  0.12837  1.0000
  Mg  Mg2       1.0  0.95609  0.63568  0.45467  1.0000
  C   C45       1.0  0.38089  0.23333  0.15832  1.0000
  C   C46       1.0  0.35697  0.18710  0.20137  1.0000
  C  Sn5       1.0  0.39176  0.17052  0.28438  1.0000
  C  Sn6       1.0  0.45159  0.20088  0.32495  1.0000
  C   C47       1.0  0.47512  0.24710  0.28150  1.0000
  C   C48       1.0  0.43991  0.26332  0.19837  1.0000
  H   H29       1.0  0.35366  0.24591  0.09412  1.0000
  O  Te5       1.0  0.36715  0.12421  0.32639  1.0000
  O  Te6       1.0  0.48736  0.18523  0.40797  1.0000
  H   H30       1.0  0.45845  0.29914  0.16521  1.0000
  Mg  Mg3       1.0  0.43365  0.11919  0.43882  1.0000
  C   C49       1.0  0.15441  0.75126  0.68307  1.0000
  C   C50       1.0  0.17816  0.81184  0.76129  1.0000
  C  Sn7       1.0  0.23954  0.85828  0.83792  1.0000
  C  Sn8       1.0  0.27773  0.84366  0.83593  1.0000
  C   C51       1.0  0.25351  0.78290  0.75718  1.0000
  C   C52       1.0  0.19203  0.73679  0.68096  1.0000
  H   H31       1.0  0.10683  0.71557  0.62396  1.0000
  O  Te7       1.0  0.26254  0.91857  0.91561  1.0000
  O  Te8       1.0  0.33923  0.88917  0.91148  1.0000
  H   H32       1.0  0.17364  0.68988  0.62025  1.0000
  Mg  Mg4       1.0  0.19303  0.81592  0.00146  1.0000
  C   C53       1.0  0.23298  0.39452  0.66346  1.0000
  C   C54       1.0  0.18461  0.36044  0.68403  1.0000
  C  Sn9       1.0  0.14984  0.37764  0.70038  1.0000
  C  Sn10      1.0  0.16386  0.42994  0.69595  1.0000
  C   C55       1.0  0.21230  0.46370  0.67514  1.0000
  C   C56       1.0  0.24681  0.44609  0.65897  1.0000
  H   H33       1.0  0.25965  0.38088  0.65081  1.0000
  O  Te9       1.0  0.10169  0.34309  0.72094  1.0000
  O  Te10      1.0  0.12983  0.44813  0.71190  1.0000
  H   H34       1.0  0.28423  0.47246  0.64289  1.0000
  Mg  Mg5       1.0  0.06866  0.38625  0.73742  1.0000
  C   C57       1.0  0.58007  0.83870  0.85092  1.0000
  C   C58       1.0  0.54032  0.77719  0.78400  1.0000
  C  Sn11      1.0  0.55546  0.74020  0.72926  1.0000
  C  Sn12      1.0  0.61148  0.76540  0.74200  1.0000
  C   C59       1.0  0.65096  0.82701  0.80931  1.0000
  C   C60       1.0  0.63534  0.86360  0.86362  1.0000
  H   H35       1.0  0.56801  0.86703  0.89308  1.0000
  O  Te11      1.0  0.51521  0.67883  0.66263  1.0000
  O  Te12      1.0  0.62776  0.72948  0.68833  1.0000
  H   H36       1.0  0.66615  0.91124  0.91559  1.0000
  Mg  Mg6       1.0  0.55773  0.64836  0.60644  1.0000
  C   C61       1.0  0.86040  0.08821  0.32065  1.0000
  C   C62       1.0  0.89649  0.09426  0.23371  1.0000
  C  Sn13      1.0  0.91280  0.13380  0.15680  1.0000
  C  Sn14      1.0  0.89255  0.16787  0.16741  1.0000
  C   C63       1.0  0.85649  0.16152  0.25483  1.0000
  C   C64       1.0  0.84042  0.12181  0.33125  1.0000
  H   H37       1.0  0.84799  0.05751  0.37990  1.0000
  O  Te13      1.0  0.94887  0.13928  0.07036  1.0000
  O  Te14      1.0  0.90820  0.20774  0.09179  1.0000
  H   H38       1.0  0.81251  0.11717  0.39870  1.0000
  Mg  Mg7       1.0  0.11449  0.34812  0.98809  1.0000
  C   C65       1.0  0.91446  0.75560  0.18742  1.0000
  C   C66       1.0  0.89834  0.79236  0.22093  1.0000
  C  Sn15      1.0  0.85774  0.78140  0.28862  1.0000
  C  Sn16      1.0  0.83291  0.73270  0.32333  1.0000
  C   C67       1.0  0.84936  0.69621  0.28952  1.0000
  C   C68       1.0  0.89001  0.70758  0.22171  1.0000
  H   H39       1.0  0.94594  0.76441  0.13508  1.0000
  O  Te15      1.0  0.84210  0.81855  0.32126  1.0000
  O  Te16      1.0  0.79225  0.72074  0.39107  1.0000
  H   H40       1.0  0.90252  0.67913  0.19592  1.0000
  Mg  Mg8       1.0  0.78488  0.78408  0.41367  1.0000
  C   C69       1.0  0.26353  0.17427  0.28874  1.0000
  C   C70       1.0  0.29831  0.15759  0.26635  1.0000
  C  Sn17      1.0  0.28123  0.10215  0.23956  1.0000
  C  Sn18      1.0  0.22831  0.06276  0.23508  1.0000
  C   C71       1.0  0.19380  0.07983  0.25744  1.0000
  C   C72       1.0  0.21132  0.13542  0.28425  1.0000
  H   H41       1.0  0.27705  0.21726  0.30935  1.0000
  O  Te17      1.0  0.31650  0.08621  0.21752  1.0000
  O  Te18      1.0  0.70072  0.00707  0.20843  1.0000
  H   H42       1.0  0.18435  0.14830  0.30142  1.0000
  Mg  Mg9       1.0  0.76372  0.00557  0.18511  1.0000
  C   C73       1.0  0.07687  0.83782  0.81428  1.0000
  C   C74       1.0  0.08277  0.88252  0.77220  1.0000
  C  Sn19      1.0  0.12404  0.91096  0.71529  1.0000
  C  Sn20      1.0  0.16000  0.89424  0.70030  1.0000
  C   C75       1.0  0.15371  0.84944  0.74256  1.0000
  C   C76       1.0  0.11229  0.82129  0.79945  1.0000
  H   H43       1.0  0.04479  0.81601  0.85817  1.0000
  O  Te19      1.0  0.12939  0.95554  0.67387  1.0000
  O  Te20      1.0  0.20158  0.92192  0.64366  1.0000
  H   H44       1.0  0.10770  0.78666  0.83187  1.0000
  Mg  Mg10      1.0  0.19241  0.98018  0.60259  1.0000
  C   C77       1.0  0.17537  0.24247  0.76277  1.0000
  C   C78       1.0  0.12540  0.20811  0.77569  1.0000
  C  Sn21      1.0  0.08200  0.21651  0.73359  1.0000
  C  Sn22      1.0  0.08886  0.26014  0.67748  1.0000
  C   C79       1.0  0.13899  0.29425  0.66482  1.0000
  C   C80       1.0  0.18216  0.28549  0.70735  1.0000
  H   H45       1.0  0.20875  0.23567  0.79554  1.0000
  O  Te21      1.0  0.03236  0.18182  0.74731  1.0000
  O  Te22      1.0  0.04615  0.26944  0.63450  1.0000
  H   H46       1.0  0.22082  0.31207  0.69718  1.0000
  Mg  Mg11      1.0  0.98631  0.21108  0.67419  1.0000
  C   C81       1.0  0.71983  0.90965  0.68954  1.0000
  C   C82       1.0  0.69942  0.86642  0.74851  1.0000
  C  Sn23      1.0  0.73428  0.84921  0.82175  1.0000
  C  Sn24      1.0  0.79061  0.87586  0.83611  1.0000
  C   C83       1.0  0.81066  0.91911  0.77689  1.0000
  C   C84       1.0  0.77541  0.93598  0.70374  1.0000
  H   H47       1.0  0.69258  0.92273  0.63306  1.0000
  O  Te23      1.0  0.71319  0.80593  0.87993  1.0000
  O  Te24      1.0  0.82638  0.85951  0.90887  1.0000
  H   H48       1.0  0.79125  0.96949  0.65824  1.0000
  Mg  Mg12      1.0  0.77819  0.79852  0.96942  1.0000
