data_image0
_chemical_formula_structural       H72C90N24C2Sn2C2HTe2HMgC2Sn2C2HTe2HMgC2Sn2C2HTe2HMgC2Sn2C2HTe2HMgC2Sn2C2HTe2HMgC2Sn2C2HTe2HMgC2Sn2C2HTe2HMgC2Sn2C2HTe2HMgC2Sn2C2HTe2HMgC2Sn2C2HTe2HMgC2Sn2C2HTe2HMgC2Sn2C2HTe2HMg
_chemical_formula_sum              "H96 C138 N24 Sn24 Te24 Mg12"
_cell_length_a       37.368
_cell_length_b       37.5869
_cell_length_c       8.12769
_cell_angle_alpha    90.4271
_cell_angle_beta     89.7417
_cell_angle_gamma    120.293

_symmetry_space_group_name_H-M    'P1'
_space_group_IT_number       1

loop_
  _space_group_symop_operation_xyz
  'x, y, z'

loop_
  _atom_site_type_symbol
  _atom_site_label
  _atom_site_symmetry_multiplicity
  _atom_site_fract_x
  _atom_site_fract_y
  _atom_site_fract_z
  _atom_site_occupancy
  H   H1        1.0  0.28377  0.68987  0.00803  1.0000
  H   H2        1.0  0.31022  0.59082  0.00384  1.0000
  H   H3        1.0  0.41038  0.71699  0.00647  1.0000
  H   H4        1.0  0.33846  0.76276  0.51278  1.0000
  H   H5        1.0  0.23712  0.57657  0.51084  1.0000
  H   H6        1.0  0.42460  0.66333  0.51420  1.0000
  H   H7        1.0  0.46963  0.07595  0.15254  1.0000
  H   H8        1.0  0.92026  0.39600  0.12168  1.0000
  H   H9        1.0  0.60894  0.52737  0.12673  1.0000
  H   H10       1.0  0.39061  0.92169  0.14411  1.0000
  H   H11       1.0  0.07531  0.46996  0.13629  1.0000
  H   H12       1.0  0.53517  0.60772  0.14219  1.0000
  H   H13       1.0  0.38523  0.96422  0.08846  1.0000
  H   H14       1.0  0.03390  0.42240  0.06325  1.0000
  H   H15       1.0  0.58242  0.61456  0.06268  1.0000
  H   H16       1.0  0.68925  0.28278  0.49097  1.0000
  H   H17       1.0  0.71502  0.40813  0.48563  1.0000
  H   H18       1.0  0.58865  0.30769  0.50405  1.0000
  H   H19       1.0  0.57331  0.23718  0.51846  1.0000
  H   H20       1.0  0.76036  0.33827  0.49346  1.0000
  H   H21       1.0  0.66085  0.42367  0.50058  1.0000
  H   H22       1.0  0.40553  0.96352  0.28336  1.0000
  H   H23       1.0  0.03086  0.44086  0.26051  1.0000
  H   H24       1.0  0.56589  0.59395  0.26163  1.0000
  H   H25       1.0  0.06382  0.59031  0.38858  1.0000
  H   H26       1.0  0.40905  0.47509  0.39810  1.0000
  H   H27       1.0  0.53132  0.93891  0.38642  1.0000
  H   H28       1.0  0.44053  0.03340  0.28447  1.0000
  H   H29       1.0  0.96414  0.40385  0.23542  1.0000
  H   H30       1.0  0.59926  0.56051  0.25244  1.0000
  H   H31       1.0  0.42086  0.03473  0.08841  1.0000
  H   H32       1.0  0.95769  0.38669  0.02873  1.0000
  H   H33       1.0  0.61826  0.57529  0.04982  1.0000
  H   H34       1.0  0.40386  0.40691  0.30512  1.0000
  H   H35       1.0  0.00011  0.59456  0.29790  1.0000
  H   H36       1.0  0.59922  0.00430  0.30420  1.0000
  H   H37       1.0  0.28273  0.69196  0.50183  1.0000
  H   H38       1.0  0.30818  0.59215  0.49870  1.0000
  H   H39       1.0  0.40897  0.71802  0.50327  1.0000
  H   H40       1.0  0.33878  0.76070  0.02382  1.0000
  H   H41       1.0  0.23825  0.57487  0.01095  1.0000
  H   H42       1.0  0.42664  0.66306  0.01752  1.0000
  H   H43       1.0  0.46944  0.07555  0.65478  1.0000
  H   H44       1.0  0.95558  0.38213  0.51509  1.0000
  H   H45       1.0  0.61138  0.53353  0.61679  1.0000
  H   H46       1.0  0.39366  0.92139  0.64804  1.0000
  H   H47       1.0  0.07473  0.46648  0.63538  1.0000
  H   H48       1.0  0.53574  0.61198  0.63267  1.0000
  H   H49       1.0  0.38592  0.96248  0.59114  1.0000
  H   H50       1.0  0.03392  0.41889  0.55910  1.0000
  H   H51       1.0  0.58385  0.61750  0.57017  1.0000
  H   H52       1.0  0.69257  0.28345  0.00440  1.0000
  H   H53       1.0  0.71483  0.40760  0.99152  1.0000
  H   H54       1.0  0.58973  0.30500  0.01034  1.0000
  H   H55       1.0  0.57575  0.23578  0.02645  1.0000
  H   H56       1.0  0.76316  0.34038  0.00169  1.0000
  H   H57       1.0  0.65869  0.42101  0.00090  1.0000
  H   H58       1.0  0.40783  0.96346  0.78470  1.0000
  H   H59       1.0  0.03050  0.43596  0.75895  1.0000
  H   H60       1.0  0.56348  0.59718  0.76610  1.0000
  H   H61       1.0  0.06528  0.59490  0.89159  1.0000
  H   H62       1.0  0.40992  0.47266  0.88011  1.0000
  H   H63       1.0  0.52833  0.93670  0.88653  1.0000
  H   H64       1.0  0.43904  0.03182  0.77988  1.0000
  H   H65       1.0  0.91938  0.39068  0.62283  1.0000
  H   H66       1.0  0.59755  0.56037  0.76001  1.0000
  H   H67       1.0  0.42175  0.03460  0.58063  1.0000
  H   H68       1.0  0.96443  0.39725  0.72444  1.0000
  H   H69       1.0  0.61768  0.58209  0.56558  1.0000
  H   H70       1.0  0.40512  0.40481  0.78792  1.0000
  H   H71       1.0  0.00170  0.60019  0.80836  1.0000
  H   H72       1.0  0.59634  0.00149  0.80089  1.0000
  C   C1        1.0  0.30658  0.67994  0.00584  1.0000
  C   C2        1.0  0.32058  0.62360  0.00323  1.0000
  C   C3        1.0  0.37742  0.69426  0.00513  1.0000
  C   C4        1.0  0.34899  0.70850  0.00642  1.0000
  C   C5        1.0  0.29207  0.63729  0.00422  1.0000
  C   C6        1.0  0.36358  0.65208  0.00413  1.0000
  C   C7        1.0  0.36318  0.75254  0.01317  1.0000
  C   C8        1.0  0.24754  0.60770  0.00786  1.0000
  C   C9        1.0  0.39395  0.63842  0.00913  1.0000
  C   C10       1.0  0.46708  0.95412  0.02946  1.0000
  C   C11       1.0  0.04504  0.51447  0.01715  1.0000
  C   C12       1.0  0.49064  0.53322  0.01520  1.0000
  C   C13       1.0  0.51018  0.97916  0.47186  1.0000
  C   C14       1.0  0.02113  0.52847  0.46394  1.0000
  C   C15       1.0  0.47185  0.49529  0.46481  1.0000
  C   C16       1.0  0.47086  0.02094  0.08450  1.0000
  C   C17       1.0  0.97684  0.45134  0.05712  1.0000
  C   C18       1.0  0.55328  0.52799  0.06357  1.0000
  C   C19       1.0  0.40521  0.95521  0.15299  1.0000
  C   C20       1.0  0.04157  0.45046  0.13356  1.0000
  C   C21       1.0  0.55494  0.59404  0.13636  1.0000
  C   C22       1.0  0.67882  0.30512  0.48990  1.0000
  C   C23       1.0  0.69244  0.37527  0.48710  1.0000
  C   C24       1.0  0.62165  0.31828  0.49732  1.0000
  C   C25       1.0  0.63584  0.29024  0.49611  1.0000
  C   C26       1.0  0.70720  0.34740  0.48687  1.0000
  C   C27       1.0  0.64996  0.36107  0.49258  1.0000
  C   C28       1.0  0.60617  0.24599  0.50763  1.0000
  C   C29       1.0  0.75166  0.36223  0.49038  1.0000
  C   C30       1.0  0.63602  0.39109  0.49744  1.0000
  C   C31       1.0  0.51220  0.04383  0.02890  1.0000
  C   C32       1.0  0.95499  0.47084  0.00592  1.0000
  C   C33       1.0  0.53349  0.48668  0.00914  1.0000
  C   C34       1.0  0.53205  0.02264  0.47044  1.0000
  C   C35       1.0  0.97751  0.50751  0.45497  1.0000
  C   C36       1.0  0.49259  0.47268  0.45483  1.0000
  C   C37       1.0  0.44860  0.97685  0.08403  1.0000
  C   C38       1.0  0.02108  0.47277  0.06350  1.0000
  C   C39       1.0  0.53221  0.55089  0.06670  1.0000
  C   C40       1.0  0.44940  0.04248  0.15562  1.0000
  C   C41       1.0  0.95350  0.40720  0.11390  1.0000
  C   C42       1.0  0.59723  0.54881  0.12639  1.0000
  C   C43       1.0  0.57310  0.00435  0.36246  1.0000
  C   C44       1.0  0.99864  0.56782  0.35457  1.0000
  C   C45       1.0  0.43128  0.43270  0.35873  1.0000
  C   C46       1.0  0.30524  0.68166  0.50023  1.0000
  C   C47       1.0  0.31873  0.62498  0.49914  1.0000
  C   C48       1.0  0.37595  0.69540  0.50099  1.0000
  C   C49       1.0  0.34776  0.70993  0.50048  1.0000
  C   C50       1.0  0.29043  0.63896  0.50020  1.0000
  C   C51       1.0  0.36177  0.65317  0.50077  1.0000
  C   C52       1.0  0.36252  0.75408  0.50579  1.0000
  C   C53       1.0  0.24598  0.60926  0.50655  1.0000
  C   C54       1.0  0.39176  0.63904  0.50736  1.0000
  C   C55       1.0  0.46906  0.95518  0.52622  1.0000
  C   C56       1.0  0.04368  0.51015  0.51845  1.0000
  C   C57       1.0  0.49054  0.53641  0.51881  1.0000
  C   C58       1.0  0.50815  0.97766  0.97353  1.0000
  C   C59       1.0  0.02252  0.53293  0.96388  1.0000
  C   C60       1.0  0.47187  0.49223  0.95889  1.0000
  C   C61       1.0  0.47188  0.02131  0.58409  1.0000
  C   C62       1.0  0.97561  0.44656  0.55673  1.0000
  C   C63       1.0  0.55373  0.53175  0.56205  1.0000
  C   C64       1.0  0.40706  0.95480  0.65456  1.0000
  C   C65       1.0  0.04102  0.44640  0.63243  1.0000
  C   C66       1.0  0.55490  0.59758  0.63698  1.0000
  C   C67       1.0  0.68122  0.30504  0.00166  1.0000
  C   C68       1.0  0.69290  0.37456  0.99432  1.0000
  C   C69       1.0  0.62289  0.31634  0.00507  1.0000
  C   C70       1.0  0.63804  0.28911  0.00667  1.0000
  C   C71       1.0  0.70870  0.34755  0.99641  1.0000
  C   C72       1.0  0.65021  0.35925  0.99882  1.0000
  C   C73       1.0  0.60868  0.24481  0.01738  1.0000
  C   C74       1.0  0.75341  0.36356  0.99991  1.0000
  C   C75       1.0  0.63483  0.38811  0.00186  1.0000
  C   C76       1.0  0.51324  0.04479  0.52920  1.0000
  C   C77       1.0  0.95365  0.46599  0.50504  1.0000
  C   C78       1.0  0.53424  0.49042  0.50695  1.0000
  C   C79       1.0  0.53040  0.02113  0.97009  1.0000
  C   C80       1.0  0.97886  0.51226  0.95603  1.0000
  C   C81       1.0  0.49229  0.46930  0.95301  1.0000
  C   C82       1.0  0.45015  0.97729  0.58284  1.0000
  C   C83       1.0  0.01992  0.46842  0.56471  1.0000
  C   C84       1.0  0.53235  0.55442  0.56728  1.0000
  C   C85       1.0  0.44948  0.04205  0.65328  1.0000
  C   C86       1.0  0.95253  0.40191  0.60820  1.0000
  C   C87       1.0  0.59737  0.55288  0.62877  1.0000
  C   C88       1.0  0.57062  0.00197  0.86088  1.0000
  C   C89       1.0  0.00010  0.57298  0.86064  1.0000
  C   C90       1.0  0.43200  0.43008  0.84703  1.0000
  N   N1        1.0  0.53730  0.96817  0.40278  1.0000
  N   N2        1.0  0.03399  0.56729  0.40010  1.0000
  N   N3        1.0  0.43246  0.46887  0.40323  1.0000
  N   N4        1.0  0.40208  0.77988  0.01214  1.0000
  N   N5        1.0  0.22100  0.62006  0.01185  1.0000
  N   N6        1.0  0.38273  0.59987  0.00857  1.0000
  N   N7        1.0  0.57119  0.03743  0.40101  1.0000
  N   N8        1.0  0.96442  0.53289  0.38588  1.0000
  N   N9        1.0  0.46648  0.43379  0.38714  1.0000
  N   N10       1.0  0.62067  0.21811  0.01876  1.0000
  N   N11       1.0  0.77965  0.40258  0.00596  1.0000
  N   N12       1.0  0.59585  0.37591  0.00944  1.0000
  N   N13       1.0  0.53479  0.96609  0.90385  1.0000
  N   N14       1.0  0.03543  0.57198  0.90281  1.0000
  N   N15       1.0  0.43310  0.46627  0.89080  1.0000
  N   N16       1.0  0.40157  0.78089  0.50728  1.0000
  N   N17       1.0  0.21884  0.62083  0.51193  1.0000
  N   N18       1.0  0.38029  0.60043  0.50984  1.0000
  N   N19       1.0  0.56925  0.03537  0.89873  1.0000
  N   N20       1.0  0.96580  0.53804  0.89090  1.0000
  N   N21       1.0  0.46663  0.43066  0.88242  1.0000
  N   N22       1.0  0.61836  0.21946  0.51065  1.0000
  N   N23       1.0  0.77872  0.40107  0.49534  1.0000
  N   N24       1.0  0.59728  0.37996  0.50098  1.0000
  C   C91       1.0  0.47048  0.88191  0.60818  1.0000
  C   C92       1.0  0.45648  0.90595  0.53288  1.0000
  C  Sn1       1.0  0.41906  0.88723  0.44648  1.0000
  C  Sn2       1.0  0.39528  0.84363  0.43552  1.0000
  C   C93       1.0  0.40954  0.81985  0.51138  1.0000
  C   C94       1.0  0.44703  0.83889  0.59748  1.0000
  H   H73       1.0  0.49947  0.89664  0.67488  1.0000
  O  Te1       1.0  0.40554  0.91172  0.37193  1.0000
  O  Te2       1.0  0.35777  0.82412  0.34999  1.0000
  H   H74       1.0  0.45784  0.82027  0.65585  1.0000
  Mg  Mg1       1.0  0.35239  0.87077  0.26913  1.0000
  C   C95       1.0  0.13953  0.60053  0.60624  1.0000
  C   C96       1.0  0.17068  0.59446  0.54050  1.0000
  C  Sn3       1.0  0.16042  0.55822  0.45457  1.0000
  C  Sn4       1.0  0.11816  0.52754  0.43424  1.0000
  C   C97       1.0  0.08723  0.53391  0.50037  1.0000
  C   C98       1.0  0.09784  0.57029  0.58619  1.0000
  H   H75       1.0  0.14774  0.62868  0.67256  1.0000
  O  Te3       1.0  0.19194  0.55265  0.38973  1.0000
  O  Te4       1.0  0.10704  0.49103  0.34884  1.0000
  H   H76       1.0  0.07372  0.57499  0.63698  1.0000
  Mg  Mg2       1.0  0.16118  0.49770  0.28318  1.0000
  C   C99       1.0  0.45915  0.61016  0.42461  1.0000
  C   C100      1.0  0.41904  0.59326  0.48804  1.0000
  C  Sn5       1.0  0.40180  0.55709  0.58028  1.0000
  C  Sn6       1.0  0.42522  0.53757  0.60939  1.0000
  C   C101      1.0  0.46533  0.55475  0.54550  1.0000
  C   C102      1.0  0.48228  0.59094  0.45332  1.0000
  H   H77       1.0  0.47227  0.63817  0.35337  1.0000
  O  Te5       1.0  0.36167  0.54061  0.64269  1.0000
  O  Te6       1.0  0.40875  0.50141  0.70122  1.0000
  H   H78       1.0  0.51334  0.60403  0.40432  1.0000
  Mg  Mg3       1.0  0.35276  0.49081  0.76036  1.0000
  C   C103      1.0  0.40160  0.87184  0.93364  1.0000
  C   C104      1.0  0.43697  0.90062  0.01563  1.0000
  C  Sn7       1.0  0.46333  0.89025  0.09654  1.0000
  C  Sn8       1.0  0.45426  0.84876  0.09509  1.0000
  C   C105      1.0  0.41904  0.81870  0.01261  1.0000
  C   C106      1.0  0.39265  0.83092  0.93209  1.0000
  H   H79       1.0  0.38136  0.88013  0.87126  1.0000
  O  Te7       1.0  0.49830  0.92088  0.17791  1.0000
  O  Te8       1.0  0.48009  0.83754  0.17490  1.0000
  H   H80       1.0  0.36545  0.80747  0.86853  1.0000
  Mg  Mg4       1.0  0.52405  0.89034  0.26887  1.0000
  C   C107      1.0  0.14265  0.60375  0.09834  1.0000
  C   C108      1.0  0.17272  0.59546  0.03712  1.0000
  C  Sn9       1.0  0.16073  0.55972  0.95629  1.0000
  C  Sn10      1.0  0.11804  0.53030  0.93653  1.0000
  C   C109      1.0  0.08820  0.53890  0.99812  1.0000
  C   C110      1.0  0.10054  0.57476  0.07885  1.0000
  H   H81       1.0  0.15203  0.63266  0.16073  1.0000
  O  Te9       1.0  0.19117  0.55193  0.89592  1.0000
  O  Te10      1.0  0.10541  0.49284  0.85618  1.0000
  H   H82       1.0  0.07726  0.58118  0.12615  1.0000
  Mg  Mg5       1.0  0.15850  0.49643  0.79541  1.0000
  C   C111      1.0  0.46253  0.60998  0.93437  1.0000
  C   C112      1.0  0.42151  0.59264  0.98773  1.0000
  C  Sn11      1.0  0.40240  0.55327  0.06859  1.0000
  C  Sn12      1.0  0.42463  0.53246  0.09642  1.0000
  C   C113      1.0  0.46567  0.55008  0.04266  1.0000
  C   C114      1.0  0.48449  0.58948  0.96182  1.0000
  H   H83       1.0  0.47728  0.63931  0.87190  1.0000
  O  Te11      1.0  0.36139  0.53637  0.12104  1.0000
  O  Te12      1.0  0.40607  0.49458  0.17698  1.0000
  H   H84       1.0  0.51626  0.60292  0.92061  1.0000
  Mg  Mg6       1.0  0.34957  0.48406  0.22525  1.0000
  C   C115      1.0  0.52789  0.12516  0.93911  1.0000
  C   C116      1.0  0.53497  0.09346  0.00594  1.0000
  C  Sn13      1.0  0.57144  0.10473  0.09237  1.0000
  C  Sn14      1.0  0.60154  0.14704  0.11210  1.0000
  C   C117      1.0  0.59437  0.17702  0.04488  1.0000
  C   C118      1.0  0.55756  0.16690  0.95856  1.0000
  H   H85       1.0  0.49957  0.11617  0.87240  1.0000
  O  Te13      1.0  0.57780  0.07416  0.15830  1.0000
  O  Te14      1.0  0.63825  0.15916  0.19798  1.0000
  H   H86       1.0  0.55224  0.19029  0.90693  1.0000
  Mg  Mg7       1.0  0.63274  0.10609  0.26515  1.0000
  C   C119      1.0  0.88185  0.47201  0.10248  1.0000
  C   C120      1.0  0.90542  0.45595  0.03671  1.0000
  C  Sn15      1.0  0.88628  0.42134  0.94234  1.0000
  C  Sn16      1.0  0.84295  0.40100  0.91345  1.0000
  C   C121      1.0  0.81965  0.41732  0.97969  1.0000
  C   C122      1.0  0.83912  0.45197  0.07399  1.0000
  H   H87       1.0  0.89675  0.49999  0.17537  1.0000
  O  Te15      1.0  0.91029  0.40571  0.87760  1.0000
  O  Te16      1.0  0.82325  0.36486  0.81952  1.0000
  H   H88       1.0  0.82086  0.46441  0.12481  1.0000
  Mg  Mg8       1.0  0.86923  0.35560  0.75761  1.0000
  C   C123      1.0  0.53011  0.41233  0.11031  1.0000
  C   C124      1.0  0.54731  0.45165  0.04237  1.0000
  C  Sn17      1.0  0.58255  0.46867  0.94403  1.0000
  C  Sn18      1.0  0.60104  0.44429  0.91332  1.0000
  C   C125      1.0  0.58358  0.40498  0.98176  1.0000
  C   C126      1.0  0.54832  0.38826  0.08002  1.0000
  H   H89       1.0  0.50265  0.40053  0.18627  1.0000
  O  Te17      1.0  0.59934  0.50802  0.87717  1.0000
  O  Te18      1.0  0.63648  0.45904  0.81543  1.0000
  H   H90       1.0  0.53499  0.35780  0.13252  1.0000
  Mg  Mg9       1.0  0.64787  0.51456  0.75186  1.0000
  C   C127      1.0  0.58783  0.11922  0.61479  1.0000
  C   C128      1.0  0.54713  0.09465  0.55923  1.0000
  C  Sn19      1.0  0.52787  0.11212  0.47100  1.0000
  C  Sn20      1.0  0.54984  0.15500  0.43793  1.0000
  C   C129      1.0  0.59056  0.17931  0.49394  1.0000
  C   C130      1.0  0.60953  0.16151  0.58217  1.0000
  H   H91       1.0  0.60252  0.10545  0.68297  1.0000
  O  Te19      1.0  0.48718  0.08712  0.41645  1.0000
  O  Te20      1.0  0.53134  0.17325  0.34997  1.0000
  H   H92       1.0  0.64105  0.18054  0.62507  1.0000
  Mg  Mg10      1.0  0.47532  0.12633  0.30153  1.0000
  C   C131      1.0  0.87095  0.40034  0.41514  1.0000
  C   C132      1.0  0.90208  0.43778  0.47980  1.0000
  C  Sn21      1.0  0.89179  0.46403  0.56336  1.0000
  C  Sn22      1.0  0.84954  0.45248  0.58239  1.0000
  C   C133      1.0  0.81862  0.41494  0.51736  1.0000
  C   C134      1.0  0.82926  0.38892  0.43391  1.0000
  H   H93       1.0  0.87917  0.38019  0.35066  1.0000
  O  Te21      1.0  0.92328  0.50133  0.62714  1.0000
  O  Te22      1.0  0.83839  0.47812  0.66541  1.0000
  H   H94       1.0  0.80515  0.35992  0.38396  1.0000
  Mg  Mg11      1.0  0.89250  0.52583  0.73041  1.0000
  C   C135      1.0  0.60731  0.45788  0.40993  1.0000
  C   C136      1.0  0.59258  0.42016  0.48935  1.0000
  C  Sn23      1.0  0.55569  0.40302  0.57929  1.0000
  C  Sn24      1.0  0.53318  0.42410  0.58966  1.0000
  C   C137      1.0  0.54816  0.46181  0.50966  1.0000
  C   C138      1.0  0.58512  0.47868  0.42003  1.0000
  H   H95       1.0  0.63589  0.47093  0.34050  1.0000
  O  Te23      1.0  0.54143  0.36531  0.65794  1.0000
  O  Te24      1.0  0.49621  0.40766  0.67868  1.0000
  H   H96       1.0  0.59649  0.50787  0.35847  1.0000
  Mg  Mg12      1.0  0.48945  0.35545  0.76449  1.0000
