data_image0
_chemical_formula_structural       H84C96N24SnCSn2CSnTe4Mg2SnCSn2CSnTe4Mg2SnCSn2CSnTe4Mg2SnCSn2CSnTe4Mg2SnCSn2CSnTe4Mg2SnCSn2CSnTe4Mg2SnCSn2CSnTe4Mg2SnCSn2CSnTe4Mg2SnCSn2CSnTe4Mg2SnCSn2CSnTe4Mg2SnCSn2CSnTe4Mg2SnCSn2CSnTe4Mg2
_chemical_formula_sum              "H84 C120 N24 Sn48 Te48 Mg24"
_cell_length_a       37.5195
_cell_length_b       37.474
_cell_length_c       8.15695
_cell_angle_alpha    89.3103
_cell_angle_beta     90.0446
_cell_angle_gamma    120.363

_symmetry_space_group_name_H-M    'P1'
_space_group_IT_number       1

loop_
  _space_group_symop_operation_xyz
  'x, y, z'

loop_
  _atom_site_type_symbol
  _atom_site_label
  _atom_site_symmetry_multiplicity
  _atom_site_fract_x
  _atom_site_fract_y
  _atom_site_fract_z
  _atom_site_occupancy
  H   H1        1.0  0.28497  0.69172  0.17654  1.0000
  H   H2        1.0  0.30615  0.58897  0.18888  1.0000
  H   H3        1.0  0.40896  0.71373  0.21635  1.0000
  H   H4        1.0  0.34059  0.76120  0.19892  1.0000
  H   H5        1.0  0.23539  0.57570  0.17820  1.0000
  H   H6        1.0  0.42239  0.65802  0.22550  1.0000
  H   H7        1.0  0.46991  0.07518  0.34461  1.0000
  H   H8        1.0  0.93003  0.38690  0.26871  1.0000
  H   H9        1.0  0.60742  0.52829  0.31581  1.0000
  H   H10       1.0  0.39115  0.92021  0.33164  1.0000
  H   H11       1.0  0.07890  0.47433  0.32555  1.0000
  H   H12       1.0  0.52905  0.60362  0.34499  1.0000
  H   H13       1.0  0.38601  0.96299  0.27092  1.0000
  H   H14       1.0  0.03892  0.42625  0.25467  1.0000
  H   H15       1.0  0.57717  0.61253  0.26891  1.0000
  H   H16       1.0  0.69255  0.28349  0.22201  1.0000
  H   H17       1.0  0.71572  0.40846  0.20458  1.0000
  H   H18       1.0  0.59070  0.30580  0.19864  1.0000
  H   H19       1.0  0.57662  0.23565  0.21719  1.0000
  H   H20       1.0  0.76234  0.33946  0.23204  1.0000
  H   H21       1.0  0.65997  0.42226  0.20001  1.0000
  H   H22       1.0  0.40427  0.96142  0.46882  1.0000
  H   H23       1.0  0.03674  0.44193  0.45647  1.0000
  H   H24       1.0  0.55957  0.58949  0.46480  1.0000
  H   H25       1.0  0.53102  0.93733  0.09995  1.0000
  H   H26       1.0  0.06138  0.59420  0.07193  1.0000
  H   H27       1.0  0.40654  0.46792  0.08786  1.0000
  H   H28       1.0  0.43690  0.03058  0.46492  1.0000
  H   H29       1.0  0.94334  0.40774  0.46698  1.0000
  H   H30       1.0  0.59548  0.55817  0.44821  1.0000
  H   H31       1.0  0.42294  0.03559  0.26221  1.0000
  H   H32       1.0  0.97629  0.39522  0.35916  1.0000
  H   H33       1.0  0.61406  0.57631  0.24728  1.0000
  H   H34       1.0  0.63685  0.03517  0.48355  1.0000
  H   H35       1.0  0.00275  0.63423  0.56839  1.0000
  H   H36       1.0  0.39723  0.36532  0.45888  1.0000
  H   H37       1.0  0.60340  0.98893  0.37720  1.0000
  H   H38       1.0  0.97013  0.60054  0.41277  1.0000
  H   H39       1.0  0.38288  0.39858  0.35872  1.0000
  H   H40       1.0  0.61802  0.98200  0.06415  1.0000
  H   H41       1.0  0.98956  0.62510  0.06918  1.0000
  H   H42       1.0  0.38247  0.36250  0.04603  1.0000
  H   H43       1.0  0.28460  0.69215  0.68562  1.0000
  H   H44       1.0  0.30691  0.59014  0.68638  1.0000
  H   H45       1.0  0.40917  0.71520  0.71453  1.0000
  H   H46       1.0  0.34012  0.76190  0.70832  1.0000
  H   H47       1.0  0.23631  0.57619  0.68779  1.0000
  H   H48       1.0  0.42277  0.65934  0.72999  1.0000
  H   H49       1.0  0.47499  0.07825  0.84392  1.0000
  H   H50       1.0  0.92205  0.39812  0.85242  1.0000
  H   H51       1.0  0.60472  0.52603  0.81698  1.0000
  H   H52       1.0  0.39373  0.92339  0.83285  1.0000
  H   H53       1.0  0.07624  0.47158  0.82058  1.0000
  H   H54       1.0  0.52821  0.60329  0.84246  1.0000
  H   H55       1.0  0.38946  0.96678  0.77460  1.0000
  H   H56       1.0  0.03249  0.42419  0.76346  1.0000
  H   H57       1.0  0.57588  0.61217  0.76122  1.0000
  H   H58       1.0  0.69413  0.28693  0.73074  1.0000
  H   H59       1.0  0.71526  0.41104  0.71809  1.0000
  H   H60       1.0  0.59100  0.30724  0.70096  1.0000
  H   H61       1.0  0.57780  0.23707  0.71719  1.0000
  H   H62       1.0  0.76372  0.34399  0.73872  1.0000
  H   H63       1.0  0.65843  0.42372  0.71236  1.0000
  H   H64       1.0  0.40837  0.96477  0.97088  1.0000
  H   H65       1.0  0.03484  0.44369  0.96130  1.0000
  H   H66       1.0  0.55958  0.58955  0.95856  1.0000
  H   H67       1.0  0.53227  0.93786  0.59674  1.0000
  H   H68       1.0  0.06319  0.59568  0.57060  1.0000
  H   H69       1.0  0.40468  0.46798  0.58730  1.0000
  H   H70       1.0  0.44141  0.03395  0.96401  1.0000
  H   H71       1.0  0.96635  0.40952  0.97022  1.0000
  H   H72       1.0  0.59359  0.55721  0.94519  1.0000
  H   H73       1.0  0.42755  0.03953  0.76179  1.0000
  H   H74       1.0  0.96103  0.39008  0.76935  1.0000
  H   H75       1.0  0.61304  0.57449  0.74445  1.0000
  H   H76       1.0  0.63643  0.03455  0.00419  1.0000
  H   H77       1.0  0.97135  0.59553  0.88721  1.0000
  H   H78       1.0  0.40259  0.38554  0.85141  1.0000
  H   H79       1.0  0.60280  0.99377  0.87335  1.0000
  H   H80       1.0  0.02546  0.62783  0.91955  1.0000
  H   H81       1.0  0.36794  0.39689  0.95681  1.0000
  H   H82       1.0  0.62286  0.98600  0.57292  1.0000
  H   H83       1.0  0.02487  0.62599  0.39032  1.0000
  H   H84       1.0  0.36293  0.37838  0.55771  1.0000
  C   C1        1.0  0.30658  0.68042  0.18270  1.0000
  C   C2        1.0  0.31767  0.62210  0.18924  1.0000
  C   C3        1.0  0.37598  0.69199  0.20479  1.0000
  C   C4        1.0  0.34903  0.70783  0.19494  1.0000
  C   C5        1.0  0.29052  0.63736  0.18100  1.0000
  C   C6        1.0  0.36067  0.64936  0.20131  1.0000
  C   C7        1.0  0.36437  0.75222  0.20135  1.0000
  C   C8        1.0  0.24580  0.60893  0.17865  1.0000
  C   C9        1.0  0.38965  0.63410  0.21256  1.0000
  C   C10       1.0  0.46873  0.95377  0.23014  1.0000
  C   C11       1.0  0.04471  0.51569  0.21468  1.0000
  C   C12       1.0  0.48618  0.52936  0.21828  1.0000
  C   C13       1.0  0.51027  0.97779  0.18226  1.0000
  C   C14       1.0  0.02091  0.53315  0.16694  1.0000
  C   C15       1.0  0.46863  0.48867  0.16235  1.0000
  C   C16       1.0  0.47156  0.02031  0.27863  1.0000
  C   C17       1.0  0.97829  0.45167  0.27510  1.0000
  C   C18       1.0  0.55022  0.52646  0.25918  1.0000
  C   C19       1.0  0.40541  0.95381  0.33969  1.0000
  C   C20       1.0  0.04549  0.45312  0.32944  1.0000
  C   C21       1.0  0.54943  0.59072  0.33925  1.0000
  C   C22       1.0  0.68158  0.30539  0.21434  1.0000
  C   C23       1.0  0.69376  0.37534  0.20485  1.0000
  C   C24       1.0  0.62375  0.31710  0.20125  1.0000
  C   C25       1.0  0.63866  0.28967  0.20838  1.0000
  C   C26       1.0  0.70922  0.34801  0.21331  1.0000
  C   C27       1.0  0.65124  0.36020  0.19957  1.0000
  C   C28       1.0  0.60958  0.24510  0.21463  1.0000
  C   C29       1.0  0.75352  0.36336  0.22432  1.0000
  C   C30       1.0  0.63605  0.38928  0.19835  1.0000
  C   C31       1.0  0.51348  0.04370  0.23069  1.0000
  C   C32       1.0  0.95504  0.47015  0.22674  1.0000
  C   C33       1.0  0.53162  0.48533  0.20426  1.0000
  C   C34       1.0  0.53247  0.02137  0.18025  1.0000
  C   C35       1.0  0.97736  0.51152  0.17017  1.0000
  C   C36       1.0  0.49018  0.46693  0.15260  1.0000
  C   C37       1.0  0.44946  0.97611  0.27795  1.0000
  C   C38       1.0  0.02237  0.47399  0.26907  1.0000
  C   C39       1.0  0.52793  0.54808  0.26657  1.0000
  C   C40       1.0  0.44927  0.04164  0.34063  1.0000
  C   C41       1.0  0.95602  0.40810  0.34507  1.0000
  C   C42       1.0  0.59408  0.54834  0.32067  1.0000
  C   C43       1.0  0.57416  0.00293  0.08166  1.0000
  C   C44       1.0  0.99594  0.57133  0.06051  1.0000
  C   C45       1.0  0.42972  0.42630  0.05164  1.0000
  C   C46       1.0  0.60983  0.00304  0.00214  1.0000
  C   C47       1.0  0.99579  0.60711  0.97997  1.0000
  C   C48       1.0  0.39351  0.39095  0.97249  1.0000
  C   C49       1.0  0.30649  0.68116  0.68787  1.0000
  C   C50       1.0  0.31821  0.62323  0.68871  1.0000
  C   C51       1.0  0.37619  0.69332  0.70425  1.0000
  C   C52       1.0  0.34895  0.70887  0.69726  1.0000
  C   C53       1.0  0.29079  0.63816  0.68381  1.0000
  C   C54       1.0  0.36114  0.65075  0.70090  1.0000
  C   C55       1.0  0.36412  0.75325  0.70500  1.0000
  C   C56       1.0  0.24617  0.60930  0.68378  1.0000
  C   C57       1.0  0.39008  0.63551  0.71466  1.0000
  C   C58       1.0  0.47101  0.95560  0.72880  1.0000
  C   C59       1.0  0.04471  0.51719  0.71691  1.0000
  C   C60       1.0  0.48489  0.52922  0.71546  1.0000
  C   C61       1.0  0.51257  0.97912  0.67998  1.0000
  C   C62       1.0  0.02156  0.53541  0.66849  1.0000
  C   C63       1.0  0.46683  0.48843  0.65968  1.0000
  C   C64       1.0  0.47520  0.02281  0.77714  1.0000
  C   C65       1.0  0.97740  0.45443  0.77924  1.0000
  C   C66       1.0  0.54856  0.52574  0.75565  1.0000
  C   C67       1.0  0.40867  0.95704  0.84126  1.0000
  C   C68       1.0  0.04262  0.45285  0.83173  1.0000
  C   C69       1.0  0.54862  0.59047  0.83426  1.0000
  C   C70       1.0  0.68254  0.30831  0.72273  1.0000
  C   C71       1.0  0.69362  0.37785  0.71540  1.0000
  C   C72       1.0  0.62409  0.31889  0.70617  1.0000
  C   C73       1.0  0.63949  0.29186  0.71458  1.0000
  C   C74       1.0  0.70964  0.35103  0.72285  1.0000
  C   C75       1.0  0.65107  0.36208  0.70741  1.0000
  C   C76       1.0  0.61092  0.24713  0.71899  1.0000
  C   C77       1.0  0.75409  0.36728  0.73317  1.0000
  C   C78       1.0  0.63518  0.39056  0.70638  1.0000
  C   C79       1.0  0.51718  0.04567  0.72942  1.0000
  C   C80       1.0  0.95488  0.47370  0.73173  1.0000
  C   C81       1.0  0.52947  0.48459  0.70081  1.0000
  C   C82       1.0  0.53545  0.02274  0.67825  1.0000
  C   C83       1.0  0.97805  0.51488  0.67298  1.0000
  C   C84       1.0  0.48808  0.46643  0.64940  1.0000
  C   C85       1.0  0.45245  0.97860  0.77682  1.0000
  C   C86       1.0  0.02148  0.47564  0.77139  1.0000
  C   C87       1.0  0.52670  0.54771  0.76278  1.0000
  C   C88       1.0  0.45371  0.04485  0.83966  1.0000
  C   C89       1.0  0.95542  0.41070  0.84619  1.0000
  C   C90       1.0  0.59231  0.54690  0.81849  1.0000
  C   C91       1.0  0.57614  0.00332  0.57711  1.0000
  C   C92       1.0  0.99805  0.57461  0.55942  1.0000
  C   C93       1.0  0.42715  0.42571  0.55231  1.0000
  C   C94       1.0  0.61176  0.00307  0.49884  1.0000
  C   C95       1.0  0.99920  0.61099  0.47851  1.0000
  C   C96       1.0  0.39032  0.39009  0.47805  1.0000
  N   N1        1.0  0.53777  0.96670  0.12071  1.0000
  N   N2        1.0  0.03209  0.57153  0.09832  1.0000
  N   N3        1.0  0.42988  0.46184  0.09860  1.0000
  N   N4        1.0  0.40322  0.77898  0.21301  1.0000
  N   N5        1.0  0.22027  0.62244  0.18448  1.0000
  N   N6        1.0  0.37763  0.59520  0.21080  1.0000
  N   N7        1.0  0.57212  0.03609  0.11773  1.0000
  N   N8        1.0  0.96281  0.53617  0.10380  1.0000
  N   N9        1.0  0.46515  0.42831  0.08353  1.0000
  N   N10       1.0  0.62195  0.21867  0.22100  1.0000
  N   N11       1.0  0.78031  0.40236  0.22739  1.0000
  N   N12       1.0  0.59713  0.37691  0.20116  1.0000
  N   N13       1.0  0.53947  0.96741  0.61681  1.0000
  N   N14       1.0  0.03365  0.57378  0.59773  1.0000
  N   N15       1.0  0.42776  0.46154  0.59860  1.0000
  N   N16       1.0  0.40303  0.78014  0.71244  1.0000
  N   N17       1.0  0.22035  0.62247  0.68662  1.0000
  N   N18       1.0  0.37784  0.59656  0.71326  1.0000
  N   N19       1.0  0.57484  0.03682  0.61426  1.0000
  N   N20       1.0  0.96437  0.54007  0.60446  1.0000
  N   N21       1.0  0.46264  0.42759  0.58218  1.0000
  N   N22       1.0  0.62388  0.22119  0.72850  1.0000
  N   N23       1.0  0.78027  0.40644  0.73784  1.0000
  N   N24       1.0  0.59614  0.37745  0.70447  1.0000
  C  Sn1       1.0  0.40042  0.87149  0.17351  1.0000
  C   C97       1.0  0.43631  0.90094  0.25188  1.0000
  C  Sn2       1.0  0.46596  0.89114  0.30244  1.0000
  C  Sn3       1.0  0.45962  0.85108  0.27399  1.0000
  C   C98       1.0  0.42376  0.82166  0.19564  1.0000
  C  Sn4       1.0  0.39408  0.83143  0.14506  1.0000
  O  Te1       1.0  0.37119  0.88197  0.12400  1.0000
  O  Te2       1.0  0.50159  0.92109  0.38059  1.0000
  O  Te3       1.0  0.48889  0.84062  0.32358  1.0000
  O  Te4       1.0  0.35848  0.80150  0.06693  1.0000
  Mg  Mg1       1.0  0.53240  0.89200  0.42514  1.0000
  Mg  Mg2       1.0  0.32766  0.83056  0.02225  1.0000
  C  Sn5       1.0  0.12588  0.52841  0.15141  1.0000
  C   C99       1.0  0.09717  0.53584  0.22964  1.0000
  C  Sn6       1.0  0.10814  0.57586  0.27614  1.0000
  C  Sn7       1.0  0.14864  0.60915  0.24366  1.0000
  C   C100      1.0  0.17731  0.60172  0.16545  1.0000
  C  Sn8       1.0  0.16637  0.56171  0.11894  1.0000
  O  Te5       1.0  0.11424  0.48816  0.10601  1.0000
  O  Te6       1.0  0.07891  0.58251  0.35425  1.0000
  O  Te7       1.0  0.16026  0.64942  0.28915  1.0000
  O  Te8       1.0  0.19557  0.55504  0.04084  1.0000
  Mg  Mg3       1.0  0.10952  0.64285  0.39238  1.0000
  Mg  Mg4       1.0  0.16499  0.49472  0.00259  1.0000
  C  Sn9       1.0  0.44861  0.59636  0.09336  1.0000
  C   C101      1.0  0.40956  0.58005  0.16541  1.0000
  C  Sn10      1.0  0.39615  0.54875  0.28463  1.0000
  C  Sn11      1.0  0.42233  0.53345  0.33293  1.0000
  C   C102      1.0  0.46136  0.54977  0.26091  1.0000
  C  Sn12      1.0  0.47479  0.58107  0.14165  1.0000
  O  Te9       1.0  0.45983  0.62424  0.97442  1.0000
  O  Te10      1.0  0.35698  0.53291  0.35487  1.0000
  O  Te11      1.0  0.40953  0.50215  0.45196  1.0000
  O  Te12      1.0  0.51394  0.59690  0.07145  1.0000
  Mg  Mg5       1.0  0.35352  0.49055  0.51186  1.0000
  Mg  Mg6       1.0  0.51590  0.63588  0.91452  1.0000
  C  Sn13      1.0  0.54157  0.15056  0.18006  1.0000
  C   C103      1.0  0.58081  0.17347  0.24895  1.0000
  C  Sn14      1.0  0.60201  0.15382  0.30288  1.0000
  C  Sn15      1.0  0.58361  0.11038  0.28754  1.0000
  C   C104      1.0  0.54440  0.08749  0.21865  1.0000
  C  Sn16      1.0  0.52317  0.10711  0.16471  1.0000
  O  Te13      1.0  0.52094  0.17084  0.12696  1.0000
  O  Te14      1.0  0.64120  0.17738  0.37140  1.0000
  O  Te15      1.0  0.60427  0.09010  0.34071  1.0000
  O  Te16      1.0  0.48401  0.08357  0.09621  1.0000
  Mg  Mg7       1.0  0.65700  0.13561  0.42564  1.0000
  Mg  Mg8       1.0  0.46818  0.12532  0.04184  1.0000
  C  Sn17      1.0  0.84816  0.39027  0.18792  1.0000
  C   C105      1.0  0.82530  0.40658  0.25562  1.0000
  C  Sn18      1.0  0.84496  0.44776  0.30501  1.0000
  C  Sn19      1.0  0.88837  0.47317  0.28625  1.0000
  C   C106      1.0  0.91120  0.45686  0.21857  1.0000
  C  Sn20      1.0  0.89157  0.41568  0.16917  1.0000
  O  Te17      1.0  0.82786  0.34902  0.13939  1.0000
  O  Te18      1.0  0.82146  0.46337  0.37241  1.0000
  O  Te19      1.0  0.90866  0.51445  0.33486  1.0000
  O  Te20      1.0  0.91505  0.40007  0.10178  1.0000
  Mg  Mg9       1.0  0.86323  0.52150  0.41998  1.0000
  Mg  Mg10      1.0  0.87330  0.34196  0.05409  1.0000
  C  Sn21      1.0  0.53832  0.41835  0.33191  1.0000
  C   C107      1.0  0.55413  0.45706  0.25558  1.0000
  C  Sn22      1.0  0.58378  0.46939  0.13120  1.0000
  C  Sn23      1.0  0.59791  0.44246  0.08202  1.0000
  C   C108      1.0  0.58209  0.40377  0.15831  1.0000
  C  Sn24      1.0  0.55244  0.39141  0.28273  1.0000
  O  Te21      1.0  0.50869  0.40667  0.45597  1.0000
  O  Te22      1.0  0.59915  0.50825  0.05674  1.0000
  O  Te23      1.0  0.62601  0.45077  0.95785  1.0000
  O  Te24      1.0  0.53708  0.35258  0.35714  1.0000
  Mg  Mg11      1.0  0.63757  0.50674  0.89351  1.0000
  Mg  Mg12      1.0  0.49709  0.35064  0.52032  1.0000
  C  Sn25      1.0  0.45367  0.85572  0.84507  1.0000
  C   C109      1.0  0.41824  0.82671  0.76296  1.0000
  C  Sn26      1.0  0.39999  0.83954  0.64470  1.0000
  C  Sn27      1.0  0.41753  0.88227  0.60765  1.0000
  C   C110      1.0  0.45294  0.91126  0.68971  1.0000
  C  Sn28      1.0  0.47121  0.89845  0.80802  1.0000
  O  Te25      1.0  0.47140  0.84220  0.96284  1.0000
  O  Te26      1.0  0.36457  0.80995  0.56428  1.0000
  O  Te27      1.0  0.39977  0.89578  0.48977  1.0000
  O  Te28      1.0  0.50661  0.92801  0.88839  1.0000
  Mg  Mg13      1.0  0.35174  0.84368  0.41343  1.0000
  Mg  Mg14      1.0  0.52103  0.89773  0.03920  1.0000
  C  Sn29      1.0  0.14519  0.60010  0.81630  1.0000
  C   C111      1.0  0.17352  0.59260  0.73529  1.0000
  C  Sn30      1.0  0.15993  0.56058  0.62264  1.0000
  C  Sn31      1.0  0.11712  0.53554  0.59020  1.0000
  C   C112      1.0  0.08882  0.54305  0.67115  1.0000
  C  Sn32      1.0  0.10239  0.57506  0.78385  1.0000
  O  Te29      1.0  0.15948  0.63227  0.92842  1.0000
  O  Te30      1.0  0.18884  0.55367  0.54322  1.0000
  O  Te31      1.0  0.10286  0.50335  0.47797  1.0000
  O  Te32      1.0  0.07350  0.58198  0.86322  1.0000
  Mg  Mg15      1.0  0.15421  0.50612  0.40080  1.0000
  Mg  Mg16      1.0  0.10965  0.63294  0.00559  1.0000
  C  Sn33      1.0  0.40251  0.54483  0.84297  1.0000
  C   C113      1.0  0.40923  0.58121  0.76555  1.0000
  C  Sn34      1.0  0.44071  0.60115  0.64891  1.0000
  C  Sn35      1.0  0.46600  0.58437  0.60872  1.0000
  C   C114      1.0  0.45928  0.54801  0.68610  1.0000
  C  Sn36      1.0  0.42780  0.52805  0.80279  1.0000
  O  Te33      1.0  0.37086  0.52541  0.95920  1.0000
  O  Te34      1.0  0.44683  0.63749  0.57319  1.0000
  O  Te35      1.0  0.49767  0.60383  0.49239  1.0000
  O  Te36      1.0  0.42167  0.49173  0.87846  1.0000
  Mg  Mg17      1.0  0.49389  0.65258  0.42276  1.0000
  Mg  Mg18      1.0  0.37616  0.48001  0.02883  1.0000
  C  Sn37      1.0  0.54460  0.15213  0.67759  1.0000
  C   C115      1.0  0.58321  0.17547  0.75108  1.0000
  C  Sn38      1.0  0.60467  0.15639  0.80838  1.0000
  C  Sn39      1.0  0.58719  0.11308  0.79181  1.0000
  C   C116      1.0  0.54861  0.08977  0.71834  1.0000
  C  Sn40      1.0  0.52712  0.10882  0.66102  1.0000
  O  Te37      1.0  0.52369  0.17185  0.62118  1.0000
  O  Te38      1.0  0.64322  0.18038  0.88146  1.0000
  O  Te39      1.0  0.60813  0.09337  0.84830  1.0000
  O  Te40      1.0  0.48860  0.08486  0.58796  1.0000
  Mg  Mg19      1.0  0.65973  0.13931  0.93899  1.0000
  Mg  Mg20      1.0  0.47207  0.12590  0.53031  1.0000
  C  Sn41      1.0  0.87486  0.41824  0.60932  1.0000
  C   C117      1.0  0.90481  0.45323  0.69071  1.0000
  C  Sn42      1.0  0.89338  0.47102  0.81430  1.0000
  C  Sn43      1.0  0.85112  0.45347  0.85753  1.0000
  C   C118      1.0  0.82119  0.41850  0.77618  1.0000
  C  Sn44      1.0  0.83260  0.40068  0.65254  1.0000
  O  Te41      1.0  0.88699  0.40096  0.48615  1.0000
  O  Te42      1.0  0.92388  0.50600  0.89389  1.0000
  O  Te43      1.0  0.83900  0.47078  0.98081  1.0000
  O  Te44      1.0  0.80213  0.36572  0.57300  1.0000
  Mg  Mg21      1.0  0.89350  0.52171  0.05356  1.0000
  Mg  Mg22      1.0  0.83402  0.35338  0.41338  1.0000
  C  Sn45      1.0  0.53279  0.39257  0.75258  1.0000
  C   C119      1.0  0.56876  0.39885  0.67508  1.0000
  C  Sn46      1.0  0.59847  0.43827  0.61941  1.0000
  C  Sn47      1.0  0.59212  0.47213  0.64175  1.0000
  C   C120      1.0  0.55617  0.46584  0.71923  1.0000
  C  Sn48      1.0  0.52643  0.42643  0.77492  1.0000
  O  Te45      1.0  0.50350  0.35289  0.80726  1.0000
  O  Te46      1.0  0.63418  0.44379  0.54224  1.0000
  O  Te47      1.0  0.62145  0.51183  0.58699  1.0000
  O  Te48      1.0  0.49075  0.42091  0.85207  1.0000
  Mg  Mg23      1.0  0.66505  0.50371  0.48915  1.0000
  Mg  Mg24      1.0  0.45986  0.36100  0.90528  1.0000
