data_image0
_chemical_formula_structural       H108C132N24C2Sn2C2HTe2HMgC2Sn2C2HTe2HMgC2Sn2C2HTe2HMgC2Sn2C2HTe2HMgC2Sn2C2HTe2HMgC2Sn2C2HTe2HMg
_chemical_formula_sum              "H120 C156 N24 Sn12 Te12 Mg6"
_cell_length_a       37.5195
_cell_length_b       37.474
_cell_length_c       8.15695
_cell_angle_alpha    89.3103
_cell_angle_beta     90.0446
_cell_angle_gamma    120.363

_symmetry_space_group_name_H-M    'P1'
_space_group_IT_number       1

loop_
  _space_group_symop_operation_xyz
  'x, y, z'

loop_
  _atom_site_type_symbol
  _atom_site_label
  _atom_site_symmetry_multiplicity
  _atom_site_fract_x
  _atom_site_fract_y
  _atom_site_fract_z
  _atom_site_occupancy
  H   H1        1.0  0.28497  0.69172  0.17654  1.0000
  H   H2        1.0  0.30615  0.58897  0.18888  1.0000
  H   H3        1.0  0.40896  0.71373  0.21635  1.0000
  H   H4        1.0  0.36998  0.82110  0.05868  1.0000
  H   H5        1.0  0.17603  0.54699  0.03470  1.0000
  H   H6        1.0  0.45545  0.63226  0.07429  1.0000
  H   H7        1.0  0.34059  0.76120  0.19892  1.0000
  H   H8        1.0  0.23539  0.57570  0.17820  1.0000
  H   H9        1.0  0.42239  0.65802  0.22550  1.0000
  H   H10       1.0  0.39821  0.89649  0.07276  1.0000
  H   H11       1.0  0.10052  0.50104  0.05502  1.0000
  H   H12       1.0  0.50176  0.60350  0.08137  1.0000
  H   H13       1.0  0.49766  0.90870  0.37234  1.0000
  H   H14       1.0  0.09154  0.59075  0.34528  1.0000
  H   H15       1.0  0.41122  0.49847  0.35720  1.0000
  H   H16       1.0  0.46902  0.83236  0.35927  1.0000
  H   H17       1.0  0.16791  0.63714  0.32672  1.0000
  H   H18       1.0  0.36386  0.52693  0.34789  1.0000
  H   H19       1.0  0.46991  0.07518  0.34461  1.0000
  H   H20       1.0  0.93003  0.38690  0.26871  1.0000
  H   H21       1.0  0.60742  0.52829  0.31581  1.0000
  H   H22       1.0  0.39115  0.92021  0.33164  1.0000
  H   H23       1.0  0.07890  0.47433  0.32555  1.0000
  H   H24       1.0  0.52905  0.60362  0.34499  1.0000
  H   H25       1.0  0.38601  0.96299  0.27092  1.0000
  H   H26       1.0  0.03892  0.42625  0.25467  1.0000
  H   H27       1.0  0.57717  0.61253  0.26891  1.0000
  H   H28       1.0  0.69255  0.28349  0.22201  1.0000
  H   H29       1.0  0.71572  0.40846  0.20458  1.0000
  H   H30       1.0  0.59070  0.30580  0.19864  1.0000
  H   H31       1.0  0.63397  0.16408  0.36729  1.0000
  H   H32       1.0  0.57662  0.23565  0.21719  1.0000
  H   H33       1.0  0.76234  0.33946  0.23204  1.0000
  H   H34       1.0  0.65997  0.42226  0.20001  1.0000
  H   H35       1.0  0.58644  0.08804  0.37937  1.0000
  H   H36       1.0  0.49942  0.10205  0.08160  1.0000
  H   H37       1.0  0.54642  0.17748  0.07194  1.0000
  H   H38       1.0  0.40427  0.96142  0.46882  1.0000
  H   H39       1.0  0.03674  0.44193  0.45647  1.0000
  H   H40       1.0  0.55957  0.58949  0.46480  1.0000
  H   H41       1.0  0.53102  0.93733  0.09995  1.0000
  H   H42       1.0  0.06138  0.59420  0.07193  1.0000
  H   H43       1.0  0.40654  0.46792  0.08786  1.0000
  H   H44       1.0  0.43690  0.03058  0.46492  1.0000
  H   H45       1.0  0.94334  0.40774  0.46698  1.0000
  H   H46       1.0  0.59548  0.55817  0.44821  1.0000
  H   H47       1.0  0.42294  0.03559  0.26221  1.0000
  H   H48       1.0  0.97629  0.39522  0.35916  1.0000
  H   H49       1.0  0.61406  0.57631  0.24728  1.0000
  H   H50       1.0  0.63685  0.03517  0.48355  1.0000
  H   H51       1.0  0.00275  0.63423  0.56839  1.0000
  H   H52       1.0  0.39723  0.36532  0.45888  1.0000
  H   H53       1.0  0.60340  0.98893  0.37720  1.0000
  H   H54       1.0  0.97013  0.60054  0.41277  1.0000
  H   H55       1.0  0.38288  0.39858  0.35872  1.0000
  H   H56       1.0  0.61802  0.98200  0.06415  1.0000
  H   H57       1.0  0.98956  0.62510  0.06918  1.0000
  H   H58       1.0  0.38247  0.36250  0.04603  1.0000
  H   H59       1.0  0.28460  0.69215  0.68562  1.0000
  H   H60       1.0  0.30691  0.59014  0.68638  1.0000
  H   H61       1.0  0.40917  0.71520  0.71453  1.0000
  H   H62       1.0  0.17596  0.54536  0.54947  1.0000
  H   H63       1.0  0.45585  0.63363  0.58030  1.0000
  H   H64       1.0  0.34012  0.76190  0.70832  1.0000
  H   H65       1.0  0.23631  0.57619  0.68779  1.0000
  H   H66       1.0  0.42277  0.65934  0.72999  1.0000
  H   H67       1.0  0.10037  0.50027  0.56816  1.0000
  H   H68       1.0  0.50135  0.60396  0.58249  1.0000
  H   H69       1.0  0.09203  0.59297  0.84029  1.0000
  H   H70       1.0  0.41061  0.49922  0.85955  1.0000
  H   H71       1.0  0.16835  0.63895  0.81882  1.0000
  H   H72       1.0  0.36378  0.52831  0.85219  1.0000
  H   H73       1.0  0.47499  0.07825  0.84392  1.0000
  H   H74       1.0  0.92205  0.39812  0.85242  1.0000
  H   H75       1.0  0.60472  0.52603  0.81698  1.0000
  H   H76       1.0  0.39373  0.92339  0.83285  1.0000
  H   H77       1.0  0.07624  0.47158  0.82058  1.0000
  H   H78       1.0  0.52821  0.60329  0.84246  1.0000
  H   H79       1.0  0.38946  0.96678  0.77460  1.0000
  H   H80       1.0  0.03249  0.42419  0.76346  1.0000
  H   H81       1.0  0.57588  0.61217  0.76122  1.0000
  H   H82       1.0  0.69413  0.28693  0.73074  1.0000
  H   H83       1.0  0.71526  0.41104  0.71809  1.0000
  H   H84       1.0  0.59100  0.30724  0.70096  1.0000
  H   H85       1.0  0.57780  0.23707  0.71719  1.0000
  H   H86       1.0  0.76372  0.34399  0.73872  1.0000
  H   H87       1.0  0.65843  0.42372  0.71236  1.0000
  H   H88       1.0  0.40837  0.96477  0.97088  1.0000
  H   H89       1.0  0.03484  0.44369  0.96130  1.0000
  H   H90       1.0  0.55958  0.58955  0.95856  1.0000
  H   H91       1.0  0.53227  0.93786  0.59674  1.0000
  H   H92       1.0  0.06319  0.59568  0.57060  1.0000
  H   H93       1.0  0.40468  0.46798  0.58730  1.0000
  H   H94       1.0  0.44141  0.03395  0.96401  1.0000
  H   H95       1.0  0.96635  0.40952  0.97022  1.0000
  H   H96       1.0  0.59359  0.55721  0.94519  1.0000
  H   H97       1.0  0.42755  0.03953  0.76179  1.0000
  H   H98       1.0  0.96103  0.39008  0.76935  1.0000
  H   H99       1.0  0.61304  0.57449  0.74445  1.0000
  H   H100      1.0  0.63643  0.03455  0.00419  1.0000
  H   H101      1.0  0.97135  0.59553  0.88721  1.0000
  H   H102      1.0  0.40259  0.38554  0.85141  1.0000
  H   H103      1.0  0.60280  0.99377  0.87335  1.0000
  H   H104      1.0  0.02546  0.62783  0.91955  1.0000
  H   H105      1.0  0.36794  0.39689  0.95681  1.0000
  H   H106      1.0  0.62286  0.98600  0.57292  1.0000
  H   H107      1.0  0.02487  0.62599  0.39032  1.0000
  H   H108      1.0  0.36293  0.37838  0.55771  1.0000
  C   C1        1.0  0.39687  0.83988  0.13429  1.0000
  C   C2        1.0  0.15787  0.55610  0.10840  1.0000
  C   C3        1.0  0.44601  0.60347  0.14105  1.0000
  C   C4        1.0  0.30658  0.68042  0.18270  1.0000
  C   C5        1.0  0.31767  0.62210  0.18924  1.0000
  C   C6        1.0  0.37598  0.69199  0.20479  1.0000
  C   C7        1.0  0.34903  0.70783  0.19494  1.0000
  C   C8        1.0  0.29052  0.63736  0.18100  1.0000
  C   C9        1.0  0.36067  0.64936  0.20131  1.0000
  C   C10       1.0  0.36437  0.75222  0.20135  1.0000
  C   C11       1.0  0.24580  0.60893  0.17865  1.0000
  C   C12       1.0  0.38965  0.63410  0.21256  1.0000
  C   C13       1.0  0.41677  0.82132  0.21475  1.0000
  C   C14       1.0  0.17756  0.59478  0.18569  1.0000
  C   C15       1.0  0.40655  0.58199  0.21476  1.0000
  C   C16       1.0  0.41293  0.88244  0.14129  1.0000
  C   C17       1.0  0.11521  0.53023  0.11923  1.0000
  C   C18       1.0  0.47212  0.58711  0.14433  1.0000
  C   C19       1.0  0.44934  0.90817  0.22805  1.0000
  C   C20       1.0  0.09026  0.54179  0.20563  1.0000
  C   C21       1.0  0.46031  0.54891  0.22174  1.0000
  C   C22       1.0  0.46941  0.88932  0.30510  1.0000
  C   C23       1.0  0.11016  0.58112  0.27774  1.0000
  C   C24       1.0  0.42078  0.52778  0.29499  1.0000
  C   C25       1.0  0.45379  0.84693  0.29786  1.0000
  C   C26       1.0  0.15274  0.60722  0.26749  1.0000
  C   C27       1.0  0.39423  0.54349  0.29018  1.0000
  C   C28       1.0  0.46873  0.95377  0.23014  1.0000
  C   C29       1.0  0.04471  0.51569  0.21468  1.0000
  C   C30       1.0  0.48618  0.52936  0.21828  1.0000
  C   C31       1.0  0.51027  0.97779  0.18226  1.0000
  C   C32       1.0  0.02091  0.53315  0.16694  1.0000
  C   C33       1.0  0.46863  0.48867  0.16235  1.0000
  C   C34       1.0  0.47156  0.02031  0.27863  1.0000
  C   C35       1.0  0.97829  0.45167  0.27510  1.0000
  C   C36       1.0  0.55022  0.52646  0.25918  1.0000
  C   C37       1.0  0.40541  0.95381  0.33969  1.0000
  C   C38       1.0  0.04549  0.45312  0.32944  1.0000
  C   C39       1.0  0.54943  0.59072  0.33925  1.0000
  C   C40       1.0  0.60430  0.15014  0.30572  1.0000
  C   C41       1.0  0.68158  0.30539  0.21434  1.0000
  C   C42       1.0  0.69376  0.37534  0.20485  1.0000
  C   C43       1.0  0.62375  0.31710  0.20125  1.0000
  C   C44       1.0  0.63866  0.28967  0.20838  1.0000
  C   C45       1.0  0.70922  0.34801  0.21331  1.0000
  C   C46       1.0  0.65124  0.36020  0.19957  1.0000
  C   C47       1.0  0.60958  0.24510  0.21463  1.0000
  C   C48       1.0  0.75352  0.36336  0.22432  1.0000
  C   C49       1.0  0.63605  0.38928  0.19835  1.0000
  C   C50       1.0  0.59309  0.17618  0.22364  1.0000
  C   C51       1.0  0.57772  0.10759  0.31145  1.0000
  C   C52       1.0  0.53916  0.08938  0.23284  1.0000
  C   C53       1.0  0.52816  0.11544  0.14954  1.0000
  C   C54       1.0  0.55457  0.15814  0.14457  1.0000
  C   C55       1.0  0.51348  0.04370  0.23069  1.0000
  C   C56       1.0  0.95504  0.47015  0.22674  1.0000
  C   C57       1.0  0.53162  0.48533  0.20426  1.0000
  C   C58       1.0  0.53247  0.02137  0.18025  1.0000
  C   C59       1.0  0.97736  0.51152  0.17017  1.0000
  C   C60       1.0  0.49018  0.46693  0.15260  1.0000
  C   C61       1.0  0.44946  0.97611  0.27795  1.0000
  C   C62       1.0  0.02237  0.47399  0.26907  1.0000
  C   C63       1.0  0.52793  0.54808  0.26657  1.0000
  C   C64       1.0  0.44927  0.04164  0.34063  1.0000
  C   C65       1.0  0.95602  0.40810  0.34507  1.0000
  C   C66       1.0  0.59408  0.54834  0.32067  1.0000
  C   C67       1.0  0.57416  0.00293  0.08166  1.0000
  C   C68       1.0  0.99594  0.57133  0.06051  1.0000
  C   C69       1.0  0.42972  0.42630  0.05164  1.0000
  C   C70       1.0  0.60983  0.00304  0.00214  1.0000
  C   C71       1.0  0.99579  0.60711  0.97997  1.0000
  C   C72       1.0  0.39351  0.39095  0.97249  1.0000
  C   C73       1.0  0.15787  0.55540  0.61846  1.0000
  C   C74       1.0  0.44606  0.60455  0.64509  1.0000
  C   C75       1.0  0.30649  0.68116  0.68787  1.0000
  C   C76       1.0  0.31821  0.62323  0.68871  1.0000
  C   C77       1.0  0.37619  0.69332  0.70425  1.0000
  C   C78       1.0  0.34895  0.70887  0.69726  1.0000
  C   C79       1.0  0.29079  0.63816  0.68381  1.0000
  C   C80       1.0  0.36114  0.65075  0.70090  1.0000
  C   C81       1.0  0.36412  0.75325  0.70500  1.0000
  C   C82       1.0  0.24617  0.60930  0.68378  1.0000
  C   C83       1.0  0.39008  0.63551  0.71466  1.0000
  C   C84       1.0  0.17769  0.59485  0.68938  1.0000
  C   C85       1.0  0.40651  0.58309  0.71802  1.0000
  C   C86       1.0  0.11515  0.52999  0.62849  1.0000
  C   C87       1.0  0.47175  0.58772  0.64591  1.0000
  C   C88       1.0  0.09030  0.54258  0.70930  1.0000
  C   C89       1.0  0.45954  0.54925  0.72157  1.0000
  C   C90       1.0  0.11044  0.58253  0.77632  1.0000
  C   C91       1.0  0.42027  0.52851  0.79698  1.0000
  C   C92       1.0  0.15301  0.60834  0.76521  1.0000
  C   C93       1.0  0.39403  0.54458  0.79358  1.0000
  C   C94       1.0  0.47101  0.95560  0.72880  1.0000
  C   C95       1.0  0.04471  0.51719  0.71691  1.0000
  C   C96       1.0  0.48489  0.52922  0.71546  1.0000
  C   C97       1.0  0.51257  0.97912  0.67998  1.0000
  C   C98       1.0  0.02156  0.53541  0.66849  1.0000
  C   C99       1.0  0.46683  0.48843  0.65968  1.0000
  C   C100      1.0  0.47520  0.02281  0.77714  1.0000
  C   C101      1.0  0.97740  0.45443  0.77924  1.0000
  C   C102      1.0  0.54856  0.52574  0.75565  1.0000
  C   C103      1.0  0.40867  0.95704  0.84126  1.0000
  C   C104      1.0  0.04262  0.45285  0.83173  1.0000
  C   C105      1.0  0.54862  0.59047  0.83426  1.0000
  C   C106      1.0  0.68254  0.30831  0.72273  1.0000
  C   C107      1.0  0.69362  0.37785  0.71540  1.0000
  C   C108      1.0  0.62409  0.31889  0.70617  1.0000
  C   C109      1.0  0.63949  0.29186  0.71458  1.0000
  C   C110      1.0  0.70964  0.35103  0.72285  1.0000
  C   C111      1.0  0.65107  0.36208  0.70741  1.0000
  C   C112      1.0  0.61092  0.24713  0.71899  1.0000
  C   C113      1.0  0.75409  0.36728  0.73317  1.0000
  C   C114      1.0  0.63518  0.39056  0.70638  1.0000
  C   C115      1.0  0.51718  0.04567  0.72942  1.0000
  C   C116      1.0  0.95488  0.47370  0.73173  1.0000
  C   C117      1.0  0.52947  0.48459  0.70081  1.0000
  C   C118      1.0  0.53545  0.02274  0.67825  1.0000
  C   C119      1.0  0.97805  0.51488  0.67298  1.0000
  C   C120      1.0  0.48808  0.46643  0.64940  1.0000
  C   C121      1.0  0.45245  0.97860  0.77682  1.0000
  C   C122      1.0  0.02148  0.47564  0.77139  1.0000
  C   C123      1.0  0.52670  0.54771  0.76278  1.0000
  C   C124      1.0  0.45371  0.04485  0.83966  1.0000
  C   C125      1.0  0.95542  0.41070  0.84619  1.0000
  C   C126      1.0  0.59231  0.54690  0.81849  1.0000
  C   C127      1.0  0.57614  0.00332  0.57711  1.0000
  C   C128      1.0  0.99805  0.57461  0.55942  1.0000
  C   C129      1.0  0.42715  0.42571  0.55231  1.0000
  C   C130      1.0  0.61176  0.00307  0.49884  1.0000
  C   C131      1.0  0.99920  0.61099  0.47851  1.0000
  C   C132      1.0  0.39032  0.39009  0.47805  1.0000
  N   N1        1.0  0.53777  0.96670  0.12071  1.0000
  N   N2        1.0  0.03209  0.57153  0.09832  1.0000
  N   N3        1.0  0.42988  0.46184  0.09860  1.0000
  N   N4        1.0  0.40322  0.77898  0.21301  1.0000
  N   N5        1.0  0.22027  0.62244  0.18448  1.0000
  N   N6        1.0  0.37763  0.59520  0.21080  1.0000
  N   N7        1.0  0.57212  0.03609  0.11773  1.0000
  N   N8        1.0  0.96281  0.53617  0.10380  1.0000
  N   N9        1.0  0.46515  0.42831  0.08353  1.0000
  N   N10       1.0  0.62195  0.21867  0.22100  1.0000
  N   N11       1.0  0.78031  0.40236  0.22739  1.0000
  N   N12       1.0  0.59713  0.37691  0.20116  1.0000
  N   N13       1.0  0.53947  0.96741  0.61681  1.0000
  N   N14       1.0  0.03365  0.57378  0.59773  1.0000
  N   N15       1.0  0.42776  0.46154  0.59860  1.0000
  N   N16       1.0  0.40303  0.78014  0.71244  1.0000
  N   N17       1.0  0.22035  0.62247  0.68662  1.0000
  N   N18       1.0  0.37784  0.59656  0.71326  1.0000
  N   N19       1.0  0.57484  0.03682  0.61426  1.0000
  N   N20       1.0  0.96437  0.54007  0.60446  1.0000
  N   N21       1.0  0.46264  0.42759  0.58218  1.0000
  N   N22       1.0  0.62388  0.22119  0.72850  1.0000
  N   N23       1.0  0.78027  0.40644  0.73784  1.0000
  N   N24       1.0  0.59614  0.37745  0.70447  1.0000
  C   C133      1.0  0.53770  0.39710  0.80340  1.0000
  C   C134      1.0  0.57108  0.40071  0.71350  1.0000
  C  Sn1       1.0  0.59563  0.43619  0.61871  1.0000
  C  Sn2       1.0  0.58651  0.46860  0.61413  1.0000
  C   C135      1.0  0.55306  0.46471  0.70461  1.0000
  C   C136      1.0  0.52869  0.42906  0.79901  1.0000
  H   H109      1.0  0.51885  0.36953  0.87651  1.0000
  O  Te1       1.0  0.62886  0.43928  0.52959  1.0000
  O  Te2       1.0  0.61055  0.50441  0.52047  1.0000
  H   H110      1.0  0.50286  0.42629  0.86869  1.0000
  Mg  Mg1       1.0  0.65253  0.49415  0.42018  1.0000
  C   C137      1.0  0.46340  0.85831  0.80665  1.0000
  C   C138      1.0  0.42594  0.82824  0.74000  1.0000
  C  Sn3       1.0  0.40085  0.83985  0.65586  1.0000
  C  Sn4       1.0  0.41359  0.88237  0.63829  1.0000
  C   C139      1.0  0.45113  0.91222  0.70531  1.0000
  C   C140      1.0  0.47599  0.90026  0.78932  1.0000
  H   H111      1.0  0.48265  0.84906  0.87157  1.0000
  O  Te3       1.0  0.36352  0.80940  0.59008  1.0000
  O  Te4       1.0  0.38912  0.89483  0.55473  1.0000
  H   H112      1.0  0.50500  0.92355  0.84082  1.0000
  Mg  Mg2       1.0  0.34088  0.84181  0.48681  1.0000
  C   C141      1.0  0.54853  0.15072  0.62681  1.0000
  C   C142      1.0  0.58510  0.17501  0.71265  1.0000
  C  Sn5       1.0  0.60212  0.15638  0.80916  1.0000
  C  Sn6       1.0  0.58209  0.11261  0.81965  1.0000
  C   C143      1.0  0.54553  0.08858  0.73321  1.0000
  C   C144      1.0  0.52876  0.10755  0.63703  1.0000
  H   H113      1.0  0.53556  0.16540  0.55232  1.0000
  O  Te5       1.0  0.63867  0.18111  0.89417  1.0000
  O  Te6       1.0  0.59844  0.09318  0.91516  1.0000
  H   H114      1.0  0.50046  0.08873  0.57050  1.0000
  Mg  Mg3       1.0  0.65043  0.14359  0.00821  1.0000
  C   C145      1.0  0.88235  0.47527  0.83162  1.0000
  C   C146      1.0  0.90548  0.45881  0.76796  1.0000
  C  Sn7       1.0  0.88629  0.42263  0.67631  1.0000
  C  Sn8       1.0  0.84314  0.40264  0.64802  1.0000
  C   C147      1.0  0.82027  0.41937  0.71214  1.0000
  C   C148      1.0  0.83979  0.45557  0.80373  1.0000
  H   H115      1.0  0.89745  0.50329  0.90241  1.0000
  O  Te7       1.0  0.90986  0.40660  0.61365  1.0000
  O  Te8       1.0  0.82318  0.36645  0.55679  1.0000
  H   H116      1.0  0.82187  0.46832  0.85291  1.0000
  Mg  Mg4       1.0  0.86858  0.35657  0.49702  1.0000
  C   C149      1.0  0.53880  0.39679  0.29952  1.0000
  C   C150      1.0  0.57245  0.40062  0.21095  1.0000
  C  Sn9       1.0  0.59775  0.43666  0.12033  1.0000
  C  Sn10      1.0  0.58912  0.46941  0.11862  1.0000
  C   C151      1.0  0.55539  0.46529  0.20773  1.0000
  C   C152      1.0  0.53027  0.42909  0.29795  1.0000
  H   H117      1.0  0.51937  0.36880  0.36940  1.0000
  O  Te9       1.0  0.63125  0.43997  0.03249  1.0000
  O  Te10      1.0  0.61391  0.50577  0.02913  1.0000
  H   H118      1.0  0.50423  0.42614  0.36660  1.0000
  Mg  Mg5       1.0  0.65444  0.49221  0.92909  1.0000
  C   C153      1.0  0.88218  0.47150  0.31968  1.0000
  C   C154      1.0  0.90551  0.45486  0.25977  1.0000
  C  Sn11      1.0  0.88646  0.41799  0.17249  1.0000
  C  Sn12      1.0  0.84325  0.39746  0.14483  1.0000
  C   C155      1.0  0.82020  0.41437  0.20518  1.0000
  C   C156      1.0  0.83957  0.45129  0.29241  1.0000
  H   H119      1.0  0.89717  0.50008  0.38710  1.0000
  O  Te11      1.0  0.91022  0.40178  0.11354  1.0000
  O  Te12      1.0  0.82343  0.36057  0.05794  1.0000
  H   H120      1.0  0.82151  0.46418  0.33869  1.0000
  Mg  Mg6       1.0  0.86908  0.35072  0.00214  1.0000
