data_image0
_chemical_formula_structural       H72C90N24SnCSn2CSnTe4Mg2SnCSn2CSnTe4Mg2SnCSn2CSnTe4Mg2SnCSn2CSnTe4Mg2SnCSn2CSnTe4Mg2SnCSn2CSnTe4Mg2SnCSn2CSnTe4Mg2SnCSn2CSnTe4Mg2SnCSn2CSnTe4Mg2SnCSn2CSnTe4Mg2SnCSn2CSnTe4Mg2SnCSn2CSnTe4Mg2
_chemical_formula_sum              "H72 C114 N24 Sn48 Te48 Mg24"
_cell_length_a       37.368
_cell_length_b       37.5869
_cell_length_c       8.12769
_cell_angle_alpha    90.4271
_cell_angle_beta     89.7417
_cell_angle_gamma    120.293

_symmetry_space_group_name_H-M    'P1'
_space_group_IT_number       1

loop_
  _space_group_symop_operation_xyz
  'x, y, z'

loop_
  _atom_site_type_symbol
  _atom_site_label
  _atom_site_symmetry_multiplicity
  _atom_site_fract_x
  _atom_site_fract_y
  _atom_site_fract_z
  _atom_site_occupancy
  H   H1        1.0  0.28377  0.68987  0.00803  1.0000
  H   H2        1.0  0.31022  0.59082  0.00384  1.0000
  H   H3        1.0  0.41038  0.71699  0.00647  1.0000
  H   H4        1.0  0.33846  0.76276  0.51278  1.0000
  H   H5        1.0  0.23712  0.57657  0.51084  1.0000
  H   H6        1.0  0.42460  0.66333  0.51420  1.0000
  H   H7        1.0  0.46963  0.07595  0.15254  1.0000
  H   H8        1.0  0.92026  0.39600  0.12168  1.0000
  H   H9        1.0  0.60894  0.52737  0.12673  1.0000
  H   H10       1.0  0.39061  0.92169  0.14411  1.0000
  H   H11       1.0  0.07531  0.46996  0.13629  1.0000
  H   H12       1.0  0.53517  0.60772  0.14219  1.0000
  H   H13       1.0  0.38523  0.96422  0.08846  1.0000
  H   H14       1.0  0.03390  0.42240  0.06325  1.0000
  H   H15       1.0  0.58242  0.61456  0.06268  1.0000
  H   H16       1.0  0.68925  0.28278  0.49097  1.0000
  H   H17       1.0  0.71502  0.40813  0.48563  1.0000
  H   H18       1.0  0.58865  0.30769  0.50405  1.0000
  H   H19       1.0  0.57331  0.23718  0.51846  1.0000
  H   H20       1.0  0.76036  0.33827  0.49346  1.0000
  H   H21       1.0  0.66085  0.42367  0.50058  1.0000
  H   H22       1.0  0.40553  0.96352  0.28336  1.0000
  H   H23       1.0  0.03086  0.44086  0.26051  1.0000
  H   H24       1.0  0.56589  0.59395  0.26163  1.0000
  H   H25       1.0  0.06382  0.59031  0.38858  1.0000
  H   H26       1.0  0.40905  0.47509  0.39810  1.0000
  H   H27       1.0  0.53132  0.93891  0.38642  1.0000
  H   H28       1.0  0.44053  0.03340  0.28447  1.0000
  H   H29       1.0  0.96414  0.40385  0.23542  1.0000
  H   H30       1.0  0.59926  0.56051  0.25244  1.0000
  H   H31       1.0  0.42086  0.03473  0.08841  1.0000
  H   H32       1.0  0.95769  0.38669  0.02873  1.0000
  H   H33       1.0  0.61826  0.57529  0.04982  1.0000
  H   H34       1.0  0.40386  0.40691  0.30512  1.0000
  H   H35       1.0  0.00011  0.59456  0.29790  1.0000
  H   H36       1.0  0.59922  0.00430  0.30420  1.0000
  H   H37       1.0  0.28273  0.69196  0.50183  1.0000
  H   H38       1.0  0.30818  0.59215  0.49870  1.0000
  H   H39       1.0  0.40897  0.71802  0.50327  1.0000
  H   H40       1.0  0.33878  0.76070  0.02382  1.0000
  H   H41       1.0  0.23825  0.57487  0.01095  1.0000
  H   H42       1.0  0.42664  0.66306  0.01752  1.0000
  H   H43       1.0  0.46944  0.07555  0.65478  1.0000
  H   H44       1.0  0.95558  0.38213  0.51509  1.0000
  H   H45       1.0  0.61138  0.53353  0.61679  1.0000
  H   H46       1.0  0.39366  0.92139  0.64804  1.0000
  H   H47       1.0  0.07473  0.46648  0.63538  1.0000
  H   H48       1.0  0.53574  0.61198  0.63267  1.0000
  H   H49       1.0  0.38592  0.96248  0.59114  1.0000
  H   H50       1.0  0.03392  0.41889  0.55910  1.0000
  H   H51       1.0  0.58385  0.61750  0.57017  1.0000
  H   H52       1.0  0.69257  0.28345  0.00440  1.0000
  H   H53       1.0  0.71483  0.40760  0.99152  1.0000
  H   H54       1.0  0.58973  0.30500  0.01034  1.0000
  H   H55       1.0  0.57575  0.23578  0.02645  1.0000
  H   H56       1.0  0.76316  0.34038  0.00169  1.0000
  H   H57       1.0  0.65869  0.42101  0.00090  1.0000
  H   H58       1.0  0.40783  0.96346  0.78470  1.0000
  H   H59       1.0  0.03050  0.43596  0.75895  1.0000
  H   H60       1.0  0.56348  0.59718  0.76610  1.0000
  H   H61       1.0  0.06528  0.59490  0.89159  1.0000
  H   H62       1.0  0.40992  0.47266  0.88011  1.0000
  H   H63       1.0  0.52833  0.93670  0.88653  1.0000
  H   H64       1.0  0.43904  0.03182  0.77988  1.0000
  H   H65       1.0  0.91938  0.39068  0.62283  1.0000
  H   H66       1.0  0.59755  0.56037  0.76001  1.0000
  H   H67       1.0  0.42175  0.03460  0.58063  1.0000
  H   H68       1.0  0.96443  0.39725  0.72444  1.0000
  H   H69       1.0  0.61768  0.58209  0.56558  1.0000
  H   H70       1.0  0.40512  0.40481  0.78792  1.0000
  H   H71       1.0  0.00170  0.60019  0.80836  1.0000
  H   H72       1.0  0.59634  0.00149  0.80089  1.0000
  C   C1        1.0  0.30658  0.67994  0.00584  1.0000
  C   C2        1.0  0.32058  0.62360  0.00323  1.0000
  C   C3        1.0  0.37742  0.69426  0.00513  1.0000
  C   C4        1.0  0.34899  0.70850  0.00642  1.0000
  C   C5        1.0  0.29207  0.63729  0.00422  1.0000
  C   C6        1.0  0.36358  0.65208  0.00413  1.0000
  C   C7        1.0  0.36318  0.75254  0.01317  1.0000
  C   C8        1.0  0.24754  0.60770  0.00786  1.0000
  C   C9        1.0  0.39395  0.63842  0.00913  1.0000
  C   C10       1.0  0.46708  0.95412  0.02946  1.0000
  C   C11       1.0  0.04504  0.51447  0.01715  1.0000
  C   C12       1.0  0.49064  0.53322  0.01520  1.0000
  C   C13       1.0  0.51018  0.97916  0.47186  1.0000
  C   C14       1.0  0.02113  0.52847  0.46394  1.0000
  C   C15       1.0  0.47185  0.49529  0.46481  1.0000
  C   C16       1.0  0.47086  0.02094  0.08450  1.0000
  C   C17       1.0  0.97684  0.45134  0.05712  1.0000
  C   C18       1.0  0.55328  0.52799  0.06357  1.0000
  C   C19       1.0  0.40521  0.95521  0.15299  1.0000
  C   C20       1.0  0.04157  0.45046  0.13356  1.0000
  C   C21       1.0  0.55494  0.59404  0.13636  1.0000
  C   C22       1.0  0.67882  0.30512  0.48990  1.0000
  C   C23       1.0  0.69244  0.37527  0.48710  1.0000
  C   C24       1.0  0.62165  0.31828  0.49732  1.0000
  C   C25       1.0  0.63584  0.29024  0.49611  1.0000
  C   C26       1.0  0.70720  0.34740  0.48687  1.0000
  C   C27       1.0  0.64996  0.36107  0.49258  1.0000
  C   C28       1.0  0.60617  0.24599  0.50763  1.0000
  C   C29       1.0  0.75166  0.36223  0.49038  1.0000
  C   C30       1.0  0.63602  0.39109  0.49744  1.0000
  C   C31       1.0  0.51220  0.04383  0.02890  1.0000
  C   C32       1.0  0.95499  0.47084  0.00592  1.0000
  C   C33       1.0  0.53349  0.48668  0.00914  1.0000
  C   C34       1.0  0.53205  0.02264  0.47044  1.0000
  C   C35       1.0  0.97751  0.50751  0.45497  1.0000
  C   C36       1.0  0.49259  0.47268  0.45483  1.0000
  C   C37       1.0  0.44860  0.97685  0.08403  1.0000
  C   C38       1.0  0.02108  0.47277  0.06350  1.0000
  C   C39       1.0  0.53221  0.55089  0.06670  1.0000
  C   C40       1.0  0.44940  0.04248  0.15562  1.0000
  C   C41       1.0  0.95350  0.40720  0.11390  1.0000
  C   C42       1.0  0.59723  0.54881  0.12639  1.0000
  C   C43       1.0  0.57310  0.00435  0.36246  1.0000
  C   C44       1.0  0.99864  0.56782  0.35457  1.0000
  C   C45       1.0  0.43128  0.43270  0.35873  1.0000
  C   C46       1.0  0.30524  0.68166  0.50023  1.0000
  C   C47       1.0  0.31873  0.62498  0.49914  1.0000
  C   C48       1.0  0.37595  0.69540  0.50099  1.0000
  C   C49       1.0  0.34776  0.70993  0.50048  1.0000
  C   C50       1.0  0.29043  0.63896  0.50020  1.0000
  C   C51       1.0  0.36177  0.65317  0.50077  1.0000
  C   C52       1.0  0.36252  0.75408  0.50579  1.0000
  C   C53       1.0  0.24598  0.60926  0.50655  1.0000
  C   C54       1.0  0.39176  0.63904  0.50736  1.0000
  C   C55       1.0  0.46906  0.95518  0.52622  1.0000
  C   C56       1.0  0.04368  0.51015  0.51845  1.0000
  C   C57       1.0  0.49054  0.53641  0.51881  1.0000
  C   C58       1.0  0.50815  0.97766  0.97353  1.0000
  C   C59       1.0  0.02252  0.53293  0.96388  1.0000
  C   C60       1.0  0.47187  0.49223  0.95889  1.0000
  C   C61       1.0  0.47188  0.02131  0.58409  1.0000
  C   C62       1.0  0.97561  0.44656  0.55673  1.0000
  C   C63       1.0  0.55373  0.53175  0.56205  1.0000
  C   C64       1.0  0.40706  0.95480  0.65456  1.0000
  C   C65       1.0  0.04102  0.44640  0.63243  1.0000
  C   C66       1.0  0.55490  0.59758  0.63698  1.0000
  C   C67       1.0  0.68122  0.30504  0.00166  1.0000
  C   C68       1.0  0.69290  0.37456  0.99432  1.0000
  C   C69       1.0  0.62289  0.31634  0.00507  1.0000
  C   C70       1.0  0.63804  0.28911  0.00667  1.0000
  C   C71       1.0  0.70870  0.34755  0.99641  1.0000
  C   C72       1.0  0.65021  0.35925  0.99882  1.0000
  C   C73       1.0  0.60868  0.24481  0.01738  1.0000
  C   C74       1.0  0.75341  0.36356  0.99991  1.0000
  C   C75       1.0  0.63483  0.38811  0.00186  1.0000
  C   C76       1.0  0.51324  0.04479  0.52920  1.0000
  C   C77       1.0  0.95365  0.46599  0.50504  1.0000
  C   C78       1.0  0.53424  0.49042  0.50695  1.0000
  C   C79       1.0  0.53040  0.02113  0.97009  1.0000
  C   C80       1.0  0.97886  0.51226  0.95603  1.0000
  C   C81       1.0  0.49229  0.46930  0.95301  1.0000
  C   C82       1.0  0.45015  0.97729  0.58284  1.0000
  C   C83       1.0  0.01992  0.46842  0.56471  1.0000
  C   C84       1.0  0.53235  0.55442  0.56728  1.0000
  C   C85       1.0  0.44948  0.04205  0.65328  1.0000
  C   C86       1.0  0.95253  0.40191  0.60820  1.0000
  C   C87       1.0  0.59737  0.55288  0.62877  1.0000
  C   C88       1.0  0.57062  0.00197  0.86088  1.0000
  C   C89       1.0  0.00010  0.57298  0.86064  1.0000
  C   C90       1.0  0.43200  0.43008  0.84703  1.0000
  N   N1        1.0  0.53730  0.96817  0.40278  1.0000
  N   N2        1.0  0.03399  0.56729  0.40010  1.0000
  N   N3        1.0  0.43246  0.46887  0.40323  1.0000
  N   N4        1.0  0.40208  0.77988  0.01214  1.0000
  N   N5        1.0  0.22100  0.62006  0.01185  1.0000
  N   N6        1.0  0.38273  0.59987  0.00857  1.0000
  N   N7        1.0  0.57119  0.03743  0.40101  1.0000
  N   N8        1.0  0.96442  0.53289  0.38588  1.0000
  N   N9        1.0  0.46648  0.43379  0.38714  1.0000
  N   N10       1.0  0.62067  0.21811  0.01876  1.0000
  N   N11       1.0  0.77965  0.40258  0.00596  1.0000
  N   N12       1.0  0.59585  0.37591  0.00944  1.0000
  N   N13       1.0  0.53479  0.96609  0.90385  1.0000
  N   N14       1.0  0.03543  0.57198  0.90281  1.0000
  N   N15       1.0  0.43310  0.46627  0.89080  1.0000
  N   N16       1.0  0.40157  0.78089  0.50728  1.0000
  N   N17       1.0  0.21884  0.62083  0.51193  1.0000
  N   N18       1.0  0.38029  0.60043  0.50984  1.0000
  N   N19       1.0  0.56925  0.03537  0.89873  1.0000
  N   N20       1.0  0.96580  0.53804  0.89090  1.0000
  N   N21       1.0  0.46663  0.43066  0.88242  1.0000
  N   N22       1.0  0.61836  0.21946  0.51065  1.0000
  N   N23       1.0  0.77872  0.40107  0.49534  1.0000
  N   N24       1.0  0.59728  0.37996  0.50098  1.0000
  C  Sn1       1.0  0.47503  0.88356  0.55558  1.0000
  C   C91       1.0  0.45823  0.90658  0.49362  1.0000
  C  Sn2       1.0  0.41652  0.88720  0.44828  1.0000
  C  Sn3       1.0  0.39106  0.84392  0.46532  1.0000
  C   C92       1.0  0.40786  0.82093  0.52727  1.0000
  C  Sn4       1.0  0.44957  0.84028  0.57262  1.0000
  O  Te1       1.0  0.51680  0.90358  0.60014  1.0000
  O  Te2       1.0  0.40043  0.91086  0.38659  1.0000
  O  Te3       1.0  0.34926  0.82391  0.42069  1.0000
  O  Te4       1.0  0.46565  0.81665  0.63430  1.0000
  Mg  Mg1       1.0  0.34168  0.86946  0.34285  1.0000
  Mg  Mg2       1.0  0.52439  0.85802  0.67816  1.0000
  C  Sn5       1.0  0.14865  0.54998  0.38873  1.0000
  C   C93       1.0  0.17119  0.58873  0.46341  1.0000
  C  Sn6       1.0  0.15322  0.60060  0.58714  1.0000
  C  Sn7       1.0  0.11186  0.57316  0.63736  1.0000
  C   C94       1.0  0.08934  0.53443  0.56272  1.0000
  C  Sn8       1.0  0.10729  0.52254  0.43895  1.0000
  O  Te5       1.0  0.16725  0.53876  0.26529  1.0000
  O  Te6       1.0  0.17636  0.63951  0.65994  1.0000
  O  Te7       1.0  0.09327  0.58442  0.76091  1.0000
  O  Te8       1.0  0.08417  0.48366  0.36619  1.0000
  Mg  Mg3       1.0  0.13742  0.64066  0.82291  1.0000
  Mg  Mg4       1.0  0.12309  0.48247  0.20328  1.0000
  C  Sn9       1.0  0.40795  0.55251  0.64531  1.0000
  C   C95       1.0  0.41290  0.58688  0.56013  1.0000
  C  Sn10      1.0  0.44318  0.60508  0.43810  1.0000
  C  Sn11      1.0  0.46904  0.58859  0.40033  1.0000
  C   C96       1.0  0.46408  0.55424  0.48546  1.0000
  C  Sn12      1.0  0.43381  0.53601  0.60755  1.0000
  O  Te9       1.0  0.37747  0.53481  0.76683  1.0000
  O  Te10      1.0  0.44755  0.63943  0.35465  1.0000
  O  Te11      1.0  0.49953  0.60632  0.27871  1.0000
  O  Te12      1.0  0.42943  0.50169  0.69094  1.0000
  Mg  Mg5       1.0  0.49350  0.65267  0.19920  1.0000
  Mg  Mg6       1.0  0.38348  0.48840  0.84634  1.0000
  C  Sn13      1.0  0.40064  0.84950  0.89762  1.0000
  C   C97       1.0  0.41700  0.82690  0.96763  1.0000
  C  Sn14      1.0  0.44828  0.84332  0.08682  1.0000
  C  Sn15      1.0  0.46330  0.88468  0.13716  1.0000
  C   C98       1.0  0.44694  0.90725  0.06719  1.0000
  C  Sn16      1.0  0.41566  0.89087  0.94797  1.0000
  O  Te13      1.0  0.36960  0.83097  0.77868  1.0000
  O  Te14      1.0  0.46416  0.82011  0.15500  1.0000
  O  Te15      1.0  0.49437  0.90320  0.25620  1.0000
  O  Te16      1.0  0.39978  0.91404  0.87983  1.0000
  Mg  Mg7       1.0  0.50614  0.85899  0.31286  1.0000
  Mg  Mg8       1.0  0.35779  0.87519  0.72202  1.0000
  C  Sn17      1.0  0.14468  0.59663  0.13828  1.0000
  C   C99       1.0  0.17387  0.58928  0.06126  1.0000
  C  Sn18      1.0  0.16111  0.55911  0.94522  1.0000
  C  Sn19      1.0  0.11852  0.53427  0.90525  1.0000
  C   C100      1.0  0.08936  0.54163  0.98222  1.0000
  C  Sn20      1.0  0.10208  0.57179  0.09830  1.0000
  O  Te17      1.0  0.15791  0.62847  0.25391  1.0000
  O  Te18      1.0  0.19087  0.55234  0.86990  1.0000
  O  Te19      1.0  0.10531  0.50241  0.78952  1.0000
  O  Te20      1.0  0.07236  0.57857  0.17358  1.0000
  Mg  Mg9       1.0  0.15754  0.50526  0.72026  1.0000
  Mg  Mg10      1.0  0.10566  0.62565  0.32317  1.0000
  C  Sn21      1.0  0.40749  0.54883  0.13457  1.0000
  C   C101      1.0  0.41456  0.58513  0.05925  1.0000
  C  Sn22      1.0  0.44658  0.60665  0.94596  1.0000
  C  Sn23      1.0  0.47227  0.59003  0.90704  1.0000
  C   C102      1.0  0.46519  0.55375  0.98231  1.0000
  C  Sn24      1.0  0.43318  0.53221  0.09565  1.0000
  O  Te21      1.0  0.37507  0.52934  0.24746  1.0000
  O  Te22      1.0  0.45305  0.64290  0.87230  1.0000
  O  Te23      1.0  0.50470  0.60956  0.79405  1.0000
  O  Te24      1.0  0.42670  0.49598  0.16926  1.0000
  Mg  Mg11      1.0  0.50115  0.65815  0.72624  1.0000
  Mg  Mg12      1.0  0.37860  0.48069  0.31527  1.0000
  C  Sn25      1.0  0.57901  0.11808  0.15784  1.0000
  C   C103      1.0  0.54032  0.09464  0.08289  1.0000
  C  Sn26      1.0  0.52772  0.11303  0.95841  1.0000
  C  Sn27      1.0  0.55458  0.15422  0.90769  1.0000
  C   C104      1.0  0.59325  0.17763  0.98261  1.0000
  C  Sn28      1.0  0.60588  0.15926  0.10713  1.0000
  O  Te25      1.0  0.59075  0.10056  0.28204  1.0000
  O  Te26      1.0  0.48888  0.08900  0.88534  1.0000
  O  Te27      1.0  0.54281  0.17172  0.78340  1.0000
  O  Te28      1.0  0.64469  0.18328  0.18015  1.0000
  Mg  Mg13      1.0  0.48688  0.12663  0.72130  1.0000
  Mg  Mg14      1.0  0.64673  0.14566  0.34414  1.0000
  C  Sn29      1.0  0.85871  0.46663  0.05800  1.0000
  C   C105      1.0  0.82863  0.43214  0.97950  1.0000
  C  Sn30      1.0  0.83861  0.40302  0.92288  1.0000
  C  Sn31      1.0  0.87929  0.41001  0.94528  1.0000
  C   C106      1.0  0.90935  0.44448  0.02376  1.0000
  C  Sn32      1.0  0.89939  0.47361  0.08039  1.0000
  O  Te29      1.0  0.84804  0.49531  0.11361  1.0000
  O  Te30      1.0  0.80823  0.36728  0.84472  1.0000
  O  Te31      1.0  0.88994  0.38129  0.88958  1.0000
  O  Te32      1.0  0.92974  0.50933  0.15853  1.0000
  Mg  Mg15      1.0  0.83780  0.33737  0.79059  1.0000
  Mg  Mg16      1.0  0.90020  0.53925  0.21279  1.0000
  C  Sn33      1.0  0.60957  0.45573  0.95320  1.0000
  C   C107      1.0  0.59348  0.41612  0.03109  1.0000
  C  Sn34      1.0  0.55313  0.39641  0.09351  1.0000
  C  Sn35      1.0  0.52856  0.41516  0.07767  1.0000
  C   C108      1.0  0.54465  0.45474  0.99979  1.0000
  C  Sn36      1.0  0.58500  0.47448  0.93736  1.0000
  O  Te33      1.0  0.64998  0.47488  0.89171  1.0000
  O  Te34      1.0  0.53751  0.35833  0.17094  1.0000
  O  Te35      1.0  0.48812  0.39597  0.13924  1.0000
  O  Te36      1.0  0.60062  0.51253  0.85995  1.0000
  Mg  Mg17      1.0  0.48070  0.34437  0.23460  1.0000
  Mg  Mg18      1.0  0.65741  0.52651  0.79617  1.0000
  C  Sn37      1.0  0.60464  0.14202  0.56589  1.0000
  C   C109      1.0  0.59654  0.17068  0.49194  1.0000
  C  Sn38      1.0  0.55615  0.15958  0.44735  1.0000
  C  Sn39      1.0  0.52315  0.11901  0.47739  1.0000
  C   C110      1.0  0.53126  0.09038  0.55132  1.0000
  C  Sn40      1.0  0.57165  0.10145  0.59593  1.0000
  O  Te37      1.0  0.64526  0.15379  0.60945  1.0000
  O  Te38      1.0  0.54882  0.18876  0.37353  1.0000
  O  Te39      1.0  0.48251  0.10725  0.43375  1.0000
  O  Te40      1.0  0.57898  0.07229  0.66973  1.0000
  Mg  Mg19      1.0  0.48818  0.15797  0.33647  1.0000
  Mg  Mg20      1.0  0.63960  0.10305  0.70692  1.0000
  C  Sn41      1.0  0.85828  0.46423  0.54125  1.0000
  C   C111      1.0  0.82786  0.42737  0.46987  1.0000
  C  Sn42      1.0  0.83696  0.39687  0.42466  1.0000
  C  Sn43      1.0  0.87730  0.40332  0.45144  1.0000
  C   C112      1.0  0.90769  0.44015  0.52280  1.0000
  C  Sn44      1.0  0.89862  0.47068  0.56802  1.0000
  O  Te41      1.0  0.84849  0.49430  0.58549  1.0000
  O  Te42      1.0  0.80605  0.36028  0.35345  1.0000
  O  Te43      1.0  0.88707  0.37321  0.40712  1.0000
  O  Te44      1.0  0.92951  0.50725  0.63921  1.0000
  Mg  Mg21      1.0  0.83446  0.32856  0.31422  1.0000
  Mg  Mg22      1.0  0.90112  0.53898  0.67857  1.0000
  C  Sn45      1.0  0.59021  0.46608  0.37992  1.0000
  C   C113      1.0  0.55460  0.46083  0.45914  1.0000
  C  Sn46      1.0  0.53472  0.43020  0.57756  1.0000
  C  Sn47      1.0  0.55077  0.40428  0.61773  1.0000
  C   C114      1.0  0.58636  0.40953  0.53856  1.0000
  C  Sn48      1.0  0.60626  0.44016  0.42009  1.0000
  O  Te45      1.0  0.60958  0.49690  0.26193  1.0000
  O  Te46      1.0  0.49916  0.42554  0.65505  1.0000
  O  Te47      1.0  0.53136  0.37343  0.73582  1.0000
  O  Te48      1.0  0.64180  0.44483  0.34265  1.0000
  Mg  Mg23      1.0  0.48381  0.37916  0.80749  1.0000
  Mg  Mg24      1.0  0.65719  0.49121  0.19027  1.0000
