data_image0
_chemical_formula_structural       H96C126N24SnCSn2CSnTe4Mg2SnCSn2CSnTe4Mg2SnCSn2CSnTe4Mg2SnCSn2CSnTe4Mg2SnCSn2CSnTe4Mg2SnCSn2CSnTe4Mg2
_chemical_formula_sum              "H96 C138 N24 Sn24 Te24 Mg12"
_cell_length_a       37.368
_cell_length_b       37.5869
_cell_length_c       8.12769
_cell_angle_alpha    90.4271
_cell_angle_beta     89.7417
_cell_angle_gamma    120.293

_symmetry_space_group_name_H-M    'P1'
_space_group_IT_number       1

loop_
  _space_group_symop_operation_xyz
  'x, y, z'

loop_
  _atom_site_type_symbol
  _atom_site_label
  _atom_site_symmetry_multiplicity
  _atom_site_fract_x
  _atom_site_fract_y
  _atom_site_fract_z
  _atom_site_occupancy
  H   H1        1.0  0.28377  0.68987  0.00803  1.0000
  H   H2        1.0  0.31022  0.59082  0.00384  1.0000
  H   H3        1.0  0.41038  0.71699  0.00647  1.0000
  H   H4        1.0  0.17842  0.54483  0.36330  1.0000
  H   H5        1.0  0.45698  0.63608  0.36244  1.0000
  H   H6        1.0  0.33846  0.76276  0.51278  1.0000
  H   H7        1.0  0.23712  0.57657  0.51084  1.0000
  H   H8        1.0  0.42460  0.66333  0.51420  1.0000
  H   H9        1.0  0.10304  0.49652  0.37372  1.0000
  H   H10       1.0  0.50424  0.60828  0.36868  1.0000
  H   H11       1.0  0.46963  0.07595  0.15254  1.0000
  H   H12       1.0  0.92026  0.39600  0.12168  1.0000
  H   H13       1.0  0.60894  0.52737  0.12673  1.0000
  H   H14       1.0  0.39061  0.92169  0.14411  1.0000
  H   H15       1.0  0.07531  0.46996  0.13629  1.0000
  H   H16       1.0  0.53517  0.60772  0.14219  1.0000
  H   H17       1.0  0.38523  0.96422  0.08846  1.0000
  H   H18       1.0  0.03390  0.42240  0.06325  1.0000
  H   H19       1.0  0.58242  0.61456  0.06268  1.0000
  H   H20       1.0  0.68925  0.28278  0.49097  1.0000
  H   H21       1.0  0.71502  0.40813  0.48563  1.0000
  H   H22       1.0  0.58865  0.30769  0.50405  1.0000
  H   H23       1.0  0.83396  0.46895  0.15707  1.0000
  H   H24       1.0  0.53133  0.36692  0.16536  1.0000
  H   H25       1.0  0.57331  0.23718  0.51846  1.0000
  H   H26       1.0  0.76036  0.33827  0.49346  1.0000
  H   H27       1.0  0.66085  0.42367  0.50058  1.0000
  H   H28       1.0  0.91052  0.49868  0.16266  1.0000
  H   H29       1.0  0.50463  0.41574  0.17359  1.0000
  H   H30       1.0  0.49544  0.10031  0.38901  1.0000
  H   H31       1.0  0.60757  0.50410  0.36490  1.0000
  H   H32       1.0  0.54071  0.17574  0.37418  1.0000
  H   H33       1.0  0.63483  0.45665  0.35644  1.0000
  H   H34       1.0  0.40553  0.96352  0.28336  1.0000
  H   H35       1.0  0.03086  0.44086  0.26051  1.0000
  H   H36       1.0  0.56589  0.59395  0.26163  1.0000
  H   H37       1.0  0.06382  0.59031  0.38858  1.0000
  H   H38       1.0  0.40905  0.47509  0.39810  1.0000
  H   H39       1.0  0.53132  0.93891  0.38642  1.0000
  H   H40       1.0  0.44053  0.03340  0.28447  1.0000
  H   H41       1.0  0.96414  0.40385  0.23542  1.0000
  H   H42       1.0  0.59926  0.56051  0.25244  1.0000
  H   H43       1.0  0.42086  0.03473  0.08841  1.0000
  H   H44       1.0  0.95769  0.38669  0.02873  1.0000
  H   H45       1.0  0.61826  0.57529  0.04982  1.0000
  H   H46       1.0  0.40386  0.40691  0.30512  1.0000
  H   H47       1.0  0.00011  0.59456  0.29790  1.0000
  H   H48       1.0  0.59922  0.00430  0.30420  1.0000
  H   H49       1.0  0.28273  0.69196  0.50183  1.0000
  H   H50       1.0  0.30818  0.59215  0.49870  1.0000
  H   H51       1.0  0.40897  0.71802  0.50327  1.0000
  H   H52       1.0  0.33878  0.76070  0.02382  1.0000
  H   H53       1.0  0.23825  0.57487  0.01095  1.0000
  H   H54       1.0  0.42664  0.66306  0.01752  1.0000
  H   H55       1.0  0.08732  0.58324  0.66464  1.0000
  H   H56       1.0  0.41783  0.50840  0.67075  1.0000
  H   H57       1.0  0.16374  0.63213  0.65687  1.0000
  H   H58       1.0  0.36913  0.53539  0.65942  1.0000
  H   H59       1.0  0.46944  0.07555  0.65478  1.0000
  H   H60       1.0  0.95558  0.38213  0.51509  1.0000
  H   H61       1.0  0.61138  0.53353  0.61679  1.0000
  H   H62       1.0  0.39366  0.92139  0.64804  1.0000
  H   H63       1.0  0.07473  0.46648  0.63538  1.0000
  H   H64       1.0  0.53574  0.61198  0.63267  1.0000
  H   H65       1.0  0.38592  0.96248  0.59114  1.0000
  H   H66       1.0  0.03392  0.41889  0.55910  1.0000
  H   H67       1.0  0.58385  0.61750  0.57017  1.0000
  H   H68       1.0  0.69257  0.28345  0.00440  1.0000
  H   H69       1.0  0.71483  0.40760  0.99152  1.0000
  H   H70       1.0  0.58973  0.30500  0.01034  1.0000
  H   H71       1.0  0.63311  0.16766  0.65872  1.0000
  H   H72       1.0  0.53059  0.36871  0.64087  1.0000
  H   H73       1.0  0.57575  0.23578  0.02645  1.0000
  H   H74       1.0  0.76316  0.34038  0.00169  1.0000
  H   H75       1.0  0.65869  0.42101  0.00090  1.0000
  H   H76       1.0  0.58737  0.09149  0.67362  1.0000
  H   H77       1.0  0.50318  0.41677  0.65108  1.0000
  H   H78       1.0  0.89732  0.40022  0.84873  1.0000
  H   H79       1.0  0.60296  0.49688  0.84845  1.0000
  H   H80       1.0  0.82139  0.37012  0.84654  1.0000
  H   H81       1.0  0.62986  0.44895  0.84368  1.0000
  H   H82       1.0  0.40783  0.96346  0.78470  1.0000
  H   H83       1.0  0.03050  0.43596  0.75895  1.0000
  H   H84       1.0  0.56348  0.59718  0.76610  1.0000
  H   H85       1.0  0.06528  0.59490  0.89159  1.0000
  H   H86       1.0  0.40992  0.47266  0.88011  1.0000
  H   H87       1.0  0.52833  0.93670  0.88653  1.0000
  H   H88       1.0  0.43904  0.03182  0.77988  1.0000
  H   H89       1.0  0.91938  0.39068  0.62283  1.0000
  H   H90       1.0  0.59755  0.56037  0.76001  1.0000
  H   H91       1.0  0.42175  0.03460  0.58063  1.0000
  H   H92       1.0  0.96443  0.39725  0.72444  1.0000
  H   H93       1.0  0.61768  0.58209  0.56558  1.0000
  H   H94       1.0  0.40512  0.40481  0.78792  1.0000
  H   H95       1.0  0.00170  0.60019  0.80836  1.0000
  H   H96       1.0  0.59634  0.00149  0.80089  1.0000
  C   C1        1.0  0.15878  0.55270  0.43563  1.0000
  C   C2        1.0  0.44863  0.60860  0.43398  1.0000
  C   C3        1.0  0.30658  0.67994  0.00584  1.0000
  C   C4        1.0  0.32058  0.62360  0.00323  1.0000
  C   C5        1.0  0.37742  0.69426  0.00513  1.0000
  C   C6        1.0  0.34899  0.70850  0.00642  1.0000
  C   C7        1.0  0.29207  0.63729  0.00422  1.0000
  C   C8        1.0  0.36358  0.65208  0.00413  1.0000
  C   C9        1.0  0.36318  0.75254  0.01317  1.0000
  C   C10       1.0  0.24754  0.60770  0.00786  1.0000
  C   C11       1.0  0.39395  0.63842  0.00913  1.0000
  C   C12       1.0  0.11614  0.52557  0.44048  1.0000
  C   C13       1.0  0.47538  0.59287  0.43761  1.0000
  C   C14       1.0  0.46708  0.95412  0.02946  1.0000
  C   C15       1.0  0.04504  0.51447  0.01715  1.0000
  C   C16       1.0  0.49064  0.53322  0.01520  1.0000
  C   C17       1.0  0.51018  0.97916  0.47186  1.0000
  C   C18       1.0  0.02113  0.52847  0.46394  1.0000
  C   C19       1.0  0.47185  0.49529  0.46481  1.0000
  C   C20       1.0  0.47086  0.02094  0.08450  1.0000
  C   C21       1.0  0.97684  0.45134  0.05712  1.0000
  C   C22       1.0  0.55328  0.52799  0.06357  1.0000
  C   C23       1.0  0.40521  0.95521  0.15299  1.0000
  C   C24       1.0  0.04157  0.45046  0.13356  1.0000
  C   C25       1.0  0.55494  0.59404  0.13636  1.0000
  C   C26       1.0  0.84820  0.45406  0.09043  1.0000
  C   C27       1.0  0.54678  0.39559  0.09686  1.0000
  C   C28       1.0  0.67882  0.30512  0.48990  1.0000
  C   C29       1.0  0.69244  0.37527  0.48710  1.0000
  C   C30       1.0  0.62165  0.31828  0.49732  1.0000
  C   C31       1.0  0.63584  0.29024  0.49611  1.0000
  C   C32       1.0  0.70720  0.34740  0.48687  1.0000
  C   C33       1.0  0.64996  0.36107  0.49258  1.0000
  C   C34       1.0  0.60617  0.24599  0.50763  1.0000
  C   C35       1.0  0.75166  0.36223  0.49038  1.0000
  C   C36       1.0  0.63602  0.39109  0.49744  1.0000
  C   C37       1.0  0.82231  0.41697  0.00607  1.0000
  C   C38       1.0  0.58293  0.40505  0.00852  1.0000
  C   C39       1.0  0.89092  0.47070  0.09261  1.0000
  C   C40       1.0  0.53184  0.42278  0.10017  1.0000
  C   C41       1.0  0.90928  0.45122  0.00741  1.0000
  C   C42       1.0  0.55214  0.46000  0.01237  1.0000
  C   C43       1.0  0.52513  0.11499  0.45194  1.0000
  C   C44       1.0  0.59102  0.47493  0.42930  1.0000
  C   C45       1.0  0.55050  0.15765  0.44474  1.0000
  C   C46       1.0  0.60666  0.44822  0.42551  1.0000
  C   C47       1.0  0.51220  0.04383  0.02890  1.0000
  C   C48       1.0  0.95499  0.47084  0.00592  1.0000
  C   C49       1.0  0.53349  0.48668  0.00914  1.0000
  C   C50       1.0  0.53205  0.02264  0.47044  1.0000
  C   C51       1.0  0.97751  0.50751  0.45497  1.0000
  C   C52       1.0  0.49259  0.47268  0.45483  1.0000
  C   C53       1.0  0.44860  0.97685  0.08403  1.0000
  C   C54       1.0  0.02108  0.47277  0.06350  1.0000
  C   C55       1.0  0.53221  0.55089  0.06670  1.0000
  C   C56       1.0  0.44940  0.04248  0.15562  1.0000
  C   C57       1.0  0.95350  0.40720  0.11390  1.0000
  C   C58       1.0  0.59723  0.54881  0.12639  1.0000
  C   C59       1.0  0.57310  0.00435  0.36246  1.0000
  C   C60       1.0  0.99864  0.56782  0.35457  1.0000
  C   C61       1.0  0.43128  0.43270  0.35873  1.0000
  C   C62       1.0  0.30524  0.68166  0.50023  1.0000
  C   C63       1.0  0.31873  0.62498  0.49914  1.0000
  C   C64       1.0  0.37595  0.69540  0.50099  1.0000
  C   C65       1.0  0.34776  0.70993  0.50048  1.0000
  C   C66       1.0  0.29043  0.63896  0.50020  1.0000
  C   C67       1.0  0.36177  0.65317  0.50077  1.0000
  C   C68       1.0  0.36252  0.75408  0.50579  1.0000
  C   C69       1.0  0.24598  0.60926  0.50655  1.0000
  C   C70       1.0  0.39176  0.63904  0.50736  1.0000
  C   C71       1.0  0.17652  0.59142  0.51445  1.0000
  C   C72       1.0  0.40979  0.58789  0.51311  1.0000
  C   C73       1.0  0.08947  0.53600  0.52287  1.0000
  C   C74       1.0  0.46486  0.55630  0.52196  1.0000
  C   C75       1.0  0.10762  0.57491  0.60027  1.0000
  C   C76       1.0  0.42610  0.53619  0.60189  1.0000
  C   C77       1.0  0.15006  0.60229  0.59554  1.0000
  C   C78       1.0  0.39883  0.55109  0.59623  1.0000
  C   C79       1.0  0.46906  0.95518  0.52622  1.0000
  C   C80       1.0  0.04368  0.51015  0.51845  1.0000
  C   C81       1.0  0.49054  0.53641  0.51881  1.0000
  C   C82       1.0  0.50815  0.97766  0.97353  1.0000
  C   C83       1.0  0.02252  0.53293  0.96388  1.0000
  C   C84       1.0  0.47187  0.49223  0.95889  1.0000
  C   C85       1.0  0.47188  0.02131  0.58409  1.0000
  C   C86       1.0  0.97561  0.44656  0.55673  1.0000
  C   C87       1.0  0.55373  0.53175  0.56205  1.0000
  C   C88       1.0  0.40706  0.95480  0.65456  1.0000
  C   C89       1.0  0.04102  0.44640  0.63243  1.0000
  C   C90       1.0  0.55490  0.59758  0.63698  1.0000
  C   C91       1.0  0.60286  0.15252  0.59976  1.0000
  C   C92       1.0  0.54699  0.39841  0.57987  1.0000
  C   C93       1.0  0.68122  0.30504  0.00166  1.0000
  C   C94       1.0  0.69290  0.37456  0.99432  1.0000
  C   C95       1.0  0.62289  0.31634  0.00507  1.0000
  C   C96       1.0  0.63804  0.28911  0.00667  1.0000
  C   C97       1.0  0.70870  0.34755  0.99641  1.0000
  C   C98       1.0  0.65021  0.35925  0.99882  1.0000
  C   C99       1.0  0.60868  0.24481  0.01738  1.0000
  C   C100      1.0  0.75341  0.36356  0.99991  1.0000
  C   C101      1.0  0.63483  0.38811  0.00186  1.0000
  C   C102      1.0  0.58996  0.17709  0.51872  1.0000
  C   C103      1.0  0.58477  0.40940  0.50153  1.0000
  C   C104      1.0  0.57734  0.11000  0.60742  1.0000
  C   C105      1.0  0.53164  0.42524  0.58414  1.0000
  C   C106      1.0  0.53813  0.09039  0.53166  1.0000
  C   C107      1.0  0.55324  0.46401  0.50773  1.0000
  C   C108      1.0  0.88344  0.41455  0.92126  1.0000
  C   C109      1.0  0.58794  0.46916  0.92265  1.0000
  C   C110      1.0  0.84061  0.39750  0.92034  1.0000
  C   C111      1.0  0.60331  0.44225  0.92061  1.0000
  C   C112      1.0  0.51324  0.04479  0.52920  1.0000
  C   C113      1.0  0.95365  0.46599  0.50504  1.0000
  C   C114      1.0  0.53424  0.49042  0.50695  1.0000
  C   C115      1.0  0.53040  0.02113  0.97009  1.0000
  C   C116      1.0  0.97886  0.51226  0.95603  1.0000
  C   C117      1.0  0.49229  0.46930  0.95301  1.0000
  C   C118      1.0  0.45015  0.97729  0.58284  1.0000
  C   C119      1.0  0.01992  0.46842  0.56471  1.0000
  C   C120      1.0  0.53235  0.55442  0.56728  1.0000
  C   C121      1.0  0.44948  0.04205  0.65328  1.0000
  C   C122      1.0  0.95253  0.40191  0.60820  1.0000
  C   C123      1.0  0.59737  0.55288  0.62877  1.0000
  C   C124      1.0  0.57062  0.00197  0.86088  1.0000
  C   C125      1.0  0.00010  0.57298  0.86064  1.0000
  C   C126      1.0  0.43200  0.43008  0.84703  1.0000
  N   N1        1.0  0.53730  0.96817  0.40278  1.0000
  N   N2        1.0  0.03399  0.56729  0.40010  1.0000
  N   N3        1.0  0.43246  0.46887  0.40323  1.0000
  N   N4        1.0  0.40208  0.77988  0.01214  1.0000
  N   N5        1.0  0.22100  0.62006  0.01185  1.0000
  N   N6        1.0  0.38273  0.59987  0.00857  1.0000
  N   N7        1.0  0.57119  0.03743  0.40101  1.0000
  N   N8        1.0  0.96442  0.53289  0.38588  1.0000
  N   N9        1.0  0.46648  0.43379  0.38714  1.0000
  N   N10       1.0  0.62067  0.21811  0.01876  1.0000
  N   N11       1.0  0.77965  0.40258  0.00596  1.0000
  N   N12       1.0  0.59585  0.37591  0.00944  1.0000
  N   N13       1.0  0.53479  0.96609  0.90385  1.0000
  N   N14       1.0  0.03543  0.57198  0.90281  1.0000
  N   N15       1.0  0.43310  0.46627  0.89080  1.0000
  N   N16       1.0  0.40157  0.78089  0.50728  1.0000
  N   N17       1.0  0.21884  0.62083  0.51193  1.0000
  N   N18       1.0  0.38029  0.60043  0.50984  1.0000
  N   N19       1.0  0.56925  0.03537  0.89873  1.0000
  N   N20       1.0  0.96580  0.53804  0.89090  1.0000
  N   N21       1.0  0.46663  0.43066  0.88242  1.0000
  N   N22       1.0  0.61836  0.21946  0.51065  1.0000
  N   N23       1.0  0.77872  0.40107  0.49534  1.0000
  N   N24       1.0  0.59728  0.37996  0.50098  1.0000
  C  Sn1       1.0  0.40064  0.84950  0.89762  1.0000
  C   C127      1.0  0.41700  0.82690  0.96763  1.0000
  C  Sn2       1.0  0.44828  0.84332  0.08682  1.0000
  C  Sn3       1.0  0.46330  0.88468  0.13716  1.0000
  C   C128      1.0  0.44694  0.90725  0.06719  1.0000
  C  Sn4       1.0  0.41566  0.89087  0.94797  1.0000
  O  Te1       1.0  0.36960  0.83097  0.77868  1.0000
  O  Te2       1.0  0.46416  0.82011  0.15500  1.0000
  O  Te3       1.0  0.49437  0.90320  0.25620  1.0000
  O  Te4       1.0  0.39978  0.91404  0.87983  1.0000
  Mg  Mg1       1.0  0.50614  0.85899  0.31286  1.0000
  Mg  Mg2       1.0  0.35779  0.87519  0.72202  1.0000
  C  Sn5       1.0  0.85828  0.46423  0.54125  1.0000
  C   C129      1.0  0.82786  0.42737  0.46987  1.0000
  C  Sn6       1.0  0.83696  0.39687  0.42466  1.0000
  C  Sn7       1.0  0.87730  0.40332  0.45144  1.0000
  C   C130      1.0  0.90769  0.44015  0.52280  1.0000
  C  Sn8       1.0  0.89862  0.47068  0.56802  1.0000
  O  Te5       1.0  0.84849  0.49430  0.58549  1.0000
  O  Te6       1.0  0.80605  0.36028  0.35345  1.0000
  O  Te7       1.0  0.88707  0.37321  0.40712  1.0000
  O  Te8       1.0  0.92951  0.50725  0.63921  1.0000
  Mg  Mg3       1.0  0.83446  0.32856  0.31422  1.0000
  Mg  Mg4       1.0  0.90112  0.53898  0.67857  1.0000
  C  Sn9       1.0  0.40169  0.85131  0.39136  1.0000
  C   C131      1.0  0.41754  0.82811  0.45998  1.0000
  C  Sn10      1.0  0.44868  0.84544  0.57906  1.0000
  C  Sn11      1.0  0.46430  0.88680  0.63072  1.0000
  C   C132      1.0  0.44845  0.90998  0.56214  1.0000
  C  Sn12      1.0  0.41731  0.89268  0.44303  1.0000
  O  Te9       1.0  0.37056  0.83336  0.27251  1.0000
  O  Te10      1.0  0.46404  0.82164  0.64583  1.0000
  O  Te11      1.0  0.49545  0.90474  0.74968  1.0000
  O  Te12      1.0  0.40195  0.91645  0.37629  1.0000
  Mg  Mg5       1.0  0.50637  0.85985  0.80416  1.0000
  Mg  Mg6       1.0  0.35960  0.87827  0.21802  1.0000
  C  Sn13      1.0  0.57901  0.11808  0.15784  1.0000
  C   C133      1.0  0.54032  0.09464  0.08289  1.0000
  C  Sn14      1.0  0.52772  0.11303  0.95841  1.0000
  C  Sn15      1.0  0.55458  0.15422  0.90769  1.0000
  C   C134      1.0  0.59325  0.17763  0.98261  1.0000
  C  Sn16      1.0  0.60588  0.15926  0.10713  1.0000
  O  Te13      1.0  0.59075  0.10056  0.28204  1.0000
  O  Te14      1.0  0.48888  0.08900  0.88534  1.0000
  O  Te15      1.0  0.54281  0.17172  0.78340  1.0000
  O  Te16      1.0  0.64469  0.18328  0.18015  1.0000
  Mg  Mg7       1.0  0.48688  0.12663  0.72130  1.0000
  Mg  Mg8       1.0  0.64673  0.14566  0.34414  1.0000
  C  Sn17      1.0  0.41324  0.52780  0.05047  1.0000
  C   C135      1.0  0.45354  0.54669  0.99109  1.0000
  C  Sn18      1.0  0.47601  0.58836  0.94957  1.0000
  C  Sn19      1.0  0.45760  0.61320  0.96788  1.0000
  C   C136      1.0  0.41732  0.59432  0.02726  1.0000
  C  Sn20      1.0  0.39482  0.55264  0.06878  1.0000
  O  Te17      1.0  0.39135  0.48607  0.09122  1.0000
  O  Te18      1.0  0.51647  0.60504  0.89040  1.0000
  O  Te19      1.0  0.47952  0.65496  0.92707  1.0000
  O  Te20      1.0  0.35439  0.53596  0.12795  1.0000
  Mg  Mg9       1.0  0.53371  0.66348  0.85157  1.0000
  Mg  Mg10      1.0  0.33713  0.47754  0.16689  1.0000
  C  Sn21      1.0  0.12682  0.52544  0.97813  1.0000
  C   C137      1.0  0.09768  0.53210  0.04820  1.0000
  C  Sn22      1.0  0.10845  0.57236  0.09081  1.0000
  C  Sn23      1.0  0.14940  0.60516  0.06269  1.0000
  C   C138      1.0  0.17851  0.59849  0.99262  1.0000
  C  Sn24      1.0  0.16777  0.55824  0.95001  1.0000
  O  Te21      1.0  0.11537  0.48495  0.93649  1.0000
  O  Te22      1.0  0.07856  0.57975  0.16076  1.0000
  O  Te23      1.0  0.16083  0.64567  0.10440  1.0000
  O  Te24      1.0  0.19762  0.55084  0.88007  1.0000
  Mg  Mg11      1.0  0.10915  0.64016  0.19643  1.0000
  Mg  Mg12      1.0  0.16707  0.49046  0.84428  1.0000
