data_image0
_chemical_formula_structural       H66C96N24F18C2Sn2C2HTe2HMgC2Sn2C2HTe2HMgC2Sn2C2HTe2HMgC2Sn2C2HTe2HMgC2Sn2C2HTe2HMgC2Sn2C2HTe2HMgC2Sn2C2HTe2HMgC2Sn2C2HTe2HMgC2Sn2C2HTe2HMgC2Sn2C2HTe2HMgC2Sn2C2HTe2HMgC2Sn2C2HTe2HMg
_chemical_formula_sum              "H90 C144 N24 F18 Sn24 Te24 Mg12"
_cell_length_a       37.4442
_cell_length_b       37.6068
_cell_length_c       8.4067
_cell_angle_alpha    90.0403
_cell_angle_beta     90.8512
_cell_angle_gamma    120.568

_symmetry_space_group_name_H-M    'P1'
_space_group_IT_number       1

loop_
  _space_group_symop_operation_xyz
  'x, y, z'

loop_
  _atom_site_type_symbol
  _atom_site_label
  _atom_site_symmetry_multiplicity
  _atom_site_fract_x
  _atom_site_fract_y
  _atom_site_fract_z
  _atom_site_occupancy
  H   H1        1.0  0.28572  0.69208  0.19677  1.0000
  H   H2        1.0  0.30626  0.58928  0.19533  1.0000
  H   H3        1.0  0.41038  0.71385  0.19455  1.0000
  H   H4        1.0  0.34331  0.76225  0.21000  1.0000
  H   H5        1.0  0.23629  0.57601  0.20776  1.0000
  H   H6        1.0  0.42337  0.65820  0.20420  1.0000
  H   H7        1.0  0.46632  0.07192  0.33291  1.0000
  H   H8        1.0  0.93009  0.38698  0.23643  1.0000
  H   H9        1.0  0.61050  0.53341  0.33369  1.0000
  H   H10       1.0  0.39650  0.91776  0.34267  1.0000
  H   H11       1.0  0.07684  0.47463  0.33797  1.0000
  H   H12       1.0  0.52971  0.60649  0.34681  1.0000
  H   H13       1.0  0.38689  0.95706  0.27823  1.0000
  H   H14       1.0  0.03637  0.42578  0.27115  1.0000
  H   H15       1.0  0.57765  0.61631  0.26863  1.0000
  H   H16       1.0  0.68967  0.28264  0.20596  1.0000
  H   H17       1.0  0.71464  0.40780  0.20004  1.0000
  H   H18       1.0  0.58847  0.30621  0.21219  1.0000
  H   H19       1.0  0.57372  0.23548  0.22883  1.0000
  H   H20       1.0  0.76109  0.33921  0.20333  1.0000
  H   H21       1.0  0.66004  0.42264  0.21321  1.0000
  H   H22       1.0  0.40904  0.96059  0.46865  1.0000
  H   H23       1.0  0.03356  0.44484  0.46044  1.0000
  H   H24       1.0  0.56331  0.59554  0.46117  1.0000
  H   H25       1.0  0.53664  0.94072  0.09739  1.0000
  H   H26       1.0  0.06182  0.59575  0.08947  1.0000
  H   H27       1.0  0.40815  0.46907  0.08273  1.0000
  H   H28       1.0  0.44175  0.03068  0.46964  1.0000
  H   H29       1.0  0.93537  0.40721  0.42976  1.0000
  H   H30       1.0  0.59499  0.55858  0.47163  1.0000
  H   H31       1.0  0.41876  0.02685  0.28034  1.0000
  H   H32       1.0  0.97304  0.39629  0.35788  1.0000
  H   H33       1.0  0.61579  0.58189  0.28707  1.0000
  H   H34       1.0  0.28617  0.69375  0.70982  1.0000
  H   H35       1.0  0.30679  0.59096  0.70368  1.0000
  H   H36       1.0  0.41079  0.71557  0.70430  1.0000
  H   H37       1.0  0.34358  0.76368  0.72282  1.0000
  H   H38       1.0  0.23649  0.57772  0.72001  1.0000
  H   H39       1.0  0.42376  0.65955  0.71653  1.0000
  H   H40       1.0  0.47343  0.07628  0.85171  1.0000
  H   H41       1.0  0.92260  0.39303  0.82661  1.0000
  H   H42       1.0  0.60622  0.52894  0.83331  1.0000
  H   H43       1.0  0.39501  0.92121  0.84287  1.0000
  H   H44       1.0  0.07783  0.47318  0.82988  1.0000
  H   H45       1.0  0.52843  0.60478  0.84616  1.0000
  H   H46       1.0  0.38734  0.96160  0.77585  1.0000
  H   H47       1.0  0.03677  0.42542  0.75571  1.0000
  H   H48       1.0  0.57569  0.61298  0.76740  1.0000
  H   H49       1.0  0.69032  0.28397  0.71065  1.0000
  H   H50       1.0  0.71456  0.40887  0.70218  1.0000
  H   H51       1.0  0.58859  0.30676  0.70724  1.0000
  H   H52       1.0  0.57397  0.23590  0.71658  1.0000
  H   H53       1.0  0.76106  0.34036  0.72237  1.0000
  H   H54       1.0  0.65933  0.42314  0.71319  1.0000
  H   H55       1.0  0.40829  0.96440  0.96817  1.0000
  H   H56       1.0  0.03467  0.44156  0.95077  1.0000
  H   H57       1.0  0.56123  0.59288  0.96082  1.0000
  H   H58       1.0  0.53165  0.93826  0.59249  1.0000
  H   H59       1.0  0.06075  0.59558  0.60129  1.0000
  H   H60       1.0  0.40369  0.46636  0.59694  1.0000
  H   H61       1.0  0.44270  0.03253  0.97146  1.0000
  H   H62       1.0  0.96623  0.40689  0.95301  1.0000
  H   H63       1.0  0.59380  0.55854  0.96164  1.0000
  H   H64       1.0  0.42459  0.03612  0.78001  1.0000
  H   H65       1.0  0.96445  0.38809  0.75835  1.0000
  H   H66       1.0  0.61335  0.57713  0.77024  1.0000
  C   C1        1.0  0.30734  0.68078  0.19449  1.0000
  C   C2        1.0  0.31801  0.62238  0.19348  1.0000
  C   C3        1.0  0.37706  0.69216  0.19289  1.0000
  C   C4        1.0  0.35020  0.70811  0.19416  1.0000
  C   C5        1.0  0.29094  0.63772  0.19474  1.0000
  C   C6        1.0  0.36132  0.64956  0.19307  1.0000
  C   C7        1.0  0.36652  0.75266  0.20129  1.0000
  C   C8        1.0  0.24616  0.60900  0.20194  1.0000
  C   C9        1.0  0.39026  0.63430  0.19930  1.0000
  C   C10       1.0  0.47204  0.95365  0.22781  1.0000
  C   C11       1.0  0.04398  0.51584  0.21683  1.0000
  C   C12       1.0  0.48822  0.53228  0.21956  1.0000
  C   C13       1.0  0.51301  0.97893  0.17723  1.0000
  C   C14       1.0  0.02062  0.53337  0.16420  1.0000
  C   C15       1.0  0.47076  0.49133  0.16546  1.0000
  C   C16       1.0  0.47222  0.01888  0.27856  1.0000
  C   C17       1.0  0.97656  0.45197  0.26246  1.0000
  C   C18       1.0  0.55242  0.52996  0.27373  1.0000
  C   C19       1.0  0.40880  0.95108  0.34460  1.0000
  C   C20       1.0  0.04321  0.45387  0.33696  1.0000
  C   C21       1.0  0.55106  0.59473  0.34060  1.0000
  C   C22       1.0  0.67907  0.30477  0.20429  1.0000
  C   C23       1.0  0.69217  0.37480  0.20095  1.0000
  C   C24       1.0  0.62154  0.31716  0.20783  1.0000
  C   C25       1.0  0.63601  0.28942  0.20825  1.0000
  C   C26       1.0  0.70723  0.34725  0.20173  1.0000
  C   C27       1.0  0.64961  0.36012  0.20390  1.0000
  C   C28       1.0  0.60663  0.24493  0.21718  1.0000
  C   C29       1.0  0.75185  0.36272  0.20542  1.0000
  C   C30       1.0  0.63542  0.38989  0.20823  1.0000
  C   C31       1.0  0.51334  0.04358  0.22734  1.0000
  C   C32       1.0  0.95386  0.47041  0.21046  1.0000
  C   C33       1.0  0.53416  0.48879  0.21954  1.0000
  C   C34       1.0  0.53319  0.02247  0.17353  1.0000
  C   C35       1.0  0.97677  0.51157  0.15833  1.0000
  C   C36       1.0  0.49273  0.46997  0.16259  1.0000
  C   C37       1.0  0.45194  0.97472  0.27853  1.0000
  C   C38       1.0  0.02091  0.47433  0.26636  1.0000
  C   C39       1.0  0.52984  0.55139  0.27315  1.0000
  C   C40       1.0  0.44866  0.03829  0.34318  1.0000
  C   C41       1.0  0.95289  0.40831  0.32436  1.0000
  C   C42       1.0  0.59577  0.55205  0.34437  1.0000
  C   C43       1.0  0.57551  0.00660  0.07199  1.0000
  C   C44       1.0  0.99613  0.57134  0.06222  1.0000
  C   C45       1.0  0.43293  0.42889  0.05852  1.0000
  C   C46       1.0  0.60894  0.00291  0.49703  1.0000
  C   C47       1.0  0.99393  0.60687  0.50874  1.0000
  C   C48       1.0  0.39162  0.38935  0.48760  1.0000
  C   C49       1.0  0.30773  0.68240  0.70623  1.0000
  C   C50       1.0  0.31842  0.62404  0.70303  1.0000
  C   C51       1.0  0.37749  0.69382  0.70325  1.0000
  C   C52       1.0  0.35058  0.70969  0.70525  1.0000
  C   C53       1.0  0.29133  0.63935  0.70507  1.0000
  C   C54       1.0  0.36175  0.65123  0.70320  1.0000
  C   C55       1.0  0.36681  0.75418  0.71187  1.0000
  C   C56       1.0  0.24652  0.61070  0.71159  1.0000
  C   C57       1.0  0.39058  0.63583  0.70965  1.0000
  C   C58       1.0  0.47021  0.95480  0.72735  1.0000
  C   C59       1.0  0.04438  0.51567  0.72101  1.0000
  C   C60       1.0  0.48479  0.52969  0.72519  1.0000
  C   C61       1.0  0.51106  0.97883  0.67417  1.0000
  C   C62       1.0  0.02030  0.53283  0.67271  1.0000
  C   C63       1.0  0.46675  0.48853  0.67193  1.0000
  C   C64       1.0  0.47374  0.02134  0.78098  1.0000
  C   C65       1.0  0.97735  0.45118  0.76862  1.0000
  C   C66       1.0  0.54910  0.52706  0.77165  1.0000
  C   C67       1.0  0.40830  0.95471  0.84462  1.0000
  C   C68       1.0  0.04416  0.45267  0.82889  1.0000
  C   C69       1.0  0.54900  0.59214  0.84029  1.0000
  C   C70       1.0  0.67946  0.30590  0.70717  1.0000
  C   C71       1.0  0.69220  0.37583  0.70246  1.0000
  C   C72       1.0  0.62169  0.31786  0.70516  1.0000
  C   C73       1.0  0.63635  0.29030  0.70701  1.0000
  C   C74       1.0  0.70740  0.34840  0.70519  1.0000
  C   C75       1.0  0.64959  0.36089  0.70347  1.0000
  C   C76       1.0  0.60712  0.24573  0.71329  1.0000
  C   C77       1.0  0.75193  0.36387  0.71179  1.0000
  C   C78       1.0  0.63497  0.39028  0.70890  1.0000
  C   C79       1.0  0.51482  0.04472  0.72796  1.0000
  C   C80       1.0  0.95384  0.46915  0.72104  1.0000
  C   C81       1.0  0.53039  0.48586  0.71767  1.0000
  C   C82       1.0  0.53323  0.02245  0.67221  1.0000
  C   C83       1.0  0.97646  0.51067  0.67051  1.0000
  C   C84       1.0  0.48867  0.46715  0.66411  1.0000
  C   C85       1.0  0.45164  0.97708  0.78007  1.0000
  C   C86       1.0  0.02181  0.47403  0.76845  1.0000
  C   C87       1.0  0.52679  0.54869  0.77426  1.0000
  C   C88       1.0  0.45253  0.04278  0.84907  1.0000
  C   C89       1.0  0.95639  0.40750  0.82950  1.0000
  C   C90       1.0  0.59297  0.54900  0.83718  1.0000
  C   C91       1.0  0.57312  0.00357  0.56998  1.0000
  C   C92       1.0  0.99488  0.57059  0.57730  1.0000
  C   C93       1.0  0.42819  0.42608  0.56419  1.0000
  C   C94       1.0  0.61174  0.00843  0.99118  1.0000
  C   C95       1.0  0.99626  0.60829  0.99572  1.0000
  C   C96       1.0  0.39624  0.39168  0.98648  1.0000
  N   N1        1.0  0.54103  0.96945  0.11232  1.0000
  N   N2        1.0  0.03236  0.57197  0.10264  1.0000
  N   N3        1.0  0.43221  0.46412  0.09833  1.0000
  N   N4        1.0  0.40584  0.77902  0.20275  1.0000
  N   N5        1.0  0.22019  0.62194  0.20576  1.0000
  N   N6        1.0  0.37781  0.59542  0.20359  1.0000
  N   N7        1.0  0.57198  0.03878  0.10581  1.0000
  N   N8        1.0  0.96241  0.53606  0.09338  1.0000
  N   N9        1.0  0.46828  0.43105  0.09448  1.0000
  N   N10       1.0  0.61905  0.21863  0.21580  1.0000
  N   N11       1.0  0.77855  0.40169  0.21557  1.0000
  N   N12       1.0  0.59663  0.37849  0.21125  1.0000
  N   N13       1.0  0.53733  0.96745  0.60723  1.0000
  N   N14       1.0  0.03144  0.57134  0.61221  1.0000
  N   N15       1.0  0.42778  0.46133  0.60749  1.0000
  N   N16       1.0  0.40606  0.78065  0.70948  1.0000
  N   N17       1.0  0.22050  0.62358  0.71243  1.0000
  N   N18       1.0  0.37774  0.59684  0.71233  1.0000
  N   N19       1.0  0.57201  0.03706  0.60591  1.0000
  N   N20       1.0  0.96156  0.53505  0.60921  1.0000
  N   N21       1.0  0.46390  0.42844  0.59483  1.0000
  N   N22       1.0  0.62000  0.21982  0.71885  1.0000
  N   N23       1.0  0.77881  0.40285  0.71014  1.0000
  N   N24       1.0  0.59605  0.37828  0.71335  1.0000
  F   F1        1.0  0.62503  0.02967  0.37544  1.0000
  F   F2        1.0  0.96696  0.59546  0.38402  1.0000
  F   F3        1.0  0.40448  0.36961  0.39146  1.0000
  F   F4        1.0  0.59554  0.96348  0.43953  1.0000
  F   F5        1.0  0.03299  0.63546  0.45603  1.0000
  F   F6        1.0  0.36822  0.40145  0.39935  1.0000
  F   F7        1.0  0.63718  0.00174  0.08901  1.0000
  F   F8        1.0  0.00338  0.63713  0.11091  1.0000
  F   F9        1.0  0.37301  0.36272  0.09605  1.0000
  F   F10       1.0  0.63528  0.04498  0.91964  1.0000
  F   F11       1.0  0.96010  0.59738  0.92047  1.0000
  F   F12       1.0  0.40797  0.37315  0.87914  1.0000
  F   F13       1.0  0.59707  0.97706  0.87894  1.0000
  F   F14       1.0  0.02798  0.62848  0.88844  1.0000
  F   F15       1.0  0.37009  0.40283  0.91207  1.0000
  F   F16       1.0  0.64076  0.01220  0.60068  1.0000
  F   F17       1.0  0.98282  0.62672  0.61535  1.0000
  F   F18       1.0  0.36460  0.36113  0.59256  1.0000
  C   C97       1.0  0.39774  0.84859  0.12604  1.0000
  C   C98       1.0  0.41493  0.82534  0.18050  1.0000
  C  Sn1       1.0  0.45230  0.84430  0.26721  1.0000
  C  Sn2       1.0  0.47276  0.88733  0.29986  1.0000
  C   C99       1.0  0.45529  0.91031  0.24495  1.0000
  C   C100      1.0  0.41789  0.89103  0.15825  1.0000
  H   H67       1.0  0.36879  0.83367  0.05903  1.0000
  O  Te1       1.0  0.46906  0.82061  0.32067  1.0000
  O  Te2       1.0  0.51014  0.90705  0.38631  1.0000
  H   H68       1.0  0.40457  0.90903  0.11619  1.0000
  Mg  Mg1       1.0  0.52065  0.86157  0.43369  1.0000
  C   C101      1.0  0.14234  0.60562  0.29430  1.0000
  C   C102      1.0  0.17193  0.59761  0.23166  1.0000
  C  Sn3       1.0  0.15952  0.56043  0.15164  1.0000
  C  Sn4       1.0  0.11666  0.53078  0.13416  1.0000
  C   C103      1.0  0.08729  0.53910  0.19717  1.0000
  C   C104      1.0  0.10005  0.57640  0.27707  1.0000
  H   H69       1.0  0.15221  0.63449  0.35605  1.0000
  O  Te3       1.0  0.18950  0.55292  0.08983  1.0000
  O  Te4       1.0  0.10339  0.49338  0.05468  1.0000
  H   H70       1.0  0.07713  0.58261  0.32547  1.0000
  Mg  Mg2       1.0  0.16063  0.49987  0.99127  1.0000
  C   C105      1.0  0.41333  0.52989  0.30764  1.0000
  C   C106      1.0  0.45092  0.54393  0.23046  1.0000
  C  Sn5       1.0  0.46800  0.58006  0.14104  1.0000
  C  Sn6       1.0  0.44698  0.60248  0.12892  1.0000
  C   C107      1.0  0.40941  0.58819  0.20668  1.0000
  C   C108      1.0  0.39259  0.55199  0.29580  1.0000
  H   H71       1.0  0.40032  0.50189  0.37667  1.0000
  O  Te5       1.0  0.50558  0.59365  0.06464  1.0000
  O  Te6       1.0  0.46336  0.63870  0.04038  1.0000
  H   H72       1.0  0.36349  0.54114  0.35563  1.0000
  Mg  Mg3       1.0  0.52002  0.64722  0.95790  1.0000
  C   C109      1.0  0.54114  0.14751  0.13364  1.0000
  C   C110      1.0  0.57958  0.17253  0.20900  1.0000
  C  Sn7       1.0  0.59866  0.15479  0.29527  1.0000
  C  Sn8       1.0  0.57883  0.11118  0.30604  1.0000
  C   C111      1.0  0.54039  0.08641  0.23013  1.0000
  C   C112      1.0  0.52156  0.10449  0.14415  1.0000
  H   H73       1.0  0.52658  0.16149  0.06704  1.0000
  O  Te7       1.0  0.63706  0.18025  0.36988  1.0000
  O  Te8       1.0  0.59722  0.09264  0.39144  1.0000
  H   H74       1.0  0.49182  0.08510  0.08573  1.0000
  Mg  Mg4       1.0  0.64970  0.14041  0.47245  1.0000
  C   C113      1.0  0.88112  0.46909  0.31876  1.0000
  C   C114      1.0  0.90441  0.45441  0.24515  1.0000
  C  Sn9       1.0  0.88505  0.41996  0.14399  1.0000
  C  Sn10      1.0  0.84158  0.39990  0.11621  1.0000
  C   C115      1.0  0.81856  0.41485  0.19033  1.0000
  C   C116      1.0  0.83824  0.44934  0.29137  1.0000
  H   H75       1.0  0.89635  0.49578  0.39687  1.0000
  O  Te9       1.0  0.90878  0.40569  0.07145  1.0000
  O  Te10      1.0  0.82144  0.36542  0.01561  1.0000
  H   H76       1.0  0.82021  0.46071  0.34827  1.0000
  Mg  Mg5       1.0  0.87178  0.36009  0.94428  1.0000
  C   C117      1.0  0.59894  0.47168  0.13111  1.0000
  C   C118      1.0  0.56225  0.46584  0.19645  1.0000
  C  Sn11      1.0  0.53654  0.43001  0.28117  1.0000
  C  Sn12      1.0  0.54785  0.39953  0.30068  1.0000
  C   C119      1.0  0.58464  0.40568  0.23495  1.0000
  C   C120      1.0  0.61013  0.44164  0.15035  1.0000
  H   H77       1.0  0.61868  0.49952  0.06573  1.0000
  O  Te11      1.0  0.49998  0.42466  0.34562  1.0000
  O  Te12      1.0  0.52274  0.36343  0.38485  1.0000
  H   H78       1.0  0.63855  0.44617  0.09987  1.0000
  Mg  Mg6       1.0  0.47599  0.37027  0.45043  1.0000
  C   C121      1.0  0.40597  0.87237  0.62709  1.0000
  C   C122      1.0  0.44038  0.90282  0.71210  1.0000
  C  Sn13      1.0  0.46665  0.89280  0.79502  1.0000
  C  Sn14      1.0  0.45824  0.85151  0.79253  1.0000
  C   C123      1.0  0.42375  0.82128  0.70703  1.0000
  C   C124      1.0  0.39766  0.83164  0.62452  1.0000
  H   H79       1.0  0.38580  0.88038  0.56317  1.0000
  O  Te13      1.0  0.50088  0.92360  0.87940  1.0000
  O  Te14      1.0  0.48399  0.84066  0.87431  1.0000
  H   H80       1.0  0.37104  0.80806  0.55862  1.0000
  Mg  Mg7       1.0  0.52683  0.89356  0.97217  1.0000
  C   C125      1.0  0.12565  0.53318  0.62073  1.0000
  C   C126      1.0  0.09637  0.53749  0.70651  1.0000
  C  Sn15      1.0  0.10840  0.57347  0.79473  1.0000
  C  Sn16      1.0  0.15055  0.60567  0.79684  1.0000
  C   C127      1.0  0.17960  0.60107  0.71054  1.0000
  C   C128      1.0  0.16723  0.56494  0.62270  1.0000
  H   H81       1.0  0.11608  0.50524  0.55270  1.0000
  O  Te15      1.0  0.07874  0.57726  0.87980  1.0000
  O  Te16      1.0  0.16341  0.64196  0.88396  1.0000
  H   H82       1.0  0.18991  0.56162  0.55622  1.0000
  Mg  Mg8       1.0  0.11145  0.63259  0.98065  1.0000
  C   C129      1.0  0.46900  0.59498  0.63218  1.0000
  C   C130      1.0  0.46382  0.56029  0.71335  1.0000
  C  Sn17      1.0  0.42716  0.53498  0.79417  1.0000
  C  Sn18      1.0  0.39514  0.54465  0.79346  1.0000
  C   C131      1.0  0.40061  0.57941  0.71181  1.0000
  C   C132      1.0  0.43743  0.60453  0.63137  1.0000
  H   H83       1.0  0.49748  0.61441  0.56987  1.0000
  O  Te17      1.0  0.42250  0.50045  0.87471  1.0000
  O  Te18      1.0  0.35817  0.51987  0.87321  1.0000
  H   H84       1.0  0.44142  0.63137  0.56845  1.0000
  Mg  Mg9       1.0  0.36647  0.47616  0.96591  1.0000
  C   C133      1.0  0.54455  0.14799  0.61970  1.0000
  C   C134      1.0  0.58135  0.17349  0.70454  1.0000
  C  Sn19      1.0  0.59886  0.15628  0.80319  1.0000
  C  Sn20      1.0  0.57909  0.11273  0.81689  1.0000
  C   C135      1.0  0.54229  0.08749  0.73142  1.0000
  C   C136      1.0  0.52504  0.10503  0.63309  1.0000
  H   H85       1.0  0.53121  0.16155  0.54354  1.0000
  O  Te19      1.0  0.63563  0.18221  0.88717  1.0000
  O  Te20      1.0  0.59592  0.09472  0.91459  1.0000
  H   H86       1.0  0.49656  0.08528  0.56733  1.0000
  Mg  Mg10      1.0  0.64190  0.14051  0.00509  1.0000
  C   C137      1.0  0.85828  0.46244  0.80557  1.0000
  C   C138      1.0  0.82747  0.42766  0.72394  1.0000
  C  Sn21      1.0  0.83743  0.40134  0.64405  1.0000
  C  Sn22      1.0  0.87902  0.41007  0.64616  1.0000
  C   C139      1.0  0.90961  0.44492  0.72826  1.0000
  C   C140      1.0  0.89931  0.47106  0.80776  1.0000
  H   H87       1.0  0.85030  0.48265  0.86716  1.0000
  O  Te21      1.0  0.80627  0.36673  0.56303  1.0000
  O  Te22      1.0  0.88983  0.38427  0.56735  1.0000
  H   H88       1.0  0.92317  0.49798  0.87104  1.0000
  Mg  Mg11      1.0  0.83638  0.34087  0.47351  1.0000
  C   C141      1.0  0.52862  0.41181  0.80739  1.0000
  C   C142      1.0  0.54539  0.45169  0.74715  1.0000
  C  Sn23      1.0  0.58168  0.46912  0.65887  1.0000
  C  Sn24      1.0  0.60149  0.44610  0.63053  1.0000
  C   C143      1.0  0.58445  0.40622  0.69121  1.0000
  C   C144      1.0  0.54813  0.38909  0.77944  1.0000
  H   H89       1.0  0.50051  0.39854  0.87557  1.0000
  O  Te23      1.0  0.59802  0.50901  0.59961  1.0000
  O  Te24      1.0  0.63779  0.46277  0.54264  1.0000
  H   H90       1.0  0.53514  0.35820  0.82597  1.0000
  Mg  Mg12      1.0  0.64809  0.51832  0.48678  1.0000
