data_image0
_chemical_formula_structural       H60C108N12C2Sn2C2HTe2HMgC2Sn2C2HTe2HMgC2Sn2C2HTe2HMgC2Sn2C2HTe2HMgC2Sn2C2HTe2HMgC2Sn2C2HTe2HMgC2Sn2C2HTe2HMgC2Sn2C2HTe2HMgC2Sn2C2HTe2HMgC2Sn2C2HTe2HMgC2Sn2C2HTe2HMgC2Sn2C2HTe2HMg
_chemical_formula_sum              "H84 C156 N12 Sn24 Te24 Mg12"
_cell_length_a       44.3529
_cell_length_b       44.4823
_cell_length_c       7.98494
_cell_angle_alpha    111.093
_cell_angle_beta     97.7216
_cell_angle_gamma    119.567

_symmetry_space_group_name_H-M    'P1'
_space_group_IT_number       1

loop_
  _space_group_symop_operation_xyz
  'x, y, z'

loop_
  _atom_site_type_symbol
  _atom_site_label
  _atom_site_symmetry_multiplicity
  _atom_site_fract_x
  _atom_site_fract_y
  _atom_site_fract_z
  _atom_site_occupancy
  H   H1        1.0  0.27090  0.60937  0.27135  1.0000
  H   H2        1.0  0.43207  0.68693  0.36112  1.0000
  H   H3        1.0  0.76893  0.43216  0.25559  1.0000
  H   H4        1.0  0.60309  0.35275  0.30936  1.0000
  H   H5        1.0  0.20598  0.57462  0.26858  1.0000
  H   H6        1.0  0.45238  0.64207  0.32664  1.0000
  H   H7        1.0  0.83113  0.45150  0.23427  1.0000
  H   H8        1.0  0.56883  0.38346  0.30795  1.0000
  H   H9        1.0  0.18812  0.64605  0.08355  1.0000
  H   H10       1.0  0.34218  0.55002  0.24272  1.0000
  H   H11       1.0  0.80967  0.34465  0.21824  1.0000
  H   H12       1.0  0.65543  0.47011  0.21223  1.0000
  H   H13       1.0  0.25291  0.68135  0.09038  1.0000
  H   H14       1.0  0.32124  0.59358  0.26605  1.0000
  H   H15       1.0  0.74826  0.32594  0.24573  1.0000
  H   H16       1.0  0.69021  0.44044  0.22042  1.0000
  H   H17       1.0  0.48862  0.88409  0.30887  1.0000
  H   H18       1.0  0.13845  0.59747  0.11095  1.0000
  H   H19       1.0  0.38964  0.53902  0.26018  1.0000
  H   H20       1.0  0.54062  0.16038  0.27127  1.0000
  H   H21       1.0  0.86774  0.38995  0.18814  1.0000
  H   H22       1.0  0.60119  0.46796  0.19716  1.0000
  H   H23       1.0  0.50912  0.92238  0.17346  1.0000
  H   H24       1.0  0.10161  0.59394  0.25010  1.0000
  H   H25       1.0  0.41484  0.51334  0.32906  1.0000
  H   H26       1.0  0.50193  0.09668  0.15711  1.0000
  H   H27       1.0  0.90396  0.40415  0.99338  1.0000
  H   H28       1.0  0.54002  0.98634  0.17931  1.0000
  H   H29       1.0  0.03841  0.56351  0.25704  1.0000
  H   H30       1.0  0.44460  0.47995  0.33818  1.0000
  H   H31       1.0  0.46936  0.03348  0.15844  1.0000
  H   H32       1.0  0.96790  0.43260  0.99125  1.0000
  H   H33       1.0  0.45275  0.99671  0.29663  1.0000
  H   H34       1.0  0.03181  0.45974  0.18565  1.0000
  H   H35       1.0  0.52981  0.55429  0.18392  1.0000
  H   H36       1.0  0.57446  0.04986  0.34814  1.0000
  H   H37       1.0  0.00664  0.54654  0.45109  1.0000
  H   H38       1.0  0.42122  0.93153  0.28668  1.0000
  H   H39       1.0  0.09566  0.49034  0.17634  1.0000
  H   H40       1.0  0.50079  0.58965  0.18739  1.0000
  H   H41       1.0  0.60684  0.11266  0.33647  1.0000
  H   H42       1.0  0.94228  0.51796  0.45256  1.0000
  H   H43       1.0  0.65923  0.23196  0.70732  1.0000
  H   H44       1.0  0.62660  0.16954  0.73088  1.0000
  H   H45       1.0  0.53834  0.18210  0.79917  1.0000
  H   H46       1.0  0.57029  0.24363  0.77091  1.0000
  H   H47       1.0  0.45680  0.84638  0.78852  1.0000
  H   H48       1.0  0.11646  0.57942  0.61093  1.0000
  H   H49       1.0  0.39482  0.53154  0.81787  1.0000
  H   H50       1.0  0.53586  0.12996  0.81574  1.0000
  H   H51       1.0  0.84647  0.38744  0.69775  1.0000
  H   H52       1.0  0.59160  0.44108  0.65816  1.0000
  H   H53       1.0  0.49537  0.06906  0.66802  1.0000
  H   H54       1.0  0.58299  0.48483  0.72302  1.0000
  H   H55       1.0  0.45896  0.00664  0.67309  1.0000
  H   H56       1.0  0.55340  0.51788  0.69902  1.0000
  H   H57       1.0  0.55873  0.01183  0.83223  1.0000
  H   H58       1.0  0.46434  0.44218  0.83069  1.0000
  H   H59       1.0  0.59524  0.07472  0.82380  1.0000
  H   H60       1.0  0.49313  0.40705  0.84062  1.0000
  C   C1        1.0  0.32320  0.69291  0.09760  1.0000
  C   C2        1.0  0.33052  0.66485  0.27129  1.0000
  C   C3        1.0  0.37022  0.69925  0.29932  1.0000
  C   C4        1.0  0.69695  0.34699  0.33619  1.0000
  C   C5        1.0  0.69633  0.37905  0.16912  1.0000
  C   C6        1.0  0.66535  0.35276  0.33953  1.0000
  C   C7        1.0  0.36389  0.71896  0.21786  1.0000
  C   C8        1.0  0.30365  0.66625  0.17522  1.0000
  C   C9        1.0  0.36289  0.66749  0.32516  1.0000
  C   C10       1.0  0.66571  0.32416  0.36831  1.0000
  C   C11       1.0  0.71808  0.36781  0.25475  1.0000
  C   C12       1.0  0.66888  0.37654  0.26029  1.0000
  C   C13       1.0  0.26569  0.64623  0.17014  1.0000
  C   C14       1.0  0.37544  0.64310  0.31723  1.0000
  C   C15       1.0  0.75397  0.37728  0.24636  1.0000
  C   C16       1.0  0.64861  0.39396  0.26005  1.0000
  C   C17       1.0  0.25231  0.61679  0.22719  1.0000
  C   C18       1.0  0.41264  0.65682  0.33421  1.0000
  C   C19       1.0  0.77810  0.41313  0.24648  1.0000
  C   C20       1.0  0.61445  0.37857  0.28902  1.0000
  C   C21       1.0  0.21647  0.59761  0.22744  1.0000
  C   C22       1.0  0.42394  0.63217  0.31505  1.0000
  C   C23       1.0  0.81249  0.42401  0.23497  1.0000
  C   C24       1.0  0.59536  0.39555  0.28837  1.0000
  C   C25       1.0  0.19231  0.60717  0.17003  1.0000
  C   C26       1.0  0.39857  0.59322  0.28123  1.0000
  C   C27       1.0  0.82419  0.39924  0.22258  1.0000
  C   C28       1.0  0.60969  0.42863  0.25901  1.0000
  C   C29       1.0  0.20629  0.63786  0.12292  1.0000
  C   C30       1.0  0.36158  0.57974  0.26480  1.0000
  C   C31       1.0  0.80074  0.36392  0.22742  1.0000
  C   C32       1.0  0.64405  0.44443  0.23371  1.0000
  C   C33       1.0  0.24237  0.65744  0.12492  1.0000
  C   C34       1.0  0.34991  0.60410  0.28043  1.0000
  C   C35       1.0  0.76638  0.35331  0.24253  1.0000
  C   C36       1.0  0.66345  0.42782  0.23740  1.0000
  C   C37       1.0  0.45836  0.87034  0.26988  1.0000
  C   C38       1.0  0.15404  0.58717  0.15978  1.0000
  C   C39       1.0  0.41023  0.56724  0.26625  1.0000
  C   C40       1.0  0.56785  0.16816  0.26220  1.0000
  C   C41       1.0  0.86067  0.41127  0.21125  1.0000
  C   C42       1.0  0.59024  0.44676  0.25116  1.0000
  C   C43       1.0  0.46337  0.92302  0.23743  1.0000
  C   C44       1.0  0.10283  0.54357  0.20537  1.0000
  C   C45       1.0  0.45563  0.55409  0.25580  1.0000
  C   C46       1.0  0.55729  0.10982  0.25023  1.0000
  C   C47       1.0  0.91901  0.45910  0.22702  1.0000
  C   C48       1.0  0.49725  0.93912  0.20708  1.0000
  C   C49       1.0  0.08637  0.56429  0.23304  1.0000
  C   C50       1.0  0.43952  0.52199  0.29256  1.0000
  C   C51       1.0  0.51816  0.08699  0.20238  1.0000
  C   C52       1.0  0.92673  0.43508  0.09782  1.0000
  C   C53       1.0  0.51478  0.97541  0.21121  1.0000
  C   C54       1.0  0.05087  0.54733  0.23943  1.0000
  C   C55       1.0  0.45646  0.50293  0.29732  1.0000
  C   C56       1.0  0.49974  0.05114  0.20327  1.0000
  C   C57       1.0  0.96270  0.45116  0.09665  1.0000
  C   C58       1.0  0.49967  0.99750  0.24565  1.0000
  C   C59       1.0  0.03006  0.50909  0.21890  1.0000
  C   C60       1.0  0.48985  0.51440  0.26280  1.0000
  C   C61       1.0  0.51915  0.03622  0.25216  1.0000
  C   C62       1.0  0.99224  0.49161  0.22320  1.0000
  C   C63       1.0  0.46533  0.98066  0.27067  1.0000
  C   C64       1.0  0.04678  0.48876  0.19505  1.0000
  C   C65       1.0  0.50505  0.54562  0.21958  1.0000
  C   C66       1.0  0.55827  0.05957  0.30271  1.0000
  C   C67       1.0  0.98416  0.51537  0.35075  1.0000
  C   C68       1.0  0.44752  0.94428  0.26520  1.0000
  C   C69       1.0  0.08253  0.50579  0.19077  1.0000
  C   C70       1.0  0.48863  0.56526  0.21833  1.0000
  C   C71       1.0  0.57671  0.09507  0.29959  1.0000
  C   C72       1.0  0.94840  0.49967  0.35239  1.0000
  C   C73       1.0  0.31226  0.67911  0.88725  1.0000
  C   C74       1.0  0.30058  0.61933  0.69206  1.0000
  C   C75       1.0  0.34459  0.66200  0.72260  1.0000
  C   C76       1.0  0.67258  0.30559  0.77311  1.0000
  C   C77       1.0  0.68618  0.36663  0.96179  1.0000
  C   C78       1.0  0.62905  0.30675  0.77340  1.0000
  C   C79       1.0  0.34143  0.69237  0.80308  1.0000
  C   C80       1.0  0.28291  0.63592  0.75785  1.0000
  C   C81       1.0  0.33284  0.62402  0.67523  1.0000
  C   C82       1.0  0.63588  0.27835  0.73502  1.0000
  C   C83       1.0  0.69951  0.34481  0.84461  1.0000
  C   C84       1.0  0.64571  0.34596  0.84566  1.0000
  C   C85       1.0  0.61662  0.24141  0.73800  1.0000
  C   C86       1.0  0.63272  0.22059  0.72715  1.0000
  C   C87       1.0  0.61489  0.18629  0.74053  1.0000
  C   C88       1.0  0.58065  0.17212  0.76714  1.0000
  C   C89       1.0  0.56471  0.19304  0.77793  1.0000
  C   C90       1.0  0.58227  0.22712  0.76186  1.0000
  C   C91       1.0  0.42716  0.83521  0.75614  1.0000
  C   C92       1.0  0.12888  0.56621  0.65752  1.0000
  C   C93       1.0  0.40854  0.55440  0.77561  1.0000
  C   C94       1.0  0.56066  0.13613  0.78002  1.0000
  C   C95       1.0  0.83766  0.40742  0.73005  1.0000
  C   C96       1.0  0.57958  0.42309  0.72764  1.0000
  C   C97       1.0  0.54846  0.07725  0.75302  1.0000
  C   C98       1.0  0.53953  0.44256  0.77848  1.0000
  C   C99       1.0  0.50966  0.05738  0.71092  1.0000
  C   C100      1.0  0.55679  0.47503  0.74509  1.0000
  C   C101      1.0  0.48906  0.02188  0.71238  1.0000
  C   C102      1.0  0.54014  0.49413  0.73400  1.0000
  C   C103      1.0  0.50583  0.00422  0.75488  1.0000
  C   C104      1.0  0.50605  0.48251  0.76053  1.0000
  C   C105      1.0  0.54462  0.02414  0.79531  1.0000
  C   C106      1.0  0.48962  0.45083  0.80007  1.0000
  C   C107      1.0  0.56535  0.05952  0.79244  1.0000
  C   C108      1.0  0.50587  0.43128  0.80871  1.0000
  N   N1        1.0  0.44297  0.88672  0.23328  1.0000
  N   N2        1.0  0.13892  0.55907  0.20392  1.0000
  N   N3        1.0  0.44286  0.57745  0.26106  1.0000
  N   N4        1.0  0.57912  0.14598  0.25283  1.0000
  N   N5        1.0  0.88383  0.44625  0.23502  1.0000
  N   N6        1.0  0.56166  0.43847  0.30094  1.0000
  N   N7        1.0  0.41497  0.85495  0.73007  1.0000
  N   N8        1.0  0.11157  0.53996  0.70986  1.0000
  N   N9        1.0  0.43876  0.56345  0.74136  1.0000
  N   N10       1.0  0.57105  0.11281  0.75214  1.0000
  N   N11       1.0  0.86006  0.44385  0.76938  1.0000
  N   N12       1.0  0.55338  0.42075  0.78965  1.0000
  C   C109      1.0  0.92861  0.43936  0.60989  1.0000
  C   C110      1.0  0.96084  0.47856  0.71607  1.0000
  C  Sn1       1.0  0.96056  0.50792  0.85869  1.0000
  C  Sn2       1.0  0.92736  0.49776  0.89541  1.0000
  C   C111      1.0  0.89527  0.45846  0.78849  1.0000
  C   C112      1.0  0.89585  0.42932  0.64607  1.0000
  H   H61       1.0  0.92906  0.41681  0.49977  1.0000
  O  Te1       1.0  0.99301  0.54694  0.96338  1.0000
  O  Te2       1.0  0.85208  0.42539  0.03717  1.0000
  H   H62       1.0  0.87090  0.39897  0.56397  1.0000
  Mg  Mg1       1.0  0.90343  0.47447  0.14156  1.0000
  C   C113      1.0  0.50073  0.56147  0.78444  1.0000
  C   C114      1.0  0.46281  0.54635  0.73608  1.0000
  C  Sn3       1.0  0.43653  0.50797  0.70051  1.0000
  C  Sn4       1.0  0.44853  0.48437  0.71378  1.0000
  C   C115      1.0  0.48654  0.49978  0.76240  1.0000
  C   C116      1.0  0.51260  0.53822  0.79764  1.0000
  H   H63       1.0  0.52090  0.59122  0.81181  1.0000
  O  Te3       1.0  0.39875  0.49332  0.65229  1.0000
  O  Te4       1.0  0.42286  0.44592  0.67904  1.0000
  H   H64       1.0  0.54196  0.54993  0.83521  1.0000
  Mg  Mg2       1.0  0.37442  0.43916  0.61804  1.0000
  C   C117      1.0  0.48132  0.91086  0.70037  1.0000
  C   C118      1.0  0.44918  0.89493  0.74268  1.0000
  C  Sn5       1.0  0.43228  0.91471  0.78342  1.0000
  C  Sn6       1.0  0.44790  0.95110  0.78160  1.0000
  C   C119      1.0  0.48005  0.96677  0.73897  1.0000
  C   C120      1.0  0.49674  0.94674  0.69848  1.0000
  H   H65       1.0  0.49422  0.89535  0.66894  1.0000
  O  Te5       1.0  0.40019  0.89839  0.82546  1.0000
  O  Te6       1.0  0.43157  0.97148  0.82172  1.0000
  H   H66       1.0  0.52160  0.95906  0.66560  1.0000
  Mg  Mg3       1.0  0.38812  0.93727  0.87075  1.0000
  C   C121      1.0  0.33390  0.56413  0.72636  1.0000
  C   C122      1.0  0.34741  0.59898  0.71644  1.0000
  C  Sn7       1.0  0.38367  0.62103  0.72092  1.0000
  C  Sn8       1.0  0.40675  0.60787  0.73556  1.0000
  C   C123      1.0  0.39296  0.57295  0.74526  1.0000
  C   C124      1.0  0.35664  0.55112  0.74073  1.0000
  H   H67       1.0  0.30579  0.54722  0.72275  1.0000
  O  Te7       1.0  0.39673  0.65579  0.71094  1.0000
  O  Te8       1.0  0.44309  0.62934  0.74025  1.0000
  H   H68       1.0  0.34617  0.52412  0.74829  1.0000
  Mg  Mg4       1.0  0.44825  0.67481  0.72261  1.0000
  C   C125      1.0  0.57388  0.36051  0.78382  1.0000
  C   C126      1.0  0.59001  0.39472  0.76625  1.0000
  C  Sn9       1.0  0.62576  0.41267  0.76037  1.0000
  C  Sn10      1.0  0.64567  0.39600  0.77226  1.0000
  C   C127      1.0  0.62928  0.36176  0.78967  1.0000
  C   C128      1.0  0.59349  0.34404  0.79548  1.0000
  H   H69       1.0  0.54618  0.34679  0.78821  1.0000
  O  Te9       1.0  0.64146  0.44685  0.74285  1.0000
  O  Te10      1.0  0.68144  0.41333  0.76666  1.0000
  H   H70       1.0  0.58101  0.31754  0.80896  1.0000
  Mg  Mg5       1.0  0.69097  0.45963  0.74154  1.0000
  C   C129      1.0  0.34755  0.75707  0.76511  1.0000
  C   C130      1.0  0.35721  0.73195  0.77318  1.0000
  C  Sn11      1.0  0.39257  0.74130  0.78019  1.0000
  C  Sn12      1.0  0.41869  0.77647  0.77913  1.0000
  C   C131      1.0  0.40876  0.80142  0.77117  1.0000
  C   C132      1.0  0.37329  0.79177  0.76413  1.0000
  H   H71       1.0  0.32011  0.74962  0.75977  1.0000
  O  Te11      1.0  0.40177  0.71587  0.78814  1.0000
  O  Te12      1.0  0.45423  0.78654  0.78610  1.0000
  H   H72       1.0  0.36583  0.81123  0.75801  1.0000
  Mg  Mg6       1.0  0.45365  0.74239  0.79562  1.0000
  C   C133      1.0  0.43780  0.78342  0.28397  1.0000
  C   C134      1.0  0.40044  0.76305  0.26673  1.0000
  C  Sn13      1.0  0.37989  0.77802  0.24346  1.0000
  C  Sn14      1.0  0.39713  0.81405  0.23733  1.0000
  C   C135      1.0  0.43451  0.83419  0.25457  1.0000
  C   C136      1.0  0.45482  0.81895  0.27787  1.0000
  H   H73       1.0  0.45352  0.77162  0.30189  1.0000
  O  Te13      1.0  0.34259  0.75730  0.22653  1.0000
  O  Te14      1.0  0.37723  0.82967  0.21413  1.0000
  H   H74       1.0  0.48374  0.83471  0.29108  1.0000
  Mg  Mg7       1.0  0.32712  0.79057  0.19737  1.0000
  C   C137      1.0  0.59416  0.26154  0.31745  1.0000
  C   C138      1.0  0.63206  0.28226  0.34425  1.0000
  C  Sn15      1.0  0.64990  0.26337  0.32624  1.0000
  C  Sn16      1.0  0.62934  0.22299  0.28049  1.0000
  C   C139      1.0  0.59143  0.20252  0.25382  1.0000
  C   C140      1.0  0.57386  0.22171  0.27225  1.0000
  H   H75       1.0  0.58056  0.27638  0.33160  1.0000
  O  Te15      1.0  0.68778  0.28452  0.35356  1.0000
  O  Te16      1.0  0.64647  0.20339  0.26155  1.0000
  H   H76       1.0  0.54451  0.20565  0.25136  1.0000
  Mg  Mg8       1.0  0.69867  0.24484  0.31241  1.0000
  C   C141      1.0  0.21285  0.57250  0.72901  1.0000
  C   C142      1.0  0.23717  0.60418  0.70377  1.0000
  C  Sn17      1.0  0.22573  0.62577  0.66254  1.0000
  C  Sn18      1.0  0.18923  0.61538  0.64643  1.0000
  C   C143      1.0  0.16511  0.58366  0.67207  1.0000
  C   C144      1.0  0.17685  0.56225  0.71322  1.0000
  H   H77       1.0  0.22194  0.55595  0.76095  1.0000
  O  Te17      1.0  0.25038  0.65733  0.63768  1.0000
  O  Te18      1.0  0.17707  0.63647  0.60541  1.0000
  H   H78       1.0  0.15802  0.53774  0.73288  1.0000
  Mg  Mg9       1.0  0.22089  0.67707  0.58372  1.0000
  C   C145      1.0  0.02555  0.47659  0.70806  1.0000
  C   C146      1.0  0.00951  0.49720  0.75364  1.0000
  C  Sn19      1.0  0.02782  0.53560  0.77952  1.0000
  C  Sn20      1.0  0.06283  0.55362  0.75925  1.0000
  C   C147      1.0  0.07864  0.53274  0.71349  1.0000
  C   C148      1.0  0.06008  0.49433  0.68796  1.0000
  H   H79       1.0  0.01118  0.44686  0.68820  1.0000
  O  Te19      1.0  0.01140  0.55578  0.82508  1.0000
  O  Te20      1.0  0.08173  0.59196  0.78426  1.0000
  H   H80       1.0  0.07250  0.47837  0.65255  1.0000
  Mg  Mg10      1.0  0.04799  0.60743  0.84519  1.0000
  C   C149      1.0  0.56590  0.50601  0.32134  1.0000
  C   C150      1.0  0.55188  0.46923  0.31087  1.0000
  C  Sn21      1.0  0.51390  0.44338  0.27289  1.0000
  C  Sn22      1.0  0.48957  0.45463  0.24488  1.0000
  C   C151      1.0  0.50386  0.49147  0.25550  1.0000
  C   C152      1.0  0.54192  0.51711  0.29365  1.0000
  H   H81       1.0  0.59533  0.52584  0.35075  1.0000
  O  Te21      1.0  0.50036  0.40676  0.26300  1.0000
  O  Te22      1.0  0.45149  0.42935  0.20664  1.0000
  H   H82       1.0  0.55276  0.54557  0.30162  1.0000
  Mg  Mg11      1.0  0.44633  0.38257  0.20727  1.0000
  C   C153      1.0  0.75530  0.33621  0.74400  1.0000
  C   C154      1.0  0.73754  0.35444  0.80234  1.0000
  C  Sn23      1.0  0.75103  0.39145  0.81699  1.0000
  C  Sn24      1.0  0.78289  0.41047  0.77227  1.0000
  C   C155      1.0  0.80044  0.39197  0.71390  1.0000
  C   C156      1.0  0.78672  0.35494  0.69978  1.0000
  H   H83       1.0  0.74468  0.30755  0.73297  1.0000
  O  Te23      1.0  0.73296  0.40926  0.87557  1.0000
  O  Te24      1.0  0.79695  0.44746  0.78562  1.0000
  H   H84       1.0  0.80046  0.34081  0.65449  1.0000
  Mg  Mg12      1.0  0.76266  0.45979  0.87188  1.0000
