data_image0
_chemical_formula_structural       H12C36N12C2Sn2C2HTe2HMgC2Sn2C2HTe2HMgC2Sn2C2HTe2HMgC2Sn2C2HTe2HMgC2Sn2C2HTe2HMgC2Sn2C2HTe2HMgC2Sn2C2HTe2HMgC2Sn2C2HTe2HMgC2Sn2C2HTe2HMgC2Sn2C2HTe2HMgC2Sn2C2HTe2HMgC2Sn2C2HTe2HMgC2Sn2C2HTe2HMgC2Sn2C2HTe2HMgC2Sn2C2HTe2HMgC2Sn2C2HTe2HMgC2Sn2C2HTe2HMgC2Sn2C2HTe2HMgC2Sn2C2HTe2HMgC2Sn2C2HTe2HMgC2Sn2C2HTe2HMgC2Sn2C2HTe2HMgC2Sn2C2HTe2HMgC2Sn2C2HTe2HMg
_chemical_formula_sum              "H60 C132 N12 Sn48 Te48 Mg24"
_cell_length_a       44.3529
_cell_length_b       44.4823
_cell_length_c       7.98494
_cell_angle_alpha    111.093
_cell_angle_beta     97.7216
_cell_angle_gamma    119.567

_symmetry_space_group_name_H-M    'P1'
_space_group_IT_number       1

loop_
  _space_group_symop_operation_xyz
  'x, y, z'

loop_
  _atom_site_type_symbol
  _atom_site_label
  _atom_site_symmetry_multiplicity
  _atom_site_fract_x
  _atom_site_fract_y
  _atom_site_fract_z
  _atom_site_occupancy
  H   H1        1.0  0.48862  0.88409  0.30887  1.0000
  H   H2        1.0  0.13845  0.59747  0.11095  1.0000
  H   H3        1.0  0.38964  0.53902  0.26018  1.0000
  H   H4        1.0  0.54062  0.16038  0.27127  1.0000
  H   H5        1.0  0.86774  0.38995  0.18814  1.0000
  H   H6        1.0  0.60119  0.46796  0.19716  1.0000
  H   H7        1.0  0.45680  0.84638  0.78852  1.0000
  H   H8        1.0  0.11646  0.57942  0.61093  1.0000
  H   H9        1.0  0.39482  0.53154  0.81787  1.0000
  H   H10       1.0  0.53586  0.12996  0.81574  1.0000
  H   H11       1.0  0.84647  0.38744  0.69775  1.0000
  H   H12       1.0  0.59160  0.44108  0.65816  1.0000
  C   C1        1.0  0.32320  0.69291  0.09760  1.0000
  C   C2        1.0  0.33052  0.66485  0.27129  1.0000
  C   C3        1.0  0.37022  0.69925  0.29932  1.0000
  C   C4        1.0  0.69695  0.34699  0.33619  1.0000
  C   C5        1.0  0.69633  0.37905  0.16912  1.0000
  C   C6        1.0  0.66535  0.35276  0.33953  1.0000
  C   C7        1.0  0.36389  0.71896  0.21786  1.0000
  C   C8        1.0  0.30365  0.66625  0.17522  1.0000
  C   C9        1.0  0.36289  0.66749  0.32516  1.0000
  C   C10       1.0  0.66571  0.32416  0.36831  1.0000
  C   C11       1.0  0.71808  0.36781  0.25475  1.0000
  C   C12       1.0  0.66888  0.37654  0.26029  1.0000
  C   C13       1.0  0.45836  0.87034  0.26988  1.0000
  C   C14       1.0  0.15404  0.58717  0.15978  1.0000
  C   C15       1.0  0.41023  0.56724  0.26625  1.0000
  C   C16       1.0  0.56785  0.16816  0.26220  1.0000
  C   C17       1.0  0.86067  0.41127  0.21125  1.0000
  C   C18       1.0  0.59024  0.44676  0.25116  1.0000
  C   C19       1.0  0.31226  0.67911  0.88725  1.0000
  C   C20       1.0  0.30058  0.61933  0.69206  1.0000
  C   C21       1.0  0.34459  0.66200  0.72260  1.0000
  C   C22       1.0  0.67258  0.30559  0.77311  1.0000
  C   C23       1.0  0.68618  0.36663  0.96179  1.0000
  C   C24       1.0  0.62905  0.30675  0.77340  1.0000
  C   C25       1.0  0.34143  0.69237  0.80308  1.0000
  C   C26       1.0  0.28291  0.63592  0.75785  1.0000
  C   C27       1.0  0.33284  0.62402  0.67523  1.0000
  C   C28       1.0  0.63588  0.27835  0.73502  1.0000
  C   C29       1.0  0.69951  0.34481  0.84461  1.0000
  C   C30       1.0  0.64571  0.34596  0.84566  1.0000
  C   C31       1.0  0.42716  0.83521  0.75614  1.0000
  C   C32       1.0  0.12888  0.56621  0.65752  1.0000
  C   C33       1.0  0.40854  0.55440  0.77561  1.0000
  C   C34       1.0  0.56066  0.13613  0.78002  1.0000
  C   C35       1.0  0.83766  0.40742  0.73005  1.0000
  C   C36       1.0  0.57958  0.42309  0.72764  1.0000
  N   N1        1.0  0.44297  0.88672  0.23328  1.0000
  N   N2        1.0  0.13892  0.55907  0.20392  1.0000
  N   N3        1.0  0.44286  0.57745  0.26106  1.0000
  N   N4        1.0  0.57912  0.14598  0.25283  1.0000
  N   N5        1.0  0.88383  0.44625  0.23502  1.0000
  N   N6        1.0  0.56166  0.43847  0.30094  1.0000
  N   N7        1.0  0.41497  0.85495  0.73007  1.0000
  N   N8        1.0  0.11157  0.53996  0.70986  1.0000
  N   N9        1.0  0.43876  0.56345  0.74136  1.0000
  N   N10       1.0  0.57105  0.11281  0.75214  1.0000
  N   N11       1.0  0.86006  0.44385  0.76938  1.0000
  N   N12       1.0  0.55338  0.42075  0.78965  1.0000
  C   C37       1.0  0.45037  0.80435  0.29980  1.0000
  C   C38       1.0  0.44035  0.82782  0.26983  1.0000
  C  Sn1       1.0  0.40367  0.81658  0.23608  1.0000
  C  Sn2       1.0  0.37658  0.78119  0.23240  1.0000
  C   C39       1.0  0.38689  0.75794  0.26269  1.0000
  C   C40       1.0  0.42367  0.76945  0.29628  1.0000
  H   H13       1.0  0.47883  0.81327  0.32590  1.0000
  O  Te1       1.0  0.39413  0.84036  0.20634  1.0000
  O  Te2       1.0  0.33973  0.76928  0.19905  1.0000
  H   H14       1.0  0.43143  0.75129  0.31960  1.0000
  Mg  Mg1       1.0  0.34032  0.81162  0.16647  1.0000
  C   C41       1.0  0.24525  0.60987  0.24019  1.0000
  C   C42       1.0  0.26252  0.63789  0.18037  1.0000
  C  Sn3       1.0  0.24412  0.65254  0.12177  1.0000
  C  Sn4       1.0  0.20775  0.63884  0.12328  1.0000
  C   C43       1.0  0.19073  0.61083  0.18350  1.0000
  C   C44       1.0  0.20939  0.59635  0.24179  1.0000
  H   H15       1.0  0.25969  0.59869  0.28539  1.0000
  O  Te3       1.0  0.26177  0.68052  0.06237  1.0000
  O  Te4       1.0  0.18873  0.65300  0.06551  1.0000
  H   H16       1.0  0.19602  0.57468  0.28822  1.0000
  Mg  Mg2       1.0  0.29870  0.79204  0.99670  1.0000
  C   C45       1.0  0.34724  0.59395  0.26850  1.0000
  C   C46       1.0  0.36845  0.63367  0.31272  1.0000
  C  Sn5       1.0  0.40612  0.65322  0.33535  1.0000
  C  Sn6       1.0  0.42278  0.63253  0.31315  1.0000
  C   C47       1.0  0.40131  0.59279  0.26877  1.0000
  C   C48       1.0  0.36365  0.57352  0.24650  1.0000
  H   H17       1.0  0.31809  0.57903  0.25116  1.0000
  O  Te5       1.0  0.42691  0.69291  0.37961  1.0000
  O  Te6       1.0  0.46037  0.65134  0.33491  1.0000
  H   H18       1.0  0.34723  0.54276  0.21213  1.0000
  Mg  Mg3       1.0  0.47711  0.70568  0.39516  1.0000
  C   C49       1.0  0.59416  0.26154  0.31745  1.0000
  C   C50       1.0  0.63206  0.28226  0.34425  1.0000
  C  Sn7       1.0  0.64990  0.26337  0.32624  1.0000
  C  Sn8       1.0  0.62934  0.22299  0.28049  1.0000
  C   C51       1.0  0.59143  0.20252  0.25382  1.0000
  C   C52       1.0  0.57386  0.22171  0.27225  1.0000
  H   H19       1.0  0.58056  0.27638  0.33160  1.0000
  O  Te7       1.0  0.68778  0.28452  0.35356  1.0000
  O  Te8       1.0  0.64647  0.20339  0.26155  1.0000
  H   H20       1.0  0.54451  0.20565  0.25136  1.0000
  Mg  Mg4       1.0  0.69867  0.24484  0.31241  1.0000
  C   C53       1.0  0.78737  0.42093  0.24967  1.0000
  C   C54       1.0  0.75895  0.38590  0.23817  1.0000
  C  Sn9       1.0  0.76454  0.35708  0.22737  1.0000
  C  Sn10      1.0  0.79926  0.36354  0.22818  1.0000
  C   C55       1.0  0.82752  0.39870  0.23987  1.0000
  C   C56       1.0  0.82163  0.42733  0.25056  1.0000
  H   H21       1.0  0.78282  0.44310  0.25805  1.0000
  O  Te9       1.0  0.73584  0.32225  0.21588  1.0000
  O  Te10      1.0  0.80559  0.33524  0.21760  1.0000
  H   H22       1.0  0.84365  0.45446  0.25959  1.0000
  Mg  Mg5       1.0  0.75789  0.29253  0.20404  1.0000
  C   C57       1.0  0.60666  0.37917  0.29831  1.0000
  C   C58       1.0  0.63903  0.38827  0.25995  1.0000
  C  Sn11      1.0  0.65846  0.42047  0.22882  1.0000
  C  Sn12      1.0  0.64518  0.44395  0.23639  1.0000
  C   C59       1.0  0.61278  0.43462  0.27501  1.0000
  C   C60       1.0  0.59355  0.40232  0.30587  1.0000
  H   H23       1.0  0.59179  0.35419  0.32230  1.0000
  O  Te11      1.0  0.69075  0.42914  0.19060  1.0000
  O  Te12      1.0  0.66407  0.47632  0.20591  1.0000
  H   H24       1.0  0.56850  0.39530  0.33570  1.0000
  Mg  Mg6       1.0  0.70674  0.47625  0.15881  1.0000
  C   C61       1.0  0.51526  0.96719  0.21041  1.0000
  C   C62       1.0  0.50289  0.99116  0.22619  1.0000
  C  Sn13      1.0  0.46982  0.98123  0.25789  1.0000
  C  Sn14      1.0  0.44880  0.94664  0.27410  1.0000
  C   C63       1.0  0.46143  0.92287  0.25824  1.0000
  C   C64       1.0  0.49456  0.93308  0.22646  1.0000
  H   H25       1.0  0.54091  0.97510  0.18593  1.0000
  O  Te13      1.0  0.45785  0.00549  0.27322  1.0000
  O  Te14      1.0  0.41565  0.93602  0.30586  1.0000
  H   H26       1.0  0.50414  0.91453  0.21437  1.0000
  Mg  Mg7       1.0  0.41088  0.97858  0.31650  1.0000
  C   C65       1.0  0.05972  0.55639  0.24701  1.0000
  C   C66       1.0  0.03429  0.51819  0.21613  1.0000
  C  Sn15      1.0  0.04475  0.49243  0.19055  1.0000
  C  Sn16      1.0  0.08137  0.50523  0.19611  1.0000
  C   C67       1.0  0.10661  0.54352  0.22723  1.0000
  C   C68       1.0  0.09584  0.56906  0.25259  1.0000
  H   H27       1.0  0.05140  0.57616  0.26674  1.0000
  O  Te15      1.0  0.01900  0.45435  0.15978  1.0000
  O  Te16      1.0  0.09256  0.48010  0.17105  1.0000
  H   H28       1.0  0.11555  0.59864  0.27662  1.0000
  Mg  Mg8       1.0  0.04743  0.43097  0.13335  1.0000
  C   C69       1.0  0.43903  0.51357  0.29566  1.0000
  C   C70       1.0  0.45100  0.54637  0.26841  1.0000
  C  Sn17      1.0  0.48293  0.56272  0.22492  1.0000
  C  Sn18      1.0  0.50318  0.54585  0.20846  1.0000
  C   C71       1.0  0.49096  0.51302  0.23585  1.0000
  C   C72       1.0  0.45899  0.49691  0.27937  1.0000
  H   H29       1.0  0.41428  0.50108  0.32923  1.0000
  O  Te17      1.0  0.49450  0.59550  0.19822  1.0000
  O  Te18      1.0  0.53517  0.56160  0.16506  1.0000
  H   H30       1.0  0.44971  0.47150  0.30033  1.0000
  Mg  Mg9       1.0  0.53983  0.60638  0.14148  1.0000
  C   C73       1.0  0.50905  0.07752  0.18905  1.0000
  C   C74       1.0  0.54753  0.10601  0.25033  1.0000
  C  Sn19      1.0  0.57321  0.09880  0.31003  1.0000
  C  Sn20      1.0  0.56004  0.06237  0.30813  1.0000
  C   C75       1.0  0.52149  0.03406  0.24644  1.0000
  C   C76       1.0  0.49603  0.04158  0.18707  1.0000
  H   H31       1.0  0.48935  0.08333  0.14301  1.0000
  O  Te19      1.0  0.61156  0.12758  0.37088  1.0000
  O  Te20      1.0  0.58510  0.05439  0.36698  1.0000
  H   H32       1.0  0.46624  0.01951  0.13951  1.0000
  Mg  Mg10      1.0  0.63469  0.10292  0.43762  1.0000
  C   C77       1.0  0.95298  0.44208  0.07953  1.0000
  C   C78       1.0  0.98474  0.48156  0.18411  1.0000
  C  Sn21      1.0  0.98376  0.51074  0.32331  1.0000
  C  Sn22      1.0  0.95033  0.50010  0.35819  1.0000
  C   C79       1.0  0.91872  0.46051  0.25289  1.0000
  C   C80       1.0  0.92000  0.43156  0.11388  1.0000
  H   H33       1.0  0.02821  0.52080  0.97204  1.0000
  O  Te21      1.0  0.01574  0.55005  0.42645  1.0000
  O  Te22      1.0  0.94859  0.52866  0.49653  1.0000
  H   H34       1.0  0.89542  0.40098  0.03302  1.0000
  Mg  Mg11      1.0  0.99950  0.57828  0.59992  1.0000
  C   C81       1.0  0.55649  0.51644  0.32689  1.0000
  C   C82       1.0  0.51837  0.50039  0.27884  1.0000
  C  Sn23      1.0  0.49293  0.46200  0.24566  1.0000
  C  Sn24      1.0  0.50599  0.43933  0.26101  1.0000
  C   C83       1.0  0.54418  0.45567  0.30929  1.0000
  C   C84       1.0  0.56939  0.49411  0.34214  1.0000
  H   H35       1.0  0.57600  0.54619  0.35241  1.0000
  O  Te23      1.0  0.45494  0.44642  0.19772  1.0000
  O  Te24      1.0  0.48117  0.40089  0.22867  1.0000
  H   H36       1.0  0.59891  0.50654  0.37946  1.0000
  Mg  Mg12      1.0  0.43204  0.39267  0.16711  1.0000
  C   C85       1.0  0.34755  0.75707  0.76511  1.0000
  C   C86       1.0  0.35721  0.73195  0.77318  1.0000
  C  Sn25      1.0  0.39257  0.74130  0.78019  1.0000
  C  Sn26      1.0  0.41869  0.77647  0.77913  1.0000
  C   C87       1.0  0.40876  0.80142  0.77117  1.0000
  C   C88       1.0  0.37329  0.79177  0.76413  1.0000
  H   H37       1.0  0.32011  0.74962  0.75977  1.0000
  O  Te25      1.0  0.40177  0.71587  0.78814  1.0000
  O  Te26      1.0  0.45423  0.78654  0.78610  1.0000
  H   H38       1.0  0.36583  0.81123  0.75801  1.0000
  Mg  Mg13      1.0  0.45365  0.74239  0.79562  1.0000
  C   C89       1.0  0.19674  0.62370  0.65484  1.0000
  C   C90       1.0  0.17047  0.58772  0.64334  1.0000
  C  Sn27      1.0  0.18167  0.56558  0.67985  1.0000
  C  Sn28      1.0  0.21990  0.57981  0.72879  1.0000
  C   C91       1.0  0.24597  0.61586  0.74005  1.0000
  C   C92       1.0  0.23446  0.63777  0.70317  1.0000
  H   H39       1.0  0.18784  0.64066  0.62641  1.0000
  O  Te27      1.0  0.15506  0.52968  0.66766  1.0000
  O  Te28      1.0  0.23186  0.55829  0.76606  1.0000
  H   H40       1.0  0.25481  0.66564  0.71221  1.0000
  Mg  Mg14      1.0  0.18506  0.51106  0.73120  1.0000
  C   C93       1.0  0.33390  0.56413  0.72636  1.0000
  C   C94       1.0  0.34741  0.59898  0.71644  1.0000
  C  Sn29      1.0  0.38367  0.62103  0.72092  1.0000
  C  Sn30      1.0  0.40675  0.60787  0.73556  1.0000
  C   C95       1.0  0.39296  0.57295  0.74526  1.0000
  C   C96       1.0  0.35664  0.55112  0.74073  1.0000
  H   H41       1.0  0.30579  0.54722  0.72275  1.0000
  O  Te29      1.0  0.39673  0.65579  0.71094  1.0000
  O  Te30      1.0  0.44309  0.62934  0.74025  1.0000
  H   H42       1.0  0.34617  0.52412  0.74829  1.0000
  Mg  Mg15      1.0  0.44825  0.67481  0.72261  1.0000
  C   C97       1.0  0.56519  0.20195  0.78239  1.0000
  C   C98       1.0  0.57494  0.17572  0.76142  1.0000
  C  Sn31      1.0  0.60814  0.18411  0.73477  1.0000
  C  Sn32      1.0  0.63197  0.21943  0.72913  1.0000
  C   C99       1.0  0.62198  0.24550  0.75038  1.0000
  C   C100      1.0  0.58869  0.23681  0.77691  1.0000
  H   H43       1.0  0.53944  0.19525  0.80302  1.0000
  O  Te31      1.0  0.61745  0.15757  0.71399  1.0000
  O  Te32      1.0  0.66532  0.22855  0.70275  1.0000
  H   H44       1.0  0.58116  0.25714  0.79327  1.0000
  Mg  Mg16      1.0  0.66584  0.18307  0.68128  1.0000
  C   C101      1.0  0.75530  0.33621  0.74400  1.0000
  C   C102      1.0  0.73754  0.35444  0.80234  1.0000
  C  Sn33      1.0  0.75103  0.39145  0.81699  1.0000
  C  Sn34      1.0  0.78289  0.41047  0.77227  1.0000
  C   C103      1.0  0.80044  0.39197  0.71390  1.0000
  C   C104      1.0  0.78672  0.35494  0.69978  1.0000
  H   H45       1.0  0.74468  0.30755  0.73297  1.0000
  O  Te33      1.0  0.73296  0.40926  0.87557  1.0000
  O  Te34      1.0  0.79695  0.44746  0.78562  1.0000
  H   H46       1.0  0.80046  0.34081  0.65449  1.0000
  Mg  Mg17      1.0  0.76266  0.45979  0.87188  1.0000
  C   C105      1.0  0.58340  0.35175  0.81046  1.0000
  C   C106      1.0  0.61670  0.35759  0.79561  1.0000
  C  Sn35      1.0  0.64069  0.38806  0.76231  1.0000
  C  Sn36      1.0  0.63111  0.41310  0.74365  1.0000
  C   C107      1.0  0.59774  0.40702  0.75887  1.0000
  C   C108      1.0  0.57393  0.37644  0.79214  1.0000
  H   H47       1.0  0.56498  0.32810  0.83631  1.0000
  O  Te35      1.0  0.67384  0.39348  0.74779  1.0000
  O  Te36      1.0  0.65459  0.44378  0.71039  1.0000
  H   H48       1.0  0.54816  0.37194  0.80376  1.0000
  Mg  Mg18      1.0  0.69668  0.43932  0.70165  1.0000
  C   C109      1.0  0.44010  0.94499  0.77496  1.0000
  C   C110      1.0  0.47569  0.96412  0.76778  1.0000
  C  Sn37      1.0  0.49302  0.94474  0.73147  1.0000
  C  Sn38      1.0  0.47430  0.90548  0.70180  1.0000
  C   C111      1.0  0.43869  0.88660  0.70914  1.0000
  C   C112      1.0  0.42161  0.90627  0.74564  1.0000
  H   H49       1.0  0.42687  0.96020  0.80309  1.0000
  O  Te37      1.0  0.52859  0.96429  0.72485  1.0000
  O  Te38      1.0  0.49097  0.88542  0.66518  1.0000
  H   H50       1.0  0.39404  0.89144  0.75107  1.0000
  Mg  Mg19      1.0  0.53974  0.92456  0.67027  1.0000
  C   C113      1.0  0.03963  0.54991  0.78446  1.0000
  C   C114      1.0  0.01157  0.51278  0.75588  1.0000
  C  Sn39      1.0  0.01771  0.48354  0.72058  1.0000
  C  Sn40      1.0  0.05263  0.49172  0.71391  1.0000
  C   C115      1.0  0.08053  0.52897  0.74283  1.0000
  C   C116      1.0  0.07408  0.55801  0.77799  1.0000
  H   H51       1.0  0.03465  0.57239  0.81177  1.0000
  O  Te39      1.0  0.98937  0.44659  0.69226  1.0000
  O  Te40      1.0  0.05952  0.46304  0.67897  1.0000
  H   H52       1.0  0.09582  0.58677  0.80024  1.0000
  Mg  Mg20      1.0  0.01214  0.41718  0.64929  1.0000
  C   C117      1.0  0.50935  0.55015  0.77512  1.0000
  C   C118      1.0  0.49456  0.51340  0.76621  1.0000
  C  Sn41      1.0  0.45661  0.48858  0.73198  1.0000
  C  Sn42      1.0  0.43310  0.50086  0.70620  1.0000
  C   C119      1.0  0.44816  0.53767  0.71524  1.0000
  C   C120      1.0  0.48618  0.56227  0.74963  1.0000
  H   H53       1.0  0.53876  0.56918  0.80162  1.0000
  O  Te41      1.0  0.44230  0.45197  0.72360  1.0000
  O  Te42      1.0  0.39507  0.47663  0.67172  1.0000
  H   H54       1.0  0.49761  0.59071  0.75639  1.0000
  Mg  Mg21      1.0  0.38866  0.42942  0.67313  1.0000
  C   C121      1.0  0.06023  0.05226  0.80567  1.0000
  C   C122      1.0  0.04774  0.07170  0.74847  1.0000
  C  Sn43      1.0  0.01005  0.05752  0.69993  1.0000
  C  Sn44      1.0  0.98445  0.02323  0.70902  1.0000
  C   C123      1.0  0.99723  0.00401  0.76655  1.0000
  C   C124      1.0  0.03501  0.01844  0.81475  1.0000
  H   H55       1.0  0.08946  0.06344  0.84307  1.0000
  O  Te43      1.0  0.50316  0.07730  0.64301  1.0000
  O  Te44      1.0  0.94663  0.00843  0.66137  1.0000
  H   H56       1.0  0.04467  0.00340  0.85915  1.0000
  Mg  Mg22      1.0  0.94376  0.04571  0.59218  1.0000
  C   C125      1.0  0.92861  0.43936  0.60989  1.0000
  C   C126      1.0  0.96084  0.47856  0.71607  1.0000
  C  Sn45      1.0  0.96056  0.50792  0.85869  1.0000
  C  Sn46      1.0  0.92736  0.49776  0.89541  1.0000
  C   C127      1.0  0.89527  0.45846  0.78849  1.0000
  C   C128      1.0  0.89585  0.42932  0.64607  1.0000
  H   H57       1.0  0.92906  0.41681  0.49977  1.0000
  O  Te45      1.0  0.99301  0.54694  0.96338  1.0000
  O  Te46      1.0  0.85208  0.42539  0.03717  1.0000
  H   H58       1.0  0.87090  0.39897  0.56397  1.0000
  Mg  Mg23      1.0  0.90343  0.47447  0.14156  1.0000
  C   C129      1.0  0.55639  0.48203  0.73101  1.0000
  C   C130      1.0  0.54653  0.45318  0.78716  1.0000
  C  Sn47      1.0  0.51381  0.43682  0.82425  1.0000
  C  Sn48      1.0  0.49057  0.44965  0.80460  1.0000
  C   C131      1.0  0.50067  0.47851  0.74822  1.0000
  C   C132      1.0  0.53348  0.49469  0.71152  1.0000
  H   H59       1.0  0.58176  0.49454  0.70251  1.0000
  O  Te47      1.0  0.50438  0.40803  0.88028  1.0000
  O  Te48      1.0  0.45771  0.43379  0.84070  1.0000
  H   H60       1.0  0.54109  0.51701  0.66793  1.0000
  Mg  Mg24      1.0  0.45680  0.39531  0.91337  1.0000
