data_image0
_chemical_formula_structural       H12C36N12SnCSn2CSnTe4Mg2SnCSn2CSnTe4Mg2SnCSn2CSnTe4Mg2SnCSn2CSnTe4Mg2SnCSn2CSnTe4Mg2SnCSn2CSnTe4Mg2SnCSn2CSnTe4Mg2SnCSn2CSnTe4Mg2SnCSn2CSnTe4Mg2SnCSn2CSnTe4Mg2SnCSn2CSnTe4Mg2SnCSn2CSnTe4Mg2SnCSn2CSnTe4Mg2SnCSn2CSnTe4Mg2SnCSn2CSnTe4Mg2SnCSn2CSnTe4Mg2SnCSn2CSnTe4Mg2SnCSn2CSnTe4Mg2SnCSn2CSnTe4Mg2SnCSn2CSnTe4Mg2SnCSn2CSnTe4Mg2SnCSn2CSnTe4Mg2SnCSn2CSnTe4Mg2SnCSn2CSnTe4Mg2
_chemical_formula_sum              "H12 C84 N12 Sn96 Te96 Mg48"
_cell_length_a       44.3529
_cell_length_b       44.4823
_cell_length_c       7.98494
_cell_angle_alpha    111.093
_cell_angle_beta     97.7216
_cell_angle_gamma    119.567

_symmetry_space_group_name_H-M    'P1'
_space_group_IT_number       1

loop_
  _space_group_symop_operation_xyz
  'x, y, z'

loop_
  _atom_site_type_symbol
  _atom_site_label
  _atom_site_symmetry_multiplicity
  _atom_site_fract_x
  _atom_site_fract_y
  _atom_site_fract_z
  _atom_site_occupancy
  H   H1        1.0  0.48862  0.88409  0.30887  1.0000
  H   H2        1.0  0.13845  0.59747  0.11095  1.0000
  H   H3        1.0  0.38964  0.53902  0.26018  1.0000
  H   H4        1.0  0.54062  0.16038  0.27127  1.0000
  H   H5        1.0  0.86774  0.38995  0.18814  1.0000
  H   H6        1.0  0.60119  0.46796  0.19716  1.0000
  H   H7        1.0  0.45680  0.84638  0.78852  1.0000
  H   H8        1.0  0.11646  0.57942  0.61093  1.0000
  H   H9        1.0  0.39482  0.53154  0.81787  1.0000
  H   H10       1.0  0.53586  0.12996  0.81574  1.0000
  H   H11       1.0  0.84647  0.38744  0.69775  1.0000
  H   H12       1.0  0.59160  0.44108  0.65816  1.0000
  C   C1        1.0  0.32320  0.69291  0.09760  1.0000
  C   C2        1.0  0.33052  0.66485  0.27129  1.0000
  C   C3        1.0  0.37022  0.69925  0.29932  1.0000
  C   C4        1.0  0.69695  0.34699  0.33619  1.0000
  C   C5        1.0  0.69633  0.37905  0.16912  1.0000
  C   C6        1.0  0.66535  0.35276  0.33953  1.0000
  C   C7        1.0  0.36389  0.71896  0.21786  1.0000
  C   C8        1.0  0.30365  0.66625  0.17522  1.0000
  C   C9        1.0  0.36289  0.66749  0.32516  1.0000
  C   C10       1.0  0.66571  0.32416  0.36831  1.0000
  C   C11       1.0  0.71808  0.36781  0.25475  1.0000
  C   C12       1.0  0.66888  0.37654  0.26029  1.0000
  C   C13       1.0  0.45836  0.87034  0.26988  1.0000
  C   C14       1.0  0.15404  0.58717  0.15978  1.0000
  C   C15       1.0  0.41023  0.56724  0.26625  1.0000
  C   C16       1.0  0.56785  0.16816  0.26220  1.0000
  C   C17       1.0  0.86067  0.41127  0.21125  1.0000
  C   C18       1.0  0.59024  0.44676  0.25116  1.0000
  C   C19       1.0  0.31226  0.67911  0.88725  1.0000
  C   C20       1.0  0.30058  0.61933  0.69206  1.0000
  C   C21       1.0  0.34459  0.66200  0.72260  1.0000
  C   C22       1.0  0.67258  0.30559  0.77311  1.0000
  C   C23       1.0  0.68618  0.36663  0.96179  1.0000
  C   C24       1.0  0.62905  0.30675  0.77340  1.0000
  C   C25       1.0  0.34143  0.69237  0.80308  1.0000
  C   C26       1.0  0.28291  0.63592  0.75785  1.0000
  C   C27       1.0  0.33284  0.62402  0.67523  1.0000
  C   C28       1.0  0.63588  0.27835  0.73502  1.0000
  C   C29       1.0  0.69951  0.34481  0.84461  1.0000
  C   C30       1.0  0.64571  0.34596  0.84566  1.0000
  C   C31       1.0  0.42716  0.83521  0.75614  1.0000
  C   C32       1.0  0.12888  0.56621  0.65752  1.0000
  C   C33       1.0  0.40854  0.55440  0.77561  1.0000
  C   C34       1.0  0.56066  0.13613  0.78002  1.0000
  C   C35       1.0  0.83766  0.40742  0.73005  1.0000
  C   C36       1.0  0.57958  0.42309  0.72764  1.0000
  N   N1        1.0  0.44297  0.88672  0.23328  1.0000
  N   N2        1.0  0.13892  0.55907  0.20392  1.0000
  N   N3        1.0  0.44286  0.57745  0.26106  1.0000
  N   N4        1.0  0.57912  0.14598  0.25283  1.0000
  N   N5        1.0  0.88383  0.44625  0.23502  1.0000
  N   N6        1.0  0.56166  0.43847  0.30094  1.0000
  N   N7        1.0  0.41497  0.85495  0.73007  1.0000
  N   N8        1.0  0.11157  0.53996  0.70986  1.0000
  N   N9        1.0  0.43876  0.56345  0.74136  1.0000
  N   N10       1.0  0.57105  0.11281  0.75214  1.0000
  N   N11       1.0  0.86006  0.44385  0.76938  1.0000
  N   N12       1.0  0.55338  0.42075  0.78965  1.0000
  C  Sn1       1.0  0.39364  0.81359  0.29081  1.0000
  C   C37       1.0  0.43138  0.83402  0.31471  1.0000
  C  Sn2       1.0  0.44871  0.81457  0.28788  1.0000
  C  Sn3       1.0  0.42786  0.77385  0.23598  1.0000
  C   C38       1.0  0.39014  0.75344  0.21208  1.0000
  C  Sn4       1.0  0.37279  0.77287  0.23890  1.0000
  O  Te1       1.0  0.37689  0.83363  0.31835  1.0000
  O  Te2       1.0  0.48648  0.83562  0.31265  1.0000
  O  Te3       1.0  0.44464  0.75382  0.20845  1.0000
  O  Te4       1.0  0.33504  0.75184  0.21413  1.0000
  Mg  Mg1       1.0  0.49678  0.79528  0.25886  1.0000
  Mg  Mg2       1.0  0.32471  0.79215  0.26778  1.0000
  C  Sn5       1.0  0.22850  0.60829  0.28830  1.0000
  C   C39       1.0  0.20120  0.61404  0.23597  1.0000
  C  Sn6       1.0  0.20504  0.63476  0.13467  1.0000
  C  Sn7       1.0  0.23682  0.65003  0.08451  1.0000
  C   C40       1.0  0.26410  0.64428  0.13680  1.0000
  C  Sn8       1.0  0.26029  0.62357  0.23814  1.0000
  O  Te5       1.0  0.22409  0.58749  0.38953  1.0000
  O  Te6       1.0  0.17738  0.64014  0.08400  1.0000
  O  Te7       1.0  0.31546  0.77198  0.98320  1.0000
  O  Te8       1.0  0.28792  0.61818  0.28877  1.0000
  Mg  Mg3       1.0  0.27023  0.77162  0.94649  1.0000
  Mg  Mg4       1.0  0.26933  0.58782  0.42618  1.0000
  C  Sn9       1.0  0.42723  0.64355  0.37923  1.0000
  C   C41       1.0  0.40555  0.60404  0.33802  1.0000
  C  Sn10      1.0  0.36641  0.58190  0.26672  1.0000
  C  Sn11      1.0  0.34856  0.59962  0.23584  1.0000
  C   C42       1.0  0.37023  0.63910  0.27701  1.0000
  C  Sn12      1.0  0.40938  0.66127  0.34835  1.0000
  O  Te9       1.0  0.46631  0.66513  0.45039  1.0000
  O  Te10      1.0  0.34533  0.54245  0.22665  1.0000
  O  Te11      1.0  0.30944  0.57801  0.16462  1.0000
  O  Te12      1.0  0.43045  0.70069  0.38838  1.0000
  Mg  Mg5       1.0  0.29291  0.52527  0.13182  1.0000
  Mg  Mg6       1.0  0.48286  0.71789  0.48311  1.0000
  C  Sn13      1.0  0.60059  0.26636  0.38057  1.0000
  C   C43       1.0  0.63727  0.28501  0.38684  1.0000
  C  Sn14      1.0  0.65100  0.26275  0.31731  1.0000
  C  Sn15      1.0  0.62759  0.22095  0.23976  1.0000
  C   C44       1.0  0.59093  0.20231  0.23348  1.0000
  C  Sn16      1.0  0.57718  0.22456  0.30302  1.0000
  O  Te13      1.0  0.58745  0.28921  0.45089  1.0000
  O  Te14      1.0  0.68777  0.28207  0.32518  1.0000
  O  Te15      1.0  0.64076  0.19810  0.16942  1.0000
  O  Te16      1.0  0.54043  0.20526  0.29515  1.0000
  Mg  Mg7       1.0  0.69284  0.23805  0.21142  1.0000
  Mg  Mg8       1.0  0.53532  0.24924  0.40876  1.0000
  C  Sn17      1.0  0.78790  0.35329  0.17170  1.0000
  C   C45       1.0  0.81483  0.38731  0.16993  1.0000
  C  Sn18      1.0  0.81344  0.42007  0.22892  1.0000
  C  Sn19      1.0  0.78455  0.41881  0.29109  1.0000
  C   C46       1.0  0.75765  0.38481  0.29287  1.0000
  C  Sn20      1.0  0.75901  0.35203  0.23387  1.0000
  O  Te17      1.0  0.78983  0.32089  0.11212  1.0000
  O  Te18      1.0  0.84067  0.45374  0.22583  1.0000
  O  Te19      1.0  0.78264  0.45125  0.35069  1.0000
  O  Te20      1.0  0.73181  0.31837  0.23697  1.0000
  Mg  Mg9       1.0  0.82614  0.49036  0.32072  1.0000
  Mg  Mg10      1.0  0.74632  0.28175  0.14221  1.0000
  C  Sn21      1.0  0.60301  0.39717  0.34888  1.0000
  C   C47       1.0  0.61299  0.42953  0.32046  1.0000
  C  Sn22      1.0  0.64039  0.44309  0.24420  1.0000
  C  Sn23      1.0  0.65817  0.42389  0.19519  1.0000
  C   C48       1.0  0.64818  0.39154  0.22358  1.0000
  C  Sn24      1.0  0.62079  0.37796  0.29987  1.0000
  O  Te21      1.0  0.57555  0.38412  0.42531  1.0000
  O  Te22      1.0  0.64991  0.47551  0.21716  1.0000
  O  Te23      1.0  0.68566  0.43697  0.11872  1.0000
  O  Te24      1.0  0.61127  0.34556  0.32688  1.0000
  Mg  Mg11      1.0  0.68896  0.48227  0.10857  1.0000
  Mg  Mg12      1.0  0.57221  0.33876  0.43536  1.0000
  C  Sn25      1.0  0.50888  0.95231  0.26303  1.0000
  C   C49       1.0  0.47511  0.93176  0.28576  1.0000
  C  Sn26      1.0  0.45026  0.94218  0.27136  1.0000
  C  Sn27      1.0  0.45933  0.97378  0.23332  1.0000
  C   C50       1.0  0.49308  0.99430  0.21058  1.0000
  C  Sn28      1.0  0.51795  0.98391  0.22499  1.0000
  O  Te25      1.0  0.53330  0.94139  0.27801  1.0000
  O  Te26      1.0  0.41667  0.92121  0.29469  1.0000
  O  Te27      1.0  0.43487  0.98469  0.21836  1.0000
  O  Te28      1.0  0.55151  0.00486  0.20165  1.0000
  Mg  Mg13      1.0  0.39253  0.94719  0.26121  1.0000
  Mg  Mg14      1.0  0.57566  0.97889  0.23500  1.0000
  C  Sn29      1.0  0.05881  0.49501  0.25079  1.0000
  C   C51       1.0  0.03788  0.51051  0.26767  1.0000
  C  Sn30      1.0  0.04804  0.54263  0.23700  1.0000
  C  Sn31      1.0  0.07977  0.55962  0.18832  1.0000
  C   C52       1.0  0.10068  0.54412  0.17143  1.0000
  C  Sn32      1.0  0.09054  0.51200  0.20211  1.0000
  O  Te29      1.0  0.04813  0.46288  0.28207  1.0000
  O  Te30      1.0  0.02669  0.55762  0.25476  1.0000
  O  Te31      1.0  0.09043  0.59177  0.15704  1.0000
  O  Te32      1.0  0.11187  0.49701  0.18433  1.0000
  Mg  Mg15      1.0  0.05245  0.60168  0.19806  1.0000
  Mg  Mg16      1.0  0.08612  0.45294  0.24091  1.0000
  C  Sn33      1.0  0.48737  0.55478  0.15743  1.0000
  C   C53       1.0  0.45626  0.54903  0.20275  1.0000
  C  Sn34      1.0  0.44250  0.52711  0.29684  1.0000
  C  Sn35      1.0  0.46022  0.51060  0.34680  1.0000
  C   C54       1.0  0.49132  0.51636  0.30152  1.0000
  C  Sn36      1.0  0.50509  0.53828  0.20739  1.0000
  O  Te33      1.0  0.50065  0.57681  0.06334  1.0000
  O  Te34      1.0  0.41135  0.52174  0.34058  1.0000
  O  Te35      1.0  0.44691  0.48857  0.44096  1.0000
  O  Te36      1.0  0.53623  0.54365  0.16369  1.0000
  Mg  Mg17      1.0  0.40370  0.48948  0.46982  1.0000
  Mg  Mg18      1.0  0.54391  0.57593  0.03455  1.0000
  C  Sn37      1.0  0.57356  0.08187  0.24903  1.0000
  C   C55       1.0  0.55827  0.10009  0.20177  1.0000
  C  Sn38      1.0  0.52240  0.08832  0.19667  1.0000
  C  Sn39      1.0  0.50140  0.05772  0.23982  1.0000
  C   C56       1.0  0.51669  0.03953  0.28707  1.0000
  C  Sn40      1.0  0.55255  0.05127  0.29218  1.0000
  O  Te37      1.0  0.60947  0.09411  0.25326  1.0000
  O  Te38      1.0  0.50770  0.10696  0.14897  1.0000
  O  Te39      1.0  0.46546  0.04549  0.23555  1.0000
  O  Te40      1.0  0.06213  0.03265  0.33987  1.0000
  Mg  Mg19      1.0  0.45759  0.07990  0.16261  1.0000
  Mg  Mg20      1.0  0.61737  0.05971  0.32638  1.0000
  C  Sn41      1.0  0.97999  0.51172  0.40125  1.0000
  C   C57       1.0  0.99217  0.49268  0.27954  1.0000
  C  Sn42      1.0  0.96617  0.45610  0.11020  1.0000
  C  Sn43      1.0  0.92719  0.43819  0.06140  1.0000
  C   C58       1.0  0.91504  0.45723  0.18304  1.0000
  C  Sn44      1.0  0.94101  0.49381  0.35245  1.0000
  O  Te41      1.0  0.00648  0.54828  0.56981  1.0000
  O  Te42      1.0  0.05325  0.53876  0.99085  1.0000
  O  Te43      1.0  0.97494  0.50273  0.89268  1.0000
  O  Te44      1.0  0.92818  0.51228  0.47173  1.0000
  Mg  Mg21      1.0  0.00627  0.48923  0.77677  1.0000
  Mg  Mg22      1.0  0.97514  0.56182  0.68579  1.0000
  C  Sn45      1.0  0.49307  0.45522  0.30948  1.0000
  C   C59       1.0  0.50799  0.49252  0.32505  1.0000
  C  Sn46      1.0  0.54281  0.51347  0.31257  1.0000
  C  Sn47      1.0  0.56314  0.49677  0.28381  1.0000
  C   C60       1.0  0.54822  0.45948  0.26823  1.0000
  C  Sn48      1.0  0.51341  0.43852  0.28072  1.0000
  O  Te45      1.0  0.45821  0.43480  0.32237  1.0000
  O  Te46      1.0  0.55715  0.55072  0.32863  1.0000
  O  Te47      1.0  0.59803  0.51722  0.27093  1.0000
  O  Te48      1.0  0.49906  0.40128  0.26464  1.0000
  Mg  Mg23      1.0  0.60577  0.56699  0.30150  1.0000
  Mg  Mg24      1.0  0.45044  0.38498  0.29165  1.0000
  C  Sn49      1.0  0.34478  0.74884  0.70281  1.0000
  C   C61       1.0  0.35658  0.72652  0.73096  1.0000
  C  Sn50      1.0  0.39462  0.74192  0.78989  1.0000
  C  Sn51      1.0  0.42143  0.78045  0.82146  1.0000
  C   C62       1.0  0.40962  0.80275  0.79334  1.0000
  C  Sn52      1.0  0.37158  0.78737  0.73438  1.0000
  O  Te49      1.0  0.30660  0.73286  0.64388  1.0000
  O  Te50      1.0  0.40575  0.71904  0.81703  1.0000
  O  Te51      1.0  0.45962  0.79642  0.88043  1.0000
  O  Te52      1.0  0.36045  0.81023  0.70728  1.0000
  Mg  Mg25      1.0  0.46094  0.75380  0.89812  1.0000
  Mg  Mg26      1.0  0.30528  0.77551  0.62628  1.0000
  C  Sn53      1.0  0.19511  0.57138  0.76606  1.0000
  C   C63       1.0  0.17348  0.58418  0.72310  1.0000
  C  Sn54      1.0  0.18571  0.61131  0.65503  1.0000
  C  Sn55      1.0  0.22026  0.62594  0.62923  1.0000
  C   C64       1.0  0.24186  0.61313  0.67215  1.0000
  C  Sn56      1.0  0.22966  0.58600  0.74027  1.0000
  O  Te53      1.0  0.18233  0.54424  0.83393  1.0000
  O  Te54      1.0  0.16361  0.62369  0.61312  1.0000
  O  Te55      1.0  0.23303  0.65309  0.56131  1.0000
  O  Te56      1.0  0.25173  0.57363  0.78213  1.0000
  Mg  Mg27      1.0  0.19298  0.66102  0.52424  1.0000
  Mg  Mg28      1.0  0.22238  0.53629  0.87091  1.0000
  C  Sn57      1.0  0.34340  0.55107  0.68999  1.0000
  C   C65       1.0  0.38034  0.56510  0.70889  1.0000
  C  Sn58      1.0  0.40579  0.60365  0.74410  1.0000
  C  Sn59      1.0  0.39409  0.62871  0.76090  1.0000
  C   C66       1.0  0.35717  0.61467  0.74204  1.0000
  C  Sn60      1.0  0.33170  0.57612  0.70679  1.0000
  O  Te57      1.0  0.31843  0.51242  0.65482  1.0000
  O  Te58      1.0  0.44257  0.61702  0.76238  1.0000
  O  Te59      1.0  0.41909  0.66738  0.79609  1.0000
  O  Te60      1.0  0.29494  0.56276  0.68854  1.0000
  Mg  Mg29      1.0  0.46621  0.67200  0.80995  1.0000
  Mg  Mg30      1.0  0.27129  0.50779  0.64108  1.0000
  C  Sn61      1.0  0.62636  0.19987  0.79481  1.0000
  C   C67       1.0  0.59190  0.18104  0.81398  1.0000
  C  Sn62      1.0  0.56727  0.19092  0.77751  1.0000
  C  Sn63      1.0  0.57729  0.22022  0.72058  1.0000
  C   C68       1.0  0.61173  0.23903  0.70141  1.0000
  C  Sn64      1.0  0.63638  0.22917  0.73788  1.0000
  O  Te61      1.0  0.65054  0.18952  0.83200  1.0000
  O  Te62      1.0  0.53298  0.17170  0.79770  1.0000
  O  Te63      1.0  0.55307  0.23056  0.68339  1.0000
  O  Te64      1.0  0.67065  0.24837  0.71768  1.0000
  Mg  Mg31      1.0  0.50952  0.19604  0.73071  1.0000
  Mg  Mg32      1.0  0.69411  0.22404  0.78454  1.0000
  C  Sn65      1.0  0.76159  0.34438  0.80900  1.0000
  C   C69       1.0  0.74220  0.36139  0.84751  1.0000
  C  Sn66      1.0  0.74994  0.39227  0.81014  1.0000
  C  Sn67      1.0  0.77764  0.40644  0.73253  1.0000
  C   C70       1.0  0.79701  0.38943  0.69403  1.0000
  C  Sn68      1.0  0.78929  0.35854  0.73140  1.0000
  O  Te65      1.0  0.75339  0.31353  0.84749  1.0000
  O  Te66      1.0  0.73019  0.40881  0.84989  1.0000
  O  Te67      1.0  0.78583  0.43731  0.69406  1.0000
  O  Te68      1.0  0.80901  0.34200  0.69166  1.0000
  Mg  Mg33      1.0  0.75140  0.45020  0.77260  1.0000
  Mg  Mg34      1.0  0.78782  0.30060  0.76880  1.0000
  C  Sn69      1.0  0.58060  0.34487  0.74622  1.0000
  C   C71       1.0  0.61579  0.35397  0.75056  1.0000
  C  Sn70      1.0  0.64321  0.39039  0.76998  1.0000
  C  Sn71      1.0  0.63529  0.41831  0.78551  1.0000
  C   C72       1.0  0.60012  0.40920  0.78120  1.0000
  C  Sn72      1.0  0.57268  0.37278  0.76174  1.0000
  O  Te69      1.0  0.55362  0.30828  0.72671  1.0000
  O  Te70      1.0  0.67818  0.39882  0.77389  1.0000
  O  Te71      1.0  0.66231  0.45491  0.80503  1.0000
  O  Te72      1.0  0.53773  0.36436  0.75786  1.0000
  Mg  Mg35      1.0  0.70573  0.45267  0.80297  1.0000
  Mg  Mg36      1.0  0.51016  0.31053  0.72890  1.0000
  C  Sn73      1.0  0.42468  0.91952  0.71581  1.0000
  C   C73       1.0  0.43212  0.89128  0.68340  1.0000
  C  Sn74      1.0  0.46811  0.90154  0.70071  1.0000
  C  Sn75      1.0  0.49727  0.94085  0.75160  1.0000
  C   C74       1.0  0.48982  0.96907  0.78401  1.0000
  C  Sn76      1.0  0.45384  0.95884  0.76670  1.0000
  O  Te73      1.0  0.38849  0.90860  0.69771  1.0000
  O  Te74      1.0  0.47487  0.87278  0.66754  1.0000
  O  Te75      1.0  0.53347  0.95175  0.76968  1.0000
  O  Te76      1.0  0.44707  0.98757  0.79987  1.0000
  Mg  Mg37      1.0  0.52879  0.90206  0.71008  1.0000
  Mg  Mg38      1.0  0.39317  0.95832  0.75747  1.0000
  C  Sn77      1.0  0.03327  0.54200  0.71936  1.0000
  C   C75       1.0  0.00728  0.50617  0.71010  1.0000
  C  Sn78      1.0  0.01783  0.48227  0.72780  1.0000
  C  Sn79      1.0  0.05514  0.49443  0.75546  1.0000
  C   C76       1.0  0.08110  0.53024  0.76475  1.0000
  C  Sn80      1.0  0.07057  0.55416  0.74703  1.0000
  O  Te77      1.0  0.02211  0.56543  0.70132  1.0000
  O  Te78      1.0  0.99136  0.44657  0.71800  1.0000
  O  Te79      1.0  0.06629  0.47096  0.77350  1.0000
  O  Te80      1.0  0.09703  0.58984  0.75685  1.0000
  Mg  Mg39      1.0  0.02006  0.42491  0.75057  1.0000
  Mg  Mg40      1.0  0.06836  0.61154  0.72440  1.0000
  C  Sn81      1.0  0.50995  0.55235  0.83576  1.0000
  C   C77       1.0  0.49359  0.51385  0.80636  1.0000
  C  Sn82      1.0  0.45460  0.48600  0.72151  1.0000
  C  Sn83      1.0  0.43147  0.49685  0.66473  1.0000
  C   C78       1.0  0.44783  0.53533  0.69410  1.0000
  C  Sn84      1.0  0.48682  0.56320  0.77898  1.0000
  O  Te81      1.0  0.54899  0.57970  0.92084  1.0000
  O  Te82      1.0  0.43889  0.44770  0.69366  1.0000
  O  Te83      1.0  0.39240  0.46946  0.57960  1.0000
  O  Te84      1.0  0.50253  0.60148  0.80680  1.0000
  Mg  Mg41      1.0  0.38427  0.42096  0.57184  1.0000
  Mg  Mg42      1.0  0.55714  0.62823  0.92851  1.0000
  C  Sn85      1.0  0.04833  0.03801  0.85487  1.0000
  C   C79       1.0  0.00986  0.01414  0.81284  1.0000
  C  Sn86      1.0  0.98560  0.01925  0.71603  1.0000
  C  Sn87      1.0  0.00009  0.04882  0.65993  1.0000
  C   C80       1.0  0.54365  0.07267  0.70193  1.0000
  C  Sn88      1.0  0.06281  0.06759  0.79878  1.0000
  O  Te85      1.0  0.07206  0.03238  0.95178  1.0000
  O  Te86      1.0  0.94725  0.99502  0.67567  1.0000
  O  Te87      1.0  0.97631  0.05444  0.56296  1.0000
  O  Te88      1.0  0.60626  0.09179  0.83911  1.0000
  Mg  Mg43      1.0  0.92622  0.01408  0.54058  1.0000
  Mg  Mg44      1.0  0.12219  0.07275  0.97409  1.0000
  C  Sn89      1.0  0.91169  0.43041  0.65573  1.0000
  C   C81       1.0  0.89978  0.45009  0.77579  1.0000
  C  Sn90      1.0  0.92211  0.49160  0.88197  1.0000
  C  Sn91      1.0  0.95708  0.51390  0.86777  1.0000
  C   C82       1.0  0.96897  0.49422  0.74775  1.0000
  C  Sn92      1.0  0.94665  0.45271  0.64153  1.0000
  O  Te89      1.0  0.88890  0.38890  0.55089  1.0000
  O  Te90      1.0  0.83538  0.40948  0.00108  1.0000
  O  Te91      1.0  0.97986  0.55544  0.97275  1.0000
  O  Te92      1.0  0.95913  0.43371  0.52246  1.0000
  Mg  Mg45      1.0  0.87640  0.46657  0.11514  1.0000
  Mg  Mg46      1.0  0.91812  0.37661  0.40827  1.0000
  C  Sn93      1.0  0.49699  0.45253  0.86174  1.0000
  C   C83       1.0  0.50934  0.48399  0.82311  1.0000
  C  Sn94      1.0  0.53622  0.49348  0.74041  1.0000
  C  Sn95      1.0  0.55106  0.47105  0.69527  1.0000
  C   C84       1.0  0.53871  0.43961  0.73386  1.0000
  C  Sn96      1.0  0.51183  0.43010  0.81660  1.0000
  O  Te93      1.0  0.47010  0.44357  0.94446  1.0000
  O  Te94      1.0  0.54813  0.52507  0.70318  1.0000
  O  Te95      1.0  0.57797  0.48004  0.61249  1.0000
  O  Te96      1.0  0.49991  0.39853  0.85379  1.0000
  Mg  Mg47      1.0  0.58528  0.52577  0.58903  1.0000
  Mg  Mg48      1.0  0.46275  0.39779  0.96784  1.0000
