data_image0
_chemical_formula_structural       H60C108N12SnCSn2CSnTe4Mg2SnCSn2CSnTe4Mg2SnCSn2CSnTe4Mg2SnCSn2CSnTe4Mg2SnCSn2CSnTe4Mg2SnCSn2CSnTe4Mg2SnCSn2CSnTe4Mg2SnCSn2CSnTe4Mg2SnCSn2CSnTe4Mg2SnCSn2CSnTe4Mg2SnCSn2CSnTe4Mg2SnCSn2CSnTe4Mg2
_chemical_formula_sum              "H60 C132 N12 Sn48 Te48 Mg24"
_cell_length_a       44.3529
_cell_length_b       44.4823
_cell_length_c       7.98494
_cell_angle_alpha    111.093
_cell_angle_beta     97.7216
_cell_angle_gamma    119.567

_symmetry_space_group_name_H-M    'P1'
_space_group_IT_number       1

loop_
  _space_group_symop_operation_xyz
  'x, y, z'

loop_
  _atom_site_type_symbol
  _atom_site_label
  _atom_site_symmetry_multiplicity
  _atom_site_fract_x
  _atom_site_fract_y
  _atom_site_fract_z
  _atom_site_occupancy
  H   H1        1.0  0.76893  0.43216  0.25559  1.0000
  H   H2        1.0  0.83113  0.45150  0.23427  1.0000
  H   H3        1.0  0.80967  0.34465  0.21824  1.0000
  H   H4        1.0  0.74826  0.32594  0.24573  1.0000
  H   H5        1.0  0.48862  0.88409  0.30887  1.0000
  H   H6        1.0  0.13845  0.59747  0.11095  1.0000
  H   H7        1.0  0.38964  0.53902  0.26018  1.0000
  H   H8        1.0  0.54062  0.16038  0.27127  1.0000
  H   H9        1.0  0.86774  0.38995  0.18814  1.0000
  H   H10       1.0  0.60119  0.46796  0.19716  1.0000
  H   H11       1.0  0.10161  0.59394  0.25010  1.0000
  H   H12       1.0  0.41484  0.51334  0.32906  1.0000
  H   H13       1.0  0.59558  0.51420  0.35687  1.0000
  H   H14       1.0  0.03841  0.56351  0.25704  1.0000
  H   H15       1.0  0.44460  0.47995  0.33818  1.0000
  H   H16       1.0  0.56384  0.54587  0.34274  1.0000
  H   H17       1.0  0.03181  0.45974  0.18565  1.0000
  H   H18       1.0  0.52981  0.55429  0.18392  1.0000
  H   H19       1.0  0.45931  0.44021  0.22152  1.0000
  H   H20       1.0  0.09566  0.49034  0.17634  1.0000
  H   H21       1.0  0.50079  0.58965  0.18739  1.0000
  H   H22       1.0  0.49206  0.40918  0.24463  1.0000
  H   H23       1.0  0.31840  0.73655  0.76087  1.0000
  H   H24       1.0  0.23503  0.56689  0.75817  1.0000
  H   H25       1.0  0.65923  0.23196  0.70732  1.0000
  H   H26       1.0  0.73938  0.41337  0.83769  1.0000
  H   H27       1.0  0.57605  0.32552  0.83478  1.0000
  H   H28       1.0  0.35453  0.79731  0.73026  1.0000
  H   H29       1.0  0.16773  0.53694  0.71495  1.0000
  H   H30       1.0  0.62660  0.16954  0.73088  1.0000
  H   H31       1.0  0.79926  0.44060  0.77880  1.0000
  H   H32       1.0  0.54771  0.35987  0.78397  1.0000
  H   H33       1.0  0.44756  0.78927  0.77877  1.0000
  H   H34       1.0  0.17403  0.62797  0.61306  1.0000
  H   H35       1.0  0.53834  0.18210  0.79917  1.0000
  H   H36       1.0  0.79337  0.33626  0.69478  1.0000
  H   H37       1.0  0.64548  0.43855  0.71301  1.0000
  H   H38       1.0  0.41187  0.72904  0.81018  1.0000
  H   H39       1.0  0.24173  0.65936  0.66824  1.0000
  H   H40       1.0  0.57029  0.24363  0.77091  1.0000
  H   H41       1.0  0.73450  0.30965  0.75873  1.0000
  H   H42       1.0  0.67479  0.40611  0.77684  1.0000
  H   H43       1.0  0.45680  0.84638  0.78852  1.0000
  H   H44       1.0  0.11646  0.57942  0.61093  1.0000
  H   H45       1.0  0.39482  0.53154  0.81787  1.0000
  H   H46       1.0  0.53586  0.12996  0.81574  1.0000
  H   H47       1.0  0.84647  0.38744  0.69775  1.0000
  H   H48       1.0  0.59160  0.44108  0.65816  1.0000
  H   H49       1.0  0.08308  0.58400  0.78163  1.0000
  H   H50       1.0  0.87953  0.40229  0.52379  1.0000
  H   H51       1.0  0.58299  0.48483  0.72302  1.0000
  H   H52       1.0  0.02149  0.56106  0.80839  1.0000
  H   H53       1.0  0.94309  0.42970  0.51877  1.0000
  H   H54       1.0  0.55340  0.51788  0.69902  1.0000
  H   H55       1.0  0.00140  0.45012  0.70973  1.0000
  H   H56       1.0  0.98430  0.54306  0.99487  1.0000
  H   H57       1.0  0.46434  0.44218  0.83069  1.0000
  H   H58       1.0  0.06397  0.47376  0.68875  1.0000
  H   H59       1.0  0.91986  0.51594  0.99192  1.0000
  H   H60       1.0  0.49313  0.40705  0.84062  1.0000
  C   C1        1.0  0.32320  0.69291  0.09760  1.0000
  C   C2        1.0  0.33052  0.66485  0.27129  1.0000
  C   C3        1.0  0.37022  0.69925  0.29932  1.0000
  C   C4        1.0  0.69695  0.34699  0.33619  1.0000
  C   C5        1.0  0.69633  0.37905  0.16912  1.0000
  C   C6        1.0  0.66535  0.35276  0.33953  1.0000
  C   C7        1.0  0.36389  0.71896  0.21786  1.0000
  C   C8        1.0  0.30365  0.66625  0.17522  1.0000
  C   C9        1.0  0.36289  0.66749  0.32516  1.0000
  C   C10       1.0  0.66571  0.32416  0.36831  1.0000
  C   C11       1.0  0.71808  0.36781  0.25475  1.0000
  C   C12       1.0  0.66888  0.37654  0.26029  1.0000
  C   C13       1.0  0.75397  0.37728  0.24636  1.0000
  C   C14       1.0  0.77810  0.41313  0.24648  1.0000
  C   C15       1.0  0.81249  0.42401  0.23497  1.0000
  C   C16       1.0  0.82419  0.39924  0.22258  1.0000
  C   C17       1.0  0.80074  0.36392  0.22742  1.0000
  C   C18       1.0  0.76638  0.35331  0.24253  1.0000
  C   C19       1.0  0.45836  0.87034  0.26988  1.0000
  C   C20       1.0  0.15404  0.58717  0.15978  1.0000
  C   C21       1.0  0.41023  0.56724  0.26625  1.0000
  C   C22       1.0  0.56785  0.16816  0.26220  1.0000
  C   C23       1.0  0.86067  0.41127  0.21125  1.0000
  C   C24       1.0  0.59024  0.44676  0.25116  1.0000
  C   C25       1.0  0.10283  0.54357  0.20537  1.0000
  C   C26       1.0  0.45563  0.55409  0.25580  1.0000
  C   C27       1.0  0.54551  0.45843  0.29255  1.0000
  C   C28       1.0  0.08637  0.56429  0.23304  1.0000
  C   C29       1.0  0.43952  0.52199  0.29256  1.0000
  C   C30       1.0  0.56552  0.49751  0.32279  1.0000
  C   C31       1.0  0.05087  0.54733  0.23943  1.0000
  C   C32       1.0  0.45646  0.50293  0.29732  1.0000
  C   C33       1.0  0.54745  0.51540  0.31487  1.0000
  C   C34       1.0  0.03006  0.50909  0.21890  1.0000
  C   C35       1.0  0.48985  0.51440  0.26280  1.0000
  C   C36       1.0  0.50871  0.49535  0.27609  1.0000
  C   C37       1.0  0.04678  0.48876  0.19505  1.0000
  C   C38       1.0  0.50505  0.54562  0.21958  1.0000
  C   C39       1.0  0.48920  0.45670  0.25142  1.0000
  C   C40       1.0  0.08253  0.50579  0.19077  1.0000
  C   C41       1.0  0.48863  0.56526  0.21833  1.0000
  C   C42       1.0  0.50723  0.43887  0.26196  1.0000
  C   C43       1.0  0.31226  0.67911  0.88725  1.0000
  C   C44       1.0  0.30058  0.61933  0.69206  1.0000
  C   C45       1.0  0.34459  0.66200  0.72260  1.0000
  C   C46       1.0  0.67258  0.30559  0.77311  1.0000
  C   C47       1.0  0.68618  0.36663  0.96179  1.0000
  C   C48       1.0  0.62905  0.30675  0.77340  1.0000
  C   C49       1.0  0.34143  0.69237  0.80308  1.0000
  C   C50       1.0  0.28291  0.63592  0.75785  1.0000
  C   C51       1.0  0.33284  0.62402  0.67523  1.0000
  C   C52       1.0  0.63588  0.27835  0.73502  1.0000
  C   C53       1.0  0.69951  0.34481  0.84461  1.0000
  C   C54       1.0  0.64571  0.34596  0.84566  1.0000
  C   C55       1.0  0.36300  0.72911  0.79364  1.0000
  C   C56       1.0  0.24299  0.61569  0.72165  1.0000
  C   C57       1.0  0.61662  0.24141  0.73800  1.0000
  C   C58       1.0  0.73402  0.36055  0.81025  1.0000
  C   C59       1.0  0.62771  0.36451  0.81494  1.0000
  C   C60       1.0  0.34684  0.74839  0.76606  1.0000
  C   C61       1.0  0.22136  0.57985  0.72474  1.0000
  C   C62       1.0  0.63272  0.22059  0.72715  1.0000
  C   C63       1.0  0.75187  0.39711  0.80961  1.0000
  C   C64       1.0  0.59102  0.35033  0.80854  1.0000
  C   C65       1.0  0.36672  0.78200  0.74704  1.0000
  C   C66       1.0  0.18411  0.56320  0.70104  1.0000
  C   C67       1.0  0.61489  0.18629  0.74053  1.0000
  C   C68       1.0  0.78482  0.41212  0.77599  1.0000
  C   C69       1.0  0.57522  0.36919  0.77986  1.0000
  C   C70       1.0  0.40368  0.79783  0.75483  1.0000
  C   C71       1.0  0.16678  0.58088  0.66458  1.0000
  C   C72       1.0  0.58065  0.17212  0.76714  1.0000
  C   C73       1.0  0.80073  0.39079  0.73946  1.0000
  C   C74       1.0  0.59494  0.40171  0.74873  1.0000
  C   C75       1.0  0.41921  0.77771  0.77504  1.0000
  C   C76       1.0  0.18758  0.61492  0.64686  1.0000
  C   C77       1.0  0.56471  0.19304  0.77793  1.0000
  C   C78       1.0  0.78142  0.35306  0.72631  1.0000
  C   C79       1.0  0.63057  0.41417  0.74225  1.0000
  C   C80       1.0  0.39930  0.74399  0.79270  1.0000
  C   C81       1.0  0.22537  0.63251  0.67766  1.0000
  C   C82       1.0  0.58227  0.22712  0.76186  1.0000
  C   C83       1.0  0.74862  0.33807  0.76102  1.0000
  C   C84       1.0  0.64707  0.39632  0.77899  1.0000
  C   C85       1.0  0.42716  0.83521  0.75614  1.0000
  C   C86       1.0  0.12888  0.56621  0.65752  1.0000
  C   C87       1.0  0.40854  0.55440  0.77561  1.0000
  C   C88       1.0  0.56066  0.13613  0.78002  1.0000
  C   C89       1.0  0.83766  0.40742  0.73005  1.0000
  C   C90       1.0  0.57958  0.42309  0.72764  1.0000
  C   C91       1.0  0.07701  0.52942  0.72321  1.0000
  C   C92       1.0  0.89543  0.45719  0.76066  1.0000
  C   C93       1.0  0.53953  0.44256  0.77848  1.0000
  C   C94       1.0  0.06497  0.55435  0.76233  1.0000
  C   C95       1.0  0.90261  0.43297  0.62889  1.0000
  C   C96       1.0  0.55679  0.47503  0.74509  1.0000
  C   C97       1.0  0.03041  0.54153  0.77857  1.0000
  C   C98       1.0  0.93840  0.44834  0.62717  1.0000
  C   C99       1.0  0.54014  0.49413  0.73400  1.0000
  C   C100      1.0  0.00624  0.50328  0.75332  1.0000
  C   C101      1.0  0.96868  0.48823  0.75857  1.0000
  C   C102      1.0  0.50605  0.48251  0.76053  1.0000
  C   C103      1.0  0.01888  0.47902  0.72007  1.0000
  C   C104      1.0  0.96131  0.51234  0.88918  1.0000
  C   C105      1.0  0.48962  0.45083  0.80007  1.0000
  C   C106      1.0  0.05375  0.49203  0.70879  1.0000
  C   C107      1.0  0.92540  0.49736  0.88930  1.0000
  C   C108      1.0  0.50587  0.43128  0.80871  1.0000
  N   N1        1.0  0.44297  0.88672  0.23328  1.0000
  N   N2        1.0  0.13892  0.55907  0.20392  1.0000
  N   N3        1.0  0.44286  0.57745  0.26106  1.0000
  N   N4        1.0  0.57912  0.14598  0.25283  1.0000
  N   N5        1.0  0.88383  0.44625  0.23502  1.0000
  N   N6        1.0  0.56166  0.43847  0.30094  1.0000
  N   N7        1.0  0.41497  0.85495  0.73007  1.0000
  N   N8        1.0  0.11157  0.53996  0.70986  1.0000
  N   N9        1.0  0.43876  0.56345  0.74136  1.0000
  N   N10       1.0  0.57105  0.11281  0.75214  1.0000
  N   N11       1.0  0.86006  0.44385  0.76938  1.0000
  N   N12       1.0  0.55338  0.42075  0.78965  1.0000
  C  Sn1       1.0  0.24111  0.60281  0.17474  1.0000
  C   C109      1.0  0.25916  0.63373  0.13339  1.0000
  C  Sn2       1.0  0.24469  0.65515  0.12703  1.0000
  C  Sn3       1.0  0.21150  0.64548  0.16289  1.0000
  C   C110      1.0  0.19346  0.61458  0.20425  1.0000
  C  Sn4       1.0  0.20791  0.59314  0.21060  1.0000
  O  Te1       1.0  0.25607  0.58180  0.18035  1.0000
  O  Te2       1.0  0.26323  0.68593  0.08532  1.0000
  O  Te3       1.0  0.19654  0.66652  0.15724  1.0000
  O  Te4       1.0  0.18940  0.56239  0.25231  1.0000
  Mg  Mg1       1.0  0.23193  0.70590  0.09427  1.0000
  Mg  Mg2       1.0  0.22068  0.54241  0.24350  1.0000
  C  Sn5       1.0  0.97999  0.51172  0.40125  1.0000
  C   C111      1.0  0.99217  0.49268  0.27954  1.0000
  C  Sn6       1.0  0.96617  0.45610  0.11020  1.0000
  C  Sn7       1.0  0.92719  0.43819  0.06140  1.0000
  C   C112      1.0  0.91504  0.45723  0.18304  1.0000
  C  Sn8       1.0  0.94101  0.49381  0.35245  1.0000
  O  Te5       1.0  0.00648  0.54828  0.56981  1.0000
  O  Te6       1.0  0.05325  0.53876  0.99085  1.0000
  O  Te7       1.0  0.97494  0.50273  0.89268  1.0000
  O  Te8       1.0  0.92818  0.51228  0.47173  1.0000
  Mg  Mg3       1.0  0.00627  0.48923  0.77677  1.0000
  Mg  Mg4       1.0  0.97514  0.56182  0.68579  1.0000
  C  Sn9       1.0  0.64467  0.43556  0.17436  1.0000
  C   C113      1.0  0.61082  0.42411  0.19943  1.0000
  C  Sn10      1.0  0.59668  0.39894  0.27755  1.0000
  C  Sn11      1.0  0.61680  0.38493  0.33187  1.0000
  C   C114      1.0  0.65063  0.39639  0.30683  1.0000
  C  Sn12      1.0  0.66479  0.42156  0.22868  1.0000
  O  Te9       1.0  0.65828  0.46076  0.09600  1.0000
  O  Te10      1.0  0.56277  0.38789  0.30116  1.0000
  O  Te11      1.0  0.60316  0.35972  0.41028  1.0000
  O  Te12      1.0  0.69868  0.43262  0.20510  1.0000
  Mg  Mg5       1.0  0.55576  0.35305  0.41424  1.0000
  Mg  Mg6       1.0  0.70573  0.46746  0.09213  1.0000
  C  Sn13      1.0  0.49545  0.55466  0.71872  1.0000
  C   C115      1.0  0.45809  0.54031  0.68975  1.0000
  C  Sn14      1.0  0.43495  0.50702  0.70708  1.0000
  C  Sn15      1.0  0.44945  0.48768  0.75448  1.0000
  C   C116      1.0  0.48679  0.50204  0.78345  1.0000
  C  Sn16      1.0  0.50995  0.53533  0.76612  1.0000
  O  Te13      1.0  0.51808  0.58799  0.70066  1.0000
  O  Te14      1.0  0.39769  0.49321  0.67738  1.0000
  O  Te15      1.0  0.42679  0.45433  0.77252  1.0000
  O  Te16      1.0  0.54719  0.54914  0.79582  1.0000
  Mg  Mg7       1.0  0.37795  0.44677  0.71839  1.0000
  Mg  Mg8       1.0  0.56696  0.59558  0.75495  1.0000
  C  Sn17      1.0  0.57356  0.08187  0.24903  1.0000
  C   C117      1.0  0.55827  0.10009  0.20177  1.0000
  C  Sn18      1.0  0.52240  0.08832  0.19667  1.0000
  C  Sn19      1.0  0.50140  0.05772  0.23982  1.0000
  C   C118      1.0  0.51669  0.03953  0.28707  1.0000
  C  Sn20      1.0  0.55255  0.05127  0.29218  1.0000
  O  Te17      1.0  0.60947  0.09411  0.25326  1.0000
  O  Te18      1.0  0.50770  0.10696  0.14897  1.0000
  O  Te19      1.0  0.46546  0.04549  0.23555  1.0000
  O  Te20      1.0  0.06213  0.03265  0.33987  1.0000
  Mg  Mg9       1.0  0.45759  0.07990  0.16261  1.0000
  Mg  Mg10      1.0  0.61737  0.05971  0.32638  1.0000
  C  Sn21      1.0  0.43815  0.78891  0.34479  1.0000
  C   C119      1.0  0.39977  0.76719  0.30733  1.0000
  C  Sn22      1.0  0.37771  0.77700  0.23305  1.0000
  C  Sn23      1.0  0.39435  0.80917  0.19529  1.0000
  C   C120      1.0  0.43271  0.83087  0.23271  1.0000
  C  Sn24      1.0  0.45480  0.82108  0.30703  1.0000
  O  Te21      1.0  0.45967  0.77858  0.41903  1.0000
  O  Te22      1.0  0.33940  0.75486  0.19684  1.0000
  O  Te23      1.0  0.37280  0.81949  0.12099  1.0000
  O  Te24      1.0  0.49308  0.84320  0.34320  1.0000
  Mg  Mg11      1.0  0.32183  0.78041  0.09555  1.0000
  Mg  Mg12      1.0  0.51067  0.81766  0.44439  1.0000
  C  Sn25      1.0  0.50888  0.95231  0.26303  1.0000
  C   C121      1.0  0.47511  0.93176  0.28576  1.0000
  C  Sn26      1.0  0.45026  0.94218  0.27136  1.0000
  C  Sn27      1.0  0.45933  0.97378  0.23332  1.0000
  C   C122      1.0  0.49308  0.99430  0.21058  1.0000
  C  Sn28      1.0  0.51795  0.98391  0.22499  1.0000
  O  Te25      1.0  0.53330  0.94139  0.27801  1.0000
  O  Te26      1.0  0.41667  0.92121  0.29469  1.0000
  O  Te27      1.0  0.43487  0.98469  0.21836  1.0000
  O  Te28      1.0  0.55151  0.00486  0.20165  1.0000
  Mg  Mg13      1.0  0.39253  0.94719  0.26121  1.0000
  Mg  Mg14      1.0  0.57566  0.97889  0.23500  1.0000
  C  Sn29      1.0  0.60059  0.26636  0.38057  1.0000
  C   C123      1.0  0.63727  0.28501  0.38684  1.0000
  C  Sn30      1.0  0.65100  0.26275  0.31731  1.0000
  C  Sn31      1.0  0.62759  0.22095  0.23976  1.0000
  C   C124      1.0  0.59093  0.20231  0.23348  1.0000
  C  Sn32      1.0  0.57718  0.22456  0.30302  1.0000
  O  Te29      1.0  0.58745  0.28921  0.45089  1.0000
  O  Te30      1.0  0.68777  0.28207  0.32518  1.0000
  O  Te31      1.0  0.64076  0.19810  0.16942  1.0000
  O  Te32      1.0  0.54043  0.20526  0.29515  1.0000
  Mg  Mg15      1.0  0.69284  0.23805  0.21142  1.0000
  Mg  Mg16      1.0  0.53532  0.24924  0.40876  1.0000
  C  Sn33      1.0  0.98391  0.02311  0.65121  1.0000
  C   C125      1.0  0.99670  0.00293  0.69791  1.0000
  C  Sn34      1.0  0.03505  0.02198  0.79216  1.0000
  C  Sn35      1.0  0.06115  0.06205  0.84087  1.0000
  C   C126      1.0  0.55347  0.08221  0.79421  1.0000
  C  Sn36      1.0  0.01001  0.06317  0.69992  1.0000
  O  Te33      1.0  0.94545  0.00347  0.55699  1.0000
  O  Te34      1.0  0.04716  0.00119  0.83729  1.0000
  O  Te35      1.0  0.09963  0.08167  0.93516  1.0000
  O  Te36      1.0  0.50301  0.08394  0.65482  1.0000
  Mg  Mg17      1.0  0.10238  0.04079  0.96615  1.0000
  Mg  Mg18      1.0  0.94269  0.04438  0.52607  1.0000
  C  Sn37      1.0  0.35356  0.57856  0.20730  1.0000
  C   C127      1.0  0.38933  0.58770  0.22865  1.0000
  C  Sn38      1.0  0.42044  0.62716  0.31129  1.0000
  C  Sn39      1.0  0.41569  0.65813  0.37401  1.0000
  C   C128      1.0  0.37993  0.64899  0.35267  1.0000
  C  Sn40      1.0  0.34881  0.60954  0.27001  1.0000
  O  Te37      1.0  0.32286  0.53891  0.12430  1.0000
  O  Te38      1.0  0.45592  0.63556  0.33106  1.0000
  O  Te39      1.0  0.44642  0.69781  0.45705  1.0000
  O  Te40      1.0  0.31334  0.60113  0.25026  1.0000
  Mg  Mg19      1.0  0.48909  0.69423  0.45303  1.0000
  Mg  Mg20      1.0  0.28016  0.54248  0.12841  1.0000
  C  Sn41      1.0  0.39155  0.61599  0.66181  1.0000
  C   C129      1.0  0.35564  0.60375  0.65798  1.0000
  C  Sn42      1.0  0.33714  0.57732  0.72444  1.0000
  C  Sn43      1.0  0.35491  0.56283  0.79635  1.0000
  C   C130      1.0  0.39080  0.57508  0.80019  1.0000
  C  Sn44      1.0  0.40932  0.60151  0.73372  1.0000
  O  Te41      1.0  0.40952  0.64244  0.59465  1.0000
  O  Te42      1.0  0.30125  0.56550  0.71911  1.0000
  O  Te43      1.0  0.33691  0.53637  0.86353  1.0000
  O  Te44      1.0  0.44520  0.61333  0.73906  1.0000
  Mg  Mg21      1.0  0.28824  0.52902  0.82684  1.0000
  Mg  Mg22      1.0  0.45824  0.64982  0.63147  1.0000
  C  Sn45      1.0  0.44834  0.95068  0.83550  1.0000
  C   C131      1.0  0.48210  0.96744  0.80780  1.0000
  C  Sn46      1.0  0.49375  0.94391  0.72099  1.0000
  C  Sn47      1.0  0.47118  0.90275  0.66049  1.0000
  C   C132      1.0  0.43744  0.88601  0.68817  1.0000
  C  Sn48      1.0  0.42577  0.90952  0.77500  1.0000
  O  Te45      1.0  0.43724  0.97477  0.92258  1.0000
  O  Te46      1.0  0.52762  0.96134  0.69490  1.0000
  O  Te47      1.0  0.48231  0.87867  0.57336  1.0000
  O  Te48      1.0  0.39192  0.89211  0.80107  1.0000
  Mg  Mg23      1.0  0.53071  0.91617  0.56919  1.0000
  Mg  Mg24      1.0  0.38879  0.93724  0.92666  1.0000
