data_image0
_chemical_formula_structural       H168C248N32O8C2Sn2C2HTe2HMgC2Sn2C2HTe2HMgC2Sn2C2HTe2HMgC2Sn2C2HTe2HMgC2Sn2C2HTe2HMgC2Sn2C2HTe2HMgC2Sn2C2HTe2HMgC2Sn2C2HTe2HMgC2Sn2C2HTe2HMgC2Sn2C2HTe2HMgC2Sn2C2HTe2HMgC2Sn2C2HTe2HMgC2Sn2C2HTe2HMgC2Sn2C2HTe2HMgC2Sn2C2HTe2HMgC2Sn2C2HTe2HMg
_chemical_formula_sum              "H200 C312 N32 O8 Sn32 Te32 Mg16"
_cell_length_a       46.0604
_cell_length_b       47.13
_cell_length_c       7.98833
_cell_angle_alpha    67.5932
_cell_angle_beta     89.0731
_cell_angle_gamma    89.8949

_symmetry_space_group_name_H-M    'P1'
_space_group_IT_number       1

loop_
  _space_group_symop_operation_xyz
  'x, y, z'

loop_
  _atom_site_type_symbol
  _atom_site_label
  _atom_site_symmetry_multiplicity
  _atom_site_fract_x
  _atom_site_fract_y
  _atom_site_fract_z
  _atom_site_occupancy
  H   H1        1.0  0.97207  0.56808  0.07275  1.0000
  H   H2        1.0  0.87104  0.65187  0.83926  1.0000
  H   H3        1.0  0.14605  0.31373  0.11366  1.0000
  H   H4        1.0  0.18005  0.27383  0.10705  1.0000
  H   H5        1.0  0.23434  0.34267  0.71978  1.0000
  H   H6        1.0  0.20019  0.38303  0.72911  1.0000
  H   H7        1.0  0.47259  0.07606  0.95397  1.0000
  H   H8        1.0  0.36971  0.15559  0.71817  1.0000
  H   H9        1.0  0.63735  0.81736  0.05588  1.0000
  H   H10       1.0  0.66758  0.77352  0.06008  1.0000
  H   H11       1.0  0.74263  0.81667  0.17486  1.0000
  H   H12       1.0  0.71242  0.86094  0.16440  1.0000
  H   H13       1.0  0.29177  0.74589  0.16413  1.0000
  H   H14       1.0  0.25934  0.70274  0.19826  1.0000
  H   H15       1.0  0.90006  0.50015  0.00593  1.0000
  H   H16       1.0  0.02783  0.43527  0.93512  1.0000
  H   H17       1.0  0.12780  0.35169  0.14638  1.0000
  H   H18       1.0  0.84518  0.68895  0.82489  1.0000
  H   H19       1.0  0.80988  0.72743  0.83198  1.0000
  H   H20       1.0  0.76495  0.65907  0.28141  1.0000
  H   H21       1.0  0.79982  0.61998  0.26795  1.0000
  H   H22       1.0  0.52940  0.93171  0.98755  1.0000
  H   H23       1.0  0.54869  0.91100  0.29306  1.0000
  H   H24       1.0  0.57943  0.86596  0.32880  1.0000
  H   H25       1.0  0.64371  0.92479  0.96797  1.0000
  H   H26       1.0  0.61298  0.97036  0.93415  1.0000
  H   H27       1.0  0.62138  0.84299  0.24809  1.0000
  H   H28       1.0  0.70438  0.25419  0.03531  1.0000
  H   H29       1.0  0.73962  0.29423  0.01887  1.0000
  H   H30       1.0  0.09989  0.50318  0.99983  1.0000
  H   H31       1.0  0.52424  0.07408  0.00568  1.0000
  H   H32       1.0  0.62219  0.14335  0.10264  1.0000
  H   H33       1.0  0.02515  0.56834  0.07806  1.0000
  H   H34       1.0  0.05183  0.58930  0.81236  1.0000
  H   H35       1.0  0.08150  0.63339  0.80673  1.0000
  H   H36       1.0  0.14096  0.57185  0.17914  1.0000
  H   H37       1.0  0.11084  0.52751  0.18842  1.0000
  H   H38       1.0  0.12235  0.65459  0.90683  1.0000
  H   H39       1.0  0.86331  0.30891  0.12398  1.0000
  H   H40       1.0  0.83160  0.26610  0.13568  1.0000
  H   H41       1.0  0.76887  0.33017  0.81023  1.0000
  H   H42       1.0  0.80092  0.37353  0.79829  1.0000
  H   H43       1.0  0.19825  0.24870  0.91257  1.0000
  H   H44       1.0  0.23232  0.20912  0.90576  1.0000
  H   H45       1.0  0.59669  0.99362  0.14734  1.0000
  H   H46       1.0  0.47720  0.93407  0.92959  1.0000
  H   H47       1.0  0.37225  0.85200  0.10765  1.0000
  H   H48       1.0  0.65183  0.18391  0.85807  1.0000
  H   H49       1.0  0.68504  0.22635  0.84416  1.0000
  H   H50       1.0  0.74082  0.16108  0.22690  1.0000
  H   H51       1.0  0.70844  0.11862  0.23328  1.0000
  H   H52       1.0  0.97461  0.43458  0.93511  1.0000
  H   H53       1.0  0.94766  0.41519  0.22207  1.0000
  H   H54       1.0  0.91706  0.37023  0.25554  1.0000
  H   H55       1.0  0.86048  0.42759  0.84299  1.0000
  H   H56       1.0  0.89049  0.47321  0.81442  1.0000
  H   H57       1.0  0.87432  0.34779  0.18418  1.0000
  H   H58       1.0  0.13538  0.68133  0.09166  1.0000
  H   H59       1.0  0.16660  0.72505  0.07916  1.0000
  H   H60       1.0  0.24230  0.67536  0.02864  1.0000
  H   H61       1.0  0.21105  0.63111  0.04803  1.0000
  H   H62       1.0  0.79562  0.75696  0.97678  1.0000
  H   H63       1.0  0.76364  0.79617  0.00517  1.0000
  H   H64       1.0  0.40111  0.00437  0.92393  1.0000
  H   H65       1.0  0.23037  0.83270  0.74680  1.0000
  H   H66       1.0  0.67795  0.62724  0.38443  1.0000
  H   H67       1.0  0.62152  0.66604  0.27889  1.0000
  H   H68       1.0  0.63945  0.68846  0.06984  1.0000
  H   H69       1.0  0.63361  0.70438  0.23577  1.0000
  H   H70       1.0  0.66660  0.66498  0.44654  1.0000
  H   H71       1.0  0.77410  0.17475  0.98449  1.0000
  H   H72       1.0  0.34040  0.36073  0.86703  1.0000
  H   H73       1.0  0.36464  0.29358  0.88447  1.0000
  H   H74       1.0  0.35836  0.27847  0.12279  1.0000
  H   H75       1.0  0.37706  0.31417  0.01711  1.0000
  H   H76       1.0  0.32530  0.32103  0.09854  1.0000
  H   H77       1.0  0.27032  0.32661  0.95115  1.0000
  H   H78       1.0  0.83654  0.13977  0.99445  1.0000
  H   H79       1.0  0.86679  0.21938  0.83004  1.0000
  H   H80       1.0  0.87983  0.18106  0.89381  1.0000
  H   H81       1.0  0.86878  0.19515  0.06280  1.0000
  H   H82       1.0  0.82955  0.18514  0.78258  1.0000
  H   H83       1.0  0.72354  0.66786  0.16597  1.0000
  H   H84       1.0  0.16384  0.86601  0.56668  1.0000
  H   H85       1.0  0.13585  0.80043  0.74354  1.0000
  H   H86       1.0  0.15048  0.78886  0.57210  1.0000
  H   H87       1.0  0.13325  0.82522  0.50968  1.0000
  H   H88       1.0  0.18633  0.83166  0.48382  1.0000
  H   H89       1.0  0.97292  0.56717  0.57323  1.0000
  H   H90       1.0  0.94652  0.58643  0.28802  1.0000
  H   H91       1.0  0.91365  0.62966  0.25915  1.0000
  H   H92       1.0  0.85725  0.56858  0.67276  1.0000
  H   H93       1.0  0.88971  0.52484  0.69703  1.0000
  H   H94       1.0  0.87004  0.64965  0.34203  1.0000
  H   H95       1.0  0.47427  0.07420  0.46443  1.0000
  H   H96       1.0  0.37272  0.15592  0.21826  1.0000
  H   H97       1.0  0.29039  0.74787  0.66854  1.0000
  H   H98       1.0  0.25938  0.70369  0.70415  1.0000
  H   H99       1.0  0.90100  0.49963  0.50417  1.0000
  H   H100      1.0  0.02865  0.43445  0.43431  1.0000
  H   H101      1.0  0.12949  0.35176  0.64365  1.0000
  H   H102      1.0  0.52854  0.92897  0.49348  1.0000
  H   H103      1.0  0.54829  0.90844  0.79456  1.0000
  H   H104      1.0  0.57840  0.86294  0.83003  1.0000
  H   H105      1.0  0.64320  0.92091  0.46918  1.0000
  H   H106      1.0  0.61306  0.96678  0.43363  1.0000
  H   H107      1.0  0.61998  0.83943  0.74526  1.0000
  H   H108      1.0  0.35383  0.19508  0.22391  1.0000
  H   H109      1.0  0.32194  0.23671  0.22302  1.0000
  H   H110      1.0  0.26790  0.17222  0.63789  1.0000
  H   H111      1.0  0.30069  0.12982  0.64067  1.0000
  H   H112      1.0  0.70374  0.25130  0.52750  1.0000
  H   H113      1.0  0.73660  0.29351  0.50553  1.0000
  H   H114      1.0  0.10079  0.50245  0.49974  1.0000
  H   H115      1.0  0.52607  0.07158  0.51220  1.0000
  H   H116      1.0  0.54948  0.06633  0.71674  1.0000
  H   H117      1.0  0.58107  0.10906  0.70198  1.0000
  H   H118      1.0  0.64983  0.07351  0.46909  1.0000
  H   H119      1.0  0.61701  0.03260  0.46303  1.0000
  H   H120      1.0  0.62541  0.13759  0.61703  1.0000
  H   H121      1.0  0.02603  0.56744  0.57857  1.0000
  H   H122      1.0  0.12379  0.65335  0.40961  1.0000
  H   H123      1.0  0.19896  0.24601  0.42215  1.0000
  H   H124      1.0  0.23395  0.20638  0.42651  1.0000
  H   H125      1.0  0.59774  0.99093  0.63829  1.0000
  H   H126      1.0  0.47645  0.93258  0.43143  1.0000
  H   H127      1.0  0.44465  0.91556  0.67119  1.0000
  H   H128      1.0  0.41114  0.87345  0.69172  1.0000
  H   H129      1.0  0.35823  0.93662  0.27861  1.0000
  H   H130      1.0  0.39258  0.97879  0.25132  1.0000
  H   H131      1.0  0.36845  0.85428  0.60056  1.0000
  H   H132      1.0  0.65265  0.17961  0.37501  1.0000
  H   H133      1.0  0.68477  0.22297  0.35427  1.0000
  H   H134      1.0  0.74483  0.15946  0.71185  1.0000
  H   H135      1.0  0.71341  0.11602  0.72408  1.0000
  H   H136      1.0  0.97552  0.43373  0.43480  1.0000
  H   H137      1.0  0.87378  0.34872  0.67037  1.0000
  H   H138      1.0  0.13587  0.67959  0.59446  1.0000
  H   H139      1.0  0.16623  0.72380  0.58265  1.0000
  H   H140      1.0  0.24295  0.67561  0.53158  1.0000
  H   H141      1.0  0.21253  0.63077  0.55057  1.0000
  H   H142      1.0  0.79424  0.75399  0.47650  1.0000
  H   H143      1.0  0.76162  0.79289  0.50269  1.0000
  H   H144      1.0  0.40184  0.00470  0.42079  1.0000
  H   H145      1.0  0.22691  0.83255  0.24377  1.0000
  H   H146      1.0  0.66943  0.62174  0.85403  1.0000
  H   H147      1.0  0.62114  0.66039  0.80776  1.0000
  H   H148      1.0  0.63632  0.68390  0.59241  1.0000
  H   H149      1.0  0.63326  0.69859  0.76573  1.0000
  H   H150      1.0  0.66842  0.65822  0.95406  1.0000
  H   H151      1.0  0.77824  0.17558  0.47494  1.0000
  H   H152      1.0  0.33331  0.36364  0.37587  1.0000
  H   H153      1.0  0.36508  0.30507  0.33793  1.0000
  H   H154      1.0  0.36108  0.28298  0.57350  1.0000
  H   H155      1.0  0.37540  0.32105  0.49809  1.0000
  H   H156      1.0  0.32463  0.32030  0.60115  1.0000
  H   H157      1.0  0.26946  0.32701  0.43689  1.0000
  H   H158      1.0  0.84261  0.14434  0.49160  1.0000
  H   H159      1.0  0.86709  0.22751  0.30753  1.0000
  H   H160      1.0  0.88421  0.19084  0.38185  1.0000
  H   H161      1.0  0.87098  0.20594  0.54252  1.0000
  H   H162      1.0  0.83372  0.18824  0.28120  1.0000
  H   H163      1.0  0.72398  0.66354  0.67652  1.0000
  H   H164      1.0  0.16745  0.86541  0.02876  1.0000
  H   H165      1.0  0.13300  0.80387  0.25221  1.0000
  H   H166      1.0  0.14605  0.78501  0.11099  1.0000
  H   H167      1.0  0.13121  0.82259  0.01074  1.0000
  H   H168      1.0  0.18380  0.82597  0.98041  1.0000
  C   C1        1.0  0.96846  0.52683  0.01522  1.0000
  C   C2        1.0  0.98420  0.55045  0.04573  1.0000
  C   C3        1.0  0.93765  0.52682  0.00583  1.0000
  C   C4        1.0  0.86494  0.62989  0.94745  1.0000
  C   C5        1.0  0.17132  0.35170  0.92546  1.0000
  C   C6        1.0  0.16545  0.32040  0.02798  1.0000
  C   C7        1.0  0.18456  0.29778  0.02380  1.0000
  C   C8        1.0  0.21026  0.30515  0.91782  1.0000
  C   C9        1.0  0.21556  0.33633  0.81117  1.0000
  C   C10       1.0  0.19641  0.35902  0.81397  1.0000
  C   C11       1.0  0.77763  0.26978  0.99348  1.0000
  C   C12       1.0  0.78682  0.24141  0.98917  1.0000
  C   C13       1.0  0.76602  0.21843  0.00209  1.0000
  C   C14       1.0  0.46879  0.02960  0.96433  1.0000
  C   C15       1.0  0.48430  0.05503  0.97396  1.0000
  C   C16       1.0  0.43835  0.03043  0.93571  1.0000
  C   C17       1.0  0.36526  0.13491  0.83982  1.0000
  C   C18       1.0  0.67279  0.84199  0.11242  1.0000
  C   C19       1.0  0.66035  0.81682  0.08561  1.0000
  C   C20       1.0  0.67736  0.79233  0.08631  1.0000
  C   C21       1.0  0.70748  0.79185  0.11602  1.0000
  C   C22       1.0  0.71962  0.81688  0.14618  1.0000
  C   C23       1.0  0.70287  0.84166  0.14175  1.0000
  C   C24       1.0  0.26411  0.78111  0.99013  1.0000
  C   C25       1.0  0.27126  0.75045  0.09332  1.0000
  C   C26       1.0  0.25263  0.72586  0.11380  1.0000
  C   C27       1.0  0.92367  0.50056  0.00465  1.0000
  C   C28       1.0  0.98442  0.50151  0.00381  1.0000
  C   C29       1.0  0.03142  0.47656  0.99221  1.0000
  C   C30       1.0  0.01569  0.45286  0.96249  1.0000
  C   C31       1.0  0.06224  0.47662  0.00027  1.0000
  C   C32       1.0  0.13340  0.37367  0.03670  1.0000
  C   C33       1.0  0.82492  0.65118  0.04709  1.0000
  C   C34       1.0  0.82774  0.68210  0.92606  1.0000
  C   C35       1.0  0.80778  0.70399  0.93018  1.0000
  C   C36       1.0  0.78413  0.69646  0.05422  1.0000
  C   C37       1.0  0.78153  0.66559  0.17487  1.0000
  C   C38       1.0  0.80143  0.64359  0.17125  1.0000
  C   C39       1.0  0.22518  0.72980  0.03449  1.0000
  C   C40       1.0  0.21725  0.76046  0.93155  1.0000
  C   C41       1.0  0.23658  0.78507  0.91091  1.0000
  C   C42       1.0  0.53102  0.97364  0.03835  1.0000
  C   C43       1.0  0.51658  0.95046  0.99649  1.0000
  C   C44       1.0  0.56077  0.97138  0.08533  1.0000
  C   C45       1.0  0.57842  0.94394  0.10846  1.0000
  C   C46       1.0  0.56929  0.91414  0.21965  1.0000
  C   C47       1.0  0.58664  0.88883  0.24001  1.0000
  C   C48       1.0  0.61360  0.89237  0.14944  1.0000
  C   C49       1.0  0.62294  0.92218  0.03910  1.0000
  C   C50       1.0  0.60575  0.94739  0.02075  1.0000
  C   C51       1.0  0.63127  0.86552  0.16988  1.0000
  C   C52       1.0  0.73594  0.22163  0.01981  1.0000
  C   C53       1.0  0.72738  0.25012  0.02097  1.0000
  C   C54       1.0  0.74748  0.27310  0.00950  1.0000
  C   C55       1.0  0.07628  0.50277  0.00229  1.0000
  C   C56       1.0  0.01555  0.50189  0.00421  1.0000
  C   C57       1.0  0.52991  0.02637  0.04040  1.0000
  C   C58       1.0  0.51341  0.05366  0.00646  1.0000
  C   C59       1.0  0.56008  0.02396  0.08320  1.0000
  C   C60       1.0  0.63281  0.12420  0.07940  1.0000
  C   C61       1.0  0.72608  0.76728  0.10398  1.0000
  C   C62       1.0  0.71632  0.73685  0.14629  1.0000
  C   C63       1.0  0.73520  0.71445  0.12547  1.0000
  C   C64       1.0  0.03063  0.52751  0.01739  1.0000
  C   C65       1.0  0.01387  0.55067  0.04799  1.0000
  C   C66       1.0  0.06152  0.52839  0.00780  1.0000
  C   C67       1.0  0.07869  0.55504  0.00412  1.0000
  C   C68       1.0  0.07090  0.58538  0.89649  1.0000
  C   C69       1.0  0.08782  0.61014  0.89215  1.0000
  C   C70       1.0  0.11323  0.60554  0.99382  1.0000
  C   C71       1.0  0.12139  0.57525  0.09947  1.0000
  C   C72       1.0  0.10451  0.55069  0.10319  1.0000
  C   C73       1.0  0.13073  0.63164  0.98848  1.0000
  C   C74       1.0  0.83358  0.34446  0.96605  1.0000
  C   C75       1.0  0.84245  0.31380  0.05703  1.0000
  C   C76       1.0  0.82477  0.28958  0.06256  1.0000
  C   C77       1.0  0.79745  0.29498  0.97996  1.0000
  C   C78       1.0  0.78916  0.32560  0.88347  1.0000
  C   C79       1.0  0.80700  0.34985  0.87493  1.0000
  C   C80       1.0  0.23059  0.28116  0.91598  1.0000
  C   C81       1.0  0.22143  0.25283  0.91499  1.0000
  C   C82       1.0  0.24092  0.23013  0.91245  1.0000
  C   C83       1.0  0.57414  0.99629  0.10653  1.0000
  C   C84       1.0  0.51525  0.00077  0.02258  1.0000
  C   C85       1.0  0.47019  0.97658  0.97030  1.0000
  C   C86       1.0  0.48746  0.95176  0.96456  1.0000
  C   C87       1.0  0.43946  0.97709  0.95409  1.0000
  C   C88       1.0  0.36556  0.87494  0.01380  1.0000
  C   C89       1.0  0.67779  0.14842  0.04876  1.0000
  C   C90       1.0  0.67112  0.17911  0.94105  1.0000
  C   C91       1.0  0.68983  0.20284  0.93285  1.0000
  C   C92       1.0  0.71557  0.19689  0.03206  1.0000
  C   C93       1.0  0.72180  0.16612  0.14145  1.0000
  C   C94       1.0  0.70362  0.14227  0.14752  1.0000
  C   C95       1.0  0.27122  0.23361  0.91224  1.0000
  C   C96       1.0  0.28107  0.26194  0.91414  1.0000
  C   C97       1.0  0.26091  0.28460  0.91744  1.0000
  C   C98       1.0  0.96938  0.47578  0.99204  1.0000
  C   C99       1.0  0.98602  0.45246  0.96252  1.0000
  C   C100      1.0  0.93853  0.47481  0.00221  1.0000
  C   C101      1.0  0.92160  0.44755  0.01357  1.0000
  C   C102      1.0  0.92891  0.41800  0.13635  1.0000
  C   C103      1.0  0.91159  0.39273  0.15567  1.0000
  C   C104      1.0  0.88680  0.39589  0.04997  1.0000
  C   C105      1.0  0.87950  0.42535  0.92600  1.0000
  C   C106      1.0  0.89634  0.45060  0.91098  1.0000
  C   C107      1.0  0.86946  0.36901  0.06799  1.0000
  C   C108      1.0  0.17116  0.65350  0.06570  1.0000
  C   C109      1.0  0.15880  0.68021  0.07545  1.0000
  C   C110      1.0  0.17624  0.70471  0.06879  1.0000
  C   C111      1.0  0.20661  0.70355  0.05041  1.0000
  C   C112      1.0  0.21888  0.67654  0.04484  1.0000
  C   C113      1.0  0.20161  0.65182  0.05480  1.0000
  C   C114      1.0  0.76425  0.72019  0.06470  1.0000
  C   C115      1.0  0.77334  0.75067  0.02323  1.0000
  C   C116      1.0  0.75510  0.77305  0.04223  1.0000
  C   C117      1.0  0.42460  0.00401  0.93665  1.0000
  C   C118      1.0  0.48476  0.00237  0.98518  1.0000
  C   C119      1.0  0.19623  0.80154  0.75087  1.0000
  C   C120      1.0  0.63865  0.68308  0.21589  1.0000
  C   C121      1.0  0.66795  0.67115  0.29919  1.0000
  C   C122      1.0  0.81068  0.20411  0.95787  1.0000
  C   C123      1.0  0.35958  0.29970  0.00086  1.0000
  C   C124      1.0  0.33077  0.31666  0.97557  1.0000
  C   C125      1.0  0.30648  0.29832  0.94391  1.0000
  C   C126      1.0  0.86412  0.19564  0.92773  1.0000
  C   C127      1.0  0.83335  0.18452  0.91985  1.0000
  C   C128      1.0  0.69134  0.69500  0.22588  1.0000
  C   C129      1.0  0.14696  0.80856  0.61135  1.0000
  C   C130      1.0  0.17594  0.82346  0.61910  1.0000
  C   C131      1.0  0.96944  0.52613  0.51343  1.0000
  C   C132      1.0  0.98509  0.54968  0.54502  1.0000
  C   C133      1.0  0.93866  0.52611  0.50458  1.0000
  C   C134      1.0  0.92067  0.55250  0.49633  1.0000
  C   C135      1.0  0.92726  0.58251  0.37458  1.0000
  C   C136      1.0  0.90871  0.60676  0.35815  1.0000
  C   C137      1.0  0.88333  0.60198  0.46561  1.0000
  C   C138      1.0  0.87676  0.57202  0.58867  1.0000
  C   C139      1.0  0.89493  0.54786  0.60133  1.0000
  C   C140      1.0  0.86456  0.62761  0.45149  1.0000
  C   C141      1.0  0.77607  0.27075  0.48473  1.0000
  C   C142      1.0  0.78669  0.24267  0.48308  1.0000
  C   C143      1.0  0.76724  0.21855  0.49543  1.0000
  C   C144      1.0  0.46991  0.02834  0.46607  1.0000
  C   C145      1.0  0.48578  0.05324  0.47978  1.0000
  C   C146      1.0  0.43952  0.02983  0.43588  1.0000
  C   C147      1.0  0.36701  0.13487  0.33473  1.0000
  C   C148      1.0  0.26215  0.78213  0.49186  1.0000
  C   C149      1.0  0.26999  0.75172  0.59679  1.0000
  C   C150      1.0  0.25213  0.72652  0.61845  1.0000
  C   C151      1.0  0.92460  0.49999  0.50259  1.0000
  C   C152      1.0  0.98533  0.50082  0.50144  1.0000
  C   C153      1.0  0.03237  0.47599  0.48889  1.0000
  C   C154      1.0  0.01658  0.45217  0.46065  1.0000
  C   C155      1.0  0.06320  0.47618  0.49602  1.0000
  C   C156      1.0  0.13493  0.37362  0.53240  1.0000
  C   C157      1.0  0.22473  0.72960  0.53914  1.0000
  C   C158      1.0  0.21616  0.75990  0.43472  1.0000
  C   C159      1.0  0.23476  0.78516  0.41202  1.0000
  C   C160      1.0  0.53116  0.97131  0.53883  1.0000
  C   C161      1.0  0.51616  0.94821  0.49932  1.0000
  C   C162      1.0  0.56102  0.96865  0.58379  1.0000
  C   C163      1.0  0.57825  0.94091  0.60878  1.0000
  C   C164      1.0  0.56887  0.91126  0.72109  1.0000
  C   C165      1.0  0.58588  0.88571  0.74144  1.0000
  C   C166      1.0  0.61279  0.88892  0.65059  1.0000
  C   C167      1.0  0.62246  0.91859  0.54035  1.0000
  C   C168      1.0  0.60556  0.94399  0.52125  1.0000
  C   C169      1.0  0.63011  0.86194  0.66938  1.0000
  C   C170      1.0  0.32918  0.15904  0.43182  1.0000
  C   C171      1.0  0.33517  0.18967  0.31604  1.0000
  C   C172      1.0  0.31725  0.21341  0.31621  1.0000
  C   C173      1.0  0.29227  0.20755  0.42841  1.0000
  C   C174      1.0  0.28639  0.17703  0.54467  1.0000
  C   C175      1.0  0.30466  0.15332  0.54750  1.0000
  C   C176      1.0  0.73693  0.22025  0.51350  1.0000
  C   C177      1.0  0.72695  0.24849  0.51223  1.0000
  C   C178      1.0  0.74574  0.27270  0.49842  1.0000
  C   C179      1.0  0.07719  0.50217  0.50055  1.0000
  C   C180      1.0  0.01646  0.50123  0.50182  1.0000
  C   C181      1.0  0.53115  0.02416  0.53873  1.0000
  C   C182      1.0  0.51497  0.05148  0.51020  1.0000
  C   C183      1.0  0.56147  0.02147  0.57668  1.0000
  C   C184      1.0  0.58010  0.04641  0.58525  1.0000
  C   C185      1.0  0.57072  0.06857  0.65222  1.0000
  C   C186      1.0  0.58886  0.09249  0.64705  1.0000
  C   C187      1.0  0.61762  0.09464  0.58162  1.0000
  C   C188      1.0  0.62769  0.07190  0.52154  1.0000
  C   C189      1.0  0.60924  0.04868  0.52136  1.0000
  C   C190      1.0  0.63628  0.11933  0.58562  1.0000
  C   C191      1.0  0.72453  0.76345  0.60420  1.0000
  C   C192      1.0  0.71510  0.73282  0.64826  1.0000
  C   C193      1.0  0.73448  0.71057  0.63071  1.0000
  C   C194      1.0  0.03150  0.52681  0.51595  1.0000
  C   C195      1.0  0.01475  0.54989  0.54742  1.0000
  C   C196      1.0  0.06239  0.52769  0.50733  1.0000
  C   C197      1.0  0.13208  0.63038  0.49148  1.0000
  C   C198      1.0  0.23075  0.27964  0.41694  1.0000
  C   C199      1.0  0.22206  0.25068  0.42398  1.0000
  C   C200      1.0  0.24205  0.22800  0.42711  1.0000
  C   C201      1.0  0.57507  0.99360  0.60030  1.0000
  C   C202      1.0  0.51590  0.99877  0.52224  1.0000
  C   C203      1.0  0.47029  0.97539  0.46983  1.0000
  C   C204      1.0  0.48707  0.95014  0.46596  1.0000
  C   C205      1.0  0.43957  0.97658  0.45183  1.0000
  C   C206      1.0  0.42144  0.95042  0.45758  1.0000
  C   C207      1.0  0.42642  0.92016  0.57993  1.0000
  C   C208      1.0  0.40728  0.89652  0.59301  1.0000
  C   C209      1.0  0.38234  0.90220  0.48646  1.0000
  C   C210      1.0  0.37729  0.93236  0.36323  1.0000
  C   C211      1.0  0.39645  0.95577  0.34986  1.0000
  C   C212      1.0  0.36230  0.87729  0.50506  1.0000
  C   C213      1.0  0.68054  0.14478  0.55451  1.0000
  C   C214      1.0  0.67253  0.17532  0.45241  1.0000
  C   C215      1.0  0.69073  0.19966  0.43999  1.0000
  C   C216      1.0  0.71739  0.19463  0.52970  1.0000
  C   C217      1.0  0.72496  0.16400  0.63416  1.0000
  C   C218      1.0  0.70723  0.13954  0.64416  1.0000
  C   C219      1.0  0.27230  0.23228  0.42372  1.0000
  C   C220      1.0  0.28166  0.26105  0.42032  1.0000
  C   C221      1.0  0.26098  0.28359  0.41811  1.0000
  C   C222      1.0  0.97022  0.47509  0.48991  1.0000
  C   C223      1.0  0.98690  0.45174  0.46112  1.0000
  C   C224      1.0  0.93934  0.47423  0.49963  1.0000
  C   C225      1.0  0.86795  0.37029  0.55977  1.0000
  C   C226      1.0  0.17222  0.65243  0.56869  1.0000
  C   C227      1.0  0.15933  0.67888  0.57871  1.0000
  C   C228      1.0  0.17629  0.70363  0.57263  1.0000
  C   C229      1.0  0.20671  0.70301  0.55473  1.0000
  C   C230      1.0  0.21951  0.67630  0.54825  1.0000
  C   C231      1.0  0.20271  0.65127  0.55788  1.0000
  C   C232      1.0  0.76351  0.71670  0.57018  1.0000
  C   C233      1.0  0.77209  0.74739  0.52458  1.0000
  C   C234      1.0  0.75346  0.76959  0.54174  1.0000
  C   C235      1.0  0.42530  0.00377  0.43492  1.0000
  C   C236      1.0  0.48537  0.00087  0.48558  1.0000
  C   C237      1.0  0.19429  0.79997  0.25157  1.0000
  C   C238      1.0  0.63769  0.67781  0.73877  1.0000
  C   C239      1.0  0.66792  0.66604  0.80527  1.0000
  C   C240      1.0  0.81304  0.20681  0.45314  1.0000
  C   C241      1.0  0.35960  0.30624  0.46893  1.0000
  C   C242      1.0  0.32909  0.31870  0.46910  1.0000
  C   C243      1.0  0.30608  0.29869  0.44117  1.0000
  C   C244      1.0  0.86684  0.20420  0.41215  1.0000
  C   C245      1.0  0.83754  0.18909  0.41516  1.0000
  C   C246      1.0  0.69073  0.69049  0.72912  1.0000
  C   C247      1.0  0.14410  0.80734  0.12353  1.0000
  C   C248      1.0  0.17420  0.82111  0.11541  1.0000
  N   N1        1.0  0.84303  0.62675  0.05691  1.0000
  N   N2        1.0  0.34508  0.13366  0.95705  1.0000
  N   N3        1.0  0.15433  0.37664  0.92091  1.0000
  N   N4        1.0  0.65720  0.86804  0.10216  1.0000
  N   N5        1.0  0.66060  0.12351  0.05700  1.0000
  N   N6        1.0  0.15517  0.62801  0.07089  1.0000
  N   N7        1.0  0.34131  0.87927  0.92891  1.0000
  N   N8        1.0  0.84955  0.37049  0.95266  1.0000
  N   N9        1.0  0.19235  0.77160  0.83157  1.0000
  N   N10       1.0  0.22251  0.81095  0.79450  1.0000
  N   N11       1.0  0.81449  0.23158  0.96308  1.0000
  N   N12       1.0  0.78199  0.19496  0.98248  1.0000
  N   N13       1.0  0.30917  0.27143  0.92908  1.0000
  N   N14       1.0  0.27785  0.30754  0.93510  1.0000
  N   N15       1.0  0.68924  0.72378  0.21066  1.0000
  N   N16       1.0  0.71837  0.68799  0.17718  1.0000
  N   N17       1.0  0.84299  0.62401  0.56384  1.0000
  N   N18       1.0  0.34597  0.13332  0.44719  1.0000
  N   N19       1.0  0.15563  0.37635  0.41546  1.0000
  N   N20       1.0  0.65612  0.86437  0.60283  1.0000
  N   N21       1.0  0.66407  0.11948  0.56058  1.0000
  N   N22       1.0  0.15653  0.62675  0.57375  1.0000
  N   N23       1.0  0.33814  0.88194  0.41880  1.0000
  N   N24       1.0  0.84697  0.37223  0.45011  1.0000
  N   N25       1.0  0.19111  0.77002  0.33442  1.0000
  N   N26       1.0  0.22014  0.81041  0.29342  1.0000
  N   N27       1.0  0.81501  0.23439  0.45899  1.0000
  N   N28       1.0  0.78481  0.19599  0.47651  1.0000
  N   N29       1.0  0.30957  0.27139  0.43304  1.0000
  N   N30       1.0  0.27729  0.30734  0.43010  1.0000
  N   N31       1.0  0.68808  0.71937  0.71156  1.0000
  N   N32       1.0  0.71812  0.68378  0.68377  1.0000
  O   O1        1.0  0.67639  0.64382  0.26684  1.0000
  O   O2        1.0  0.33176  0.34622  0.82258  1.0000
  O   O3        1.0  0.82803  0.15324  0.04856  1.0000
  O   O4        1.0  0.17254  0.85004  0.66998  1.0000
  O   O5        1.0  0.67640  0.64022  0.75702  1.0000
  O   O6        1.0  0.32524  0.34922  0.32858  1.0000
  O   O7        1.0  0.83599  0.15783  0.55072  1.0000
  O   O8        1.0  0.17366  0.85002  0.14292  1.0000
  C   C249      1.0  0.33255  0.81836  0.94673  1.0000
  C   C250      1.0  0.32663  0.84811  0.93572  1.0000
  C  Sn1       1.0  0.29805  0.85706  0.94956  1.0000
  C  Sn2       1.0  0.27502  0.83579  0.97492  1.0000
  C   C251      1.0  0.28117  0.80608  0.98589  1.0000
  C   C252      1.0  0.30985  0.79736  0.97182  1.0000
  H   H169      1.0  0.35474  0.81161  0.93594  1.0000
  O  Te1       1.0  0.29251  0.88688  0.93820  1.0000
  O  Te2       1.0  0.24626  0.84414  0.98924  1.0000
  H   H170      1.0  0.31443  0.77433  0.98046  1.0000
  Mg  Mg1       1.0  0.24972  0.88739  0.96538  1.0000
  C   C253      1.0  0.08296  0.60643  0.37475  1.0000
  C   C254      1.0  0.10706  0.60647  0.47874  1.0000
  C  Sn3       1.0  0.11882  0.57880  0.59570  1.0000
  C  Sn4       1.0  0.10618  0.55060  0.60845  1.0000
  C   C255      1.0  0.08209  0.55081  0.50374  1.0000
  C   C256      1.0  0.07049  0.57863  0.38719  1.0000
  H   H171      1.0  0.07400  0.62796  0.28450  1.0000
  O  Te3       1.0  0.14289  0.57926  0.69867  1.0000
  O  Te4       1.0  0.11750  0.52262  0.72419  1.0000
  H   H172      1.0  0.05185  0.57859  0.30661  1.0000
  Mg  Mg2       1.0  0.15049  0.53515  0.83689  1.0000
  C   C257      1.0  0.70860  0.83342  0.65658  1.0000
  C   C258      1.0  0.67957  0.83968  0.60829  1.0000
  C  Sn5       1.0  0.66274  0.81831  0.57022  1.0000
  C  Sn6       1.0  0.67527  0.79016  0.58084  1.0000
  C   C259      1.0  0.70433  0.78411  0.62939  1.0000
  C   C260      1.0  0.72098  0.80566  0.66716  1.0000
  H   H173      1.0  0.72148  0.85009  0.68589  1.0000
  O  Te5       1.0  0.63377  0.82494  0.52212  1.0000
  O  Te6       1.0  0.65894  0.76839  0.54356  1.0000
  H   H174      1.0  0.74345  0.80079  0.70465  1.0000
  Mg  Mg3       1.0  0.62038  0.78798  0.48384  1.0000
  C   C261      1.0  0.91804  0.39552  0.65684  1.0000
  C   C262      1.0  0.89122  0.39526  0.57818  1.0000
  C  Sn7       1.0  0.87984  0.42237  0.45246  1.0000
  C  Sn8       1.0  0.89566  0.45022  0.40485  1.0000
  C   C263      1.0  0.92249  0.45024  0.48421  1.0000
  C   C264      1.0  0.93367  0.42298  0.60990  1.0000
  H   H175      1.0  0.92670  0.37443  0.75401  1.0000
  O  Te7       1.0  0.85300  0.42170  0.37521  1.0000
  O  Te8       1.0  0.88480  0.47764  0.27953  1.0000
  H   H176      1.0  0.95445  0.42319  0.67069  1.0000
  Mg  Mg4       1.0  0.84728  0.46501  0.21125  1.0000
  C   C265      1.0  0.33441  0.19849  0.81464  1.0000
  C   C266      1.0  0.33180  0.16720  0.92088  1.0000
  C  Sn9       1.0  0.30951  0.22043  0.02692  1.0000
  C  Sn10      1.0  0.28677  0.24081  0.02628  1.0000
  C   C267      1.0  0.28690  0.20747  0.91944  1.0000
  C   C268      1.0  0.31198  0.21861  0.81388  1.0000
  H   H177      1.0  0.35381  0.20711  0.73289  1.0000
  O  Te9       1.0  0.30726  0.18910  0.13232  1.0000
  O  Te10      1.0  0.26158  0.23006  0.13094  1.0000
  H   H178      1.0  0.31399  0.24284  0.73155  1.0000
  Mg  Mg5       1.0  0.26868  0.18545  0.25211  1.0000
  C   C269      1.0  0.32988  0.82033  0.44897  1.0000
  C   C270      1.0  0.32362  0.85049  0.42862  1.0000
  C  Sn11      1.0  0.29488  0.85956  0.43547  1.0000
  C  Sn12      1.0  0.27203  0.83800  0.46326  1.0000
  C   C271      1.0  0.27853  0.80789  0.48359  1.0000
  C   C272      1.0  0.30737  0.79905  0.47646  1.0000
  H   H179      1.0  0.35220  0.81349  0.44355  1.0000
  O  Te11      1.0  0.28900  0.88978  0.41482  1.0000
  O  Te12      1.0  0.24311  0.84646  0.47074  1.0000
  H   H180      1.0  0.31221  0.77570  0.49234  1.0000
  Mg  Mg6       1.0  0.24610  0.89030  0.43518  1.0000
  C   C273      1.0  0.57789  0.09307  0.15201  1.0000
  C   C274      1.0  0.60705  0.09907  0.09940  1.0000
  C  Sn13      1.0  0.62246  0.07965  0.03498  1.0000
  C  Sn14      1.0  0.60837  0.05376  0.02312  1.0000
  C   C275      1.0  0.57918  0.04796  0.07597  1.0000
  C   C276      1.0  0.56397  0.06754  0.14028  1.0000
  H   H181      1.0  0.56611  0.10823  0.20168  1.0000
  O  Te13      1.0  0.64890  0.02138  0.98305  1.0000
  O  Te14      1.0  0.62057  0.96937  0.95916  1.0000
  H   H182      1.0  0.54139  0.06289  0.18090  1.0000
  Mg  Mg7       1.0  0.65998  0.98765  0.90470  1.0000
  C   C277      1.0  0.37874  0.07044  0.50813  1.0000
  C   C278      1.0  0.38342  0.10131  0.39856  1.0000
  C  Sn15      1.0  0.40768  0.11006  0.28276  1.0000
  C  Sn16      1.0  0.42758  0.08744  0.27681  1.0000
  C   C279      1.0  0.42270  0.05662  0.38688  1.0000
  C   C280      1.0  0.39836  0.04812  0.50230  1.0000
  H   H183      1.0  0.35990  0.06386  0.59737  1.0000
  O  Te15      1.0  0.41203  0.14100  0.17424  1.0000
  O  Te16      1.0  0.45200  0.09555  0.16226  1.0000
  H   H184      1.0  0.39473  0.02421  0.58704  1.0000
  Mg  Mg8       1.0  0.44852  0.14067  0.04038  1.0000
  C   C281      1.0  0.21397  0.34322  0.28741  1.0000
  C   C282      1.0  0.21312  0.31174  0.39147  1.0000
  C  Sn17      1.0  0.18989  0.29902  0.51136  1.0000
  C  Sn18      1.0  0.16714  0.31824  0.52703  1.0000
  C   C283      1.0  0.16819  0.34970  0.42224  1.0000
  C   C284      1.0  0.19153  0.36219  0.30273  1.0000
  H   H185      1.0  0.23203  0.35288  0.19487  1.0000
  O  Te17      1.0  0.18938  0.26752  0.61436  1.0000
  O  Te18      1.0  0.14367  0.30613  0.64575  1.0000
  H   H186      1.0  0.19218  0.38656  0.22210  1.0000
  Mg  Mg9       1.0  0.15278  0.26182  0.75722  1.0000
  C   C285      1.0  0.91583  0.60522  0.84515  1.0000
  C   C286      1.0  0.88888  0.60539  0.92761  1.0000
  C  Sn19      1.0  0.88011  0.64292  0.05674  1.0000
  C  Sn20      1.0  0.89599  0.61520  0.10395  1.0000
  C   C287      1.0  0.92295  0.61529  0.02077  1.0000
  C   C288      1.0  0.93152  0.57790  0.89169  1.0000
  H   H187      1.0  0.92455  0.62629  0.74535  1.0000
  O  Te19      1.0  0.85314  0.64348  0.13775  1.0000
  O  Te20      1.0  0.88505  0.58782  0.23263  1.0000
  H   H188      1.0  0.95240  0.57777  0.82796  1.0000
  Mg  Mg10      1.0  0.84736  0.60027  0.30540  1.0000
  C   C289      1.0  0.79553  0.64265  0.70672  1.0000
  C   C290      1.0  0.81758  0.64526  0.57936  1.0000
  C  Sn21      1.0  0.82392  0.67369  0.44231  1.0000
  C  Sn22      1.0  0.80786  0.69996  0.43299  1.0000
  C   C291      1.0  0.78586  0.69710  0.56113  1.0000
  C   C292      1.0  0.77969  0.66854  0.69767  1.0000
  H   H189      1.0  0.79077  0.62055  0.81242  1.0000
  O  Te21      1.0  0.84601  0.67589  0.31612  1.0000
  O  Te22      1.0  0.81375  0.72865  0.29748  1.0000
  H   H190      1.0  0.76263  0.66653  0.79633  1.0000
  Mg  Mg11      1.0  0.84591  0.71999  0.15670  1.0000
  C   C293      1.0  0.12243  0.43811  0.37982  1.0000
  C   C294      1.0  0.12028  0.40737  0.49767  1.0000
  C  Sn23      1.0  0.09691  0.39740  0.61999  1.0000
  C  Sn24      1.0  0.07532  0.41866  0.62404  1.0000
  C   C295      1.0  0.07766  0.44936  0.50549  1.0000
  C   C296      1.0  0.10114  0.45909  0.38368  1.0000
  H   H191      1.0  0.14059  0.44563  0.28550  1.0000
  O  Te23      1.0  0.09509  0.36661  0.73684  1.0000
  O  Te24      1.0  0.05173  0.40931  0.74489  1.0000
  H   H192      1.0  0.10280  0.48288  0.29237  1.0000
  Mg  Mg12      1.0  0.05885  0.36495  0.87719  1.0000
  C   C297      1.0  0.83694  0.30708  0.58674  1.0000
  C   C298      1.0  0.83448  0.33841  0.48234  1.0000
  C  Sn25      1.0  0.81053  0.34950  0.37138  1.0000
  C  Sn26      1.0  0.78867  0.32878  0.36514  1.0000
  C   C299      1.0  0.79131  0.29747  0.47020  1.0000
  C   C300      1.0  0.81537  0.28662  0.58072  1.0000
  H   H193      1.0  0.85554  0.29868  0.67234  1.0000
  O  Te25      1.0  0.80843  0.38088  0.26790  1.0000
  O  Te26      1.0  0.76450  0.33924  0.25547  1.0000
  H   H194      1.0  0.81726  0.26236  0.66163  1.0000
  Mg  Mg13      1.0  0.77140  0.38405  0.13942  1.0000
  C   C301      1.0  0.41676  0.89865  0.11327  1.0000
  C   C302      1.0  0.39073  0.89863  0.02582  1.0000
  C  Sn27      1.0  0.37782  0.86111  0.89374  1.0000
  C  Sn28      1.0  0.39399  0.88870  0.84863  1.0000
  C   C303      1.0  0.42002  0.88848  0.93681  1.0000
  C   C304      1.0  0.43273  0.92585  0.06881  1.0000
  H   H195      1.0  0.42453  0.87758  0.21533  1.0000
  O  Te27      1.0  0.35177  0.86068  0.80774  1.0000
  O  Te28      1.0  0.38427  0.91609  0.71709  1.0000
  H   H196      1.0  0.45290  0.92588  0.13641  1.0000
  Mg  Mg14      1.0  0.34751  0.90385  0.63770  1.0000
  C   C305      1.0  0.38862  0.05775  0.03512  1.0000
  C   C306      1.0  0.40988  0.99107  0.93076  1.0000
  C  Sn29      1.0  0.42042  0.01719  0.78930  1.0000
  C  Sn30      1.0  0.40669  0.04589  0.75197  1.0000
  C   C307      1.0  0.38276  0.04772  0.85725  1.0000
  C   C308      1.0  0.37238  0.02144  0.99844  1.0000
  H   H197      1.0  0.38060  0.03742  0.14443  1.0000
  O  Te29      1.0  0.44436  0.01472  0.68633  1.0000
  O  Te30      1.0  0.41678  0.07236  0.61144  1.0000
  H   H198      1.0  0.35654  0.08765  0.07929  1.0000
  Mg  Mg15      1.0  0.45008  0.05730  0.50922  1.0000
  C   C309      1.0  0.11257  0.45155  0.88887  1.0000
  C   C310      1.0  0.08611  0.45166  0.97675  1.0000
  C  Sn31      1.0  0.07732  0.48898  0.10357  1.0000
  C  Sn32      1.0  0.09266  0.46110  0.14288  1.0000
  C   C311      1.0  0.11912  0.46124  0.05432  1.0000
  C   C312      1.0  0.12772  0.42407  0.92762  1.0000
  H   H199      1.0  0.12132  0.47278  0.79090  1.0000
  O  Te31      1.0  0.05085  0.48949  0.19008  1.0000
  O  Te32      1.0  0.08168  0.43350  0.26909  1.0000
  H   H200      1.0  0.14822  0.42399  0.85968  1.0000
  Mg  Mg16      1.0  0.04479  0.44596  0.35153  1.0000
