data_image0
_chemical_formula_structural       H104C152N32O8C2Sn2C2HTe2HMgC2Sn2C2HTe2HMgC2Sn2C2HTe2HMgC2Sn2C2HTe2HMgC2Sn2C2HTe2HMgC2Sn2C2HTe2HMgC2Sn2C2HTe2HMgC2Sn2C2HTe2HMgC2Sn2C2HTe2HMgC2Sn2C2HTe2HMgC2Sn2C2HTe2HMgC2Sn2C2HTe2HMgC2Sn2C2HTe2HMgC2Sn2C2HTe2HMgC2Sn2C2HTe2HMgC2Sn2C2HTe2HMgC2Sn2C2HTe2HMgC2Sn2C2HTe2HMgC2Sn2C2HTe2HMgC2Sn2C2HTe2HMgC2Sn2C2HTe2HMgC2Sn2C2HTe2HMgC2Sn2C2HTe2HMgC2Sn2C2HTe2HMgC2Sn2C2HTe2HMgC2Sn2C2HTe2HMgC2Sn2C2HTe2HMgC2Sn2C2HTe2HMgC2Sn2C2HTe2HMgC2Sn2C2HTe2HMgC2Sn2C2HTe2HMgC2Sn2C2HTe2HMg
_chemical_formula_sum              "H168 C280 N32 O8 Sn64 Te64 Mg32"
_cell_length_a       46.0604
_cell_length_b       47.13
_cell_length_c       7.98833
_cell_angle_alpha    67.5932
_cell_angle_beta     89.0731
_cell_angle_gamma    89.8949

_symmetry_space_group_name_H-M    'P1'
_space_group_IT_number       1

loop_
  _space_group_symop_operation_xyz
  'x, y, z'

loop_
  _atom_site_type_symbol
  _atom_site_label
  _atom_site_symmetry_multiplicity
  _atom_site_fract_x
  _atom_site_fract_y
  _atom_site_fract_z
  _atom_site_occupancy
  H   H1        1.0  0.97207  0.56808  0.07275  1.0000
  H   H2        1.0  0.87104  0.65187  0.83926  1.0000
  H   H3        1.0  0.47259  0.07606  0.95397  1.0000
  H   H4        1.0  0.36971  0.15559  0.71817  1.0000
  H   H5        1.0  0.29177  0.74589  0.16413  1.0000
  H   H6        1.0  0.25934  0.70274  0.19826  1.0000
  H   H7        1.0  0.90006  0.50015  0.00593  1.0000
  H   H8        1.0  0.02783  0.43527  0.93512  1.0000
  H   H9        1.0  0.12780  0.35169  0.14638  1.0000
  H   H10       1.0  0.52940  0.93171  0.98755  1.0000
  H   H11       1.0  0.62138  0.84299  0.24809  1.0000
  H   H12       1.0  0.70438  0.25419  0.03531  1.0000
  H   H13       1.0  0.73962  0.29423  0.01887  1.0000
  H   H14       1.0  0.09989  0.50318  0.99983  1.0000
  H   H15       1.0  0.52424  0.07408  0.00568  1.0000
  H   H16       1.0  0.62219  0.14335  0.10264  1.0000
  H   H17       1.0  0.02515  0.56834  0.07806  1.0000
  H   H18       1.0  0.12235  0.65459  0.90683  1.0000
  H   H19       1.0  0.19825  0.24870  0.91257  1.0000
  H   H20       1.0  0.23232  0.20912  0.90576  1.0000
  H   H21       1.0  0.59669  0.99362  0.14734  1.0000
  H   H22       1.0  0.47720  0.93407  0.92959  1.0000
  H   H23       1.0  0.37225  0.85200  0.10765  1.0000
  H   H24       1.0  0.97461  0.43458  0.93511  1.0000
  H   H25       1.0  0.87432  0.34779  0.18418  1.0000
  H   H26       1.0  0.79562  0.75696  0.97678  1.0000
  H   H27       1.0  0.76364  0.79617  0.00517  1.0000
  H   H28       1.0  0.40111  0.00437  0.92393  1.0000
  H   H29       1.0  0.23037  0.83270  0.74680  1.0000
  H   H30       1.0  0.67795  0.62724  0.38443  1.0000
  H   H31       1.0  0.62152  0.66604  0.27889  1.0000
  H   H32       1.0  0.63945  0.68846  0.06984  1.0000
  H   H33       1.0  0.63361  0.70438  0.23577  1.0000
  H   H34       1.0  0.66660  0.66498  0.44654  1.0000
  H   H35       1.0  0.77410  0.17475  0.98449  1.0000
  H   H36       1.0  0.34040  0.36073  0.86703  1.0000
  H   H37       1.0  0.36464  0.29358  0.88447  1.0000
  H   H38       1.0  0.35836  0.27847  0.12279  1.0000
  H   H39       1.0  0.37706  0.31417  0.01711  1.0000
  H   H40       1.0  0.32530  0.32103  0.09854  1.0000
  H   H41       1.0  0.27032  0.32661  0.95115  1.0000
  H   H42       1.0  0.83654  0.13977  0.99445  1.0000
  H   H43       1.0  0.86679  0.21938  0.83004  1.0000
  H   H44       1.0  0.87983  0.18106  0.89381  1.0000
  H   H45       1.0  0.86878  0.19515  0.06280  1.0000
  H   H46       1.0  0.82955  0.18514  0.78258  1.0000
  H   H47       1.0  0.72354  0.66786  0.16597  1.0000
  H   H48       1.0  0.16384  0.86601  0.56668  1.0000
  H   H49       1.0  0.13585  0.80043  0.74354  1.0000
  H   H50       1.0  0.15048  0.78886  0.57210  1.0000
  H   H51       1.0  0.13325  0.82522  0.50968  1.0000
  H   H52       1.0  0.18633  0.83166  0.48382  1.0000
  H   H53       1.0  0.97292  0.56717  0.57323  1.0000
  H   H54       1.0  0.87004  0.64965  0.34203  1.0000
  H   H55       1.0  0.47427  0.07420  0.46443  1.0000
  H   H56       1.0  0.37272  0.15592  0.21826  1.0000
  H   H57       1.0  0.29039  0.74787  0.66854  1.0000
  H   H58       1.0  0.25938  0.70369  0.70415  1.0000
  H   H59       1.0  0.90100  0.49963  0.50417  1.0000
  H   H60       1.0  0.02865  0.43445  0.43431  1.0000
  H   H61       1.0  0.12949  0.35176  0.64365  1.0000
  H   H62       1.0  0.52854  0.92897  0.49348  1.0000
  H   H63       1.0  0.61998  0.83943  0.74526  1.0000
  H   H64       1.0  0.70374  0.25130  0.52750  1.0000
  H   H65       1.0  0.73660  0.29351  0.50553  1.0000
  H   H66       1.0  0.10079  0.50245  0.49974  1.0000
  H   H67       1.0  0.52607  0.07158  0.51220  1.0000
  H   H68       1.0  0.62541  0.13759  0.61703  1.0000
  H   H69       1.0  0.02603  0.56744  0.57857  1.0000
  H   H70       1.0  0.12379  0.65335  0.40961  1.0000
  H   H71       1.0  0.19896  0.24601  0.42215  1.0000
  H   H72       1.0  0.23395  0.20638  0.42651  1.0000
  H   H73       1.0  0.59774  0.99093  0.63829  1.0000
  H   H74       1.0  0.47645  0.93258  0.43143  1.0000
  H   H75       1.0  0.36845  0.85428  0.60056  1.0000
  H   H76       1.0  0.97552  0.43373  0.43480  1.0000
  H   H77       1.0  0.87378  0.34872  0.67037  1.0000
  H   H78       1.0  0.79424  0.75399  0.47650  1.0000
  H   H79       1.0  0.76162  0.79289  0.50269  1.0000
  H   H80       1.0  0.40184  0.00470  0.42079  1.0000
  H   H81       1.0  0.22691  0.83255  0.24377  1.0000
  H   H82       1.0  0.66943  0.62174  0.85403  1.0000
  H   H83       1.0  0.62114  0.66039  0.80776  1.0000
  H   H84       1.0  0.63632  0.68390  0.59241  1.0000
  H   H85       1.0  0.63326  0.69859  0.76573  1.0000
  H   H86       1.0  0.66842  0.65822  0.95406  1.0000
  H   H87       1.0  0.77824  0.17558  0.47494  1.0000
  H   H88       1.0  0.33331  0.36364  0.37587  1.0000
  H   H89       1.0  0.36508  0.30507  0.33793  1.0000
  H   H90       1.0  0.36108  0.28298  0.57350  1.0000
  H   H91       1.0  0.37540  0.32105  0.49809  1.0000
  H   H92       1.0  0.32463  0.32030  0.60115  1.0000
  H   H93       1.0  0.26946  0.32701  0.43689  1.0000
  H   H94       1.0  0.84261  0.14434  0.49160  1.0000
  H   H95       1.0  0.86709  0.22751  0.30753  1.0000
  H   H96       1.0  0.88421  0.19084  0.38185  1.0000
  H   H97       1.0  0.87098  0.20594  0.54252  1.0000
  H   H98       1.0  0.83372  0.18824  0.28120  1.0000
  H   H99       1.0  0.72398  0.66354  0.67652  1.0000
  H   H100      1.0  0.16745  0.86541  0.02876  1.0000
  H   H101      1.0  0.13300  0.80387  0.25221  1.0000
  H   H102      1.0  0.14605  0.78501  0.11099  1.0000
  H   H103      1.0  0.13121  0.82259  0.01074  1.0000
  H   H104      1.0  0.18380  0.82597  0.98041  1.0000
  C   C1        1.0  0.96846  0.52683  0.01522  1.0000
  C   C2        1.0  0.98420  0.55045  0.04573  1.0000
  C   C3        1.0  0.93765  0.52682  0.00583  1.0000
  C   C4        1.0  0.86494  0.62989  0.94745  1.0000
  C   C5        1.0  0.77763  0.26978  0.99348  1.0000
  C   C6        1.0  0.78682  0.24141  0.98917  1.0000
  C   C7        1.0  0.76602  0.21843  0.00209  1.0000
  C   C8        1.0  0.46879  0.02960  0.96433  1.0000
  C   C9        1.0  0.48430  0.05503  0.97396  1.0000
  C   C10       1.0  0.43835  0.03043  0.93571  1.0000
  C   C11       1.0  0.36526  0.13491  0.83982  1.0000
  C   C12       1.0  0.26411  0.78111  0.99013  1.0000
  C   C13       1.0  0.27126  0.75045  0.09332  1.0000
  C   C14       1.0  0.25263  0.72586  0.11380  1.0000
  C   C15       1.0  0.92367  0.50056  0.00465  1.0000
  C   C16       1.0  0.98442  0.50151  0.00381  1.0000
  C   C17       1.0  0.03142  0.47656  0.99221  1.0000
  C   C18       1.0  0.01569  0.45286  0.96249  1.0000
  C   C19       1.0  0.06224  0.47662  0.00027  1.0000
  C   C20       1.0  0.13340  0.37367  0.03670  1.0000
  C   C21       1.0  0.22518  0.72980  0.03449  1.0000
  C   C22       1.0  0.21725  0.76046  0.93155  1.0000
  C   C23       1.0  0.23658  0.78507  0.91091  1.0000
  C   C24       1.0  0.53102  0.97364  0.03835  1.0000
  C   C25       1.0  0.51658  0.95046  0.99649  1.0000
  C   C26       1.0  0.56077  0.97138  0.08533  1.0000
  C   C27       1.0  0.63127  0.86552  0.16988  1.0000
  C   C28       1.0  0.73594  0.22163  0.01981  1.0000
  C   C29       1.0  0.72738  0.25012  0.02097  1.0000
  C   C30       1.0  0.74748  0.27310  0.00950  1.0000
  C   C31       1.0  0.07628  0.50277  0.00229  1.0000
  C   C32       1.0  0.01555  0.50189  0.00421  1.0000
  C   C33       1.0  0.52991  0.02637  0.04040  1.0000
  C   C34       1.0  0.51341  0.05366  0.00646  1.0000
  C   C35       1.0  0.56008  0.02396  0.08320  1.0000
  C   C36       1.0  0.63281  0.12420  0.07940  1.0000
  C   C37       1.0  0.72608  0.76728  0.10398  1.0000
  C   C38       1.0  0.71632  0.73685  0.14629  1.0000
  C   C39       1.0  0.73520  0.71445  0.12547  1.0000
  C   C40       1.0  0.03063  0.52751  0.01739  1.0000
  C   C41       1.0  0.01387  0.55067  0.04799  1.0000
  C   C42       1.0  0.06152  0.52839  0.00780  1.0000
  C   C43       1.0  0.13073  0.63164  0.98848  1.0000
  C   C44       1.0  0.23059  0.28116  0.91598  1.0000
  C   C45       1.0  0.22143  0.25283  0.91499  1.0000
  C   C46       1.0  0.24092  0.23013  0.91245  1.0000
  C   C47       1.0  0.57414  0.99629  0.10653  1.0000
  C   C48       1.0  0.51525  0.00077  0.02258  1.0000
  C   C49       1.0  0.47019  0.97658  0.97030  1.0000
  C   C50       1.0  0.48746  0.95176  0.96456  1.0000
  C   C51       1.0  0.43946  0.97709  0.95409  1.0000
  C   C52       1.0  0.36556  0.87494  0.01380  1.0000
  C   C53       1.0  0.27122  0.23361  0.91224  1.0000
  C   C54       1.0  0.28107  0.26194  0.91414  1.0000
  C   C55       1.0  0.26091  0.28460  0.91744  1.0000
  C   C56       1.0  0.96938  0.47578  0.99204  1.0000
  C   C57       1.0  0.98602  0.45246  0.96252  1.0000
  C   C58       1.0  0.93853  0.47481  0.00221  1.0000
  C   C59       1.0  0.86946  0.36901  0.06799  1.0000
  C   C60       1.0  0.76425  0.72019  0.06470  1.0000
  C   C61       1.0  0.77334  0.75067  0.02323  1.0000
  C   C62       1.0  0.75510  0.77305  0.04223  1.0000
  C   C63       1.0  0.42460  0.00401  0.93665  1.0000
  C   C64       1.0  0.48476  0.00237  0.98518  1.0000
  C   C65       1.0  0.19623  0.80154  0.75087  1.0000
  C   C66       1.0  0.63865  0.68308  0.21589  1.0000
  C   C67       1.0  0.66795  0.67115  0.29919  1.0000
  C   C68       1.0  0.81068  0.20411  0.95787  1.0000
  C   C69       1.0  0.35958  0.29970  0.00086  1.0000
  C   C70       1.0  0.33077  0.31666  0.97557  1.0000
  C   C71       1.0  0.30648  0.29832  0.94391  1.0000
  C   C72       1.0  0.86412  0.19564  0.92773  1.0000
  C   C73       1.0  0.83335  0.18452  0.91985  1.0000
  C   C74       1.0  0.69134  0.69500  0.22588  1.0000
  C   C75       1.0  0.14696  0.80856  0.61135  1.0000
  C   C76       1.0  0.17594  0.82346  0.61910  1.0000
  C   C77       1.0  0.96944  0.52613  0.51343  1.0000
  C   C78       1.0  0.98509  0.54968  0.54502  1.0000
  C   C79       1.0  0.93866  0.52611  0.50458  1.0000
  C   C80       1.0  0.86456  0.62761  0.45149  1.0000
  C   C81       1.0  0.77607  0.27075  0.48473  1.0000
  C   C82       1.0  0.78669  0.24267  0.48308  1.0000
  C   C83       1.0  0.76724  0.21855  0.49543  1.0000
  C   C84       1.0  0.46991  0.02834  0.46607  1.0000
  C   C85       1.0  0.48578  0.05324  0.47978  1.0000
  C   C86       1.0  0.43952  0.02983  0.43588  1.0000
  C   C87       1.0  0.36701  0.13487  0.33473  1.0000
  C   C88       1.0  0.26215  0.78213  0.49186  1.0000
  C   C89       1.0  0.26999  0.75172  0.59679  1.0000
  C   C90       1.0  0.25213  0.72652  0.61845  1.0000
  C   C91       1.0  0.92460  0.49999  0.50259  1.0000
  C   C92       1.0  0.98533  0.50082  0.50144  1.0000
  C   C93       1.0  0.03237  0.47599  0.48889  1.0000
  C   C94       1.0  0.01658  0.45217  0.46065  1.0000
  C   C95       1.0  0.06320  0.47618  0.49602  1.0000
  C   C96       1.0  0.13493  0.37362  0.53240  1.0000
  C   C97       1.0  0.22473  0.72960  0.53914  1.0000
  C   C98       1.0  0.21616  0.75990  0.43472  1.0000
  C   C99       1.0  0.23476  0.78516  0.41202  1.0000
  C   C100      1.0  0.53116  0.97131  0.53883  1.0000
  C   C101      1.0  0.51616  0.94821  0.49932  1.0000
  C   C102      1.0  0.56102  0.96865  0.58379  1.0000
  C   C103      1.0  0.63011  0.86194  0.66938  1.0000
  C   C104      1.0  0.73693  0.22025  0.51350  1.0000
  C   C105      1.0  0.72695  0.24849  0.51223  1.0000
  C   C106      1.0  0.74574  0.27270  0.49842  1.0000
  C   C107      1.0  0.07719  0.50217  0.50055  1.0000
  C   C108      1.0  0.01646  0.50123  0.50182  1.0000
  C   C109      1.0  0.53115  0.02416  0.53873  1.0000
  C   C110      1.0  0.51497  0.05148  0.51020  1.0000
  C   C111      1.0  0.56147  0.02147  0.57668  1.0000
  C   C112      1.0  0.63628  0.11933  0.58562  1.0000
  C   C113      1.0  0.72453  0.76345  0.60420  1.0000
  C   C114      1.0  0.71510  0.73282  0.64826  1.0000
  C   C115      1.0  0.73448  0.71057  0.63071  1.0000
  C   C116      1.0  0.03150  0.52681  0.51595  1.0000
  C   C117      1.0  0.01475  0.54989  0.54742  1.0000
  C   C118      1.0  0.06239  0.52769  0.50733  1.0000
  C   C119      1.0  0.13208  0.63038  0.49148  1.0000
  C   C120      1.0  0.23075  0.27964  0.41694  1.0000
  C   C121      1.0  0.22206  0.25068  0.42398  1.0000
  C   C122      1.0  0.24205  0.22800  0.42711  1.0000
  C   C123      1.0  0.57507  0.99360  0.60030  1.0000
  C   C124      1.0  0.51590  0.99877  0.52224  1.0000
  C   C125      1.0  0.47029  0.97539  0.46983  1.0000
  C   C126      1.0  0.48707  0.95014  0.46596  1.0000
  C   C127      1.0  0.43957  0.97658  0.45183  1.0000
  C   C128      1.0  0.36230  0.87729  0.50506  1.0000
  C   C129      1.0  0.27230  0.23228  0.42372  1.0000
  C   C130      1.0  0.28166  0.26105  0.42032  1.0000
  C   C131      1.0  0.26098  0.28359  0.41811  1.0000
  C   C132      1.0  0.97022  0.47509  0.48991  1.0000
  C   C133      1.0  0.98690  0.45174  0.46112  1.0000
  C   C134      1.0  0.93934  0.47423  0.49963  1.0000
  C   C135      1.0  0.86795  0.37029  0.55977  1.0000
  C   C136      1.0  0.76351  0.71670  0.57018  1.0000
  C   C137      1.0  0.77209  0.74739  0.52458  1.0000
  C   C138      1.0  0.75346  0.76959  0.54174  1.0000
  C   C139      1.0  0.42530  0.00377  0.43492  1.0000
  C   C140      1.0  0.48537  0.00087  0.48558  1.0000
  C   C141      1.0  0.19429  0.79997  0.25157  1.0000
  C   C142      1.0  0.63769  0.67781  0.73877  1.0000
  C   C143      1.0  0.66792  0.66604  0.80527  1.0000
  C   C144      1.0  0.81304  0.20681  0.45314  1.0000
  C   C145      1.0  0.35960  0.30624  0.46893  1.0000
  C   C146      1.0  0.32909  0.31870  0.46910  1.0000
  C   C147      1.0  0.30608  0.29869  0.44117  1.0000
  C   C148      1.0  0.86684  0.20420  0.41215  1.0000
  C   C149      1.0  0.83754  0.18909  0.41516  1.0000
  C   C150      1.0  0.69073  0.69049  0.72912  1.0000
  C   C151      1.0  0.14410  0.80734  0.12353  1.0000
  C   C152      1.0  0.17420  0.82111  0.11541  1.0000
  N   N1        1.0  0.84303  0.62675  0.05691  1.0000
  N   N2        1.0  0.34508  0.13366  0.95705  1.0000
  N   N3        1.0  0.15433  0.37664  0.92091  1.0000
  N   N4        1.0  0.65720  0.86804  0.10216  1.0000
  N   N5        1.0  0.66060  0.12351  0.05700  1.0000
  N   N6        1.0  0.15517  0.62801  0.07089  1.0000
  N   N7        1.0  0.34131  0.87927  0.92891  1.0000
  N   N8        1.0  0.84955  0.37049  0.95266  1.0000
  N   N9        1.0  0.19235  0.77160  0.83157  1.0000
  N   N10       1.0  0.22251  0.81095  0.79450  1.0000
  N   N11       1.0  0.81449  0.23158  0.96308  1.0000
  N   N12       1.0  0.78199  0.19496  0.98248  1.0000
  N   N13       1.0  0.30917  0.27143  0.92908  1.0000
  N   N14       1.0  0.27785  0.30754  0.93510  1.0000
  N   N15       1.0  0.68924  0.72378  0.21066  1.0000
  N   N16       1.0  0.71837  0.68799  0.17718  1.0000
  N   N17       1.0  0.84299  0.62401  0.56384  1.0000
  N   N18       1.0  0.34597  0.13332  0.44719  1.0000
  N   N19       1.0  0.15563  0.37635  0.41546  1.0000
  N   N20       1.0  0.65612  0.86437  0.60283  1.0000
  N   N21       1.0  0.66407  0.11948  0.56058  1.0000
  N   N22       1.0  0.15653  0.62675  0.57375  1.0000
  N   N23       1.0  0.33814  0.88194  0.41880  1.0000
  N   N24       1.0  0.84697  0.37223  0.45011  1.0000
  N   N25       1.0  0.19111  0.77002  0.33442  1.0000
  N   N26       1.0  0.22014  0.81041  0.29342  1.0000
  N   N27       1.0  0.81501  0.23439  0.45899  1.0000
  N   N28       1.0  0.78481  0.19599  0.47651  1.0000
  N   N29       1.0  0.30957  0.27139  0.43304  1.0000
  N   N30       1.0  0.27729  0.30734  0.43010  1.0000
  N   N31       1.0  0.68808  0.71937  0.71156  1.0000
  N   N32       1.0  0.71812  0.68378  0.68377  1.0000
  O   O1        1.0  0.67639  0.64382  0.26684  1.0000
  O   O2        1.0  0.33176  0.34622  0.82258  1.0000
  O   O3        1.0  0.82803  0.15324  0.04856  1.0000
  O   O4        1.0  0.17254  0.85004  0.66998  1.0000
  O   O5        1.0  0.67640  0.64022  0.75702  1.0000
  O   O6        1.0  0.32524  0.34922  0.32858  1.0000
  O   O7        1.0  0.83599  0.15783  0.55072  1.0000
  O   O8        1.0  0.17366  0.85002  0.14292  1.0000
  C   C153      1.0  0.88772  0.55246  0.11825  1.0000
  C   C154      1.0  0.91217  0.55149  0.01475  1.0000
  C  Sn1       1.0  0.92064  0.51386  0.88310  1.0000
  C  Sn2       1.0  0.90702  0.54231  0.85489  1.0000
  C   C155      1.0  0.88258  0.54304  0.95922  1.0000
  C   C156      1.0  0.87428  0.58051  0.09056  1.0000
  H   H105      1.0  0.87923  0.53147  0.21994  1.0000
  O  Te1       1.0  0.94508  0.51247  0.78084  1.0000
  O  Te2       1.0  0.91772  0.56962  0.72426  1.0000
  H   H106      1.0  0.85536  0.58128  0.17076  1.0000
  Mg  Mg1       1.0  0.95155  0.55591  0.61897  1.0000
  C   C157      1.0  0.21328  0.34456  0.79124  1.0000
  C   C158      1.0  0.21288  0.31306  0.89511  1.0000
  C  Sn3       1.0  0.19248  0.36454  0.01529  1.0000
  C  Sn4       1.0  0.16939  0.38334  0.03145  1.0000
  C   C159      1.0  0.16729  0.35022  0.92684  1.0000
  C   C160      1.0  0.19050  0.36312  0.80704  1.0000
  H   H107      1.0  0.23123  0.35454  0.69847  1.0000
  O  Te3       1.0  0.19244  0.33303  0.11810  1.0000
  O  Te4       1.0  0.14604  0.37081  0.15047  1.0000
  H   H108      1.0  0.19079  0.38751  0.72655  1.0000
  Mg  Mg2       1.0  0.15583  0.32667  0.26152  1.0000
  C   C161      1.0  0.38862  0.05775  0.03512  1.0000
  C   C162      1.0  0.40988  0.99107  0.93076  1.0000
  C  Sn5       1.0  0.42042  0.01719  0.78930  1.0000
  C  Sn6       1.0  0.40669  0.04589  0.75197  1.0000
  C   C163      1.0  0.38276  0.04772  0.85725  1.0000
  C   C164      1.0  0.37238  0.02144  0.99844  1.0000
  H   H109      1.0  0.38060  0.03742  0.14443  1.0000
  O  Te5       1.0  0.44436  0.01472  0.68633  1.0000
  O  Te6       1.0  0.41678  0.07236  0.61144  1.0000
  H   H110      1.0  0.35654  0.08765  0.07929  1.0000
  Mg  Mg3       1.0  0.45008  0.05730  0.50922  1.0000
  C   C165      1.0  0.66991  0.79557  0.08554  1.0000
  C   C166      1.0  0.70001  0.79206  0.10070  1.0000
  C  Sn7       1.0  0.71699  0.81409  0.13135  1.0000
  C  Sn8       1.0  0.70352  0.84008  0.14711  1.0000
  C   C167      1.0  0.67339  0.84337  0.13186  1.0000
  C   C168      1.0  0.65661  0.82119  0.10113  1.0000
  H   H111      1.0  0.65693  0.77841  0.06186  1.0000
  O  Te7       1.0  0.74703  0.81024  0.14609  1.0000
  O  Te8       1.0  0.71997  0.86244  0.17781  1.0000
  H   H112      1.0  0.63331  0.82391  0.08951  1.0000
  Mg  Mg4       1.0  0.76016  0.84695  0.18797  1.0000
  C   C169      1.0  0.12123  0.43813  0.88607  1.0000
  C   C170      1.0  0.12155  0.47198  0.00341  1.0000
  C  Sn9       1.0  0.09811  0.46213  0.12528  1.0000
  C  Sn10      1.0  0.07667  0.48352  0.12940  1.0000
  C   C171      1.0  0.07922  0.51424  0.01137  1.0000
  C   C172      1.0  0.10008  0.45924  0.89000  1.0000
  H   H113      1.0  0.13943  0.44557  0.79209  1.0000
  O  Te9       1.0  0.09609  0.43132  0.24162  1.0000
  O  Te10      1.0  0.05302  0.47429  0.24981  1.0000
  H   H114      1.0  0.10189  0.48305  0.79908  1.0000
  Mg  Mg5       1.0  0.05983  0.42985  0.38150  1.0000
  C   C173      1.0  0.79540  0.64570  0.19622  1.0000
  C   C174      1.0  0.81771  0.64835  0.07042  1.0000
  C  Sn11      1.0  0.82169  0.61225  0.93500  1.0000
  C  Sn12      1.0  0.80570  0.63855  0.92571  1.0000
  C   C175      1.0  0.78611  0.70027  0.05228  1.0000
  C   C176      1.0  0.77962  0.67163  0.18720  1.0000
  H   H115      1.0  0.79038  0.62355  0.30068  1.0000
  O  Te11      1.0  0.84404  0.61448  0.81036  1.0000
  O  Te12      1.0  0.81191  0.66731  0.79179  1.0000
  H   H116      1.0  0.76235  0.66960  0.28465  1.0000
  Mg  Mg6       1.0  0.84435  0.65867  0.65278  1.0000
  C   C177      1.0  0.62163  0.93059  0.01467  1.0000
  C   C178      1.0  0.61724  0.89986  0.12781  1.0000
  C  Sn13      1.0  0.59173  0.89080  0.23166  1.0000
  C  Sn14      1.0  0.57024  0.91298  0.22173  1.0000
  C   C179      1.0  0.57483  0.94366  0.10804  1.0000
  C   C180      1.0  0.60045  0.95247  0.00475  1.0000
  H   H117      1.0  0.63876  0.87281  0.93467  1.0000
  O  Te13      1.0  0.58769  0.86000  0.34404  1.0000
  O  Te14      1.0  0.54454  0.90455  0.32401  1.0000
  H   H118      1.0  0.60115  0.91167  0.91707  1.0000
  Mg  Mg7       1.0  0.54907  0.85979  0.45714  1.0000
  C   C181      1.0  0.29496  0.15638  0.05283  1.0000
  C   C182      1.0  0.31838  0.09270  0.95924  1.0000
  C  Sn15      1.0  0.33040  0.12081  0.84622  1.0000
  C  Sn16      1.0  0.31597  0.14849  0.82685  1.0000
  C   C183      1.0  0.28987  0.14733  0.92116  1.0000
  C   C184      1.0  0.28072  0.18367  0.03385  1.0000
  H   H119      1.0  0.28580  0.13452  0.14010  1.0000
  O  Te15      1.0  0.35649  0.12131  0.75366  1.0000
  O  Te16      1.0  0.32751  0.17690  0.71484  1.0000
  H   H120      1.0  0.26052  0.18297  0.10639  1.0000
  Mg  Mg8       1.0  0.36357  0.16569  0.61690  1.0000
  C   C185      1.0  0.56875  0.07908  0.16367  1.0000
  C   C186      1.0  0.57488  0.05510  0.10657  1.0000
  C  Sn17      1.0  0.60241  0.05265  0.03744  1.0000
  C  Sn18      1.0  0.62417  0.07464  0.02546  1.0000
  C   C187      1.0  0.61782  0.09854  0.08306  1.0000
  C   C188      1.0  0.59020  0.10078  0.15197  1.0000
  H   H121      1.0  0.54738  0.08080  0.21708  1.0000
  O  Te17      1.0  0.60548  0.96395  0.98094  1.0000
  O  Te18      1.0  0.64919  0.00813  0.95696  1.0000
  H   H122      1.0  0.58546  0.11934  0.19628  1.0000
  Mg  Mg9       1.0  0.64652  0.97113  0.89723  1.0000
  C   C189      1.0  0.32196  0.80623  0.94368  1.0000
  C   C190      1.0  0.29188  0.80477  0.97188  1.0000
  C  Sn19      1.0  0.27685  0.83008  0.97888  1.0000
  C  Sn20      1.0  0.29227  0.85733  0.95716  1.0000
  C   C191      1.0  0.32236  0.85856  0.92888  1.0000
  C   C192      1.0  0.33719  0.83310  0.92216  1.0000
  H   H123      1.0  0.33343  0.78653  0.93838  1.0000
  O  Te19      1.0  0.24949  0.89283  0.00723  1.0000
  O  Te20      1.0  0.27779  0.88296  0.96350  1.0000
  H   H124      1.0  0.36047  0.83424  0.90021  1.0000
  Mg  Mg10      1.0  0.23945  0.93384  0.00530  1.0000
  C   C193      1.0  0.08176  0.60724  0.87217  1.0000
  C   C194      1.0  0.10591  0.60758  0.97510  1.0000
  C  Sn21      1.0  0.12060  0.64466  0.09214  1.0000
  C  Sn22      1.0  0.10816  0.61631  0.10606  1.0000
  C   C195      1.0  0.08402  0.61622  0.00242  1.0000
  C   C196      1.0  0.06949  0.57929  0.88578  1.0000
  H   H125      1.0  0.07260  0.62865  0.78185  1.0000
  O  Te21      1.0  0.14472  0.64541  0.19403  1.0000
  O  Te22      1.0  0.11974  0.58847  0.22192  1.0000
  H   H126      1.0  0.05080  0.57902  0.80602  1.0000
  Mg  Mg11      1.0  0.15269  0.60140  0.33288  1.0000
  C   C197      1.0  0.79005  0.33406  0.87114  1.0000
  C   C198      1.0  0.79544  0.30253  0.94560  1.0000
  C  Sn23      1.0  0.82357  0.35600  0.04109  1.0000
  C  Sn24      1.0  0.84395  0.37688  0.06226  1.0000
  C   C199      1.0  0.83566  0.34377  0.98737  1.0000
  C   C200      1.0  0.81013  0.35466  0.89202  1.0000
  H   H127      1.0  0.77029  0.34248  0.79745  1.0000
  O  Te23      1.0  0.82862  0.32444  0.11455  1.0000
  O  Te24      1.0  0.86954  0.36638  0.15712  1.0000
  H   H128      1.0  0.80595  0.37907  0.83449  1.0000
  Mg  Mg12      1.0  0.86666  0.32129  0.23232  1.0000
  C   C201      1.0  0.42596  0.91216  0.11100  1.0000
  C   C202      1.0  0.42218  0.87802  0.98827  1.0000
  C  Sn25      1.0  0.39951  0.88784  0.86544  1.0000
  C  Sn26      1.0  0.37757  0.86672  0.86583  1.0000
  C   C203      1.0  0.37885  0.83631  0.98923  1.0000
  C   C204      1.0  0.40432  0.89132  0.11152  1.0000
  H   H129      1.0  0.44357  0.90474  0.20569  1.0000
  O  Te25      1.0  0.39875  0.91835  0.74370  1.0000
  O  Te26      1.0  0.35466  0.87593  0.74457  1.0000
  H   H130      1.0  0.40515  0.86774  0.20660  1.0000
  Mg  Mg13      1.0  0.36314  0.91991  0.60477  1.0000
  C   C205      1.0  0.71071  0.14465  0.16051  1.0000
  C   C206      1.0  0.68400  0.14620  0.07703  1.0000
  C  Sn27      1.0  0.67056  0.10984  0.96047  1.0000
  C  Sn28      1.0  0.68691  0.13700  0.92708  1.0000
  C   C207      1.0  0.71630  0.19981  0.01115  1.0000
  C   C208      1.0  0.72685  0.17143  0.12759  1.0000
  H   H131      1.0  0.71889  0.12269  0.25053  1.0000
  O  Te27      1.0  0.64383  0.11098  0.87825  1.0000
  O  Te28      1.0  0.67668  0.16553  0.81113  1.0000
  H   H132      1.0  0.74754  0.17024  0.19211  1.0000
  Mg  Mg14      1.0  0.63905  0.15527  0.73109  1.0000
  C   C209      1.0  0.88028  0.43391  0.90722  1.0000
  C   C210      1.0  0.88801  0.46751  0.00988  1.0000
  C  Sn29      1.0  0.91147  0.45880  0.12718  1.0000
  C  Sn30      1.0  0.93018  0.48160  0.14173  1.0000
  C   C211      1.0  0.92494  0.51256  0.03854  1.0000
  C   C212      1.0  0.89872  0.45641  0.92154  1.0000
  H   H133      1.0  0.86206  0.44046  0.81677  1.0000
  O  Te29      1.0  0.91620  0.42772  0.22871  1.0000
  O  Te30      1.0  0.95378  0.47353  0.25796  1.0000
  H   H134      1.0  0.89481  0.48042  0.84217  1.0000
  Mg  Mg15      1.0  0.95124  0.42818  0.36817  1.0000
  C   C213      1.0  0.15940  0.68773  0.08095  1.0000
  C   C214      1.0  0.16720  0.66069  0.05878  1.0000
  C  Sn31      1.0  0.19640  0.65427  0.03931  1.0000
  C  Sn32      1.0  0.21814  0.67536  0.04220  1.0000
  C   C215      1.0  0.21012  0.70233  0.06458  1.0000
  C   C216      1.0  0.18084  0.70853  0.08388  1.0000
  H   H135      1.0  0.13675  0.69252  0.09599  1.0000
  O  Te31      1.0  0.20381  0.62715  0.01722  1.0000
  O  Te32      1.0  0.24749  0.66951  0.02311  1.0000
  H   H136      1.0  0.17481  0.72946  0.10116  1.0000
  Mg  Mg16      1.0  0.24404  0.56483  0.99650  1.0000
  C   C217      1.0  0.92522  0.59070  0.34861  1.0000
  C   C218      1.0  0.92388  0.56033  0.47286  1.0000
  C  Sn33      1.0  0.90040  0.55027  0.59422  1.0000
  C  Sn34      1.0  0.87787  0.57105  0.59076  1.0000
  C   C219      1.0  0.87941  0.60138  0.46584  1.0000
  C   C220      1.0  0.90301  0.61121  0.34506  1.0000
  H   H137      1.0  0.94348  0.59830  0.25508  1.0000
  O  Te33      1.0  0.89940  0.51985  0.71752  1.0000
  O  Te34      1.0  0.85415  0.56160  0.71047  1.0000
  H   H138      1.0  0.90403  0.63472  0.24879  1.0000
  Mg  Mg17      1.0  0.86261  0.51787  0.85338  1.0000
  C   C221      1.0  0.21397  0.34322  0.28741  1.0000
  C   C222      1.0  0.21312  0.31174  0.39147  1.0000
  C  Sn35      1.0  0.18989  0.29902  0.51136  1.0000
  C  Sn36      1.0  0.16714  0.31824  0.52703  1.0000
  C   C223      1.0  0.16819  0.34970  0.42224  1.0000
  C   C224      1.0  0.19153  0.36219  0.30273  1.0000
  H   H139      1.0  0.23203  0.35288  0.19487  1.0000
  O  Te35      1.0  0.18938  0.26752  0.61436  1.0000
  O  Te36      1.0  0.14367  0.30613  0.64575  1.0000
  H   H140      1.0  0.19218  0.38656  0.22210  1.0000
  Mg  Mg18      1.0  0.15278  0.26182  0.75722  1.0000
  C   C225      1.0  0.37874  0.07044  0.50813  1.0000
  C   C226      1.0  0.38342  0.10131  0.39856  1.0000
  C  Sn37      1.0  0.40768  0.11006  0.28276  1.0000
  C  Sn38      1.0  0.42758  0.08744  0.27681  1.0000
  C   C227      1.0  0.42270  0.05662  0.38688  1.0000
  C   C228      1.0  0.39836  0.04812  0.50230  1.0000
  H   H141      1.0  0.35990  0.06386  0.59737  1.0000
  O  Te37      1.0  0.41203  0.14100  0.17424  1.0000
  O  Te38      1.0  0.45200  0.09555  0.16226  1.0000
  H   H142      1.0  0.39473  0.02421  0.58704  1.0000
  Mg  Mg19      1.0  0.44852  0.14067  0.04038  1.0000
  C   C229      1.0  0.66848  0.79211  0.58203  1.0000
  C   C230      1.0  0.69851  0.78829  0.60026  1.0000
  C  Sn39      1.0  0.71546  0.80996  0.63467  1.0000
  C  Sn40      1.0  0.70203  0.83591  0.65113  1.0000
  C   C231      1.0  0.67197  0.83952  0.63279  1.0000
  C   C232      1.0  0.65521  0.81770  0.59830  1.0000
  H   H143      1.0  0.65551  0.77522  0.55544  1.0000
  O  Te39      1.0  0.74544  0.80578  0.65244  1.0000
  O  Te40      1.0  0.71845  0.85791  0.68557  1.0000
  H   H144      1.0  0.63196  0.82066  0.58431  1.0000
  Mg  Mg20      1.0  0.75855  0.84208  0.69890  1.0000
  C   C233      1.0  0.11367  0.45148  0.38254  1.0000
  C   C234      1.0  0.08722  0.45145  0.47089  1.0000
  C  Sn41      1.0  0.07594  0.42412  0.59844  1.0000
  C  Sn42      1.0  0.09147  0.39635  0.63804  1.0000
  C   C235      1.0  0.11792  0.39663  0.54901  1.0000
  C   C236      1.0  0.12901  0.42411  0.42156  1.0000
  H   H145      1.0  0.12226  0.47274  0.28400  1.0000
  O  Te41      1.0  0.04949  0.42450  0.68541  1.0000
  O  Te42      1.0  0.08070  0.36872  0.76498  1.0000
  H   H146      1.0  0.14949  0.42413  0.35327  1.0000
  Mg  Mg21      1.0  0.04374  0.38097  0.84783  1.0000
  C   C237      1.0  0.79553  0.64265  0.70672  1.0000
  C   C238      1.0  0.81758  0.64526  0.57936  1.0000
  C  Sn43      1.0  0.82392  0.67369  0.44231  1.0000
  C  Sn44      1.0  0.80786  0.69996  0.43299  1.0000
  C   C239      1.0  0.78586  0.69710  0.56113  1.0000
  C   C240      1.0  0.77969  0.66854  0.69767  1.0000
  H   H147      1.0  0.79077  0.62055  0.81242  1.0000
  O  Te43      1.0  0.84601  0.67589  0.31612  1.0000
  O  Te44      1.0  0.81375  0.72865  0.29748  1.0000
  H   H148      1.0  0.76263  0.66653  0.79633  1.0000
  Mg  Mg22      1.0  0.84591  0.71999  0.15670  1.0000
  C   C241      1.0  0.61269  0.94087  0.51309  1.0000
  C   C242      1.0  0.58476  0.94223  0.58048  1.0000
  C  Sn45      1.0  0.57084  0.91547  0.69627  1.0000
  C  Sn46      1.0  0.58521  0.88685  0.74530  1.0000
  C   C243      1.0  0.61316  0.88574  0.67725  1.0000
  C   C244      1.0  0.62689  0.91266  0.56143  1.0000
  H   H149      1.0  0.62332  0.96170  0.42356  1.0000
  O  Te45      1.0  0.54292  0.91724  0.76232  1.0000
  O  Te46      1.0  0.57180  0.85975  0.86085  1.0000
  H   H150      1.0  0.64852  0.91160  0.50937  1.0000
  Mg  Mg23      1.0  0.53367  0.87396  0.91568  1.0000
  C   C245      1.0  0.28771  0.16858  0.56057  1.0000
  C   C246      1.0  0.29076  0.20019  0.46477  1.0000
  C  Sn47      1.0  0.31355  0.21173  0.33956  1.0000
  C  Sn48      1.0  0.33363  0.19118  0.30996  1.0000
  C   C247      1.0  0.33039  0.15959  0.40639  1.0000
  C   C248      1.0  0.30750  0.14829  0.53141  1.0000
  H   H151      1.0  0.27000  0.15983  0.65723  1.0000
  O  Te47      1.0  0.31628  0.24337  0.24505  1.0000
  O  Te48      1.0  0.35661  0.20209  0.18556  1.0000
  H   H152      1.0  0.30514  0.12382  0.60547  1.0000
  Mg  Mg24      1.0  0.35119  0.24714  0.08982  1.0000
  C   C249      1.0  0.61634  0.05283  0.50722  1.0000
  C   C250      1.0  0.58804  0.04569  0.57613  1.0000
  C  Sn49      1.0  0.57360  0.06444  0.64987  1.0000
  C  Sn50      1.0  0.58781  0.09081  0.65448  1.0000
  C   C251      1.0  0.61612  0.09776  0.58508  1.0000
  C   C252      1.0  0.63037  0.07884  0.51165  1.0000
  H   H153      1.0  0.62737  0.03820  0.45031  1.0000
  O  Te49      1.0  0.54533  0.05697  0.71819  1.0000
  O  Te50      1.0  0.57388  0.10994  0.72735  1.0000
  H   H154      1.0  0.65228  0.08438  0.45820  1.0000
  Mg  Mg25      1.0  0.53541  0.09014  0.80377  1.0000
  C   C253      1.0  0.32988  0.82033  0.44897  1.0000
  C   C254      1.0  0.32362  0.85049  0.42862  1.0000
  C  Sn51      1.0  0.29488  0.85956  0.43547  1.0000
  C  Sn52      1.0  0.27203  0.83800  0.46326  1.0000
  C   C255      1.0  0.27853  0.80789  0.48359  1.0000
  C   C256      1.0  0.30737  0.79905  0.47646  1.0000
  H   H155      1.0  0.35220  0.81349  0.44355  1.0000
  O  Te51      1.0  0.28900  0.88978  0.41482  1.0000
  O  Te52      1.0  0.24311  0.84646  0.47074  1.0000
  H   H156      1.0  0.31221  0.77570  0.49234  1.0000
  Mg  Mg26      1.0  0.24610  0.89030  0.43518  1.0000
  C   C257      1.0  0.07268  0.59319  0.38450  1.0000
  C   C258      1.0  0.07804  0.56177  0.46916  1.0000
  C  Sn53      1.0  0.10200  0.55138  0.58097  1.0000
  C  Sn54      1.0  0.12090  0.57290  0.60830  1.0000
  C   C259      1.0  0.11533  0.60430  0.52308  1.0000
  C   C260      1.0  0.09130  0.61444  0.41144  1.0000
  H   H157      1.0  0.05407  0.60105  0.29819  1.0000
  O  Te53      1.0  0.10705  0.51989  0.66446  1.0000
  O  Te54      1.0  0.14500  0.56315  0.71940  1.0000
  H   H158      1.0  0.08714  0.63878  0.34600  1.0000
  Mg  Mg27      1.0  0.14274  0.51788  0.80348  1.0000
  C   C261      1.0  0.82836  0.29384  0.58076  1.0000
  C   C262      1.0  0.80135  0.29469  0.50182  1.0000
  C  Sn55      1.0  0.78951  0.32270  0.39007  1.0000
  C  Sn56      1.0  0.80505  0.35033  0.35695  1.0000
  C   C263      1.0  0.83206  0.34924  0.43645  1.0000
  C   C264      1.0  0.84371  0.32108  0.54810  1.0000
  H   H159      1.0  0.83738  0.27205  0.66707  1.0000
  O  Te55      1.0  0.76249  0.32313  0.31234  1.0000
  O  Te56      1.0  0.79372  0.37864  0.24576  1.0000
  H   H160      1.0  0.86463  0.32043  0.60911  1.0000
  Mg  Mg28      1.0  0.75612  0.36737  0.17076  1.0000
  C   C265      1.0  0.41436  0.89894  0.60596  1.0000
  C   C266      1.0  0.38814  0.90013  0.51796  1.0000
  C  Sn57      1.0  0.37872  0.92776  0.38701  1.0000
  C  Sn58      1.0  0.39592  0.95464  0.34360  1.0000
  C   C267      1.0  0.42213  0.95320  0.43231  1.0000
  C   C268      1.0  0.43134  0.92544  0.56317  1.0000
  H   H161      1.0  0.42150  0.87745  0.70714  1.0000
  O  Te57      1.0  0.35246  0.92855  0.30044  1.0000
  O  Te58      1.0  0.38703  0.98255  0.21321  1.0000
  H   H162      1.0  0.45166  0.92451  0.63120  1.0000
  Mg  Mg29      1.0  0.34958  0.97202  0.13245  1.0000
  C   C269      1.0  0.67356  0.18382  0.43735  1.0000
  C   C270      1.0  0.67825  0.15228  0.52339  1.0000
  C  Sn59      1.0  0.70300  0.14144  0.62701  1.0000
  C  Sn60      1.0  0.72339  0.16263  0.64461  1.0000
  C   C271      1.0  0.71849  0.19413  0.55810  1.0000
  C   C272      1.0  0.69365  0.20472  0.45470  1.0000
  H   H163      1.0  0.65433  0.19202  0.35743  1.0000
  O  Te59      1.0  0.70736  0.10986  0.71201  1.0000
  O  Te60      1.0  0.74831  0.15242  0.74740  1.0000
  H   H164      1.0  0.69002  0.22914  0.38820  1.0000
  Mg  Mg30      1.0  0.74463  0.10718  0.83735  1.0000
  C   C273      1.0  0.92707  0.40917  0.65431  1.0000
  C   C274      1.0  0.92523  0.43964  0.53247  1.0000
  C  Sn61      1.0  0.90184  0.44915  0.41505  1.0000
  C  Sn62      1.0  0.87992  0.42772  0.42006  1.0000
  C   C275      1.0  0.88195  0.39730  0.54254  1.0000
  C   C276      1.0  0.90546  0.38802  0.65939  1.0000
  H   H165      1.0  0.94525  0.40200  0.74480  1.0000
  O  Te61      1.0  0.90033  0.47967  0.29411  1.0000
  O  Te62      1.0  0.85630  0.43661  0.30426  1.0000
  H   H166      1.0  0.90687  0.36444  0.75379  1.0000
  Mg  Mg31      1.0  0.86391  0.48074  0.16341  1.0000
  C   C277      1.0  0.15978  0.68640  0.58432  1.0000
  C   C278      1.0  0.16813  0.65954  0.56177  1.0000
  C  Sn63      1.0  0.19747  0.65367  0.54227  1.0000
  C  Sn64      1.0  0.21880  0.67513  0.54551  1.0000
  C   C279      1.0  0.21022  0.70192  0.56827  1.0000
  C   C280      1.0  0.18080  0.70757  0.58760  1.0000
  H   H167      1.0  0.13702  0.69076  0.59938  1.0000
  O  Te63      1.0  0.20544  0.62672  0.51980  1.0000
  O  Te64      1.0  0.24828  0.66983  0.52639  1.0000
  H   H168      1.0  0.17434  0.72836  0.60518  1.0000
  Mg  Mg32      1.0  0.24833  0.62979  0.49920  1.0000
