data_image0
_chemical_formula_structural       H168C248N32O8SnCSn2CSnTe4Mg2SnCSn2CSnTe4Mg2SnCSn2CSnTe4Mg2SnCSn2CSnTe4Mg2SnCSn2CSnTe4Mg2SnCSn2CSnTe4Mg2SnCSn2CSnTe4Mg2SnCSn2CSnTe4Mg2SnCSn2CSnTe4Mg2SnCSn2CSnTe4Mg2SnCSn2CSnTe4Mg2SnCSn2CSnTe4Mg2SnCSn2CSnTe4Mg2SnCSn2CSnTe4Mg2SnCSn2CSnTe4Mg2SnCSn2CSnTe4Mg2
_chemical_formula_sum              "H168 C280 N32 O8 Sn64 Te64 Mg32"
_cell_length_a       46.0604
_cell_length_b       47.13
_cell_length_c       7.98833
_cell_angle_alpha    67.5932
_cell_angle_beta     89.0731
_cell_angle_gamma    89.8949

_symmetry_space_group_name_H-M    'P1'
_space_group_IT_number       1

loop_
  _space_group_symop_operation_xyz
  'x, y, z'

loop_
  _atom_site_type_symbol
  _atom_site_label
  _atom_site_symmetry_multiplicity
  _atom_site_fract_x
  _atom_site_fract_y
  _atom_site_fract_z
  _atom_site_occupancy
  H   H1        1.0  0.97207  0.56808  0.07275  1.0000
  H   H2        1.0  0.94601  0.58686  0.78707  1.0000
  H   H3        1.0  0.91421  0.63081  0.75843  1.0000
  H   H4        1.0  0.85669  0.57088  0.16909  1.0000
  H   H5        1.0  0.88833  0.52656  0.19601  1.0000
  H   H6        1.0  0.87104  0.65187  0.83926  1.0000
  H   H7        1.0  0.14605  0.31373  0.11366  1.0000
  H   H8        1.0  0.18005  0.27383  0.10705  1.0000
  H   H9        1.0  0.23434  0.34267  0.71978  1.0000
  H   H10       1.0  0.20019  0.38303  0.72911  1.0000
  H   H11       1.0  0.47259  0.07606  0.95397  1.0000
  H   H12       1.0  0.44553  0.08943  0.68957  1.0000
  H   H13       1.0  0.41334  0.13374  0.64670  1.0000
  H   H14       1.0  0.35773  0.07695  0.08141  1.0000
  H   H15       1.0  0.38950  0.03211  0.12105  1.0000
  H   H16       1.0  0.36971  0.15559  0.71817  1.0000
  H   H17       1.0  0.63735  0.81736  0.05588  1.0000
  H   H18       1.0  0.66758  0.77352  0.06008  1.0000
  H   H19       1.0  0.74263  0.81667  0.17486  1.0000
  H   H20       1.0  0.71242  0.86094  0.16440  1.0000
  H   H21       1.0  0.29177  0.74589  0.16413  1.0000
  H   H22       1.0  0.25934  0.70274  0.19826  1.0000
  H   H23       1.0  0.90006  0.50015  0.00593  1.0000
  H   H24       1.0  0.02783  0.43527  0.93512  1.0000
  H   H25       1.0  0.12780  0.35169  0.14638  1.0000
  H   H26       1.0  0.52940  0.93171  0.98755  1.0000
  H   H27       1.0  0.62138  0.84299  0.24809  1.0000
  H   H28       1.0  0.35690  0.19528  0.76366  1.0000
  H   H29       1.0  0.32424  0.23758  0.74659  1.0000
  H   H30       1.0  0.26288  0.17297  0.10157  1.0000
  H   H31       1.0  0.29611  0.13017  0.11970  1.0000
  H   H32       1.0  0.70438  0.25419  0.03531  1.0000
  H   H33       1.0  0.73962  0.29423  0.01887  1.0000
  H   H34       1.0  0.09989  0.50318  0.99983  1.0000
  H   H35       1.0  0.52424  0.07408  0.00568  1.0000
  H   H36       1.0  0.54626  0.06993  0.21354  1.0000
  H   H37       1.0  0.57664  0.11392  0.19140  1.0000
  H   H38       1.0  0.64762  0.07717  0.98398  1.0000
  H   H39       1.0  0.61609  0.03500  0.98313  1.0000
  H   H40       1.0  0.62219  0.14335  0.10264  1.0000
  H   H41       1.0  0.35683  0.82369  0.92488  1.0000
  H   H42       1.0  0.32254  0.78208  0.94384  1.0000
  H   H43       1.0  0.25100  0.83801  0.98226  1.0000
  H   H44       1.0  0.28534  0.88016  0.95480  1.0000
  H   H45       1.0  0.02515  0.56834  0.07806  1.0000
  H   H46       1.0  0.05183  0.58930  0.81236  1.0000
  H   H47       1.0  0.08150  0.63339  0.80673  1.0000
  H   H48       1.0  0.14096  0.57185  0.17914  1.0000
  H   H49       1.0  0.11084  0.52751  0.18842  1.0000
  H   H50       1.0  0.12235  0.65459  0.90683  1.0000
  H   H51       1.0  0.19825  0.24870  0.91257  1.0000
  H   H52       1.0  0.23232  0.20912  0.90576  1.0000
  H   H53       1.0  0.59669  0.99362  0.14734  1.0000
  H   H54       1.0  0.47720  0.93407  0.92959  1.0000
  H   H55       1.0  0.44623  0.91671  0.17610  1.0000
  H   H56       1.0  0.41451  0.87311  0.19990  1.0000
  H   H57       1.0  0.36003  0.93359  0.78489  1.0000
  H   H58       1.0  0.39267  0.97730  0.75441  1.0000
  H   H59       1.0  0.37225  0.85200  0.10765  1.0000
  H   H60       1.0  0.97461  0.43458  0.93511  1.0000
  H   H61       1.0  0.87432  0.34779  0.18418  1.0000
  H   H62       1.0  0.79562  0.75696  0.97678  1.0000
  H   H63       1.0  0.76364  0.79617  0.00517  1.0000
  H   H64       1.0  0.40111  0.00437  0.92393  1.0000
  H   H65       1.0  0.23037  0.83270  0.74680  1.0000
  H   H66       1.0  0.67795  0.62724  0.38443  1.0000
  H   H67       1.0  0.62152  0.66604  0.27889  1.0000
  H   H68       1.0  0.63945  0.68846  0.06984  1.0000
  H   H69       1.0  0.63361  0.70438  0.23577  1.0000
  H   H70       1.0  0.66660  0.66498  0.44654  1.0000
  H   H71       1.0  0.77410  0.17475  0.98449  1.0000
  H   H72       1.0  0.34040  0.36073  0.86703  1.0000
  H   H73       1.0  0.36464  0.29358  0.88447  1.0000
  H   H74       1.0  0.35836  0.27847  0.12279  1.0000
  H   H75       1.0  0.37706  0.31417  0.01711  1.0000
  H   H76       1.0  0.32530  0.32103  0.09854  1.0000
  H   H77       1.0  0.27032  0.32661  0.95115  1.0000
  H   H78       1.0  0.83654  0.13977  0.99445  1.0000
  H   H79       1.0  0.86679  0.21938  0.83004  1.0000
  H   H80       1.0  0.87983  0.18106  0.89381  1.0000
  H   H81       1.0  0.86878  0.19515  0.06280  1.0000
  H   H82       1.0  0.82955  0.18514  0.78258  1.0000
  H   H83       1.0  0.72354  0.66786  0.16597  1.0000
  H   H84       1.0  0.16384  0.86601  0.56668  1.0000
  H   H85       1.0  0.13585  0.80043  0.74354  1.0000
  H   H86       1.0  0.15048  0.78886  0.57210  1.0000
  H   H87       1.0  0.13325  0.82522  0.50968  1.0000
  H   H88       1.0  0.18633  0.83166  0.48382  1.0000
  H   H89       1.0  0.97292  0.56717  0.57323  1.0000
  H   H90       1.0  0.94652  0.58643  0.28802  1.0000
  H   H91       1.0  0.91365  0.62966  0.25915  1.0000
  H   H92       1.0  0.85725  0.56858  0.67276  1.0000
  H   H93       1.0  0.88971  0.52484  0.69703  1.0000
  H   H94       1.0  0.87004  0.64965  0.34203  1.0000
  H   H95       1.0  0.47427  0.07420  0.46443  1.0000
  H   H96       1.0  0.37272  0.15592  0.21826  1.0000
  H   H97       1.0  0.29039  0.74787  0.66854  1.0000
  H   H98       1.0  0.25938  0.70369  0.70415  1.0000
  H   H99       1.0  0.90100  0.49963  0.50417  1.0000
  H   H100      1.0  0.02865  0.43445  0.43431  1.0000
  H   H101      1.0  0.05524  0.41594  0.71029  1.0000
  H   H102      1.0  0.08678  0.37226  0.72993  1.0000
  H   H103      1.0  0.14347  0.43320  0.31758  1.0000
  H   H104      1.0  0.11236  0.47729  0.30258  1.0000
  H   H105      1.0  0.12949  0.35176  0.64365  1.0000
  H   H106      1.0  0.84479  0.68599  0.33248  1.0000
  H   H107      1.0  0.80912  0.72422  0.33772  1.0000
  H   H108      1.0  0.76521  0.65604  0.79309  1.0000
  H   H109      1.0  0.80015  0.61697  0.77898  1.0000
  H   H110      1.0  0.52854  0.92897  0.49348  1.0000
  H   H111      1.0  0.61998  0.83943  0.74526  1.0000
  H   H112      1.0  0.70374  0.25130  0.52750  1.0000
  H   H113      1.0  0.73660  0.29351  0.50553  1.0000
  H   H114      1.0  0.10079  0.50245  0.49974  1.0000
  H   H115      1.0  0.52607  0.07158  0.51220  1.0000
  H   H116      1.0  0.54948  0.06633  0.71674  1.0000
  H   H117      1.0  0.58107  0.10906  0.70198  1.0000
  H   H118      1.0  0.64983  0.07351  0.46909  1.0000
  H   H119      1.0  0.61701  0.03260  0.46303  1.0000
  H   H120      1.0  0.62541  0.13759  0.61703  1.0000
  H   H121      1.0  0.35417  0.82570  0.42917  1.0000
  H   H122      1.0  0.32044  0.78336  0.45500  1.0000
  H   H123      1.0  0.24800  0.84018  0.46606  1.0000
  H   H124      1.0  0.28181  0.88297  0.43250  1.0000
  H   H125      1.0  0.02603  0.56744  0.57857  1.0000
  H   H126      1.0  0.12379  0.65335  0.40961  1.0000
  H   H127      1.0  0.19896  0.24601  0.42215  1.0000
  H   H128      1.0  0.23395  0.20638  0.42651  1.0000
  H   H129      1.0  0.59774  0.99093  0.63829  1.0000
  H   H130      1.0  0.47645  0.93258  0.43143  1.0000
  H   H131      1.0  0.36845  0.85428  0.60056  1.0000
  H   H132      1.0  0.65265  0.17961  0.37501  1.0000
  H   H133      1.0  0.68477  0.22297  0.35427  1.0000
  H   H134      1.0  0.74483  0.15946  0.71185  1.0000
  H   H135      1.0  0.71341  0.11602  0.72408  1.0000
  H   H136      1.0  0.97552  0.43373  0.43480  1.0000
  H   H137      1.0  0.87378  0.34872  0.67037  1.0000
  H   H138      1.0  0.13587  0.67959  0.59446  1.0000
  H   H139      1.0  0.16623  0.72380  0.58265  1.0000
  H   H140      1.0  0.24295  0.67561  0.53158  1.0000
  H   H141      1.0  0.21253  0.63077  0.55057  1.0000
  H   H142      1.0  0.79424  0.75399  0.47650  1.0000
  H   H143      1.0  0.76162  0.79289  0.50269  1.0000
  H   H144      1.0  0.40184  0.00470  0.42079  1.0000
  H   H145      1.0  0.22691  0.83255  0.24377  1.0000
  H   H146      1.0  0.66943  0.62174  0.85403  1.0000
  H   H147      1.0  0.62114  0.66039  0.80776  1.0000
  H   H148      1.0  0.63632  0.68390  0.59241  1.0000
  H   H149      1.0  0.63326  0.69859  0.76573  1.0000
  H   H150      1.0  0.66842  0.65822  0.95406  1.0000
  H   H151      1.0  0.77824  0.17558  0.47494  1.0000
  H   H152      1.0  0.33331  0.36364  0.37587  1.0000
  H   H153      1.0  0.36508  0.30507  0.33793  1.0000
  H   H154      1.0  0.36108  0.28298  0.57350  1.0000
  H   H155      1.0  0.37540  0.32105  0.49809  1.0000
  H   H156      1.0  0.32463  0.32030  0.60115  1.0000
  H   H157      1.0  0.26946  0.32701  0.43689  1.0000
  H   H158      1.0  0.84261  0.14434  0.49160  1.0000
  H   H159      1.0  0.86709  0.22751  0.30753  1.0000
  H   H160      1.0  0.88421  0.19084  0.38185  1.0000
  H   H161      1.0  0.87098  0.20594  0.54252  1.0000
  H   H162      1.0  0.83372  0.18824  0.28120  1.0000
  H   H163      1.0  0.72398  0.66354  0.67652  1.0000
  H   H164      1.0  0.16745  0.86541  0.02876  1.0000
  H   H165      1.0  0.13300  0.80387  0.25221  1.0000
  H   H166      1.0  0.14605  0.78501  0.11099  1.0000
  H   H167      1.0  0.13121  0.82259  0.01074  1.0000
  H   H168      1.0  0.18380  0.82597  0.98041  1.0000
  C   C1        1.0  0.96846  0.52683  0.01522  1.0000
  C   C2        1.0  0.98420  0.55045  0.04573  1.0000
  C   C3        1.0  0.93765  0.52682  0.00583  1.0000
  C   C4        1.0  0.91978  0.55345  0.99571  1.0000
  C   C5        1.0  0.92678  0.58334  0.87353  1.0000
  C   C6        1.0  0.90874  0.60800  0.85659  1.0000
  C   C7        1.0  0.88327  0.60382  0.96287  1.0000
  C   C8        1.0  0.87620  0.57397  0.08539  1.0000
  C   C9        1.0  0.89396  0.54941  0.09963  1.0000
  C   C10       1.0  0.86494  0.62989  0.94745  1.0000
  C   C11       1.0  0.17132  0.35170  0.92546  1.0000
  C   C12       1.0  0.16545  0.32040  0.02798  1.0000
  C   C13       1.0  0.18456  0.29778  0.02380  1.0000
  C   C14       1.0  0.21026  0.30515  0.91782  1.0000
  C   C15       1.0  0.21556  0.33633  0.81117  1.0000
  C   C16       1.0  0.19641  0.35902  0.81397  1.0000
  C   C17       1.0  0.77763  0.26978  0.99348  1.0000
  C   C18       1.0  0.78682  0.24141  0.98917  1.0000
  C   C19       1.0  0.76602  0.21843  0.00209  1.0000
  C   C20       1.0  0.46879  0.02960  0.96433  1.0000
  C   C21       1.0  0.48430  0.05503  0.97396  1.0000
  C   C22       1.0  0.43835  0.03043  0.93571  1.0000
  C   C23       1.0  0.42024  0.05764  0.91154  1.0000
  C   C24       1.0  0.42670  0.08672  0.77839  1.0000
  C   C25       1.0  0.40845  0.11158  0.75353  1.0000
  C   C26       1.0  0.38351  0.10840  0.86302  1.0000
  C   C27       1.0  0.37690  0.07929  0.99580  1.0000
  C   C28       1.0  0.39476  0.05444  0.01727  1.0000
  C   C29       1.0  0.36526  0.13491  0.83982  1.0000
  C   C30       1.0  0.67279  0.84199  0.11242  1.0000
  C   C31       1.0  0.66035  0.81682  0.08561  1.0000
  C   C32       1.0  0.67736  0.79233  0.08631  1.0000
  C   C33       1.0  0.70748  0.79185  0.11602  1.0000
  C   C34       1.0  0.71962  0.81688  0.14618  1.0000
  C   C35       1.0  0.70287  0.84166  0.14175  1.0000
  C   C36       1.0  0.26411  0.78111  0.99013  1.0000
  C   C37       1.0  0.27126  0.75045  0.09332  1.0000
  C   C38       1.0  0.25263  0.72586  0.11380  1.0000
  C   C39       1.0  0.92367  0.50056  0.00465  1.0000
  C   C40       1.0  0.98442  0.50151  0.00381  1.0000
  C   C41       1.0  0.03142  0.47656  0.99221  1.0000
  C   C42       1.0  0.01569  0.45286  0.96249  1.0000
  C   C43       1.0  0.06224  0.47662  0.00027  1.0000
  C   C44       1.0  0.13340  0.37367  0.03670  1.0000
  C   C45       1.0  0.22518  0.72980  0.03449  1.0000
  C   C46       1.0  0.21725  0.76046  0.93155  1.0000
  C   C47       1.0  0.23658  0.78507  0.91091  1.0000
  C   C48       1.0  0.53102  0.97364  0.03835  1.0000
  C   C49       1.0  0.51658  0.95046  0.99649  1.0000
  C   C50       1.0  0.56077  0.97138  0.08533  1.0000
  C   C51       1.0  0.63127  0.86552  0.16988  1.0000
  C   C52       1.0  0.32823  0.15942  0.93885  1.0000
  C   C53       1.0  0.33620  0.19014  0.83676  1.0000
  C   C54       1.0  0.31793  0.21413  0.82832  1.0000
  C   C55       1.0  0.29085  0.20851  0.91953  1.0000
  C   C56       1.0  0.28314  0.17782  0.02376  1.0000
  C   C57       1.0  0.30162  0.15380  0.03526  1.0000
  C   C58       1.0  0.73594  0.22163  0.01981  1.0000
  C   C59       1.0  0.72738  0.25012  0.02097  1.0000
  C   C60       1.0  0.74748  0.27310  0.00950  1.0000
  C   C61       1.0  0.07628  0.50277  0.00229  1.0000
  C   C62       1.0  0.01555  0.50189  0.00421  1.0000
  C   C63       1.0  0.52991  0.02637  0.04040  1.0000
  C   C64       1.0  0.51341  0.05366  0.00646  1.0000
  C   C65       1.0  0.56008  0.02396  0.08320  1.0000
  C   C66       1.0  0.57805  0.04922  0.09378  1.0000
  C   C67       1.0  0.56778  0.07210  0.15264  1.0000
  C   C68       1.0  0.58523  0.09680  0.14323  1.0000
  C   C69       1.0  0.61424  0.09897  0.08242  1.0000
  C   C70       1.0  0.62522  0.07548  0.03206  1.0000
  C   C71       1.0  0.60746  0.05159  0.03503  1.0000
  C   C72       1.0  0.63281  0.12420  0.07940  1.0000
  C   C73       1.0  0.32341  0.85455  0.94389  1.0000
  C   C74       1.0  0.33364  0.82654  0.94124  1.0000
  C   C75       1.0  0.31435  0.80317  0.95228  1.0000
  C   C76       1.0  0.28418  0.80651  0.96929  1.0000
  C   C77       1.0  0.27416  0.83488  0.96753  1.0000
  C   C78       1.0  0.29321  0.85850  0.95339  1.0000
  C   C79       1.0  0.72608  0.76728  0.10398  1.0000
  C   C80       1.0  0.71632  0.73685  0.14629  1.0000
  C   C81       1.0  0.73520  0.71445  0.12547  1.0000
  C   C82       1.0  0.03063  0.52751  0.01739  1.0000
  C   C83       1.0  0.01387  0.55067  0.04799  1.0000
  C   C84       1.0  0.06152  0.52839  0.00780  1.0000
  C   C85       1.0  0.07869  0.55504  0.00412  1.0000
  C   C86       1.0  0.07090  0.58538  0.89649  1.0000
  C   C87       1.0  0.08782  0.61014  0.89215  1.0000
  C   C88       1.0  0.11323  0.60554  0.99382  1.0000
  C   C89       1.0  0.12139  0.57525  0.09947  1.0000
  C   C90       1.0  0.10451  0.55069  0.10319  1.0000
  C   C91       1.0  0.13073  0.63164  0.98848  1.0000
  C   C92       1.0  0.23059  0.28116  0.91598  1.0000
  C   C93       1.0  0.22143  0.25283  0.91499  1.0000
  C   C94       1.0  0.24092  0.23013  0.91245  1.0000
  C   C95       1.0  0.57414  0.99629  0.10653  1.0000
  C   C96       1.0  0.51525  0.00077  0.02258  1.0000
  C   C97       1.0  0.47019  0.97658  0.97030  1.0000
  C   C98       1.0  0.48746  0.95176  0.96456  1.0000
  C   C99       1.0  0.43946  0.97709  0.95409  1.0000
  C   C100      1.0  0.42209  0.95033  0.96185  1.0000
  C   C101      1.0  0.42799  0.92040  0.08564  1.0000
  C   C102      1.0  0.40982  0.89592  0.10060  1.0000
  C   C103      1.0  0.38494  0.90045  0.99434  1.0000
  C   C104      1.0  0.37899  0.93029  0.86961  1.0000
  C   C105      1.0  0.39720  0.95455  0.85430  1.0000
  C   C106      1.0  0.36556  0.87494  0.01380  1.0000
  C   C107      1.0  0.27122  0.23361  0.91224  1.0000
  C   C108      1.0  0.28107  0.26194  0.91414  1.0000
  C   C109      1.0  0.26091  0.28460  0.91744  1.0000
  C   C110      1.0  0.96938  0.47578  0.99204  1.0000
  C   C111      1.0  0.98602  0.45246  0.96252  1.0000
  C   C112      1.0  0.93853  0.47481  0.00221  1.0000
  C   C113      1.0  0.86946  0.36901  0.06799  1.0000
  C   C114      1.0  0.76425  0.72019  0.06470  1.0000
  C   C115      1.0  0.77334  0.75067  0.02323  1.0000
  C   C116      1.0  0.75510  0.77305  0.04223  1.0000
  C   C117      1.0  0.42460  0.00401  0.93665  1.0000
  C   C118      1.0  0.48476  0.00237  0.98518  1.0000
  C   C119      1.0  0.19623  0.80154  0.75087  1.0000
  C   C120      1.0  0.63865  0.68308  0.21589  1.0000
  C   C121      1.0  0.66795  0.67115  0.29919  1.0000
  C   C122      1.0  0.81068  0.20411  0.95787  1.0000
  C   C123      1.0  0.35958  0.29970  0.00086  1.0000
  C   C124      1.0  0.33077  0.31666  0.97557  1.0000
  C   C125      1.0  0.30648  0.29832  0.94391  1.0000
  C   C126      1.0  0.86412  0.19564  0.92773  1.0000
  C   C127      1.0  0.83335  0.18452  0.91985  1.0000
  C   C128      1.0  0.69134  0.69500  0.22588  1.0000
  C   C129      1.0  0.14696  0.80856  0.61135  1.0000
  C   C130      1.0  0.17594  0.82346  0.61910  1.0000
  C   C131      1.0  0.96944  0.52613  0.51343  1.0000
  C   C132      1.0  0.98509  0.54968  0.54502  1.0000
  C   C133      1.0  0.93866  0.52611  0.50458  1.0000
  C   C134      1.0  0.92067  0.55250  0.49633  1.0000
  C   C135      1.0  0.92726  0.58251  0.37458  1.0000
  C   C136      1.0  0.90871  0.60676  0.35815  1.0000
  C   C137      1.0  0.88333  0.60198  0.46561  1.0000
  C   C138      1.0  0.87676  0.57202  0.58867  1.0000
  C   C139      1.0  0.89493  0.54786  0.60133  1.0000
  C   C140      1.0  0.86456  0.62761  0.45149  1.0000
  C   C141      1.0  0.77607  0.27075  0.48473  1.0000
  C   C142      1.0  0.78669  0.24267  0.48308  1.0000
  C   C143      1.0  0.76724  0.21855  0.49543  1.0000
  C   C144      1.0  0.46991  0.02834  0.46607  1.0000
  C   C145      1.0  0.48578  0.05324  0.47978  1.0000
  C   C146      1.0  0.43952  0.02983  0.43588  1.0000
  C   C147      1.0  0.36701  0.13487  0.33473  1.0000
  C   C148      1.0  0.26215  0.78213  0.49186  1.0000
  C   C149      1.0  0.26999  0.75172  0.59679  1.0000
  C   C150      1.0  0.25213  0.72652  0.61845  1.0000
  C   C151      1.0  0.92460  0.49999  0.50259  1.0000
  C   C152      1.0  0.98533  0.50082  0.50144  1.0000
  C   C153      1.0  0.03237  0.47599  0.48889  1.0000
  C   C154      1.0  0.01658  0.45217  0.46065  1.0000
  C   C155      1.0  0.06320  0.47618  0.49602  1.0000
  C   C156      1.0  0.08109  0.44981  0.50194  1.0000
  C   C157      1.0  0.07424  0.41973  0.62177  1.0000
  C   C158      1.0  0.09212  0.39522  0.63327  1.0000
  C   C159      1.0  0.11718  0.39973  0.52326  1.0000
  C   C160      1.0  0.12421  0.42979  0.40376  1.0000
  C   C161      1.0  0.10671  0.45423  0.39593  1.0000
  C   C162      1.0  0.13493  0.37362  0.53240  1.0000
  C   C163      1.0  0.82474  0.64823  0.55546  1.0000
  C   C164      1.0  0.82741  0.67910  0.43403  1.0000
  C   C165      1.0  0.80730  0.70087  0.43738  1.0000
  C   C166      1.0  0.78378  0.69319  0.56214  1.0000
  C   C167      1.0  0.78155  0.66245  0.68520  1.0000
  C   C168      1.0  0.80152  0.64053  0.68145  1.0000
  C   C169      1.0  0.22473  0.72960  0.53914  1.0000
  C   C170      1.0  0.21616  0.75990  0.43472  1.0000
  C   C171      1.0  0.23476  0.78516  0.41202  1.0000
  C   C172      1.0  0.53116  0.97131  0.53883  1.0000
  C   C173      1.0  0.51616  0.94821  0.49932  1.0000
  C   C174      1.0  0.56102  0.96865  0.58379  1.0000
  C   C175      1.0  0.63011  0.86194  0.66938  1.0000
  C   C176      1.0  0.73693  0.22025  0.51350  1.0000
  C   C177      1.0  0.72695  0.24849  0.51223  1.0000
  C   C178      1.0  0.74574  0.27270  0.49842  1.0000
  C   C179      1.0  0.07719  0.50217  0.50055  1.0000
  C   C180      1.0  0.01646  0.50123  0.50182  1.0000
  C   C181      1.0  0.53115  0.02416  0.53873  1.0000
  C   C182      1.0  0.51497  0.05148  0.51020  1.0000
  C   C183      1.0  0.56147  0.02147  0.57668  1.0000
  C   C184      1.0  0.58010  0.04641  0.58525  1.0000
  C   C185      1.0  0.57072  0.06857  0.65222  1.0000
  C   C186      1.0  0.58886  0.09249  0.64705  1.0000
  C   C187      1.0  0.61762  0.09464  0.58162  1.0000
  C   C188      1.0  0.62769  0.07190  0.52154  1.0000
  C   C189      1.0  0.60924  0.04868  0.52136  1.0000
  C   C190      1.0  0.63628  0.11933  0.58562  1.0000
  C   C191      1.0  0.32031  0.85704  0.43546  1.0000
  C   C192      1.0  0.33089  0.82862  0.44135  1.0000
  C   C193      1.0  0.31194  0.80482  0.45631  1.0000
  C   C194      1.0  0.28166  0.80808  0.46810  1.0000
  C   C195      1.0  0.27125  0.83690  0.45649  1.0000
  C   C196      1.0  0.29002  0.86095  0.43890  1.0000
  C   C197      1.0  0.72453  0.76345  0.60420  1.0000
  C   C198      1.0  0.71510  0.73282  0.64826  1.0000
  C   C199      1.0  0.73448  0.71057  0.63071  1.0000
  C   C200      1.0  0.03150  0.52681  0.51595  1.0000
  C   C201      1.0  0.01475  0.54989  0.54742  1.0000
  C   C202      1.0  0.06239  0.52769  0.50733  1.0000
  C   C203      1.0  0.13208  0.63038  0.49148  1.0000
  C   C204      1.0  0.23075  0.27964  0.41694  1.0000
  C   C205      1.0  0.22206  0.25068  0.42398  1.0000
  C   C206      1.0  0.24205  0.22800  0.42711  1.0000
  C   C207      1.0  0.57507  0.99360  0.60030  1.0000
  C   C208      1.0  0.51590  0.99877  0.52224  1.0000
  C   C209      1.0  0.47029  0.97539  0.46983  1.0000
  C   C210      1.0  0.48707  0.95014  0.46596  1.0000
  C   C211      1.0  0.43957  0.97658  0.45183  1.0000
  C   C212      1.0  0.36230  0.87729  0.50506  1.0000
  C   C213      1.0  0.68054  0.14478  0.55451  1.0000
  C   C214      1.0  0.67253  0.17532  0.45241  1.0000
  C   C215      1.0  0.69073  0.19966  0.43999  1.0000
  C   C216      1.0  0.71739  0.19463  0.52970  1.0000
  C   C217      1.0  0.72496  0.16400  0.63416  1.0000
  C   C218      1.0  0.70723  0.13954  0.64416  1.0000
  C   C219      1.0  0.27230  0.23228  0.42372  1.0000
  C   C220      1.0  0.28166  0.26105  0.42032  1.0000
  C   C221      1.0  0.26098  0.28359  0.41811  1.0000
  C   C222      1.0  0.97022  0.47509  0.48991  1.0000
  C   C223      1.0  0.98690  0.45174  0.46112  1.0000
  C   C224      1.0  0.93934  0.47423  0.49963  1.0000
  C   C225      1.0  0.86795  0.37029  0.55977  1.0000
  C   C226      1.0  0.17222  0.65243  0.56869  1.0000
  C   C227      1.0  0.15933  0.67888  0.57871  1.0000
  C   C228      1.0  0.17629  0.70363  0.57263  1.0000
  C   C229      1.0  0.20671  0.70301  0.55473  1.0000
  C   C230      1.0  0.21951  0.67630  0.54825  1.0000
  C   C231      1.0  0.20271  0.65127  0.55788  1.0000
  C   C232      1.0  0.76351  0.71670  0.57018  1.0000
  C   C233      1.0  0.77209  0.74739  0.52458  1.0000
  C   C234      1.0  0.75346  0.76959  0.54174  1.0000
  C   C235      1.0  0.42530  0.00377  0.43492  1.0000
  C   C236      1.0  0.48537  0.00087  0.48558  1.0000
  C   C237      1.0  0.19429  0.79997  0.25157  1.0000
  C   C238      1.0  0.63769  0.67781  0.73877  1.0000
  C   C239      1.0  0.66792  0.66604  0.80527  1.0000
  C   C240      1.0  0.81304  0.20681  0.45314  1.0000
  C   C241      1.0  0.35960  0.30624  0.46893  1.0000
  C   C242      1.0  0.32909  0.31870  0.46910  1.0000
  C   C243      1.0  0.30608  0.29869  0.44117  1.0000
  C   C244      1.0  0.86684  0.20420  0.41215  1.0000
  C   C245      1.0  0.83754  0.18909  0.41516  1.0000
  C   C246      1.0  0.69073  0.69049  0.72912  1.0000
  C   C247      1.0  0.14410  0.80734  0.12353  1.0000
  C   C248      1.0  0.17420  0.82111  0.11541  1.0000
  N   N1        1.0  0.84303  0.62675  0.05691  1.0000
  N   N2        1.0  0.34508  0.13366  0.95705  1.0000
  N   N3        1.0  0.15433  0.37664  0.92091  1.0000
  N   N4        1.0  0.65720  0.86804  0.10216  1.0000
  N   N5        1.0  0.66060  0.12351  0.05700  1.0000
  N   N6        1.0  0.15517  0.62801  0.07089  1.0000
  N   N7        1.0  0.34131  0.87927  0.92891  1.0000
  N   N8        1.0  0.84955  0.37049  0.95266  1.0000
  N   N9        1.0  0.19235  0.77160  0.83157  1.0000
  N   N10       1.0  0.22251  0.81095  0.79450  1.0000
  N   N11       1.0  0.81449  0.23158  0.96308  1.0000
  N   N12       1.0  0.78199  0.19496  0.98248  1.0000
  N   N13       1.0  0.30917  0.27143  0.92908  1.0000
  N   N14       1.0  0.27785  0.30754  0.93510  1.0000
  N   N15       1.0  0.68924  0.72378  0.21066  1.0000
  N   N16       1.0  0.71837  0.68799  0.17718  1.0000
  N   N17       1.0  0.84299  0.62401  0.56384  1.0000
  N   N18       1.0  0.34597  0.13332  0.44719  1.0000
  N   N19       1.0  0.15563  0.37635  0.41546  1.0000
  N   N20       1.0  0.65612  0.86437  0.60283  1.0000
  N   N21       1.0  0.66407  0.11948  0.56058  1.0000
  N   N22       1.0  0.15653  0.62675  0.57375  1.0000
  N   N23       1.0  0.33814  0.88194  0.41880  1.0000
  N   N24       1.0  0.84697  0.37223  0.45011  1.0000
  N   N25       1.0  0.19111  0.77002  0.33442  1.0000
  N   N26       1.0  0.22014  0.81041  0.29342  1.0000
  N   N27       1.0  0.81501  0.23439  0.45899  1.0000
  N   N28       1.0  0.78481  0.19599  0.47651  1.0000
  N   N29       1.0  0.30957  0.27139  0.43304  1.0000
  N   N30       1.0  0.27729  0.30734  0.43010  1.0000
  N   N31       1.0  0.68808  0.71937  0.71156  1.0000
  N   N32       1.0  0.71812  0.68378  0.68377  1.0000
  O   O1        1.0  0.67639  0.64382  0.26684  1.0000
  O   O2        1.0  0.33176  0.34622  0.82258  1.0000
  O   O3        1.0  0.82803  0.15324  0.04856  1.0000
  O   O4        1.0  0.17254  0.85004  0.66998  1.0000
  O   O5        1.0  0.67640  0.64022  0.75702  1.0000
  O   O6        1.0  0.32524  0.34922  0.32858  1.0000
  O   O7        1.0  0.83599  0.15783  0.55072  1.0000
  O   O8        1.0  0.17366  0.85002  0.14292  1.0000
  C  Sn1       1.0  0.12538  0.43754  0.93820  1.0000
  C   C249      1.0  0.12357  0.47107  0.04379  1.0000
  C  Sn2       1.0  0.09656  0.46073  0.12639  1.0000
  C  Sn3       1.0  0.07356  0.48188  0.10287  1.0000
  C   C250      1.0  0.07537  0.44833  0.99730  1.0000
  C  Sn4       1.0  0.10238  0.45869  0.91467  1.0000
  O  Te1       1.0  0.15257  0.44737  0.85688  1.0000
  O  Te2       1.0  0.09259  0.42955  0.23138  1.0000
  O  Te3       1.0  0.04636  0.47202  0.18430  1.0000
  O  Te4       1.0  0.10636  0.48985  0.80971  1.0000
  Mg  Mg1       1.0  0.05162  0.42730  0.31449  1.0000
  Mg  Mg2       1.0  0.14731  0.49212  0.72647  1.0000
  C  Sn5       1.0  0.72381  0.15887  0.10875  1.0000
  C   C251      1.0  0.72015  0.19039  0.01423  1.0000
  C  Sn6       1.0  0.69058  0.13740  0.94127  1.0000
  C  Sn7       1.0  0.66683  0.11710  0.96335  1.0000
  C   C252      1.0  0.67318  0.15021  0.05785  1.0000
  C  Sn8       1.0  0.70007  0.13857  0.13083  1.0000
  O  Te5       1.0  0.75088  0.14776  0.18055  1.0000
  O  Te6       1.0  0.68745  0.16900  0.84726  1.0000
  O  Te7       1.0  0.63974  0.12823  0.89145  1.0000
  O  Te8       1.0  0.70319  0.10699  0.22481  1.0000
  Mg  Mg3       1.0  0.64629  0.17307  0.77445  1.0000
  Mg  Mg4       1.0  0.74434  0.10290  0.29776  1.0000
  C  Sn9       1.0  0.60414  0.87790  0.97391  1.0000
  C   C253      1.0  0.58017  0.94313  0.05854  1.0000
  C  Sn10      1.0  0.57069  0.91768  0.20824  1.0000
  C  Sn11      1.0  0.58821  0.89104  0.27482  1.0000
  C   C254      1.0  0.61484  0.89042  0.19023  1.0000
  C  Sn12      1.0  0.62434  0.91586  0.04049  1.0000
  O  Te9       1.0  0.61319  0.90361  0.82446  1.0000
  O  Te10      1.0  0.54396  0.91885  0.29054  1.0000
  O  Te11      1.0  0.57914  0.86532  0.42439  1.0000
  O  Te12      1.0  0.64837  0.85010  0.95823  1.0000
  Mg  Mg5       1.0  0.54106  0.87803  0.49031  1.0000
  Mg  Mg6       1.0  0.65130  0.89091  0.75852  1.0000
  C  Sn13      1.0  0.21353  0.60907  0.99150  1.0000
  C   C255      1.0  0.20767  0.70151  0.00085  1.0000
  C  Sn14      1.0  0.17993  0.70467  0.06468  1.0000
  C  Sn15      1.0  0.16032  0.67948  0.12045  1.0000
  C   C256      1.0  0.16886  0.65166  0.11112  1.0000
  C  Sn16      1.0  0.19660  0.64848  0.04728  1.0000
  O  Te13      1.0  0.24137  0.60642  0.92725  1.0000
  O  Te14      1.0  0.17188  0.73273  0.07271  1.0000
  O  Te15      1.0  0.13246  0.68215  0.18473  1.0000
  O  Te16      1.0  0.20465  0.62044  0.03926  1.0000
  Mg  Mg7       1.0  0.13161  0.72501  0.17022  1.0000
  Mg  Mg8       1.0  0.24223  0.56352  0.94186  1.0000
  C  Sn17      1.0  0.41158  0.10560  0.21441  1.0000
  C   C257      1.0  0.38584  0.10654  0.30720  1.0000
  C  Sn18      1.0  0.37860  0.08256  0.47031  1.0000
  C  Sn19      1.0  0.39748  0.05711  0.54226  1.0000
  C   C258      1.0  0.42320  0.05618  0.44950  1.0000
  C  Sn20      1.0  0.43046  0.08015  0.28635  1.0000
  O  Te17      1.0  0.41839  0.12983  0.05156  1.0000
  O  Te18      1.0  0.35274  0.08401  0.56059  1.0000
  O  Te19      1.0  0.39065  0.03287  0.70523  1.0000
  O  Te20      1.0  0.45629  0.07871  0.19611  1.0000
  Mg  Mg9       1.0  0.35300  0.04538  0.77798  1.0000
  Mg  Mg10      1.0  0.45339  0.05272  0.97877  1.0000
  C  Sn21      1.0  0.17489  0.29953  0.48766  1.0000
  C   C259      1.0  0.20107  0.30276  0.39112  1.0000
  C  Sn22      1.0  0.21477  0.33136  0.31478  1.0000
  C  Sn23      1.0  0.20204  0.35729  0.33546  1.0000
  C   C260      1.0  0.17588  0.35406  0.43198  1.0000
  C  Sn24      1.0  0.16217  0.32546  0.50834  1.0000
  O  Te21      1.0  0.16159  0.27072  0.56284  1.0000
  O  Te22      1.0  0.24092  0.33402  0.21880  1.0000
  O  Te23      1.0  0.21537  0.38612  0.26018  1.0000
  O  Te24      1.0  0.13603  0.32279  0.60430  1.0000
  Mg  Mg11      1.0  0.25076  0.37811  0.14152  1.0000
  Mg  Mg12      1.0  0.12619  0.27872  0.68171  1.0000
  C  Sn25      1.0  0.88649  0.44786  0.94342  1.0000
  C   C261      1.0  0.91444  0.51337  0.03578  1.0000
  C  Sn26      1.0  0.92962  0.48643  0.12969  1.0000
  C  Sn27      1.0  0.91933  0.45798  0.13125  1.0000
  C   C262      1.0  0.89408  0.45708  0.03891  1.0000
  C  Sn28      1.0  0.87620  0.41941  0.94497  1.0000
  O  Te25      1.0  0.87167  0.47508  0.85042  1.0000
  O  Te26      1.0  0.95482  0.48792  0.22107  1.0000
  O  Te27      1.0  0.93418  0.43075  0.22436  1.0000
  O  Te28      1.0  0.85102  0.41793  0.85361  1.0000
  Mg  Mg13      1.0  0.96743  0.44459  0.32828  1.0000
  Mg  Mg14      1.0  0.83840  0.46125  0.74629  1.0000
  C  Sn29      1.0  0.91140  0.39798  0.69136  1.0000
  C   C263      1.0  0.88615  0.39786  0.59699  1.0000
  C  Sn30      1.0  0.87941  0.42298  0.43992  1.0000
  C  Sn31      1.0  0.89832  0.44876  0.37574  1.0000
  C   C264      1.0  0.92355  0.44887  0.47007  1.0000
  C  Sn32      1.0  0.93031  0.42376  0.62719  1.0000
  O  Te29      1.0  0.91770  0.37261  0.84808  1.0000
  O  Te30      1.0  0.85403  0.42233  0.34793  1.0000
  O  Te31      1.0  0.89199  0.47413  0.21890  1.0000
  O  Te32      1.0  0.95567  0.42439  0.71914  1.0000
  Mg  Mg15      1.0  0.85487  0.46240  0.14087  1.0000
  Mg  Mg16      1.0  0.95485  0.38434  0.92615  1.0000
  C  Sn33      1.0  0.12478  0.56684  0.57051  1.0000
  C   C265      1.0  0.11996  0.59813  0.47507  1.0000
  C  Sn34      1.0  0.09279  0.60849  0.40168  1.0000
  C  Sn35      1.0  0.06996  0.58712  0.42423  1.0000
  C   C266      1.0  0.07479  0.55585  0.51964  1.0000
  C  Sn36      1.0  0.10196  0.54547  0.59307  1.0000
  O  Te33      1.0  0.15212  0.55700  0.64274  1.0000
  O  Te34      1.0  0.08849  0.63988  0.30675  1.0000
  O  Te35      1.0  0.04261  0.59698  0.35190  1.0000
  O  Te36      1.0  0.10626  0.51410  0.68797  1.0000
  Mg  Mg17      1.0  0.04742  0.64205  0.23364  1.0000
  Mg  Mg18      1.0  0.14732  0.51191  0.76121  1.0000
  C  Sn37      1.0  0.57499  0.90538  0.77617  1.0000
  C   C267      1.0  0.58077  0.93606  0.66734  1.0000
  C  Sn38      1.0  0.60217  0.94357  0.53127  1.0000
  C  Sn39      1.0  0.61810  0.91993  0.50331  1.0000
  C   C268      1.0  0.61231  0.88927  0.61208  1.0000
  C  Sn40      1.0  0.59092  0.88173  0.74821  1.0000
  O  Te37      1.0  0.55350  0.89840  0.91140  1.0000
  O  Te38      1.0  0.60945  0.97441  0.42423  1.0000
  O  Te39      1.0  0.63961  0.92693  0.36795  1.0000
  O  Te40      1.0  0.58552  0.85092  0.85519  1.0000
  Mg  Mg19      1.0  0.63899  0.97232  0.25724  1.0000
  Mg  Mg20      1.0  0.55678  0.91758  0.02214  1.0000
  C  Sn41      1.0  0.67234  0.79745  0.52643  1.0000
  C   C269      1.0  0.70189  0.79265  0.56361  1.0000
  C  Sn42      1.0  0.71662  0.80982  0.64476  1.0000
  C  Sn43      1.0  0.70149  0.83224  0.68981  1.0000
  C   C270      1.0  0.67195  0.83704  0.65267  1.0000
  C  Sn44      1.0  0.65721  0.81988  0.57148  1.0000
  O  Te41      1.0  0.65806  0.78002  0.44525  1.0000
  O  Te42      1.0  0.74617  0.80461  0.68055  1.0000
  O  Te43      1.0  0.71580  0.84968  0.77105  1.0000
  O  Te44      1.0  0.62768  0.82507  0.53573  1.0000
  Mg  Mg21      1.0  0.75609  0.83414  0.79290  1.0000
  Mg  Mg22      1.0  0.61774  0.79554  0.42347  1.0000
  C  Sn45      1.0  0.79582  0.34820  0.39767  1.0000
  C   C271      1.0  0.82228  0.34679  0.48366  1.0000
  C  Sn46      1.0  0.83736  0.31912  0.55553  1.0000
  C  Sn47      1.0  0.82577  0.29231  0.54106  1.0000
  C   C272      1.0  0.79933  0.29372  0.45509  1.0000
  C  Sn48      1.0  0.78423  0.32138  0.38320  1.0000
  O  Te45      1.0  0.78112  0.37610  0.32680  1.0000
  O  Te46      1.0  0.86377  0.31828  0.64094  1.0000
  O  Te47      1.0  0.84050  0.26439  0.61203  1.0000
  O  Te48      1.0  0.75785  0.32223  0.29781  1.0000
  Mg  Mg23      1.0  0.87568  0.27486  0.71594  1.0000
  Mg  Mg24      1.0  0.74592  0.36564  0.22269  1.0000
  C  Sn49      1.0  0.82955  0.69032  0.95182  1.0000
  C   C273      1.0  0.83287  0.72365  0.06071  1.0000
  C  Sn50      1.0  0.80849  0.70918  0.16405  1.0000
  C  Sn51      1.0  0.78293  0.72632  0.15835  1.0000
  C   C274      1.0  0.78229  0.75757  0.04949  1.0000
  C  Sn52      1.0  0.80398  0.70746  0.94612  1.0000
  O  Te49      1.0  0.85417  0.70431  0.84963  1.0000
  O  Te50      1.0  0.80966  0.67789  0.27193  1.0000
  O  Te51      1.0  0.75829  0.71230  0.26067  1.0000
  O  Te52      1.0  0.80282  0.73872  0.83827  1.0000
  Mg  Mg25      1.0  0.77052  0.66916  0.38658  1.0000
  Mg  Mg26      1.0  0.84194  0.74747  0.72350  1.0000
  C  Sn53      1.0  0.38488  0.93689  0.31274  1.0000
  C   C275      1.0  0.38585  0.90625  0.43292  1.0000
  C  Sn54      1.0  0.40374  0.89747  0.58367  1.0000
  C  Sn55      1.0  0.42101  0.91979  0.61502  1.0000
  C   C276      1.0  0.42003  0.95040  0.49490  1.0000
  C  Sn56      1.0  0.40215  0.95920  0.34409  1.0000
  O  Te53      1.0  0.36684  0.94514  0.16292  1.0000
  O  Te54      1.0  0.40435  0.86670  0.70187  1.0000
  O  Te55      1.0  0.43906  0.91150  0.76498  1.0000
  O  Te56      1.0  0.40341  0.98995  0.22595  1.0000
  Mg  Mg27      1.0  0.43239  0.86676  0.88702  1.0000
  Mg  Mg28      1.0  0.37349  0.98993  0.04082  1.0000
  C  Sn57      1.0  0.29473  0.15564  0.51790  1.0000
  C   C277      1.0  0.32020  0.15761  0.41655  1.0000
  C  Sn58      1.0  0.33392  0.18592  0.32722  1.0000
  C  Sn59      1.0  0.32195  0.21281  0.33952  1.0000
  C   C278      1.0  0.29649  0.21083  0.44084  1.0000
  C  Sn60      1.0  0.28275  0.18253  0.53020  1.0000
  O  Te57      1.0  0.28138  0.12709  0.60610  1.0000
  O  Te58      1.0  0.35937  0.18732  0.22666  1.0000
  O  Te59      1.0  0.33532  0.24137  0.25120  1.0000
  O  Te60      1.0  0.25733  0.18113  0.63074  1.0000
  Mg  Mg29      1.0  0.36957  0.23150  0.13086  1.0000
  Mg  Mg30      1.0  0.24712  0.13695  0.72665  1.0000
  C  Sn61      1.0  0.79786  0.34630  0.91446  1.0000
  C   C279      1.0  0.82529  0.34482  0.98955  1.0000
  C  Sn62      1.0  0.84361  0.38204  0.04837  1.0000
  C  Sn63      1.0  0.83160  0.35557  0.03170  1.0000
  C   C280      1.0  0.80151  0.29245  0.95662  1.0000
  C  Sn64      1.0  0.78585  0.31983  0.89778  1.0000
  O  Te61      1.0  0.78261  0.37392  0.85654  1.0000
  O  Te62      1.0  0.87099  0.38112  0.12305  1.0000
  O  Te63      1.0  0.84687  0.32793  0.08970  1.0000
  O  Te64      1.0  0.75849  0.32075  0.82311  1.0000
  Mg  Mg31      1.0  0.88335  0.33817  0.18225  1.0000
  Mg  Mg32      1.0  0.74612  0.36369  0.76378  1.0000
