data_image0
_chemical_formula_structural       H104C152N32O8SnCSn2CSnTe4Mg2SnCSn2CSnTe4Mg2SnCSn2CSnTe4Mg2SnCSn2CSnTe4Mg2SnCSn2CSnTe4Mg2SnCSn2CSnTe4Mg2SnCSn2CSnTe4Mg2SnCSn2CSnTe4Mg2SnCSn2CSnTe4Mg2SnCSn2CSnTe4Mg2SnCSn2CSnTe4Mg2SnCSn2CSnTe4Mg2SnCSn2CSnTe4Mg2SnCSn2CSnTe4Mg2SnCSn2CSnTe4Mg2SnCSn2CSnTe4Mg2SnCSn2CSnTe4Mg2SnCSn2CSnTe4Mg2SnCSn2CSnTe4Mg2SnCSn2CSnTe4Mg2SnCSn2CSnTe4Mg2SnCSn2CSnTe4Mg2SnCSn2CSnTe4Mg2SnCSn2CSnTe4Mg2SnCSn2CSnTe4Mg2SnCSn2CSnTe4Mg2SnCSn2CSnTe4Mg2SnCSn2CSnTe4Mg2SnCSn2CSnTe4Mg2SnCSn2CSnTe4Mg2SnCSn2CSnTe4Mg2SnCSn2CSnTe4Mg2
_chemical_formula_sum              "H104 C216 N32 O8 Sn128 Te128 Mg64"
_cell_length_a       46.0604
_cell_length_b       47.13
_cell_length_c       7.98833
_cell_angle_alpha    67.5932
_cell_angle_beta     89.0731
_cell_angle_gamma    89.8949

_symmetry_space_group_name_H-M    'P1'
_space_group_IT_number       1

loop_
  _space_group_symop_operation_xyz
  'x, y, z'

loop_
  _atom_site_type_symbol
  _atom_site_label
  _atom_site_symmetry_multiplicity
  _atom_site_fract_x
  _atom_site_fract_y
  _atom_site_fract_z
  _atom_site_occupancy
  H   H1        1.0  0.97207  0.56808  0.07275  1.0000
  H   H2        1.0  0.87104  0.65187  0.83926  1.0000
  H   H3        1.0  0.47259  0.07606  0.95397  1.0000
  H   H4        1.0  0.36971  0.15559  0.71817  1.0000
  H   H5        1.0  0.29177  0.74589  0.16413  1.0000
  H   H6        1.0  0.25934  0.70274  0.19826  1.0000
  H   H7        1.0  0.90006  0.50015  0.00593  1.0000
  H   H8        1.0  0.02783  0.43527  0.93512  1.0000
  H   H9        1.0  0.12780  0.35169  0.14638  1.0000
  H   H10       1.0  0.52940  0.93171  0.98755  1.0000
  H   H11       1.0  0.62138  0.84299  0.24809  1.0000
  H   H12       1.0  0.70438  0.25419  0.03531  1.0000
  H   H13       1.0  0.73962  0.29423  0.01887  1.0000
  H   H14       1.0  0.09989  0.50318  0.99983  1.0000
  H   H15       1.0  0.52424  0.07408  0.00568  1.0000
  H   H16       1.0  0.62219  0.14335  0.10264  1.0000
  H   H17       1.0  0.02515  0.56834  0.07806  1.0000
  H   H18       1.0  0.12235  0.65459  0.90683  1.0000
  H   H19       1.0  0.19825  0.24870  0.91257  1.0000
  H   H20       1.0  0.23232  0.20912  0.90576  1.0000
  H   H21       1.0  0.59669  0.99362  0.14734  1.0000
  H   H22       1.0  0.47720  0.93407  0.92959  1.0000
  H   H23       1.0  0.37225  0.85200  0.10765  1.0000
  H   H24       1.0  0.97461  0.43458  0.93511  1.0000
  H   H25       1.0  0.87432  0.34779  0.18418  1.0000
  H   H26       1.0  0.79562  0.75696  0.97678  1.0000
  H   H27       1.0  0.76364  0.79617  0.00517  1.0000
  H   H28       1.0  0.40111  0.00437  0.92393  1.0000
  H   H29       1.0  0.23037  0.83270  0.74680  1.0000
  H   H30       1.0  0.67795  0.62724  0.38443  1.0000
  H   H31       1.0  0.62152  0.66604  0.27889  1.0000
  H   H32       1.0  0.63945  0.68846  0.06984  1.0000
  H   H33       1.0  0.63361  0.70438  0.23577  1.0000
  H   H34       1.0  0.66660  0.66498  0.44654  1.0000
  H   H35       1.0  0.77410  0.17475  0.98449  1.0000
  H   H36       1.0  0.34040  0.36073  0.86703  1.0000
  H   H37       1.0  0.36464  0.29358  0.88447  1.0000
  H   H38       1.0  0.35836  0.27847  0.12279  1.0000
  H   H39       1.0  0.37706  0.31417  0.01711  1.0000
  H   H40       1.0  0.32530  0.32103  0.09854  1.0000
  H   H41       1.0  0.27032  0.32661  0.95115  1.0000
  H   H42       1.0  0.83654  0.13977  0.99445  1.0000
  H   H43       1.0  0.86679  0.21938  0.83004  1.0000
  H   H44       1.0  0.87983  0.18106  0.89381  1.0000
  H   H45       1.0  0.86878  0.19515  0.06280  1.0000
  H   H46       1.0  0.82955  0.18514  0.78258  1.0000
  H   H47       1.0  0.72354  0.66786  0.16597  1.0000
  H   H48       1.0  0.16384  0.86601  0.56668  1.0000
  H   H49       1.0  0.13585  0.80043  0.74354  1.0000
  H   H50       1.0  0.15048  0.78886  0.57210  1.0000
  H   H51       1.0  0.13325  0.82522  0.50968  1.0000
  H   H52       1.0  0.18633  0.83166  0.48382  1.0000
  H   H53       1.0  0.97292  0.56717  0.57323  1.0000
  H   H54       1.0  0.87004  0.64965  0.34203  1.0000
  H   H55       1.0  0.47427  0.07420  0.46443  1.0000
  H   H56       1.0  0.37272  0.15592  0.21826  1.0000
  H   H57       1.0  0.29039  0.74787  0.66854  1.0000
  H   H58       1.0  0.25938  0.70369  0.70415  1.0000
  H   H59       1.0  0.90100  0.49963  0.50417  1.0000
  H   H60       1.0  0.02865  0.43445  0.43431  1.0000
  H   H61       1.0  0.12949  0.35176  0.64365  1.0000
  H   H62       1.0  0.52854  0.92897  0.49348  1.0000
  H   H63       1.0  0.61998  0.83943  0.74526  1.0000
  H   H64       1.0  0.70374  0.25130  0.52750  1.0000
  H   H65       1.0  0.73660  0.29351  0.50553  1.0000
  H   H66       1.0  0.10079  0.50245  0.49974  1.0000
  H   H67       1.0  0.52607  0.07158  0.51220  1.0000
  H   H68       1.0  0.62541  0.13759  0.61703  1.0000
  H   H69       1.0  0.02603  0.56744  0.57857  1.0000
  H   H70       1.0  0.12379  0.65335  0.40961  1.0000
  H   H71       1.0  0.19896  0.24601  0.42215  1.0000
  H   H72       1.0  0.23395  0.20638  0.42651  1.0000
  H   H73       1.0  0.59774  0.99093  0.63829  1.0000
  H   H74       1.0  0.47645  0.93258  0.43143  1.0000
  H   H75       1.0  0.36845  0.85428  0.60056  1.0000
  H   H76       1.0  0.97552  0.43373  0.43480  1.0000
  H   H77       1.0  0.87378  0.34872  0.67037  1.0000
  H   H78       1.0  0.79424  0.75399  0.47650  1.0000
  H   H79       1.0  0.76162  0.79289  0.50269  1.0000
  H   H80       1.0  0.40184  0.00470  0.42079  1.0000
  H   H81       1.0  0.22691  0.83255  0.24377  1.0000
  H   H82       1.0  0.66943  0.62174  0.85403  1.0000
  H   H83       1.0  0.62114  0.66039  0.80776  1.0000
  H   H84       1.0  0.63632  0.68390  0.59241  1.0000
  H   H85       1.0  0.63326  0.69859  0.76573  1.0000
  H   H86       1.0  0.66842  0.65822  0.95406  1.0000
  H   H87       1.0  0.77824  0.17558  0.47494  1.0000
  H   H88       1.0  0.33331  0.36364  0.37587  1.0000
  H   H89       1.0  0.36508  0.30507  0.33793  1.0000
  H   H90       1.0  0.36108  0.28298  0.57350  1.0000
  H   H91       1.0  0.37540  0.32105  0.49809  1.0000
  H   H92       1.0  0.32463  0.32030  0.60115  1.0000
  H   H93       1.0  0.26946  0.32701  0.43689  1.0000
  H   H94       1.0  0.84261  0.14434  0.49160  1.0000
  H   H95       1.0  0.86709  0.22751  0.30753  1.0000
  H   H96       1.0  0.88421  0.19084  0.38185  1.0000
  H   H97       1.0  0.87098  0.20594  0.54252  1.0000
  H   H98       1.0  0.83372  0.18824  0.28120  1.0000
  H   H99       1.0  0.72398  0.66354  0.67652  1.0000
  H   H100      1.0  0.16745  0.86541  0.02876  1.0000
  H   H101      1.0  0.13300  0.80387  0.25221  1.0000
  H   H102      1.0  0.14605  0.78501  0.11099  1.0000
  H   H103      1.0  0.13121  0.82259  0.01074  1.0000
  H   H104      1.0  0.18380  0.82597  0.98041  1.0000
  C   C1        1.0  0.96846  0.52683  0.01522  1.0000
  C   C2        1.0  0.98420  0.55045  0.04573  1.0000
  C   C3        1.0  0.93765  0.52682  0.00583  1.0000
  C   C4        1.0  0.86494  0.62989  0.94745  1.0000
  C   C5        1.0  0.77763  0.26978  0.99348  1.0000
  C   C6        1.0  0.78682  0.24141  0.98917  1.0000
  C   C7        1.0  0.76602  0.21843  0.00209  1.0000
  C   C8        1.0  0.46879  0.02960  0.96433  1.0000
  C   C9        1.0  0.48430  0.05503  0.97396  1.0000
  C   C10       1.0  0.43835  0.03043  0.93571  1.0000
  C   C11       1.0  0.36526  0.13491  0.83982  1.0000
  C   C12       1.0  0.26411  0.78111  0.99013  1.0000
  C   C13       1.0  0.27126  0.75045  0.09332  1.0000
  C   C14       1.0  0.25263  0.72586  0.11380  1.0000
  C   C15       1.0  0.92367  0.50056  0.00465  1.0000
  C   C16       1.0  0.98442  0.50151  0.00381  1.0000
  C   C17       1.0  0.03142  0.47656  0.99221  1.0000
  C   C18       1.0  0.01569  0.45286  0.96249  1.0000
  C   C19       1.0  0.06224  0.47662  0.00027  1.0000
  C   C20       1.0  0.13340  0.37367  0.03670  1.0000
  C   C21       1.0  0.22518  0.72980  0.03449  1.0000
  C   C22       1.0  0.21725  0.76046  0.93155  1.0000
  C   C23       1.0  0.23658  0.78507  0.91091  1.0000
  C   C24       1.0  0.53102  0.97364  0.03835  1.0000
  C   C25       1.0  0.51658  0.95046  0.99649  1.0000
  C   C26       1.0  0.56077  0.97138  0.08533  1.0000
  C   C27       1.0  0.63127  0.86552  0.16988  1.0000
  C   C28       1.0  0.73594  0.22163  0.01981  1.0000
  C   C29       1.0  0.72738  0.25012  0.02097  1.0000
  C   C30       1.0  0.74748  0.27310  0.00950  1.0000
  C   C31       1.0  0.07628  0.50277  0.00229  1.0000
  C   C32       1.0  0.01555  0.50189  0.00421  1.0000
  C   C33       1.0  0.52991  0.02637  0.04040  1.0000
  C   C34       1.0  0.51341  0.05366  0.00646  1.0000
  C   C35       1.0  0.56008  0.02396  0.08320  1.0000
  C   C36       1.0  0.63281  0.12420  0.07940  1.0000
  C   C37       1.0  0.72608  0.76728  0.10398  1.0000
  C   C38       1.0  0.71632  0.73685  0.14629  1.0000
  C   C39       1.0  0.73520  0.71445  0.12547  1.0000
  C   C40       1.0  0.03063  0.52751  0.01739  1.0000
  C   C41       1.0  0.01387  0.55067  0.04799  1.0000
  C   C42       1.0  0.06152  0.52839  0.00780  1.0000
  C   C43       1.0  0.13073  0.63164  0.98848  1.0000
  C   C44       1.0  0.23059  0.28116  0.91598  1.0000
  C   C45       1.0  0.22143  0.25283  0.91499  1.0000
  C   C46       1.0  0.24092  0.23013  0.91245  1.0000
  C   C47       1.0  0.57414  0.99629  0.10653  1.0000
  C   C48       1.0  0.51525  0.00077  0.02258  1.0000
  C   C49       1.0  0.47019  0.97658  0.97030  1.0000
  C   C50       1.0  0.48746  0.95176  0.96456  1.0000
  C   C51       1.0  0.43946  0.97709  0.95409  1.0000
  C   C52       1.0  0.36556  0.87494  0.01380  1.0000
  C   C53       1.0  0.27122  0.23361  0.91224  1.0000
  C   C54       1.0  0.28107  0.26194  0.91414  1.0000
  C   C55       1.0  0.26091  0.28460  0.91744  1.0000
  C   C56       1.0  0.96938  0.47578  0.99204  1.0000
  C   C57       1.0  0.98602  0.45246  0.96252  1.0000
  C   C58       1.0  0.93853  0.47481  0.00221  1.0000
  C   C59       1.0  0.86946  0.36901  0.06799  1.0000
  C   C60       1.0  0.76425  0.72019  0.06470  1.0000
  C   C61       1.0  0.77334  0.75067  0.02323  1.0000
  C   C62       1.0  0.75510  0.77305  0.04223  1.0000
  C   C63       1.0  0.42460  0.00401  0.93665  1.0000
  C   C64       1.0  0.48476  0.00237  0.98518  1.0000
  C   C65       1.0  0.19623  0.80154  0.75087  1.0000
  C   C66       1.0  0.63865  0.68308  0.21589  1.0000
  C   C67       1.0  0.66795  0.67115  0.29919  1.0000
  C   C68       1.0  0.81068  0.20411  0.95787  1.0000
  C   C69       1.0  0.35958  0.29970  0.00086  1.0000
  C   C70       1.0  0.33077  0.31666  0.97557  1.0000
  C   C71       1.0  0.30648  0.29832  0.94391  1.0000
  C   C72       1.0  0.86412  0.19564  0.92773  1.0000
  C   C73       1.0  0.83335  0.18452  0.91985  1.0000
  C   C74       1.0  0.69134  0.69500  0.22588  1.0000
  C   C75       1.0  0.14696  0.80856  0.61135  1.0000
  C   C76       1.0  0.17594  0.82346  0.61910  1.0000
  C   C77       1.0  0.96944  0.52613  0.51343  1.0000
  C   C78       1.0  0.98509  0.54968  0.54502  1.0000
  C   C79       1.0  0.93866  0.52611  0.50458  1.0000
  C   C80       1.0  0.86456  0.62761  0.45149  1.0000
  C   C81       1.0  0.77607  0.27075  0.48473  1.0000
  C   C82       1.0  0.78669  0.24267  0.48308  1.0000
  C   C83       1.0  0.76724  0.21855  0.49543  1.0000
  C   C84       1.0  0.46991  0.02834  0.46607  1.0000
  C   C85       1.0  0.48578  0.05324  0.47978  1.0000
  C   C86       1.0  0.43952  0.02983  0.43588  1.0000
  C   C87       1.0  0.36701  0.13487  0.33473  1.0000
  C   C88       1.0  0.26215  0.78213  0.49186  1.0000
  C   C89       1.0  0.26999  0.75172  0.59679  1.0000
  C   C90       1.0  0.25213  0.72652  0.61845  1.0000
  C   C91       1.0  0.92460  0.49999  0.50259  1.0000
  C   C92       1.0  0.98533  0.50082  0.50144  1.0000
  C   C93       1.0  0.03237  0.47599  0.48889  1.0000
  C   C94       1.0  0.01658  0.45217  0.46065  1.0000
  C   C95       1.0  0.06320  0.47618  0.49602  1.0000
  C   C96       1.0  0.13493  0.37362  0.53240  1.0000
  C   C97       1.0  0.22473  0.72960  0.53914  1.0000
  C   C98       1.0  0.21616  0.75990  0.43472  1.0000
  C   C99       1.0  0.23476  0.78516  0.41202  1.0000
  C   C100      1.0  0.53116  0.97131  0.53883  1.0000
  C   C101      1.0  0.51616  0.94821  0.49932  1.0000
  C   C102      1.0  0.56102  0.96865  0.58379  1.0000
  C   C103      1.0  0.63011  0.86194  0.66938  1.0000
  C   C104      1.0  0.73693  0.22025  0.51350  1.0000
  C   C105      1.0  0.72695  0.24849  0.51223  1.0000
  C   C106      1.0  0.74574  0.27270  0.49842  1.0000
  C   C107      1.0  0.07719  0.50217  0.50055  1.0000
  C   C108      1.0  0.01646  0.50123  0.50182  1.0000
  C   C109      1.0  0.53115  0.02416  0.53873  1.0000
  C   C110      1.0  0.51497  0.05148  0.51020  1.0000
  C   C111      1.0  0.56147  0.02147  0.57668  1.0000
  C   C112      1.0  0.63628  0.11933  0.58562  1.0000
  C   C113      1.0  0.72453  0.76345  0.60420  1.0000
  C   C114      1.0  0.71510  0.73282  0.64826  1.0000
  C   C115      1.0  0.73448  0.71057  0.63071  1.0000
  C   C116      1.0  0.03150  0.52681  0.51595  1.0000
  C   C117      1.0  0.01475  0.54989  0.54742  1.0000
  C   C118      1.0  0.06239  0.52769  0.50733  1.0000
  C   C119      1.0  0.13208  0.63038  0.49148  1.0000
  C   C120      1.0  0.23075  0.27964  0.41694  1.0000
  C   C121      1.0  0.22206  0.25068  0.42398  1.0000
  C   C122      1.0  0.24205  0.22800  0.42711  1.0000
  C   C123      1.0  0.57507  0.99360  0.60030  1.0000
  C   C124      1.0  0.51590  0.99877  0.52224  1.0000
  C   C125      1.0  0.47029  0.97539  0.46983  1.0000
  C   C126      1.0  0.48707  0.95014  0.46596  1.0000
  C   C127      1.0  0.43957  0.97658  0.45183  1.0000
  C   C128      1.0  0.36230  0.87729  0.50506  1.0000
  C   C129      1.0  0.27230  0.23228  0.42372  1.0000
  C   C130      1.0  0.28166  0.26105  0.42032  1.0000
  C   C131      1.0  0.26098  0.28359  0.41811  1.0000
  C   C132      1.0  0.97022  0.47509  0.48991  1.0000
  C   C133      1.0  0.98690  0.45174  0.46112  1.0000
  C   C134      1.0  0.93934  0.47423  0.49963  1.0000
  C   C135      1.0  0.86795  0.37029  0.55977  1.0000
  C   C136      1.0  0.76351  0.71670  0.57018  1.0000
  C   C137      1.0  0.77209  0.74739  0.52458  1.0000
  C   C138      1.0  0.75346  0.76959  0.54174  1.0000
  C   C139      1.0  0.42530  0.00377  0.43492  1.0000
  C   C140      1.0  0.48537  0.00087  0.48558  1.0000
  C   C141      1.0  0.19429  0.79997  0.25157  1.0000
  C   C142      1.0  0.63769  0.67781  0.73877  1.0000
  C   C143      1.0  0.66792  0.66604  0.80527  1.0000
  C   C144      1.0  0.81304  0.20681  0.45314  1.0000
  C   C145      1.0  0.35960  0.30624  0.46893  1.0000
  C   C146      1.0  0.32909  0.31870  0.46910  1.0000
  C   C147      1.0  0.30608  0.29869  0.44117  1.0000
  C   C148      1.0  0.86684  0.20420  0.41215  1.0000
  C   C149      1.0  0.83754  0.18909  0.41516  1.0000
  C   C150      1.0  0.69073  0.69049  0.72912  1.0000
  C   C151      1.0  0.14410  0.80734  0.12353  1.0000
  C   C152      1.0  0.17420  0.82111  0.11541  1.0000
  N   N1        1.0  0.84303  0.62675  0.05691  1.0000
  N   N2        1.0  0.34508  0.13366  0.95705  1.0000
  N   N3        1.0  0.15433  0.37664  0.92091  1.0000
  N   N4        1.0  0.65720  0.86804  0.10216  1.0000
  N   N5        1.0  0.66060  0.12351  0.05700  1.0000
  N   N6        1.0  0.15517  0.62801  0.07089  1.0000
  N   N7        1.0  0.34131  0.87927  0.92891  1.0000
  N   N8        1.0  0.84955  0.37049  0.95266  1.0000
  N   N9        1.0  0.19235  0.77160  0.83157  1.0000
  N   N10       1.0  0.22251  0.81095  0.79450  1.0000
  N   N11       1.0  0.81449  0.23158  0.96308  1.0000
  N   N12       1.0  0.78199  0.19496  0.98248  1.0000
  N   N13       1.0  0.30917  0.27143  0.92908  1.0000
  N   N14       1.0  0.27785  0.30754  0.93510  1.0000
  N   N15       1.0  0.68924  0.72378  0.21066  1.0000
  N   N16       1.0  0.71837  0.68799  0.17718  1.0000
  N   N17       1.0  0.84299  0.62401  0.56384  1.0000
  N   N18       1.0  0.34597  0.13332  0.44719  1.0000
  N   N19       1.0  0.15563  0.37635  0.41546  1.0000
  N   N20       1.0  0.65612  0.86437  0.60283  1.0000
  N   N21       1.0  0.66407  0.11948  0.56058  1.0000
  N   N22       1.0  0.15653  0.62675  0.57375  1.0000
  N   N23       1.0  0.33814  0.88194  0.41880  1.0000
  N   N24       1.0  0.84697  0.37223  0.45011  1.0000
  N   N25       1.0  0.19111  0.77002  0.33442  1.0000
  N   N26       1.0  0.22014  0.81041  0.29342  1.0000
  N   N27       1.0  0.81501  0.23439  0.45899  1.0000
  N   N28       1.0  0.78481  0.19599  0.47651  1.0000
  N   N29       1.0  0.30957  0.27139  0.43304  1.0000
  N   N30       1.0  0.27729  0.30734  0.43010  1.0000
  N   N31       1.0  0.68808  0.71937  0.71156  1.0000
  N   N32       1.0  0.71812  0.68378  0.68377  1.0000
  O   O1        1.0  0.67639  0.64382  0.26684  1.0000
  O   O2        1.0  0.33176  0.34622  0.82258  1.0000
  O   O3        1.0  0.82803  0.15324  0.04856  1.0000
  O   O4        1.0  0.17254  0.85004  0.66998  1.0000
  O   O5        1.0  0.67640  0.64022  0.75702  1.0000
  O   O6        1.0  0.32524  0.34922  0.32858  1.0000
  O   O7        1.0  0.83599  0.15783  0.55072  1.0000
  O   O8        1.0  0.17366  0.85002  0.14292  1.0000
  C  Sn1       1.0  0.92889  0.59149  0.89934  1.0000
  C   C153      1.0  0.92752  0.62524  0.01122  1.0000
  C  Sn2       1.0  0.90049  0.61477  0.09312  1.0000
  C  Sn3       1.0  0.87702  0.63556  0.06248  1.0000
  C   C154      1.0  0.87839  0.60179  0.95064  1.0000
  C  Sn4       1.0  0.90541  0.61229  0.86870  1.0000
  O  Te1       1.0  0.95610  0.60145  0.81885  1.0000
  O  Te2       1.0  0.89697  0.58382  0.20448  1.0000
  O  Te3       1.0  0.84980  0.62557  0.14309  1.0000
  O  Te4       1.0  0.90894  0.64321  0.75738  1.0000
  Mg  Mg1       1.0  0.85577  0.58126  0.28361  1.0000
  Mg  Mg2       1.0  0.95013  0.64579  0.67811  1.0000
  C  Sn5       1.0  0.21725  0.34347  0.84474  1.0000
  C   C155      1.0  0.21481  0.31169  0.93630  1.0000
  C  Sn6       1.0  0.19104  0.36306  0.01564  1.0000
  C  Sn7       1.0  0.16652  0.38196  0.00312  1.0000
  C   C156      1.0  0.16629  0.34911  0.91158  1.0000
  C  Sn8       1.0  0.19273  0.36237  0.83222  1.0000
  O  Te5       1.0  0.24390  0.35621  0.76643  1.0000
  O  Te6       1.0  0.18913  0.33124  0.10652  1.0000
  O  Te7       1.0  0.13986  0.36919  0.08153  1.0000
  O  Te8       1.0  0.19465  0.39417  0.74136  1.0000
  Mg  Mg3       1.0  0.14812  0.32469  0.19088  1.0000
  Mg  Mg4       1.0  0.23564  0.40074  0.65688  1.0000
  C  Sn9       1.0  0.38685  0.13929  0.04655  1.0000
  C   C157      1.0  0.38711  0.10469  0.91913  1.0000
  C  Sn10      1.0  0.40559  0.11112  0.76867  1.0000
  C  Sn11      1.0  0.42145  0.08706  0.74499  1.0000
  C   C158      1.0  0.41851  0.05708  0.87234  1.0000
  C  Sn12      1.0  0.40272  0.11523  0.02287  1.0000
  O  Te9       1.0  0.36825  0.13338  0.19593  1.0000
  O  Te10      1.0  0.40817  0.14130  0.64314  1.0000
  O  Te11      1.0  0.44007  0.09299  0.59545  1.0000
  O  Te12      1.0  0.40013  0.08507  0.14833  1.0000
  Mg  Mg5       1.0  0.43625  0.13781  0.46176  1.0000
  Mg  Mg6       1.0  0.37204  0.08853  0.32970  1.0000
  C  Sn13      1.0  0.70988  0.84158  0.09180  1.0000
  C   C159      1.0  0.68004  0.84556  0.06359  1.0000
  C  Sn14      1.0  0.66232  0.82067  0.07835  1.0000
  C  Sn15      1.0  0.67469  0.79117  0.12233  1.0000
  C   C160      1.0  0.70452  0.78720  0.15054  1.0000
  C  Sn16      1.0  0.72225  0.81208  0.13578  1.0000
  O  Te13      1.0  0.72718  0.86679  0.07635  1.0000
  O  Te14      1.0  0.63254  0.82522  0.04948  1.0000
  O  Te15      1.0  0.65736  0.76596  0.13776  1.0000
  O  Te16      1.0  0.75201  0.80754  0.16465  1.0000
  Mg  Mg7       1.0  0.61798  0.78374  0.08603  1.0000
  Mg  Mg8       1.0  0.76659  0.84900  0.12824  1.0000
  C  Sn17      1.0  0.10572  0.44929  0.85588  1.0000
  C   C161      1.0  0.08090  0.44918  0.95907  1.0000
  C  Sn18      1.0  0.07693  0.48832  0.11626  1.0000
  C  Sn19      1.0  0.09547  0.46243  0.17155  1.0000
  C   C162      1.0  0.12028  0.46254  0.06841  1.0000
  C  Sn20      1.0  0.12427  0.42339  0.91117  1.0000
  O  Te17      1.0  0.11196  0.47500  0.69923  1.0000
  O  Te18      1.0  0.05198  0.48875  0.21717  1.0000
  O  Te19      1.0  0.08921  0.43671  0.32835  1.0000
  O  Te20      1.0  0.14920  0.42298  0.81032  1.0000
  Mg  Mg9       1.0  0.05275  0.44824  0.42037  1.0000
  Mg  Mg10      1.0  0.14846  0.46347  0.60716  1.0000
  C  Sn21      1.0  0.79107  0.64487  0.14788  1.0000
  C   C163      1.0  0.81510  0.64877  0.03211  1.0000
  C  Sn22      1.0  0.82339  0.61350  0.93252  1.0000
  C  Sn23      1.0  0.81007  0.63949  0.94907  1.0000
  C   C164      1.0  0.78874  0.70018  0.06480  1.0000
  C  Sn24      1.0  0.77775  0.67085  0.16442  1.0000
  O  Te21      1.0  0.78046  0.61532  0.24614  1.0000
  O  Te22      1.0  0.84744  0.61682  0.81762  1.0000
  O  Te23      1.0  0.82070  0.66905  0.85067  1.0000
  O  Te24      1.0  0.75372  0.66752  0.27929  1.0000
  Mg  Mg11      1.0  0.85393  0.66177  0.71210  1.0000
  Mg  Mg12      1.0  0.74722  0.62259  0.38494  1.0000
  C  Sn25      1.0  0.57761  0.89197  0.20102  1.0000
  C   C165      1.0  0.60511  0.89152  0.12554  1.0000
  C  Sn26      1.0  0.62147  0.91849  0.04997  1.0000
  C  Sn27      1.0  0.61011  0.94648  0.04994  1.0000
  C   C166      1.0  0.58264  0.94692  0.12542  1.0000
  C  Sn28      1.0  0.56626  0.91996  0.20099  1.0000
  O  Te25      1.0  0.56164  0.86473  0.27584  1.0000
  O  Te26      1.0  0.64622  0.85287  0.97525  1.0000
  O  Te27      1.0  0.62343  0.90913  0.97504  1.0000
  O  Te28      1.0  0.53885  0.92097  0.27571  1.0000
  Mg  Mg13      1.0  0.65969  0.89602  0.88955  1.0000
  Mg  Mg14      1.0  0.52536  0.87783  0.36152  1.0000
  C  Sn29      1.0  0.33756  0.19736  0.87015  1.0000
  C   C167      1.0  0.33308  0.16586  0.96296  1.0000
  C  Sn30      1.0  0.30805  0.21902  0.02655  1.0000
  C  Sn31      1.0  0.28162  0.17488  0.99665  1.0000
  C   C168      1.0  0.28611  0.20636  0.90386  1.0000
  C  Sn32      1.0  0.31382  0.21782  0.84025  1.0000
  O  Te29      1.0  0.36545  0.20829  0.80778  1.0000
  O  Te30      1.0  0.30410  0.18744  0.11903  1.0000
  O  Te31      1.0  0.25640  0.22853  0.05912  1.0000
  O  Te32      1.0  0.31777  0.24938  0.74780  1.0000
  Mg  Mg15      1.0  0.26201  0.18364  0.17771  1.0000
  Mg  Mg16      1.0  0.35985  0.25321  0.68898  1.0000
  C  Sn33      1.0  0.58307  0.08750  0.20125  1.0000
  C   C169      1.0  0.61127  0.09465  0.13050  1.0000
  C  Sn34      1.0  0.62334  0.07998  0.02347  1.0000
  C  Sn35      1.0  0.60419  0.99312  0.98627  1.0000
  C   C170      1.0  0.57869  0.05060  0.05697  1.0000
  C  Sn36      1.0  0.56660  0.06524  0.16405  1.0000
  O  Te33      1.0  0.57144  0.10245  0.30790  1.0000
  O  Te34      1.0  0.64890  0.02290  0.95429  1.0000
  O  Te35      1.0  0.61585  0.97818  0.87952  1.0000
  O  Te36      1.0  0.53838  0.05774  0.23318  1.0000
  Mg  Mg17      1.0  0.65520  0.99629  0.81611  1.0000
  Mg  Mg18      1.0  0.53204  0.08435  0.37129  1.0000
  C  Sn37      1.0  0.33055  0.82385  0.88795  1.0000
  C   C171      1.0  0.32425  0.85233  0.89604  1.0000
  C  Sn38      1.0  0.29708  0.85768  0.95828  1.0000
  C  Sn39      1.0  0.27845  0.89868  0.01371  1.0000
  C   C172      1.0  0.28476  0.87023  0.00565  1.0000
  C  Sn40      1.0  0.30923  0.80025  0.94339  1.0000
  O  Te37      1.0  0.35785  0.81901  0.82528  1.0000
  O  Te38      1.0  0.29129  0.88634  0.96507  1.0000
  O  Te39      1.0  0.25113  0.90355  0.07641  1.0000
  O  Te40      1.0  0.31503  0.77162  0.93661  1.0000
  Mg  Mg19      1.0  0.25359  0.94643  0.06063  1.0000
  Mg  Mg20      1.0  0.35541  0.77610  0.84117  1.0000
  C  Sn41      1.0  0.10472  0.55507  0.15258  1.0000
  C   C173      1.0  0.07951  0.55545  0.05675  1.0000
  C  Sn42      1.0  0.06922  0.51715  0.90883  1.0000
  C  Sn43      1.0  0.08720  0.54363  0.85549  1.0000
  C   C174      1.0  0.11239  0.54325  0.95128  1.0000
  C  Sn44      1.0  0.12270  0.58155  0.09925  1.0000
  O  Te41      1.0  0.11191  0.52852  0.30003  1.0000
  O  Te42      1.0  0.04391  0.51698  0.81517  1.0000
  O  Te43      1.0  0.07999  0.57020  0.70792  1.0000
  O  Te44      1.0  0.14800  0.58171  0.19286  1.0000
  Mg  Mg21      1.0  0.04335  0.55871  0.62336  1.0000
  Mg  Mg22      1.0  0.14859  0.54000  0.38462  1.0000
  C  Sn45      1.0  0.79786  0.34630  0.91446  1.0000
  C   C175      1.0  0.82529  0.34482  0.98955  1.0000
  C  Sn46      1.0  0.84361  0.38204  0.04837  1.0000
  C  Sn47      1.0  0.83160  0.35557  0.03170  1.0000
  C   C176      1.0  0.80151  0.29245  0.95662  1.0000
  C  Sn48      1.0  0.78585  0.31983  0.89778  1.0000
  O  Te45      1.0  0.78261  0.37392  0.85654  1.0000
  O  Te46      1.0  0.87099  0.38112  0.12305  1.0000
  O  Te47      1.0  0.84687  0.32793  0.08970  1.0000
  O  Te48      1.0  0.75849  0.32075  0.82311  1.0000
  Mg  Mg23      1.0  0.88335  0.33817  0.18225  1.0000
  Mg  Mg24      1.0  0.74612  0.36369  0.76378  1.0000
  C  Sn49      1.0  0.40981  0.90139  0.14481  1.0000
  C   C177      1.0  0.38550  0.90142  0.04233  1.0000
  C  Sn50      1.0  0.37750  0.86169  0.88108  1.0000
  C  Sn51      1.0  0.39691  0.88706  0.82093  1.0000
  C   C178      1.0  0.42121  0.88702  0.92335  1.0000
  C  Sn52      1.0  0.42922  0.92676  0.08465  1.0000
  O  Te49      1.0  0.41469  0.87628  0.30558  1.0000
  O  Te50      1.0  0.35305  0.86120  0.78099  1.0000
  O  Te51      1.0  0.39201  0.91218  0.66002  1.0000
  O  Te52      1.0  0.45366  0.92724  0.18470  1.0000
  Mg  Mg25      1.0  0.35574  0.90080  0.57100  1.0000
  Mg  Mg26      1.0  0.45100  0.88765  0.39464  1.0000
  C  Sn53      1.0  0.67831  0.18458  0.88951  1.0000
  C   C179      1.0  0.68068  0.15331  0.99581  1.0000
  C  Sn54      1.0  0.70232  0.20783  0.14141  1.0000
  C  Sn55      1.0  0.71926  0.22946  0.18170  1.0000
  C   C180      1.0  0.71688  0.26070  0.07546  1.0000
  C  Sn56      1.0  0.69524  0.20620  0.92979  1.0000
  O  Te53      1.0  0.65922  0.19413  0.74460  1.0000
  O  Te54      1.0  0.70432  0.17645  0.24570  1.0000
  O  Te55      1.0  0.73836  0.21987  0.32674  1.0000
  O  Te56      1.0  0.69323  0.23756  0.82557  1.0000
  Mg  Mg27      1.0  0.73342  0.17472  0.42903  1.0000
  Mg  Mg28      1.0  0.66413  0.23932  0.64227  1.0000
  C  Sn57      1.0  0.93146  0.40978  0.11153  1.0000
  C   C181      1.0  0.92451  0.37578  0.99725  1.0000
  C  Sn58      1.0  0.89772  0.38530  0.91544  1.0000
  C  Sn59      1.0  0.87471  0.36380  0.94862  1.0000
  C   C182      1.0  0.88166  0.39782  0.06286  1.0000
  C  Sn60      1.0  0.90844  0.38828  0.14471  1.0000
  O  Te57      1.0  0.95842  0.40077  0.19188  1.0000
  O  Te58      1.0  0.89399  0.41602  0.80166  1.0000
  O  Te59      1.0  0.84774  0.37283  0.86815  1.0000
  O  Te60      1.0  0.91218  0.35758  0.25845  1.0000
  Mg  Mg29      1.0  0.85326  0.41718  0.72377  1.0000
  Mg  Mg30      1.0  0.95289  0.35640  0.33648  1.0000
  C  Sn61      1.0  0.21353  0.60907  0.99150  1.0000
  C   C183      1.0  0.20767  0.70151  0.00085  1.0000
  C  Sn62      1.0  0.17993  0.70467  0.06468  1.0000
  C  Sn63      1.0  0.16032  0.67948  0.12045  1.0000
  C   C184      1.0  0.16886  0.65166  0.11112  1.0000
  C  Sn64      1.0  0.19660  0.64848  0.04728  1.0000
  O  Te61      1.0  0.24137  0.60642  0.92725  1.0000
  O  Te62      1.0  0.17188  0.73273  0.07271  1.0000
  O  Te63      1.0  0.13246  0.68215  0.18473  1.0000
  O  Te64      1.0  0.20465  0.62044  0.03926  1.0000
  Mg  Mg31      1.0  0.13161  0.72501  0.17022  1.0000
  Mg  Mg32      1.0  0.24223  0.56352  0.94186  1.0000
  C  Sn65      1.0  0.88388  0.56693  0.63967  1.0000
  C   C185      1.0  0.88683  0.59767  0.52305  1.0000
  C  Sn66      1.0  0.90586  0.60602  0.37399  1.0000
  C  Sn67      1.0  0.92227  0.58316  0.34070  1.0000
  C   C186      1.0  0.91931  0.55244  0.45726  1.0000
  C  Sn68      1.0  0.90029  0.54408  0.60639  1.0000
  O  Te65      1.0  0.86473  0.55911  0.78786  1.0000
  O  Te66      1.0  0.90844  0.63690  0.25934  1.0000
  O  Te67      1.0  0.94143  0.59101  0.19237  1.0000
  O  Te68      1.0  0.89770  0.51321  0.72097  1.0000
  Mg  Mg33      1.0  0.93739  0.63612  0.07523  1.0000
  Mg  Mg34      1.0  0.86875  0.51397  0.90506  1.0000
  C  Sn69      1.0  0.19801  0.35391  0.25884  1.0000
  C   C187      1.0  0.17278  0.35085  0.36396  1.0000
  C  Sn70      1.0  0.16697  0.32356  0.51158  1.0000
  C  Sn71      1.0  0.18680  0.29882  0.55514  1.0000
  C   C188      1.0  0.21201  0.30189  0.45009  1.0000
  C  Sn72      1.0  0.21784  0.32918  0.30240  1.0000
  O  Te69      1.0  0.20338  0.38140  0.11188  1.0000
  O  Te70      1.0  0.14159  0.32103  0.61463  1.0000
  O  Te71      1.0  0.18141  0.27131  0.70224  1.0000
  O  Te72      1.0  0.24320  0.33171  0.19941  1.0000
  Mg  Mg35      1.0  0.14390  0.27897  0.80172  1.0000
  Mg  Mg36      1.0  0.24092  0.37376  0.01236  1.0000
  C  Sn73      1.0  0.38467  0.07415  0.53968  1.0000
  C   C189      1.0  0.38832  0.10431  0.41551  1.0000
  C  Sn74      1.0  0.40786  0.11097  0.26987  1.0000
  C  Sn75      1.0  0.42409  0.08699  0.24780  1.0000
  C   C190      1.0  0.42043  0.05686  0.37190  1.0000
  C  Sn76      1.0  0.40090  0.05017  0.51761  1.0000
  O  Te73      1.0  0.36501  0.06801  0.68427  1.0000
  O  Te74      1.0  0.41114  0.14130  0.14753  1.0000
  O  Te75      1.0  0.44376  0.09315  0.10306  1.0000
  O  Te76      1.0  0.39761  0.01986  0.63989  1.0000
  Mg  Mg37      1.0  0.43791  0.07350  0.97233  1.0000
  Mg  Mg38      1.0  0.36816  0.02303  0.81507  1.0000
  C  Sn77      1.0  0.71448  0.81470  0.70413  1.0000
  C   C191      1.0  0.70589  0.78888  0.67146  1.0000
  C  Sn78      1.0  0.67952  0.78872  0.58781  1.0000
  C  Sn79      1.0  0.66138  0.81492  0.53561  1.0000
  C   C192      1.0  0.66998  0.84072  0.56825  1.0000
  C  Sn80      1.0  0.69634  0.84090  0.65193  1.0000
  O  Te77      1.0  0.74093  0.81436  0.78793  1.0000
  O  Te78      1.0  0.67139  0.76263  0.55662  1.0000
  O  Te79      1.0  0.63492  0.81524  0.45175  1.0000
  O  Te80      1.0  0.70448  0.86697  0.68309  1.0000
  Mg  Mg39      1.0  0.63334  0.77421  0.43822  1.0000
  Mg  Mg40      1.0  0.74253  0.85543  0.80139  1.0000
  C  Sn81      1.0  0.12659  0.43758  0.43182  1.0000
  C   C193      1.0  0.12231  0.40649  0.53799  1.0000
  C  Sn82      1.0  0.09537  0.39598  0.62115  1.0000
  C  Sn83      1.0  0.07222  0.41697  0.59763  1.0000
  C   C194      1.0  0.07651  0.44804  0.49149  1.0000
  C  Sn84      1.0  0.10345  0.45857  0.40829  1.0000
  O  Te81      1.0  0.15371  0.44758  0.34994  1.0000
  O  Te82      1.0  0.09160  0.36480  0.72671  1.0000
  O  Te83      1.0  0.04509  0.40695  0.67963  1.0000
  O  Te84      1.0  0.10721  0.48973  0.30277  1.0000
  Mg  Mg41      1.0  0.05065  0.36229  0.81047  1.0000
  Mg  Mg42      1.0  0.14815  0.49226  0.21887  1.0000
  C  Sn85      1.0  0.79110  0.64170  0.65899  1.0000
  C   C195      1.0  0.81490  0.64560  0.54140  1.0000
  C  Sn86      1.0  0.82561  0.67496  0.43964  1.0000
  C  Sn87      1.0  0.81228  0.70097  0.45583  1.0000
  C   C196      1.0  0.78851  0.69706  0.57338  1.0000
  C  Sn88      1.0  0.77777  0.66771  0.67518  1.0000
  O  Te85      1.0  0.78075  0.61213  0.75941  1.0000
  O  Te86      1.0  0.84942  0.67828  0.32293  1.0000
  O  Te87      1.0  0.82265  0.73055  0.35527  1.0000
  O  Te88      1.0  0.75399  0.66438  0.79184  1.0000
  Mg  Mg43      1.0  0.85561  0.72326  0.21479  1.0000
  Mg  Mg44      1.0  0.74779  0.61941  0.90012  1.0000
  C  Sn89      1.0  0.57499  0.90538  0.77617  1.0000
  C   C197      1.0  0.58077  0.93606  0.66734  1.0000
  C  Sn90      1.0  0.60217  0.94357  0.53127  1.0000
  C  Sn91      1.0  0.61810  0.91993  0.50331  1.0000
  C   C198      1.0  0.61231  0.88927  0.61208  1.0000
  C  Sn92      1.0  0.59092  0.88173  0.74821  1.0000
  O  Te89      1.0  0.55350  0.89840  0.91140  1.0000
  O  Te90      1.0  0.60945  0.97441  0.42423  1.0000
  O  Te91      1.0  0.63961  0.92693  0.36795  1.0000
  O  Te92      1.0  0.58552  0.85092  0.85519  1.0000
  Mg  Mg45      1.0  0.63899  0.97232  0.25724  1.0000
  Mg  Mg46      1.0  0.55678  0.91758  0.02214  1.0000
  C  Sn93      1.0  0.31737  0.20861  0.26868  1.0000
  C   C199      1.0  0.29291  0.20690  0.37802  1.0000
  C  Sn94      1.0  0.28767  0.18073  0.53398  1.0000
  C  Sn95      1.0  0.30728  0.15577  0.58173  1.0000
  C   C200      1.0  0.33173  0.15749  0.47244  1.0000
  C  Sn96      1.0  0.33698  0.18365  0.31643  1.0000
  O  Te93      1.0  0.32218  0.23500  0.11339  1.0000
  O  Te94      1.0  0.26306  0.17955  0.64112  1.0000
  O  Te95      1.0  0.30245  0.12937  0.73716  1.0000
  O  Te96      1.0  0.36157  0.18484  0.20934  1.0000
  Mg  Mg47      1.0  0.26592  0.13866  0.83954  1.0000
  Mg  Mg48      1.0  0.35874  0.22572  0.01095  1.0000
  C  Sn97      1.0  0.58673  0.08294  0.70375  1.0000
  C   C201      1.0  0.61476  0.08998  0.62982  1.0000
  C  Sn98      1.0  0.62581  0.07623  0.51529  1.0000
  C  Sn99      1.0  0.60848  0.05502  0.47370  1.0000
  C   C202      1.0  0.58047  0.04800  0.54759  1.0000
  C  Sn100     1.0  0.56940  0.06173  0.66216  1.0000
  O  Te97      1.0  0.57613  0.09696  0.81791  1.0000
  O  Te98      1.0  0.65390  0.08363  0.44306  1.0000
  O  Te99      1.0  0.61911  0.04100  0.35945  1.0000
  O  Te100     1.0  0.54133  0.05435  0.73435  1.0000
  Mg  Mg49      1.0  0.65866  0.05852  0.29440  1.0000
  Mg  Mg50      1.0  0.53655  0.07945  0.88294  1.0000
  C  Sn101     1.0  0.31792  0.80552  0.50788  1.0000
  C   C203      1.0  0.28758  0.80570  0.51288  1.0000
  C  Sn102     1.0  0.27252  0.83340  0.46156  1.0000
  C  Sn103     1.0  0.28812  0.86151  0.40392  1.0000
  C   C204      1.0  0.31844  0.86133  0.39891  1.0000
  C  Sn104     1.0  0.33351  0.83363  0.45025  1.0000
  O  Te101     1.0  0.33252  0.77755  0.55978  1.0000
  O  Te102     1.0  0.24219  0.83299  0.46775  1.0000
  O  Te103     1.0  0.27349  0.88949  0.35201  1.0000
  O  Te104     1.0  0.36383  0.83403  0.44404  1.0000
  Mg  Mg51      1.0  0.23211  0.87704  0.38360  1.0000
  Mg  Mg52      1.0  0.37393  0.79000  0.52807  1.0000
  C  Sn105     1.0  0.10550  0.55401  0.65518  1.0000
  C   C205      1.0  0.08032  0.55468  0.55846  1.0000
  C  Sn106     1.0  0.07295  0.58113  0.41071  1.0000
  C  Sn107     1.0  0.09114  0.60744  0.35845  1.0000
  C   C206      1.0  0.11631  0.60675  0.45513  1.0000
  C  Sn108     1.0  0.12369  0.58032  0.60293  1.0000
  O  Te105     1.0  0.11243  0.52732  0.80244  1.0000
  O  Te106     1.0  0.04766  0.58126  0.31614  1.0000
  O  Te107     1.0  0.08418  0.63413  0.21107  1.0000
  O  Te108     1.0  0.14896  0.58017  0.69744  1.0000
  Mg  Mg53      1.0  0.04747  0.62306  0.12501  1.0000
  Mg  Mg54      1.0  0.14918  0.53838  0.88853  1.0000
  C  Sn109     1.0  0.79459  0.33304  0.31625  1.0000
  C   C207      1.0  0.79812  0.30169  0.41684  1.0000
  C  Sn110     1.0  0.81757  0.29164  0.55985  1.0000
  C  Sn111     1.0  0.83382  0.31337  0.60331  1.0000
  C   C208      1.0  0.83028  0.34469  0.50277  1.0000
  C  Sn112     1.0  0.81084  0.35477  0.35970  1.0000
  O  Te109     1.0  0.77502  0.34257  0.17386  1.0000
  O  Te110     1.0  0.82073  0.26018  0.65843  1.0000
  O  Te111     1.0  0.85340  0.30380  0.74583  1.0000
  O  Te112     1.0  0.80767  0.38620  0.26118  1.0000
  Mg  Mg55      1.0  0.85009  0.25852  0.84024  1.0000
  Mg  Mg56      1.0  0.77831  0.38789  0.07942  1.0000
  C  Sn113     1.0  0.38657  0.95400  0.38219  1.0000
  C   C209      1.0  0.41240  0.95230  0.47489  1.0000
  C  Sn114     1.0  0.42530  0.92393  0.56876  1.0000
  C  Sn115     1.0  0.41213  0.89667  0.56991  1.0000
  C   C210      1.0  0.38632  0.89838  0.47723  1.0000
  C  Sn116     1.0  0.37340  0.92675  0.38334  1.0000
  O  Te113     1.0  0.37593  0.98262  0.28924  1.0000
  O  Te114     1.0  0.45112  0.92281  0.66048  1.0000
  O  Te115     1.0  0.42467  0.86804  0.66297  1.0000
  O  Te116     1.0  0.34760  0.92787  0.29163  1.0000
  Mg  Mg57      1.0  0.45986  0.87838  0.76745  1.0000
  Mg  Mg58      1.0  0.33885  0.97228  0.18455  1.0000
  C  Sn117     1.0  0.67921  0.18119  0.39875  1.0000
  C   C211      1.0  0.68298  0.14994  0.50108  1.0000
  C  Sn118     1.0  0.70325  0.14027  0.63962  1.0000
  C  Sn119     1.0  0.72009  0.16229  0.67675  1.0000
  C   C212      1.0  0.71631  0.19351  0.57448  1.0000
  C  Sn120     1.0  0.69605  0.20321  0.43588  1.0000
  O  Te117     1.0  0.65882  0.19034  0.26091  1.0000
  O  Te118     1.0  0.70663  0.10890  0.74004  1.0000
  O  Te119     1.0  0.74049  0.15311  0.81473  1.0000
  O  Te120     1.0  0.69266  0.23455  0.33552  1.0000
  Mg  Mg59      1.0  0.73718  0.10781  0.91394  1.0000
  Mg  Mg60      1.0  0.66211  0.23568  0.16166  1.0000
  C  Sn121     1.0  0.91140  0.39798  0.69136  1.0000
  C   C213      1.0  0.88615  0.39786  0.59699  1.0000
  C  Sn122     1.0  0.87941  0.42298  0.43992  1.0000
  C  Sn123     1.0  0.89832  0.44876  0.37574  1.0000
  C   C214      1.0  0.92355  0.44887  0.47007  1.0000
  C  Sn124     1.0  0.93031  0.42376  0.62719  1.0000
  O  Te121     1.0  0.91770  0.37261  0.84808  1.0000
  O  Te122     1.0  0.85403  0.42233  0.34793  1.0000
  O  Te123     1.0  0.89199  0.47413  0.21890  1.0000
  O  Te124     1.0  0.95567  0.42439  0.71914  1.0000
  Mg  Mg61      1.0  0.85487  0.46240  0.14087  1.0000
  Mg  Mg62      1.0  0.95485  0.38434  0.92615  1.0000
  C  Sn125     1.0  0.17152  0.69584  0.62973  1.0000
  C   C215      1.0  0.20168  0.69900  0.60950  1.0000
  C  Sn126     1.0  0.21785  0.67924  0.55160  1.0000
  C  Sn127     1.0  0.20359  0.65584  0.51300  1.0000
  C   C216      1.0  0.17345  0.65269  0.53319  1.0000
  C  Sn128     1.0  0.15725  0.67244  0.59112  1.0000
  O  Te125     1.0  0.15578  0.71585  0.68778  1.0000
  O  Te126     1.0  0.24798  0.68284  0.53245  1.0000
  O  Te127     1.0  0.21935  0.63581  0.45491  1.0000
  O  Te128     1.0  0.12714  0.66884  0.61024  1.0000
  Mg  Mg63      1.0  0.25993  0.64993  0.44937  1.0000
  Mg  Mg64      1.0  0.11517  0.70175  0.69322  1.0000
