data_image0
_chemical_formula_structural       H80C140N16F8SnCSn2CSnTe4Mg2SnCSn2CSnTe4Mg2SnCSn2CSnTe4Mg2SnCSn2CSnTe4Mg2SnCSn2CSnTe4Mg2SnCSn2CSnTe4Mg2SnCSn2CSnTe4Mg2SnCSn2CSnTe4Mg2SnCSn2CSnTe4Mg2SnCSn2CSnTe4Mg2SnCSn2CSnTe4Mg2SnCSn2CSnTe4Mg2SnCSn2CSnTe4Mg2SnCSn2CSnTe4Mg2SnCSn2CSnTe4Mg2SnCSn2CSnTe4Mg2
_chemical_formula_sum              "H80 C172 N16 F8 Sn64 Te64 Mg32"
_cell_length_a       31.8741
_cell_length_b       7.10414
_cell_length_c       26.3729
_cell_angle_alpha    90.3212
_cell_angle_beta     96.9221
_cell_angle_gamma    89.7239

_symmetry_space_group_name_H-M    'P1'
_space_group_IT_number       1

loop_
  _space_group_symop_operation_xyz
  'x, y, z'

loop_
  _atom_site_type_symbol
  _atom_site_label
  _atom_site_symmetry_multiplicity
  _atom_site_fract_x
  _atom_site_fract_y
  _atom_site_fract_z
  _atom_site_occupancy
  H   H1        1.0  0.76985  0.04974  0.39366  1.0000
  H   H2        1.0  0.22282  0.02497  0.10959  1.0000
  H   H3        1.0  0.72768  0.54675  0.10657  1.0000
  H   H4        1.0  0.77439  0.95559  0.89036  1.0000
  H   H5        1.0  0.82289  0.25300  0.35827  1.0000
  H   H6        1.0  0.16932  0.22503  0.14656  1.0000
  H   H7        1.0  0.67216  0.73384  0.14390  1.0000
  H   H8        1.0  0.82827  0.75566  0.85387  1.0000
  H   H9        1.0  0.92067  0.02847  0.46806  1.0000
  H   H10       1.0  0.07339  0.02784  0.02999  1.0000
  H   H11       1.0  0.57983  0.55332  0.02119  1.0000
  H   H12       1.0  0.92408  0.95971  0.96959  1.0000
  H   H13       1.0  0.86778  0.83158  0.50493  1.0000
  H   H14       1.0  0.12682  0.83196  0.99219  1.0000
  H   H15       1.0  0.63505  0.36770  0.98361  1.0000
  H   H16       1.0  0.87016  0.15399  0.00724  1.0000
  H   H17       1.0  0.17659  0.15087  0.37820  1.0000
  H   H18       1.0  0.31715  0.63120  0.11952  1.0000
  H   H19       1.0  0.32356  0.34899  0.61644  1.0000
  H   H20       1.0  0.68394  0.36630  0.87598  1.0000
  H   H21       1.0  0.12787  0.91320  0.33463  1.0000
  H   H22       1.0  0.36548  0.39581  0.16495  1.0000
  H   H23       1.0  0.36931  0.58870  0.66387  1.0000
  H   H24       1.0  0.63600  0.60243  0.83015  1.0000
  H   H25       1.0  0.17050  0.50559  0.45021  1.0000
  H   H26       1.0  0.32975  0.98915  0.04590  1.0000
  H   H27       1.0  0.32888  0.00109  0.54910  1.0000
  H   H28       1.0  0.67111  0.00893  0.94938  1.0000
  H   H29       1.0  0.21641  0.74918  0.49625  1.0000
  H   H30       1.0  0.28311  0.22871  0.99912  1.0000
  H   H31       1.0  0.28491  0.75834  0.50004  1.0000
  H   H32       1.0  0.71673  0.76817  0.99710  1.0000
  H   H33       1.0  0.09186  0.13000  0.74617  1.0000
  H   H34       1.0  0.58530  0.59278  0.73901  1.0000
  H   H35       1.0  0.04635  0.18068  0.22488  1.0000
  H   H36       1.0  0.95094  0.19123  0.27806  1.0000
  H   H37       1.0  0.55097  0.67683  0.22467  1.0000
  H   H38       1.0  0.45425  0.68569  0.27659  1.0000
  H   H39       1.0  0.45155  0.32399  0.77790  1.0000
  H   H40       1.0  0.54527  0.31998  0.72144  1.0000
  H   H41       1.0  0.97567  0.39353  0.68355  1.0000
  H   H42       1.0  0.47320  0.91790  0.69227  1.0000
  H   H43       1.0  0.13152  0.35992  0.70011  1.0000
  H   H44       1.0  0.62670  0.81209  0.69294  1.0000
  H   H45       1.0  0.01188  0.91909  0.36030  1.0000
  H   H46       1.0  0.98294  0.90615  0.14372  1.0000
  H   H47       1.0  0.51361  0.41612  0.35881  1.0000
  H   H48       1.0  0.48574  0.39964  0.14223  1.0000
  H   H49       1.0  0.48328  0.58909  0.64155  1.0000
  H   H50       1.0  0.51559  0.59538  0.85814  1.0000
  H   H51       1.0  0.06030  0.13562  0.41331  1.0000
  H   H52       1.0  0.93467  0.11985  0.09010  1.0000
  H   H53       1.0  0.56023  0.63521  0.41297  1.0000
  H   H54       1.0  0.43671  0.61068  0.08865  1.0000
  H   H55       1.0  0.43477  0.37062  0.58944  1.0000
  H   H56       1.0  0.56505  0.37930  0.90968  1.0000
  H   H57       1.0  0.01471  0.61958  0.63780  1.0000
  H   H58       1.0  0.51381  0.13202  0.64542  1.0000
  H   H59       1.0  0.09568  0.38669  0.27658  1.0000
  H   H60       1.0  0.90151  0.39426  0.22589  1.0000
  H   H61       1.0  0.59867  0.88563  0.27759  1.0000
  H   H62       1.0  0.40419  0.88685  0.22445  1.0000
  H   H63       1.0  0.40229  0.11491  0.72722  1.0000
  H   H64       1.0  0.59610  0.11594  0.77139  1.0000
  H   H65       1.0  0.93817  0.27555  0.41094  1.0000
  H   H66       1.0  0.05519  0.26795  0.08984  1.0000
  H   H67       1.0  0.44320  0.75753  0.40881  1.0000
  H   H68       1.0  0.55962  0.78387  0.08445  1.0000
  H   H69       1.0  0.05879  0.73637  0.58546  1.0000
  H   H70       1.0  0.94215  0.71518  0.90976  1.0000
  H   H71       1.0  0.55793  0.26146  0.59582  1.0000
  H   H72       1.0  0.44243  0.24514  0.91223  1.0000
  H   H73       1.0  0.09674  0.61930  0.32911  1.0000
  H   H74       1.0  0.89614  0.61471  0.17293  1.0000
  H   H75       1.0  0.60065  0.11769  0.33019  1.0000
  H   H76       1.0  0.39813  0.10697  0.17130  1.0000
  H   H77       1.0  0.90476  0.38085  0.67093  1.0000
  H   H78       1.0  0.10446  0.39739  0.82792  1.0000
  H   H79       1.0  0.39841  0.88389  0.67341  1.0000
  H   H80       1.0  0.60253  0.89083  0.82445  1.0000
  C   C1        1.0  0.02615  0.02962  0.28832  1.0000
  C   C2        1.0  0.97000  0.02887  0.21530  1.0000
  C   C3        1.0  0.52933  0.52605  0.28734  1.0000
  C   C4        1.0  0.47323  0.52368  0.21385  1.0000
  C   C5        1.0  0.47028  0.47643  0.71393  1.0000
  C   C6        1.0  0.52727  0.47688  0.78558  1.0000
  C   C7        1.0  0.03041  0.24110  0.71767  1.0000
  C   C8        1.0  0.52569  0.73647  0.71933  1.0000
  C   C9        1.0  0.07460  0.23489  0.72212  1.0000
  C   C10       1.0  0.56916  0.70927  0.71846  1.0000
  C   C11       1.0  0.07649  0.50292  0.66515  1.0000
  C   C12       1.0  0.57391  0.98705  0.66568  1.0000
  C   C13       1.0  0.04951  0.16746  0.26612  1.0000
  C   C14       1.0  0.94729  0.17246  0.23691  1.0000
  C   C15       1.0  0.55313  0.66422  0.26589  1.0000
  C   C16       1.0  0.45041  0.66684  0.23545  1.0000
  C   C17       1.0  0.44770  0.33698  0.73661  1.0000
  C   C18       1.0  0.54972  0.33559  0.76267  1.0000
  C   C19       1.0  0.00984  0.38181  0.68638  1.0000
  C   C20       1.0  0.50668  0.88991  0.69160  1.0000
  C   C21       1.0  0.09718  0.36345  0.69653  1.0000
  C   C22       1.0  0.59279  0.83192  0.69246  1.0000
  C   C23       1.0  0.03004  0.02187  0.34179  1.0000
  C   C24       1.0  0.96547  0.01385  0.16191  1.0000
  C   C25       1.0  0.53197  0.51936  0.34078  1.0000
  C   C26       1.0  0.46828  0.50736  0.16045  1.0000
  C   C27       1.0  0.46581  0.48487  0.66047  1.0000
  C   C28       1.0  0.53281  0.48941  0.83899  1.0000
  C   C29       1.0  0.08085  0.27921  0.34916  1.0000
  C   C30       1.0  0.91514  0.27503  0.15353  1.0000
  C   C31       1.0  0.58243  0.77785  0.34965  1.0000
  C   C32       1.0  0.41755  0.76725  0.15209  1.0000
  C   C33       1.0  0.41566  0.22527  0.65401  1.0000
  C   C34       1.0  0.58371  0.23052  0.84482  1.0000
  C   C35       1.0  0.05699  0.14434  0.37183  1.0000
  C   C36       1.0  0.93849  0.13473  0.13148  1.0000
  C   C37       1.0  0.55806  0.64289  0.37151  1.0000
  C   C38       1.0  0.44088  0.62676  0.13002  1.0000
  C   C39       1.0  0.43888  0.36131  0.63092  1.0000
  C   C40       1.0  0.56054  0.36796  0.86821  1.0000
  C   C41       1.0  0.03201  0.51005  0.66025  1.0000
  C   C42       1.0  0.52991  0.01224  0.66478  1.0000
  C   C43       1.0  0.07700  0.28706  0.29548  1.0000
  C   C44       1.0  0.91968  0.29045  0.20715  1.0000
  C   C45       1.0  0.57983  0.78512  0.29601  1.0000
  C   C46       1.0  0.42250  0.78367  0.20571  1.0000
  C   C47       1.0  0.42021  0.21598  0.70772  1.0000
  C   C48       1.0  0.57809  0.21732  0.79115  1.0000
  C   C49       1.0  0.22532  0.11360  0.46893  1.0000
  C   C50       1.0  0.77697  0.11772  0.02495  1.0000
  C   C51       1.0  0.72377  0.61222  0.47751  1.0000
  C   C52       1.0  0.27123  0.59434  0.02780  1.0000
  C   C53       1.0  0.77780  0.88615  0.52945  1.0000
  C   C54       1.0  0.22141  0.88258  0.97546  1.0000
  C   C55       1.0  0.27596  0.39013  0.52550  1.0000
  C   C56       1.0  0.72800  0.40224  0.96922  1.0000
  C   C57       1.0  0.25788  0.20706  0.44833  1.0000
  C   C58       1.0  0.74445  0.21481  0.04514  1.0000
  C   C59       1.0  0.75527  0.70199  0.45399  1.0000
  C   C60       1.0  0.23721  0.67868  0.04829  1.0000
  C   C61       1.0  0.74637  0.79652  0.55307  1.0000
  C   C62       1.0  0.25507  0.79620  0.95478  1.0000
  C   C63       1.0  0.24359  0.29572  0.54620  1.0000
  C   C64       1.0  0.76100  0.30762  0.94931  1.0000
  C   C65       1.0  0.28343  0.34313  0.47509  1.0000
  C   C66       1.0  0.71919  0.35248  0.01870  1.0000
  C   C67       1.0  0.78267  0.83627  0.47842  1.0000
  C   C68       1.0  0.21206  0.82130  0.02380  1.0000
  C   C69       1.0  0.71883  0.66262  0.52857  1.0000
  C   C70       1.0  0.28058  0.65544  0.97943  1.0000
  C   C71       1.0  0.21775  0.16111  0.51932  1.0000
  C   C72       1.0  0.78560  0.16691  0.97534  1.0000
  C   C73       1.0  0.20002  0.96552  0.43991  1.0000
  C   C74       1.0  0.29687  0.44588  0.05633  1.0000
  C   C75       1.0  0.30090  0.53759  0.55522  1.0000
  C   C76       1.0  0.70347  0.55102  0.93965  1.0000
  C   C77       1.0  0.81530  0.92982  0.45211  1.0000
  C   C78       1.0  0.17826  0.91555  0.04865  1.0000
  C   C79       1.0  0.68493  0.44622  0.04262  1.0000
  C   C80       1.0  0.81895  0.06747  0.95106  1.0000
  C   C81       1.0  0.80297  0.04432  0.40951  1.0000
  C   C82       1.0  0.18988  0.02357  0.09297  1.0000
  C   C83       1.0  0.69514  0.54664  0.08853  1.0000
  C   C84       1.0  0.80732  0.95786  0.90706  1.0000
  C   C85       1.0  0.83231  0.15721  0.38963  1.0000
  C   C86       1.0  0.16032  0.13540  0.11351  1.0000
  C   C87       1.0  0.66451  0.65072  0.10933  1.0000
  C   C88       1.0  0.83703  0.84647  0.88673  1.0000
  C   C89       1.0  0.87502  0.15530  0.41099  1.0000
  C   C90       1.0  0.11802  0.14010  0.09065  1.0000
  C   C91       1.0  0.62266  0.65640  0.08503  1.0000
  C   C92       1.0  0.87941  0.84405  0.90935  1.0000
  C   C93       1.0  0.88765  0.03272  0.45172  1.0000
  C   C94       1.0  0.10610  0.02594  0.04762  1.0000
  C   C95       1.0  0.61215  0.55058  0.04011  1.0000
  C   C96       1.0  0.89129  0.95920  0.95220  1.0000
  C   C97       1.0  0.85809  0.92145  0.47227  1.0000
  C   C98       1.0  0.13594  0.91514  0.02654  1.0000
  C   C99       1.0  0.64302  0.44636  0.01899  1.0000
  C   C100      1.0  0.86128  0.06925  0.97313  1.0000
  C   C101      1.0  0.17572  0.00927  0.39351  1.0000
  C   C102      1.0  0.31945  0.49011  0.10385  1.0000
  C   C103      1.0  0.32401  0.49227  0.60224  1.0000
  C   C104      1.0  0.68157  0.50728  0.89169  1.0000
  C   C105      1.0  0.14848  0.87567  0.36914  1.0000
  C   C106      1.0  0.34646  0.35776  0.12925  1.0000
  C   C107      1.0  0.34952  0.62686  0.62883  1.0000
  C   C108      1.0  0.65487  0.63998  0.86599  1.0000
  C   C109      1.0  0.14588  0.69422  0.38968  1.0000
  C   C110      1.0  0.35088  0.17684  0.10840  1.0000
  C   C111      1.0  0.35178  0.81059  0.60987  1.0000
  C   C112      1.0  0.65042  0.82073  0.88682  1.0000
  C   C113      1.0  0.17183  0.64720  0.43487  1.0000
  C   C114      1.0  0.32680  0.12969  0.06183  1.0000
  C   C115      1.0  0.32738  0.85848  0.56368  1.0000
  C   C116      1.0  0.67414  0.86819  0.93360  1.0000
  C   C117      1.0  0.19802  0.78263  0.46000  1.0000
  C   C118      1.0  0.30053  0.26357  0.03592  1.0000
  C   C119      1.0  0.30263  0.72263  0.53652  1.0000
  C   C120      1.0  0.69989  0.73375  0.95993  1.0000
  C   C121      1.0  0.90547  0.28236  0.39195  1.0000
  C   C122      1.0  0.08755  0.26888  0.10995  1.0000
  C   C123      1.0  0.41044  0.77121  0.39040  1.0000
  C   C124      1.0  0.59162  0.77888  0.10547  1.0000
  C   C125      1.0  0.09120  0.73464  0.60539  1.0000
  C   C126      1.0  0.90992  0.71797  0.88928  1.0000
  C   C127      1.0  0.59089  0.23731  0.61246  1.0000
  C   C128      1.0  0.40968  0.23487  0.89360  1.0000
  C   C129      1.0  0.11511  0.56392  0.36389  1.0000
  C   C130      1.0  0.87998  0.55810  0.13686  1.0000
  C   C131      1.0  0.61695  0.06195  0.36621  1.0000
  C   C132      1.0  0.38145  0.04859  0.13574  1.0000
  C   C133      1.0  0.88781  0.43573  0.63515  1.0000
  C   C134      1.0  0.11895  0.45002  0.86531  1.0000
  C   C135      1.0  0.38126  0.94071  0.63801  1.0000
  C   C136      1.0  0.61976  0.94868  0.85975  1.0000
  C   C137      1.0  0.99793  0.89788  0.25203  1.0000
  C   C138      1.0  0.50149  0.39381  0.25070  1.0000
  C   C139      1.0  0.00352  0.10880  0.74683  1.0000
  C   C140      1.0  0.49863  0.60844  0.74982  1.0000
  N   N1        1.0  0.10885  0.39619  0.38019  1.0000
  N   N2        1.0  0.88752  0.38979  0.12125  1.0000
  N   N3        1.0  0.60947  0.89482  0.38198  1.0000
  N   N4        1.0  0.38931  0.88049  0.12010  1.0000
  N   N5        1.0  0.89492  0.60216  0.61861  1.0000
  N   N6        1.0  0.11012  0.61585  0.88155  1.0000
  N   N7        1.0  0.38795  0.10886  0.62250  1.0000
  N   N8        1.0  0.61235  0.11649  0.87582  1.0000
  N   N9        1.0  0.89337  0.39827  0.35549  1.0000
  N   N10       1.0  0.09955  0.38061  0.14763  1.0000
  N   N11       1.0  0.39873  0.89091  0.35479  1.0000
  N   N12       1.0  0.60310  0.88092  0.14533  1.0000
  N   N13       1.0  0.10322  0.62738  0.64383  1.0000
  N   N14       1.0  0.89815  0.61172  0.85033  1.0000
  N   N15       1.0  0.60218  0.10783  0.64552  1.0000
  N   N16       1.0  0.39783  0.11735  0.85725  1.0000
  F   F1        1.0  0.26653  0.15775  0.40040  1.0000
  F   F2        1.0  0.73539  0.16639  0.09258  1.0000
  F   F3        1.0  0.76053  0.64885  0.40523  1.0000
  F   F4        1.0  0.22715  0.61265  0.09394  1.0000
  F   F5        1.0  0.74150  0.85042  0.60195  1.0000
  F   F6        1.0  0.26468  0.86048  0.90891  1.0000
  F   F7        1.0  0.23550  0.34254  0.59451  1.0000
  F   F8        1.0  0.77080  0.36072  0.90247  1.0000
  C  Sn1       1.0  0.18000  0.24045  0.97220  1.0000
  C   C141      1.0  0.18683  0.05523  0.95696  1.0000
  C  Sn2       1.0  0.17557  0.00096  0.90599  1.0000
  C  Sn3       1.0  0.15929  0.13464  0.86948  1.0000
  C   C142      1.0  0.15247  0.31975  0.88473  1.0000
  C  Sn4       1.0  0.16264  0.37413  0.93570  1.0000
  O  Te1       1.0  0.09072  0.27294  0.02336  1.0000
  O  Te2       1.0  0.18268  0.81496  0.89166  1.0000
  O  Te3       1.0  0.14887  0.08335  0.81829  1.0000
  O  Te4       1.0  0.15555  0.56001  0.95002  1.0000
  Mg  Mg1       1.0  0.16335  0.81338  0.81744  1.0000
  Mg  Mg2       1.0  0.07519  0.54313  0.02422  1.0000
  C  Sn5       1.0  0.36689  0.48090  0.47898  1.0000
  C   C143      1.0  0.32349  0.47553  0.46293  1.0000
  C  Sn6       1.0  0.30734  0.54615  0.41518  1.0000
  C  Sn7       1.0  0.33514  0.62366  0.38277  1.0000
  C   C144      1.0  0.37851  0.62898  0.39882  1.0000
  C  Sn8       1.0  0.39469  0.55841  0.44657  1.0000
  O  Te5       1.0  0.38234  0.40949  0.52688  1.0000
  O  Te6       1.0  0.26384  0.53929  0.39998  1.0000
  O  Te7       1.0  0.31965  0.69511  0.33484  1.0000
  O  Te8       1.0  0.43817  0.56522  0.46177  1.0000
  Mg  Mg3       1.0  0.25799  0.65413  0.33124  1.0000
  Mg  Mg4       1.0  0.44405  0.45034  0.53048  1.0000
  C  Sn9       1.0  0.40957  0.77667  0.81355  1.0000
  C   C145      1.0  0.42433  0.93574  0.84147  1.0000
  C  Sn10      1.0  0.46389  0.01087  0.83568  1.0000
  C  Sn11      1.0  0.48920  0.92531  0.80123  1.0000
  C   C146      1.0  0.47443  0.76637  0.77333  1.0000
  C  Sn12      1.0  0.43489  0.69111  0.77910  1.0000
  O  Te9       1.0  0.36993  0.70396  0.81995  1.0000
  O  Te10      1.0  0.47905  0.16995  0.86403  1.0000
  O  Te11      1.0  0.52887  0.99817  0.79485  1.0000
  O  Te12      1.0  0.42079  0.53215  0.75077  1.0000
  Mg  Mg5       1.0  0.53527  0.21687  0.84199  1.0000
  Mg  Mg6       1.0  0.36457  0.48518  0.77276  1.0000
  C  Sn13      1.0  0.81940  0.23990  0.53269  1.0000
  C   C147      1.0  0.81331  0.05364  0.54683  1.0000
  C  Sn14      1.0  0.82579  0.99369  0.59649  1.0000
  C  Sn15      1.0  0.84690  0.12262  0.63279  1.0000
  C   C148      1.0  0.85297  0.30876  0.61865  1.0000
  C  Sn16      1.0  0.83944  0.36883  0.56899  1.0000
  O  Te13      1.0  0.80560  0.29676  0.48283  1.0000
  O  Te14      1.0  0.81936  0.80676  0.60972  1.0000
  O  Te15      1.0  0.86070  0.06560  0.68267  1.0000
  O  Te16      1.0  0.84585  0.55564  0.55576  1.0000
  Mg  Mg7       1.0  0.84371  0.79659  0.68235  1.0000
  Mg  Mg8       1.0  0.82150  0.56599  0.48314  1.0000
  C  Sn17      1.0  0.97569  0.52485  0.81515  1.0000
  C   C149      1.0  0.93234  0.51977  0.81885  1.0000
  C  Sn18      1.0  0.90902  0.35781  0.80476  1.0000
  C  Sn19      1.0  0.92946  0.19752  0.78663  1.0000
  C   C150      1.0  0.97278  0.20263  0.78294  1.0000
  C  Sn20      1.0  0.99613  0.36456  0.79702  1.0000
  O  Te17      1.0  0.99838  0.68826  0.82945  1.0000
  O  Te18      1.0  0.86571  0.35612  0.80878  1.0000
  O  Te19      1.0  0.90673  0.03404  0.77233  1.0000
  O  Te20      1.0  0.03941  0.36628  0.79301  1.0000
  Mg  Mg9       1.0  0.84843  0.10041  0.78468  1.0000
  Mg  Mg10      1.0  0.05673  0.62187  0.81713  1.0000
  C  Sn21      1.0  0.00986  0.54866  0.19961  1.0000
  C   C151      1.0  0.02454  0.70679  0.22801  1.0000
  C  Sn22      1.0  0.06430  0.78122  0.22299  1.0000
  C  Sn23      1.0  0.08993  0.69590  0.18885  1.0000
  C   C152      1.0  0.07525  0.53789  0.16047  1.0000
  C  Sn24      1.0  0.03549  0.46334  0.16547  1.0000
  O  Te21      1.0  0.97000  0.47664  0.20523  1.0000
  O  Te22      1.0  0.07830  0.93937  0.25181  1.0000
  O  Te23      1.0  0.12982  0.76806  0.18325  1.0000
  O  Te24      1.0  0.02149  0.30531  0.13667  1.0000
  Mg  Mg11      1.0  0.13491  0.98559  0.23078  1.0000
  Mg  Mg12      1.0  0.96488  0.25903  0.15764  1.0000
  C  Sn25      1.0  0.70066  0.22862  0.45752  1.0000
  C   C153      1.0  0.70548  0.41792  0.44538  1.0000
  C  Sn26      1.0  0.67701  0.50445  0.40818  1.0000
  C  Sn27      1.0  0.64299  0.39965  0.38258  1.0000
  C   C154      1.0  0.63817  0.21048  0.39472  1.0000
  C  Sn28      1.0  0.66664  0.12381  0.43192  1.0000
  O  Te25      1.0  0.72951  0.14499  0.49484  1.0000
  O  Te26      1.0  0.68248  0.69385  0.39669  1.0000
  O  Te27      1.0  0.61413  0.48345  0.34523  1.0000
  O  Te28      1.0  0.66010  0.93454  0.44341  1.0000
  Mg  Mg13      1.0  0.63490  0.74505  0.34301  1.0000
  Mg  Mg14      1.0  0.70765  0.88324  0.49711  1.0000
  C  Sn29      1.0  0.83260  0.89151  0.13331  1.0000
  C   C155      1.0  0.84057  0.70726  0.11815  1.0000
  C  Sn30      1.0  0.83062  0.65194  0.06722  1.0000
  C  Sn31      1.0  0.81235  0.78354  0.03068  1.0000
  C   C156      1.0  0.80439  0.96767  0.04584  1.0000
  C  Sn32      1.0  0.81540  0.02311  0.09676  1.0000
  O  Te29      1.0  0.84280  0.94373  0.18442  1.0000
  O  Te30      1.0  0.83887  0.46695  0.05298  1.0000
  O  Te31      1.0  0.90185  0.74981  0.97953  1.0000
  O  Te32      1.0  0.80717  0.20798  0.11101  1.0000
  Mg  Mg15      1.0  0.91910  0.48189  0.97880  1.0000
  Mg  Mg16      1.0  0.82664  0.21188  0.18516  1.0000
  C  Sn33      1.0  0.61749  0.47469  0.53819  1.0000
  C   C157      1.0  0.62261  0.34805  0.57884  1.0000
  C  Sn34      1.0  0.66020  0.34419  0.61208  1.0000
  C  Sn35      1.0  0.69335  0.46961  0.60455  1.0000
  C   C158      1.0  0.68822  0.59618  0.56392  1.0000
  C  Sn36      1.0  0.65064  0.60012  0.53065  1.0000
  O  Te33      1.0  0.57964  0.47610  0.50543  1.0000
  O  Te34      1.0  0.66459  0.21628  0.65245  1.0000
  O  Te35      1.0  0.73122  0.46811  0.63735  1.0000
  O  Te36      1.0  0.64624  0.72795  0.49032  1.0000
  Mg  Mg17      1.0  0.72210  0.26822  0.68679  1.0000
  Mg  Mg18      1.0  0.58874  0.67621  0.45596  1.0000
  C  Sn37      1.0  0.96280  0.84773  0.63003  1.0000
  C   C159      1.0  0.93661  0.70944  0.64658  1.0000
  C  Sn38      1.0  0.92731  0.70922  0.69700  1.0000
  C  Sn39      1.0  0.94453  0.85024  0.73160  1.0000
  C   C160      1.0  0.97069  0.98843  0.71505  1.0000
  C  Sn40      1.0  0.98002  0.98874  0.66463  1.0000
  O  Te37      1.0  0.97167  0.84523  0.57945  1.0000
  O  Te38      1.0  0.90106  0.56948  0.71266  1.0000
  O  Te39      1.0  0.93563  0.85263  0.78222  1.0000
  O  Te40      1.0  0.00732  0.12839  0.64896  1.0000
  Mg  Mg19      1.0  0.89822  0.63253  0.78539  1.0000
  Mg  Mg20      1.0  0.01016  0.06554  0.57624  1.0000
  C  Sn41      1.0  0.32936  0.41311  0.88299  1.0000
  C   C161      1.0  0.37222  0.39804  0.90141  1.0000
  C  Sn42      1.0  0.38693  0.45870  0.95081  1.0000
  C  Sn43      1.0  0.35819  0.53593  0.98248  1.0000
  C   C162      1.0  0.31536  0.55094  0.96405  1.0000
  C  Sn44      1.0  0.30063  0.49034  0.91465  1.0000
  O  Te41      1.0  0.31536  0.35157  0.83348  1.0000
  O  Te42      1.0  0.42992  0.44225  0.96838  1.0000
  O  Te43      1.0  0.27253  0.57884  0.03202  1.0000
  O  Te44      1.0  0.25766  0.50673  0.89708  1.0000
  Mg  Mg21      1.0  0.33401  0.52701  0.03865  1.0000
  Mg  Mg22      1.0  0.25384  0.40328  0.82684  1.0000
  C  Sn45      1.0  0.05599  0.77952  0.76617  1.0000
  C   C163      1.0  0.02752  0.91459  0.78033  1.0000
  C  Sn46      1.0  0.02973  0.97615  0.83097  1.0000
  C  Sn47      1.0  0.06108  0.90123  0.86824  1.0000
  C   C164      1.0  0.08953  0.76627  0.85408  1.0000
  C  Sn48      1.0  0.08733  0.70460  0.80344  1.0000
  O  Te45      1.0  0.05319  0.72004  0.71531  1.0000
  O  Te46      1.0  0.00199  0.11126  0.84422  1.0000
  O  Te47      1.0  0.06386  0.96083  0.91913  1.0000
  O  Te48      1.0  0.11614  0.56960  0.79019  1.0000
  Mg  Mg23      1.0  0.01858  0.14755  0.91840  1.0000
  Mg  Mg24      1.0  0.09959  0.53328  0.71602  1.0000
  C  Sn49      1.0  0.51338  0.04528  0.19805  1.0000
  C   C165      1.0  0.52792  0.20353  0.22649  1.0000
  C  Sn50      1.0  0.56769  0.27827  0.22164  1.0000
  C  Sn51      1.0  0.59346  0.19313  0.18763  1.0000
  C   C166      1.0  0.57892  0.03499  0.15920  1.0000
  C  Sn52      1.0  0.53808  0.96014  0.16404  1.0000
  O  Te49      1.0  0.47245  0.97295  0.20350  1.0000
  O  Te50      1.0  0.58154  0.43654  0.25048  1.0000
  O  Te51      1.0  0.63335  0.26560  0.18219  1.0000
  O  Te52      1.0  0.52422  0.80199  0.13521  1.0000
  Mg  Mg25      1.0  0.63822  0.48319  0.22971  1.0000
  Mg  Mg26      1.0  0.46754  0.75528  0.15593  1.0000
  C  Sn53      1.0  0.48130  0.04194  0.34356  1.0000
  C   C167      1.0  0.43788  0.04292  0.34694  1.0000
  C  Sn54      1.0  0.41049  0.14914  0.31286  1.0000
  C  Sn55      1.0  0.42683  0.25653  0.27459  1.0000
  C   C168      1.0  0.47023  0.25548  0.27121  1.0000
  C  Sn56      1.0  0.49764  0.14932  0.30528  1.0000
  O  Te53      1.0  0.50702  0.93471  0.37802  1.0000
  O  Te54      1.0  0.36720  0.14795  0.31701  1.0000
  O  Te55      1.0  0.40000  0.36379  0.24011  1.0000
  O  Te56      1.0  0.54091  0.15046  0.30114  1.0000
  Mg  Mg27      1.0  0.34345  0.31658  0.26116  1.0000
  Mg  Mg28      1.0  0.56360  0.98181  0.35695  1.0000
  C  Sn57      1.0  0.97492  0.54572  0.34409  1.0000
  C   C169      1.0  0.93148  0.54972  0.34736  1.0000
  C  Sn58      1.0  0.90455  0.65853  0.31344  1.0000
  C  Sn59      1.0  0.92137  0.76549  0.27543  1.0000
  C   C170      1.0  0.96477  0.76144  0.27217  1.0000
  C  Sn60      1.0  0.99174  0.65269  0.30608  1.0000
  O  Te57      1.0  0.00125  0.43594  0.37841  1.0000
  O  Te58      1.0  0.86124  0.66032  0.31747  1.0000
  O  Te59      1.0  0.89499  0.87532  0.24111  1.0000
  O  Te60      1.0  0.03502  0.65084  0.30206  1.0000
  Mg  Mg29      1.0  0.83822  0.83171  0.26191  1.0000
  Mg  Mg30      1.0  0.05806  0.47944  0.35758  1.0000
  C  Sn61      1.0  0.11757  0.95317  0.52661  1.0000
  C   C171      1.0  0.12251  0.84104  0.57031  1.0000
  C  Sn62      1.0  0.15900  0.85464  0.60522  1.0000
  C  Sn63      1.0  0.19121  0.98308  0.59627  1.0000
  C   C172      1.0  0.18732  0.09514  0.55260  1.0000
  C  Sn64      1.0  0.15084  0.08161  0.51767  1.0000
  O  Te61      1.0  0.08083  0.93724  0.49223  1.0000
  O  Te62      1.0  0.16324  0.74102  0.64862  1.0000
  O  Te63      1.0  0.22797  0.99893  0.63070  1.0000
  O  Te64      1.0  0.14660  0.19516  0.47429  1.0000
  Mg  Mg31      1.0  0.21908  0.81412  0.68423  1.0000
  Mg  Mg32      1.0  0.09076  0.12225  0.43868  1.0000
