data_image0
_chemical_formula_structural       H16C44N16F8C2Sn2C2HTe2HMgC2Sn2C2HTe2HMgC2Sn2C2HTe2HMgC2Sn2C2HTe2HMgC2Sn2C2HTe2HMgC2Sn2C2HTe2HMgC2Sn2C2HTe2HMgC2Sn2C2HTe2HMgC2Sn2C2HTe2HMgC2Sn2C2HTe2HMgC2Sn2C2HTe2HMgC2Sn2C2HTe2HMgC2Sn2C2HTe2HMgC2Sn2C2HTe2HMgC2Sn2C2HTe2HMgC2Sn2C2HTe2HMgC2Sn2C2HTe2HMgC2Sn2C2HTe2HMgC2Sn2C2HTe2HMgC2Sn2C2HTe2HMgC2Sn2C2HTe2HMgC2Sn2C2HTe2HMgC2Sn2C2HTe2HMgC2Sn2C2HTe2HMgC2Sn2C2HTe2HMgC2Sn2C2HTe2HMgC2Sn2C2HTe2HMgC2Sn2C2HTe2HMgC2Sn2C2HTe2HMgC2Sn2C2HTe2HMgC2Sn2C2HTe2HMgC2Sn2C2HTe2HMg
_chemical_formula_sum              "H80 C172 N16 F8 Sn64 Te64 Mg32"
_cell_length_a       31.8741
_cell_length_b       7.10414
_cell_length_c       26.3729
_cell_angle_alpha    90.3212
_cell_angle_beta     96.9221
_cell_angle_gamma    89.7239

_symmetry_space_group_name_H-M    'P1'
_space_group_IT_number       1

loop_
  _space_group_symop_operation_xyz
  'x, y, z'

loop_
  _atom_site_type_symbol
  _atom_site_label
  _atom_site_symmetry_multiplicity
  _atom_site_fract_x
  _atom_site_fract_y
  _atom_site_fract_z
  _atom_site_occupancy
  H   H1        1.0  0.93817  0.27555  0.41094  1.0000
  H   H2        1.0  0.05519  0.26795  0.08984  1.0000
  H   H3        1.0  0.44320  0.75753  0.40881  1.0000
  H   H4        1.0  0.55962  0.78387  0.08445  1.0000
  H   H5        1.0  0.05879  0.73637  0.58546  1.0000
  H   H6        1.0  0.94215  0.71518  0.90976  1.0000
  H   H7        1.0  0.55793  0.26146  0.59582  1.0000
  H   H8        1.0  0.44243  0.24514  0.91223  1.0000
  H   H9        1.0  0.09674  0.61930  0.32911  1.0000
  H   H10       1.0  0.89614  0.61471  0.17293  1.0000
  H   H11       1.0  0.60065  0.11769  0.33019  1.0000
  H   H12       1.0  0.39813  0.10697  0.17130  1.0000
  H   H13       1.0  0.90476  0.38085  0.67093  1.0000
  H   H14       1.0  0.10446  0.39739  0.82792  1.0000
  H   H15       1.0  0.39841  0.88389  0.67341  1.0000
  H   H16       1.0  0.60253  0.89083  0.82445  1.0000
  C   C1        1.0  0.22532  0.11360  0.46893  1.0000
  C   C2        1.0  0.77697  0.11772  0.02495  1.0000
  C   C3        1.0  0.72377  0.61222  0.47751  1.0000
  C   C4        1.0  0.27123  0.59434  0.02780  1.0000
  C   C5        1.0  0.77780  0.88615  0.52945  1.0000
  C   C6        1.0  0.22141  0.88258  0.97546  1.0000
  C   C7        1.0  0.27596  0.39013  0.52550  1.0000
  C   C8        1.0  0.72800  0.40224  0.96922  1.0000
  C   C9        1.0  0.25788  0.20706  0.44833  1.0000
  C   C10       1.0  0.74445  0.21481  0.04514  1.0000
  C   C11       1.0  0.75527  0.70199  0.45399  1.0000
  C   C12       1.0  0.23721  0.67868  0.04829  1.0000
  C   C13       1.0  0.74637  0.79652  0.55307  1.0000
  C   C14       1.0  0.25507  0.79620  0.95478  1.0000
  C   C15       1.0  0.24359  0.29572  0.54620  1.0000
  C   C16       1.0  0.76100  0.30762  0.94931  1.0000
  C   C17       1.0  0.28343  0.34313  0.47509  1.0000
  C   C18       1.0  0.71919  0.35248  0.01870  1.0000
  C   C19       1.0  0.78267  0.83627  0.47842  1.0000
  C   C20       1.0  0.21206  0.82130  0.02380  1.0000
  C   C21       1.0  0.71883  0.66262  0.52857  1.0000
  C   C22       1.0  0.28058  0.65544  0.97943  1.0000
  C   C23       1.0  0.21775  0.16111  0.51932  1.0000
  C   C24       1.0  0.78560  0.16691  0.97534  1.0000
  C   C25       1.0  0.90547  0.28236  0.39195  1.0000
  C   C26       1.0  0.08755  0.26888  0.10995  1.0000
  C   C27       1.0  0.41044  0.77121  0.39040  1.0000
  C   C28       1.0  0.59162  0.77888  0.10547  1.0000
  C   C29       1.0  0.09120  0.73464  0.60539  1.0000
  C   C30       1.0  0.90992  0.71797  0.88928  1.0000
  C   C31       1.0  0.59089  0.23731  0.61246  1.0000
  C   C32       1.0  0.40968  0.23487  0.89360  1.0000
  C   C33       1.0  0.11511  0.56392  0.36389  1.0000
  C   C34       1.0  0.87998  0.55810  0.13686  1.0000
  C   C35       1.0  0.61695  0.06195  0.36621  1.0000
  C   C36       1.0  0.38145  0.04859  0.13574  1.0000
  C   C37       1.0  0.88781  0.43573  0.63515  1.0000
  C   C38       1.0  0.11895  0.45002  0.86531  1.0000
  C   C39       1.0  0.38126  0.94071  0.63801  1.0000
  C   C40       1.0  0.61976  0.94868  0.85975  1.0000
  C   C41       1.0  0.99793  0.89788  0.25203  1.0000
  C   C42       1.0  0.50149  0.39381  0.25070  1.0000
  C   C43       1.0  0.00352  0.10880  0.74683  1.0000
  C   C44       1.0  0.49863  0.60844  0.74982  1.0000
  N   N1        1.0  0.10885  0.39619  0.38019  1.0000
  N   N2        1.0  0.88752  0.38979  0.12125  1.0000
  N   N3        1.0  0.60947  0.89482  0.38198  1.0000
  N   N4        1.0  0.38931  0.88049  0.12010  1.0000
  N   N5        1.0  0.89492  0.60216  0.61861  1.0000
  N   N6        1.0  0.11012  0.61585  0.88155  1.0000
  N   N7        1.0  0.38795  0.10886  0.62250  1.0000
  N   N8        1.0  0.61235  0.11649  0.87582  1.0000
  N   N9        1.0  0.89337  0.39827  0.35549  1.0000
  N   N10       1.0  0.09955  0.38061  0.14763  1.0000
  N   N11       1.0  0.39873  0.89091  0.35479  1.0000
  N   N12       1.0  0.60310  0.88092  0.14533  1.0000
  N   N13       1.0  0.10322  0.62738  0.64383  1.0000
  N   N14       1.0  0.89815  0.61172  0.85033  1.0000
  N   N15       1.0  0.60218  0.10783  0.64552  1.0000
  N   N16       1.0  0.39783  0.11735  0.85725  1.0000
  F   F1        1.0  0.26653  0.15775  0.40040  1.0000
  F   F2        1.0  0.73539  0.16639  0.09258  1.0000
  F   F3        1.0  0.76053  0.64885  0.40523  1.0000
  F   F4        1.0  0.22715  0.61265  0.09394  1.0000
  F   F5        1.0  0.74150  0.85042  0.60195  1.0000
  F   F6        1.0  0.26468  0.86048  0.90891  1.0000
  F   F7        1.0  0.23550  0.34254  0.59451  1.0000
  F   F8        1.0  0.77080  0.36072  0.90247  1.0000
  C   C45       1.0  0.98847  0.57730  0.31895  1.0000
  C   C46       1.0  0.97499  0.72663  0.28666  1.0000
  C  Sn1       1.0  0.93255  0.78175  0.28046  1.0000
  C  Sn2       1.0  0.90315  0.68534  0.30715  1.0000
  C   C47       1.0  0.91696  0.53621  0.33939  1.0000
  C   C48       1.0  0.95950  0.48218  0.34530  1.0000
  H   H17       1.0  0.02139  0.53555  0.32354  1.0000
  O  Te1       1.0  0.91960  0.93120  0.24804  1.0000
  O  Te2       1.0  0.86055  0.73756  0.30167  1.0000
  H   H18       1.0  0.96994  0.36664  0.37032  1.0000
  Mg  Mg1       1.0  0.85823  0.94998  0.25311  1.0000
  C   C49       1.0  0.01809  0.50116  0.17201  1.0000
  C   C50       1.0  0.06063  0.50543  0.16399  1.0000
  C  Sn3       1.0  0.08746  0.64304  0.18775  1.0000
  C  Sn4       1.0  0.07133  0.77866  0.22012  1.0000
  C   C51       1.0  0.02874  0.77310  0.22792  1.0000
  C   C52       1.0  0.00216  0.63483  0.20394  1.0000
  H   H19       1.0  0.99753  0.39412  0.15348  1.0000
  O  Te3       1.0  0.12987  0.64532  0.17932  1.0000
  O  Te4       1.0  0.09746  0.91770  0.24436  1.0000
  H   H20       1.0  0.96924  0.63148  0.21018  1.0000
  Mg  Mg2       1.0  0.15296  0.86258  0.22089  1.0000
  C   C53       1.0  0.42000  0.27253  0.28360  1.0000
  C   C54       1.0  0.46367  0.28240  0.28267  1.0000
  C  Sn5       1.0  0.49027  0.14502  0.30704  1.0000
  C  Sn6       1.0  0.47164  0.99511  0.33278  1.0000
  C   C55       1.0  0.42790  0.98642  0.33346  1.0000
  C   C56       1.0  0.40266  0.12468  0.30896  1.0000
  H   H21       1.0  0.39962  0.37944  0.26463  1.0000
  O  Te5       1.0  0.53384  0.15705  0.30576  1.0000
  O  Te6       1.0  0.49750  0.85588  0.35743  1.0000
  H   H22       1.0  0.36884  0.11693  0.30966  1.0000
  Mg  Mg3       1.0  0.55494  0.93355  0.34501  1.0000
  C   C57       1.0  0.50907  0.07242  0.18282  1.0000
  C   C58       1.0  0.52344  0.21961  0.21569  1.0000
  C  Sn7       1.0  0.56624  0.26712  0.22241  1.0000
  C  Sn8       1.0  0.59511  0.16517  0.19568  1.0000
  C   C59       1.0  0.58042  0.01825  0.16286  1.0000
  C   C60       1.0  0.53645  0.97184  0.15643  1.0000
  H   H23       1.0  0.47588  0.03657  0.17782  1.0000
  O  Te7       1.0  0.58006  0.41452  0.25541  1.0000
  O  Te8       1.0  0.63806  0.20975  0.20168  1.0000
  H   H24       1.0  0.52534  0.85795  0.13095  1.0000
  Mg  Mg4       1.0  0.64161  0.42218  0.25091  1.0000
  C   C61       1.0  0.08494  0.24939  0.71799  1.0000
  C   C62       1.0  0.04163  0.24195  0.72179  1.0000
  C  Sn9       1.0  0.01387  0.36728  0.69412  1.0000
  C  Sn10      1.0  0.02987  0.50236  0.66207  1.0000
  C   C63       1.0  0.07325  0.50857  0.65850  1.0000
  C   C64       1.0  0.10074  0.38253  0.68637  1.0000
  H   H25       1.0  0.10621  0.15181  0.73953  1.0000
  O  Te9       1.0  0.97069  0.35796  0.69838  1.0000
  O  Te10      1.0  0.00283  0.62925  0.63397  1.0000
  H   H26       1.0  0.13427  0.38825  0.68340  1.0000
  Mg  Mg5       1.0  0.94650  0.56106  0.65251  1.0000
  C   C65       1.0  0.99319  0.43269  0.81286  1.0000
  C   C66       1.0  0.98075  0.26913  0.78554  1.0000
  C  Sn11      1.0  0.93821  0.21728  0.77821  1.0000
  C  Sn12      1.0  0.90764  0.33161  0.79863  1.0000
  C   C67       1.0  0.92042  0.49504  0.82588  1.0000
  C   C68       1.0  0.96306  0.54557  0.83301  1.0000
  H   H27       1.0  0.02619  0.47186  0.81836  1.0000
  O  Te11      1.0  0.92632  0.05337  0.75083  1.0000
  O  Te12      1.0  0.86492  0.28312  0.79185  1.0000
  H   H28       1.0  0.97269  0.67229  0.85413  1.0000
  Mg  Mg6       1.0  0.86430  0.04644  0.75177  1.0000
  C   C69       1.0  0.51823  0.99603  0.66769  1.0000
  C   C70       1.0  0.56179  0.00127  0.66547  1.0000
  C  Sn13      1.0  0.58808  0.86153  0.68920  1.0000
  C  Sn14      1.0  0.57033  0.71394  0.71561  1.0000
  C   C71       1.0  0.52671  0.70988  0.71758  1.0000
  C   C72       1.0  0.50070  0.85047  0.69371  1.0000
  H   H29       1.0  0.49917  0.10474  0.64920  1.0000
  O  Te13      1.0  0.63154  0.86894  0.68662  1.0000
  O  Te14      1.0  0.59588  0.57243  0.73965  1.0000
  H   H30       1.0  0.46697  0.84630  0.69541  1.0000
  Mg  Mg7       1.0  0.65327  0.64382  0.72546  1.0000
  C   C73       1.0  0.40503  0.80342  0.79834  1.0000
  C   C74       1.0  0.41970  0.95151  0.83072  1.0000
  C  Sn15      1.0  0.46246  0.99972  0.83651  1.0000
  C  Sn16      1.0  0.49099  0.89755  0.80931  1.0000
  C   C75       1.0  0.47600  0.74972  0.77699  1.0000
  C   C76       1.0  0.43315  0.70262  0.77149  1.0000
  H   H31       1.0  0.37188  0.76704  0.79406  1.0000
  O  Te15      1.0  0.47765  0.14803  0.86903  1.0000
  O  Te16      1.0  0.53388  0.94281  0.81438  1.0000
  H   H32       1.0  0.42180  0.58804  0.74639  1.0000
  Mg  Mg8       1.0  0.53900  0.15637  0.86327  1.0000
  C   C77       1.0  0.03545  0.03481  0.35472  1.0000
  C   C78       1.0  0.02475  0.03066  0.30176  1.0000
  C  Sn17      1.0  0.04477  0.15085  0.27059  1.0000
  C  Sn18      1.0  0.07609  0.27735  0.29296  1.0000
  C   C79       1.0  0.08660  0.28033  0.34598  1.0000
  C   C80       1.0  0.06636  0.15949  0.37682  1.0000
  H   H33       1.0  0.01873  0.94125  0.37859  1.0000
  O  Te17      1.0  0.03368  0.14491  0.21775  1.0000
  O  Te18      1.0  0.09662  0.39896  0.26270  1.0000
  H   H34       1.0  0.07467  0.16266  0.41782  1.0000
  Mg  Mg9       1.0  0.07055  0.33831  0.19257  1.0000
  C   C81       1.0  0.95994  0.02560  0.14897  1.0000
  C   C82       1.0  0.97126  0.02755  0.20184  1.0000
  C  Sn19      1.0  0.95197  0.15415  0.23259  1.0000
  C  Sn20      1.0  0.92076  0.28095  0.20989  1.0000
  C   C83       1.0  0.90963  0.27779  0.15697  1.0000
  C   C84       1.0  0.92915  0.15057  0.12655  1.0000
  H   H35       1.0  0.97395  0.92710  0.12543  1.0000
  O  Te19      1.0  0.96366  0.15426  0.28535  1.0000
  O  Te20      1.0  0.90096  0.40890  0.23974  1.0000
  H   H36       1.0  0.92036  0.14901  0.08562  1.0000
  Mg  Mg10      1.0  0.92767  0.35506  0.30990  1.0000
  C   C85       1.0  0.56026  0.70613  0.26676  1.0000
  C   C86       1.0  0.53567  0.55775  0.28112  1.0000
  C  Sn21      1.0  0.53357  0.52114  0.33275  1.0000
  C  Sn22      1.0  0.55653  0.63546  0.37061  1.0000
  C   C87       1.0  0.58102  0.78365  0.35585  1.0000
  C   C88       1.0  0.58291  0.81901  0.30408  1.0000
  H   H37       1.0  0.56171  0.73356  0.22671  1.0000
  O  Te21      1.0  0.50886  0.37228  0.34643  1.0000
  O  Te22      1.0  0.55498  0.60203  0.42248  1.0000
  H   H38       1.0  0.60193  0.93397  0.29298  1.0000
  Mg  Mg11      1.0  0.51687  0.38260  0.42204  1.0000
  C   C89       1.0  0.46264  0.51864  0.14753  1.0000
  C   C90       1.0  0.47435  0.52215  0.20033  1.0000
  C  Sn23      1.0  0.45508  0.64883  0.23110  1.0000
  C  Sn24      1.0  0.42351  0.77412  0.20848  1.0000
  C   C91       1.0  0.41200  0.76940  0.15563  1.0000
  C   C92       1.0  0.43149  0.64211  0.12520  1.0000
  H   H39       1.0  0.47770  0.42009  0.12399  1.0000
  O  Te23      1.0  0.46717  0.65051  0.28377  1.0000
  O  Te24      1.0  0.40373  0.90211  0.23834  1.0000
  H   H40       1.0  0.42240  0.63935  0.08433  1.0000
  Mg  Mg12      1.0  0.43105  0.85071  0.30838  1.0000
  C   C93       1.0  0.94468  0.80040  0.73204  1.0000
  C   C94       1.0  0.97384  0.92756  0.71646  1.0000
  C  Sn25      1.0  0.97550  0.95990  0.66454  1.0000
  C  Sn26      1.0  0.94739  0.86296  0.62761  1.0000
  C   C95       1.0  0.91832  0.73612  0.64359  1.0000
  C   C96       1.0  0.91694  0.70478  0.69564  1.0000
  H   H41       1.0  0.94359  0.77621  0.77232  1.0000
  O  Te25      1.0  0.00591  0.08736  0.64963  1.0000
  O  Te26      1.0  0.94836  0.89267  0.57546  1.0000
  H   H42       1.0  0.89434  0.60641  0.70769  1.0000
  Mg  Mg13      1.0  0.99505  0.08011  0.57410  1.0000
  C   C97       1.0  0.04920  0.90108  0.86770  1.0000
  C   C98       1.0  0.07557  0.75609  0.85424  1.0000
  C  Sn27      1.0  0.08116  0.72585  0.80309  1.0000
  C  Sn28      1.0  0.05992  0.84321  0.76479  1.0000
  C   C99       1.0  0.03363  0.98798  0.77864  1.0000
  C   C100      1.0  0.02932  0.01695  0.82994  1.0000
  H   H43       1.0  0.04505  0.92359  0.90739  1.0000
  O  Te27      1.0  0.10760  0.58030  0.79031  1.0000
  O  Te28      1.0  0.06495  0.81615  0.71338  1.0000
  H   H44       1.0  0.00893  0.12931  0.84035  1.0000
  Mg  Mg14      1.0  0.10432  0.59922  0.71503  1.0000
  C   C101      1.0  0.46192  0.46522  0.64756  1.0000
  C   C102      1.0  0.46857  0.48830  0.70058  1.0000
  C  Sn29      1.0  0.44888  0.36873  0.73223  1.0000
  C  Sn30      1.0  0.42206  0.22344  0.71030  1.0000
  C   C103      1.0  0.41564  0.20142  0.65722  1.0000
  C   C104      1.0  0.43549  0.32190  0.62590  1.0000
  H   H45       1.0  0.47730  0.55836  0.62333  1.0000
  O  Te29      1.0  0.45585  0.39380  0.78512  1.0000
  O  Te30      1.0  0.40200  0.10190  0.74105  1.0000
  H   H46       1.0  0.43036  0.30392  0.58485  1.0000
  Mg  Mg15      1.0  0.42141  0.19256  0.81104  1.0000
  C   C105      1.0  0.55856  0.30056  0.76296  1.0000
  C   C106      1.0  0.52996  0.43061  0.77932  1.0000
  C  Sn31      1.0  0.53018  0.46981  0.83132  1.0000
  C  Sn32      1.0  0.55962  0.37691  0.86753  1.0000
  C   C107      1.0  0.58813  0.24713  0.85077  1.0000
  C   C108      1.0  0.58762  0.20892  0.79864  1.0000
  H   H47       1.0  0.55819  0.27106  0.72263  1.0000
  O  Te31      1.0  0.50138  0.60009  0.84701  1.0000
  O  Te32      1.0  0.56054  0.41349  0.91973  1.0000
  H   H48       1.0  0.60979  0.10831  0.78599  1.0000
  Mg  Mg16      1.0  0.51497  0.60243  0.92231  1.0000
  C   C109      1.0  0.88407  0.00143  0.46232  1.0000
  C   C110      1.0  0.87992  0.11507  0.41891  1.0000
  C  Sn33      1.0  0.83982  0.14146  0.39204  1.0000
  C  Sn34      1.0  0.80434  0.05228  0.40904  1.0000
  C   C111      1.0  0.80882  0.93897  0.45253  1.0000
  C   C112      1.0  0.84909  0.91347  0.47912  1.0000
  H   H49       1.0  0.91522  0.98177  0.48291  1.0000
  O  Te33      1.0  0.83517  0.25541  0.34875  1.0000
  O  Te34      1.0  0.76391  0.07631  0.38291  1.0000
  H   H50       1.0  0.85312  0.82557  0.51274  1.0000
  Mg  Mg17      1.0  0.77368  0.24493  0.32601  1.0000
  C   C113      1.0  0.12452  0.92726  0.02682  1.0000
  C   C114      1.0  0.16823  0.91872  0.04052  1.0000
  C  Sn35      1.0  0.18804  0.01835  0.08309  1.0000
  C  Sn36      1.0  0.16247  0.12842  0.11242  1.0000
  C   C115      1.0  0.11878  0.13593  0.09842  1.0000
  C   C116      1.0  0.10035  0.03572  0.05574  1.0000
  H   H51       1.0  0.20996  0.86830  0.99381  1.0000
  O  Te35      1.0  0.23176  0.00832  0.09624  1.0000
  O  Te36      1.0  0.18038  0.22934  0.15517  1.0000
  H   H52       1.0  0.06651  0.04226  0.04516  1.0000
  Mg  Mg18      1.0  0.24140  0.17099  0.15774  1.0000
  C   C117      1.0  0.38760  0.49581  0.46088  1.0000
  C   C118      1.0  0.38332  0.61085  0.41774  1.0000
  C  Sn37      1.0  0.34339  0.64624  0.39138  1.0000
  C  Sn38      1.0  0.30713  0.56480  0.40862  1.0000
  C   C119      1.0  0.31175  0.45002  0.45185  1.0000
  C   C120      1.0  0.35186  0.41549  0.47793  1.0000
  H   H53       1.0  0.41863  0.46917  0.48108  1.0000
  O  Te37      1.0  0.33967  0.76145  0.34833  1.0000
  O  Te38      1.0  0.26685  0.59789  0.38300  1.0000
  H   H54       1.0  0.35516  0.32651  0.51135  1.0000
  Mg  Mg19      1.0  0.27803  0.76467  0.32629  1.0000
  C   C121      1.0  0.63153  0.45777  0.01890  1.0000
  C   C122      1.0  0.67499  0.44916  0.03441  1.0000
  C  Sn39      1.0  0.69230  0.54187  0.07888  1.0000
  C  Sn40      1.0  0.66552  0.64497  0.10827  1.0000
  C   C123      1.0  0.62208  0.65262  0.09244  1.0000
  C   C124      1.0  0.60509  0.55937  0.04788  1.0000
  H   H55       1.0  0.71808  0.40420  0.98443  1.0000
  O  Te39      1.0  0.73579  0.53187  0.09382  1.0000
  O  Te40      1.0  0.68198  0.73889  0.15288  1.0000
  H   H56       1.0  0.57144  0.56596  0.03589  1.0000
  Mg  Mg20      1.0  0.74326  0.68355  0.15749  1.0000
  C   C125      1.0  0.19208  0.92882  0.59849  1.0000
  C   C126      1.0  0.18920  0.03917  0.55445  1.0000
  C  Sn41      1.0  0.14968  0.06524  0.52611  1.0000
  C  Sn42      1.0  0.11243  0.97910  0.54226  1.0000
  C   C127      1.0  0.11672  0.86908  0.58639  1.0000
  C   C128      1.0  0.15642  0.84387  0.61445  1.0000
  H   H57       1.0  0.22279  0.90939  0.62022  1.0000
  O  Te41      1.0  0.14629  0.17587  0.48220  1.0000
  O  Te42      1.0  0.07255  0.00289  0.51467  1.0000
  H   H58       1.0  0.15947  0.75853  0.64856  1.0000
  Mg  Mg21      1.0  0.08515  0.16641  0.45743  1.0000
  C   C129      1.0  0.82562  0.85900  0.88684  1.0000
  C   C130      1.0  0.86925  0.84955  0.90105  1.0000
  C  Sn43      1.0  0.88783  0.95046  0.94348  1.0000
  C  Sn44      1.0  0.86323  0.06274  0.97215  1.0000
  C   C131      1.0  0.81961  0.07115  0.95764  1.0000
  C   C132      1.0  0.80028  0.96965  0.91510  1.0000
  H   H59       1.0  0.81148  0.78039  0.85395  1.0000
  O  Te43      1.0  0.93147  0.93950  0.95714  1.0000
  O  Te44      1.0  0.78127  0.14632  0.01473  1.0000
  H   H60       1.0  0.76649  0.97690  0.90413  1.0000
  Mg  Mg22      1.0  0.84226  0.08596  0.01818  1.0000
  C   C133      1.0  0.61433  0.52776  0.54652  1.0000
  C   C134      1.0  0.61906  0.38652  0.58346  1.0000
  C  Sn45      1.0  0.65904  0.34319  0.60858  1.0000
  C  Sn46      1.0  0.69487  0.44340  0.59642  1.0000
  C   C135      1.0  0.68980  0.58454  0.55942  1.0000
  C   C136      1.0  0.64966  0.62671  0.53451  1.0000
  H   H61       1.0  0.58327  0.56047  0.52726  1.0000
  O  Te45      1.0  0.66320  0.20162  0.64538  1.0000
  O  Te46      1.0  0.73519  0.40301  0.62095  1.0000
  H   H62       1.0  0.64600  0.73616  0.50593  1.0000
  Mg  Mg23      1.0  0.72470  0.19795  0.66833  1.0000
  C   C137      1.0  0.36879  0.55886  0.97847  1.0000
  C   C138      1.0  0.32600  0.57931  0.96026  1.0000
  C  Sn47      1.0  0.30856  0.47851  0.91723  1.0000
  C  Sn48      1.0  0.33451  0.35504  0.89207  1.0000
  C   C139      1.0  0.37728  0.33547  0.91061  1.0000
  C   C140      1.0  0.39441  0.43705  0.95369  1.0000
  H   H63       1.0  0.28234  0.61872  0.01182  1.0000
  O  Te47      1.0  0.26575  0.50066  0.89953  1.0000
  O  Te48      1.0  0.31790  0.25255  0.84900  1.0000
  H   H64       1.0  0.42753  0.42110  0.96780  1.0000
  Mg  Mg24      1.0  0.25775  0.33056  0.83941  1.0000
  C   C141      1.0  0.15210  0.92576  0.37011  1.0000
  C   C142      1.0  0.14710  0.73641  0.38205  1.0000
  C  Sn49      1.0  0.16909  0.66040  0.42632  1.0000
  C  Sn50      1.0  0.19656  0.77646  0.45918  1.0000
  C   C143      1.0  0.20132  0.96574  0.44691  1.0000
  C   C144      1.0  0.18025  0.04034  0.40250  1.0000
  H   H65       1.0  0.13496  0.98352  0.33577  1.0000
  O  Te49      1.0  0.16374  0.47092  0.43768  1.0000
  O  Te50      1.0  0.21890  0.70413  0.50368  1.0000
  H   H66       1.0  0.18411  0.18698  0.39328  1.0000
  Mg  Mg25      1.0  0.20107  0.43740  0.50270  1.0000
  C   C145      1.0  0.84383  0.92125  0.12810  1.0000
  C   C146      1.0  0.84886  0.73114  0.11624  1.0000
  C  Sn51      1.0  0.82949  0.65728  0.07010  1.0000
  C  Sn52      1.0  0.80464  0.77631  0.03527  1.0000
  C   C147      1.0  0.79982  0.96634  0.04748  1.0000
  C   C148      1.0  0.82041  0.03877  0.09376  1.0000
  H   H67       1.0  0.85895  0.97733  0.16390  1.0000
  O  Te51      1.0  0.83483  0.46701  0.05886  1.0000
  O  Te52      1.0  0.88463  0.72483  0.98888  1.0000
  H   H68       1.0  0.81653  0.18599  0.10292  1.0000
  Mg  Mg26      1.0  0.90134  0.45592  0.99083  1.0000
  C   C149      1.0  0.66781  0.49672  0.38969  1.0000
  C   C150      1.0  0.69131  0.48334  0.43782  1.0000
  C  Sn53      1.0  0.69372  0.31275  0.46414  1.0000
  C  Sn54      1.0  0.67218  0.15282  0.44175  1.0000
  C   C151      1.0  0.64879  0.16762  0.39356  1.0000
  C   C152      1.0  0.64658  0.33903  0.36756  1.0000
  H   H69       1.0  0.66612  0.62931  0.36956  1.0000
  O  Te53      1.0  0.71732  0.30186  0.51220  1.0000
  O  Te54      1.0  0.67300  0.98058  0.46720  1.0000
  H   H70       1.0  0.62840  0.34931  0.33028  1.0000
  Mg  Mg27      1.0  0.71030  0.03622  0.53187  1.0000
  C   C153      1.0  0.30573  0.21620  0.03588  1.0000
  C   C154      1.0  0.29567  0.39819  0.05093  1.0000
  C  Sn55      1.0  0.31544  0.47423  0.09659  1.0000
  C  Sn56      1.0  0.34584  0.36574  0.12766  1.0000
  C   C155      1.0  0.35571  0.18387  0.11225  1.0000
  C   C156      1.0  0.33572  0.10913  0.06649  1.0000
  H   H71       1.0  0.29028  0.15839  0.00046  1.0000
  O  Te55      1.0  0.30500  0.65626  0.11107  1.0000
  O  Te56      1.0  0.36609  0.43832  0.17347  1.0000
  H   H72       1.0  0.34246  0.96826  0.05483  1.0000
  Mg  Mg28      1.0  0.34117  0.69326  0.17685  1.0000
  C   C157      1.0  0.82456  0.33907  0.55149  1.0000
  C   C158      1.0  0.84934  0.32642  0.59882  1.0000
  C  Sn57      1.0  0.85268  0.15601  0.62522  1.0000
  C  Sn58      1.0  0.82971  0.99552  0.60374  1.0000
  C   C159      1.0  0.80502  0.00961  0.55635  1.0000
  C   C160      1.0  0.80296  0.18083  0.53027  1.0000
  H   H73       1.0  0.82214  0.47152  0.53130  1.0000
  O  Te57      1.0  0.87756  0.14584  0.67248  1.0000
  O  Te58      1.0  0.83251  0.82345  0.62930  1.0000
  H   H74       1.0  0.78379  0.19056  0.49361  1.0000
  Mg  Mg29      1.0  0.87037  0.88015  0.69265  1.0000
  C   C161      1.0  0.17639  0.34208  0.95415  1.0000
  C   C162      1.0  0.15485  0.33638  0.90478  1.0000
  C  Sn59      1.0  0.15308  0.16922  0.87645  1.0000
  C  Sn60      1.0  0.17221  0.00495  0.89806  1.0000
  C   C163      1.0  0.19366  0.01208  0.94750  1.0000
  C   C164      1.0  0.19631  0.18009  0.97551  1.0000
  H   H75       1.0  0.17760  0.47204  0.97584  1.0000
  O  Te59      1.0  0.13144  0.16601  0.82717  1.0000
  O  Te60      1.0  0.17093  0.83601  0.87060  1.0000
  H   H76       1.0  0.11327  0.16578  0.01374  1.0000
  Mg  Mg30      1.0  0.13751  0.90229  0.80487  1.0000
  C   C165      1.0  0.34455  0.57918  0.62867  1.0000
  C   C166      1.0  0.35363  0.76244  0.61452  1.0000
  C  Sn61      1.0  0.33314  0.83940  0.56951  1.0000
  C  Sn62      1.0  0.30299  0.73055  0.53815  1.0000
  C   C167      1.0  0.29411  0.54740  0.55266  1.0000
  C   C168      1.0  0.31481  0.47175  0.59777  1.0000
  H   H77       1.0  0.36055  0.52067  0.66359  1.0000
  O  Te61      1.0  0.34367  0.02269  0.55594  1.0000
  O  Te62      1.0  0.28204  0.80402  0.49297  1.0000
  H   H78       1.0  0.30775  0.32991  0.60873  1.0000
  Mg  Mg31      1.0  0.30680  0.06056  0.49076  1.0000
  C   C169      1.0  0.68059  0.85421  0.94582  1.0000
  C   C170      1.0  0.65869  0.84317  0.89670  1.0000
  C  Sn63      1.0  0.65796  0.67459  0.86908  1.0000
  C  Sn64      1.0  0.67958  0.51430  0.89115  1.0000
  C   C171      1.0  0.70137  0.52676  0.94033  1.0000
  C   C172      1.0  0.70190  0.69617  0.96763  1.0000
  H   H79       1.0  0.68098  0.98525  0.96696  1.0000
  O  Te63      1.0  0.63595  0.66602  0.82004  1.0000
  O  Te64      1.0  0.67935  0.34404  0.86440  1.0000
  H   H80       1.0  0.61913  0.68598  0.00567  1.0000
  Mg  Mg32      1.0  0.64491  0.40249  0.79875  1.0000
