data_image0
_chemical_formula_structural       H88C140N16C2Sn2C2HTe2HMgC2Sn2C2HTe2HMgC2Sn2C2HTe2HMgC2Sn2C2HTe2HMgC2Sn2C2HTe2HMgC2Sn2C2HTe2HMgC2Sn2C2HTe2HMgC2Sn2C2HTe2HMgC2Sn2C2HTe2HMgC2Sn2C2HTe2HMgC2Sn2C2HTe2HMgC2Sn2C2HTe2HMgC2Sn2C2HTe2HMgC2Sn2C2HTe2HMgC2Sn2C2HTe2HMgC2Sn2C2HTe2HMg
_chemical_formula_sum              "H120 C204 N16 Sn32 Te32 Mg16"
_cell_length_a       29.0911
_cell_length_b       7.40345
_cell_length_c       27.9476
_cell_angle_alpha    90.2522
_cell_angle_beta     94.3656
_cell_angle_gamma    89.8457

_symmetry_space_group_name_H-M    'P1'
_space_group_IT_number       1

loop_
  _space_group_symop_operation_xyz
  'x, y, z'

loop_
  _atom_site_type_symbol
  _atom_site_label
  _atom_site_symmetry_multiplicity
  _atom_site_fract_x
  _atom_site_fract_y
  _atom_site_fract_z
  _atom_site_occupancy
  H   H1        1.0  0.75910  0.06871  0.39558  1.0000
  H   H2        1.0  0.23842  0.06769  0.10309  1.0000
  H   H3        1.0  0.73836  0.55755  0.09837  1.0000
  H   H4        1.0  0.23950  0.93568  0.60214  1.0000
  H   H5        1.0  0.26049  0.42254  0.90072  1.0000
  H   H6        1.0  0.81095  0.27648  0.35490  1.0000
  H   H7        1.0  0.18514  0.27394  0.14348  1.0000
  H   H8        1.0  0.68614  0.76228  0.14024  1.0000
  H   H9        1.0  0.18731  0.73092  0.64334  1.0000
  H   H10       1.0  0.31443  0.22425  0.85898  1.0000
  H   H11       1.0  0.92417  0.11960  0.45401  1.0000
  H   H12       1.0  0.07218  0.09005  0.04774  1.0000
  H   H13       1.0  0.57376  0.61546  0.03886  1.0000
  H   H14       1.0  0.07454  0.88465  0.54327  1.0000
  H   H15       1.0  0.42558  0.38675  0.96010  1.0000
  H   H16       1.0  0.87269  0.91312  0.49461  1.0000
  H   H17       1.0  0.12518  0.88741  0.00686  1.0000
  H   H18       1.0  0.62549  0.41034  0.99731  1.0000
  H   H19       1.0  0.12648  0.08613  0.50170  1.0000
  H   H20       1.0  0.37170  0.58051  0.00246  1.0000
  H   H21       1.0  0.16937  0.18081  0.38965  1.0000
  H   H22       1.0  0.82769  0.17698  0.10645  1.0000
  H   H23       1.0  0.32714  0.66677  0.11498  1.0000
  H   H24       1.0  0.32729  0.32587  0.61228  1.0000
  H   H25       1.0  0.12561  0.95147  0.33996  1.0000
  H   H26       1.0  0.87106  0.95105  0.15714  1.0000
  H   H27       1.0  0.37019  0.43888  0.16519  1.0000
  H   H28       1.0  0.37051  0.55594  0.66233  1.0000
  H   H29       1.0  0.17290  0.53460  0.43910  1.0000
  H   H30       1.0  0.82779  0.53019  0.05689  1.0000
  H   H31       1.0  0.32902  0.02359  0.06229  1.0000
  H   H32       1.0  0.32733  0.96870  0.56037  1.0000
  H   H33       1.0  0.21599  0.76432  0.48937  1.0000
  H   H34       1.0  0.78488  0.75654  0.00571  1.0000
  H   H35       1.0  0.28588  0.25181  0.01201  1.0000
  H   H36       1.0  0.28459  0.73891  0.51006  1.0000
  H   H37       1.0  0.25547  0.22761  0.41292  1.0000
  H   H38       1.0  0.74219  0.21790  0.08293  1.0000
  H   H39       1.0  0.75510  0.72273  0.41126  1.0000
  H   H40       1.0  0.24219  0.71089  0.09065  1.0000
  H   H41       1.0  0.74570  0.78527  0.58616  1.0000
  H   H42       1.0  0.25491  0.76484  0.91617  1.0000
  H   H43       1.0  0.24309  0.27713  0.58779  1.0000
  H   H44       1.0  0.75472  0.27105  0.90834  1.0000
  H   H45       1.0  0.10034  0.05750  0.74154  1.0000
  H   H46       1.0  0.59795  0.57689  0.74303  1.0000
  H   H47       1.0  0.40443  0.57278  0.75487  1.0000
  H   H48       1.0  0.05823  0.20766  0.22417  1.0000
  H   H49       1.0  0.93944  0.21054  0.27410  1.0000
  H   H50       1.0  0.44584  0.70293  0.27854  1.0000
  H   H51       1.0  0.55936  0.30202  0.72135  1.0000
  H   H52       1.0  0.97478  0.33875  0.69782  1.0000
  H   H53       1.0  0.47197  0.83918  0.69124  1.0000
  H   H54       1.0  0.52955  0.84570  0.80438  1.0000
  H   H55       1.0  0.14427  0.28564  0.69986  1.0000
  H   H56       1.0  0.64197  0.80308  0.70055  1.0000
  H   H57       1.0  0.35973  0.79682  0.79830  1.0000
  H   H58       1.0  0.00305  0.98984  0.35010  1.0000
  H   H59       1.0  0.99487  0.98392  0.14871  1.0000
  H   H60       1.0  0.49262  0.46383  0.15050  1.0000
  H   H61       1.0  0.50833  0.52844  0.84908  1.0000
  H   H62       1.0  0.05238  0.20084  0.40078  1.0000
  H   H63       1.0  0.94658  0.19616  0.09767  1.0000
  H   H64       1.0  0.44386  0.68047  0.10143  1.0000
  H   H65       1.0  0.55737  0.31340  0.89837  1.0000
  H   H66       1.0  0.01777  0.56242  0.65582  1.0000
  H   H67       1.0  0.51517  0.06266  0.64959  1.0000
  H   H68       1.0  0.48566  0.06631  0.84728  1.0000
  H   H69       1.0  0.10706  0.41463  0.27418  1.0000
  H   H70       1.0  0.89068  0.41519  0.22385  1.0000
  H   H71       1.0  0.39628  0.91181  0.23040  1.0000
  H   H72       1.0  0.60912  0.09444  0.77005  1.0000
  H   H73       1.0  0.93523  0.36085  0.39916  1.0000
  H   H74       1.0  0.05903  0.32979  0.10335  1.0000
  H   H75       1.0  0.43797  0.85110  0.40357  1.0000
  H   H76       1.0  0.56176  0.84770  0.09739  1.0000
  H   H77       1.0  0.06249  0.65127  0.60092  1.0000
  H   H78       1.0  0.94019  0.66288  0.89693  1.0000
  H   H79       1.0  0.55944  0.20364  0.60814  1.0000
  H   H80       1.0  0.43969  0.15607  0.90174  1.0000
  H   H81       1.0  0.10118  0.65436  0.32382  1.0000
  H   H82       1.0  0.89662  0.65324  0.17368  1.0000
  H   H83       1.0  0.60494  0.14552  0.32315  1.0000
  H   H84       1.0  0.39692  0.14180  0.18024  1.0000
  H   H85       1.0  0.90009  0.34747  0.67344  1.0000
  H   H86       1.0  0.10634  0.34014  0.82476  1.0000
  H   H87       1.0  0.39746  0.85023  0.67681  1.0000
  H   H88       1.0  0.60578  0.85668  0.81913  1.0000
  C   C1        1.0  0.02793  0.07841  0.28333  1.0000
  C   C2        1.0  0.97003  0.07795  0.21526  1.0000
  C   C3        1.0  0.47198  0.56383  0.21830  1.0000
  C   C4        1.0  0.53062  0.43365  0.78144  1.0000
  C   C5        1.0  0.03372  0.17715  0.72224  1.0000
  C   C6        1.0  0.53112  0.68749  0.71975  1.0000
  C   C7        1.0  0.47080  0.68831  0.77693  1.0000
  C   C8        1.0  0.08179  0.16601  0.72248  1.0000
  C   C9        1.0  0.57933  0.68071  0.72214  1.0000
  C   C10       1.0  0.42265  0.67839  0.77559  1.0000
  C   C11       1.0  0.08475  0.43794  0.67383  1.0000
  C   C12       1.0  0.58251  0.94674  0.67122  1.0000
  C   C13       1.0  0.41893  0.94422  0.82708  1.0000
  C   C14       1.0  0.05699  0.20326  0.26290  1.0000
  C   C15       1.0  0.94096  0.20464  0.23540  1.0000
  C   C16       1.0  0.44509  0.69520  0.23966  1.0000
  C   C17       1.0  0.55887  0.30667  0.76018  1.0000
  C   C18       1.0  0.01182  0.32209  0.69716  1.0000
  C   C19       1.0  0.50925  0.82708  0.69245  1.0000
  C   C20       1.0  0.49239  0.82988  0.80392  1.0000
  C   C21       1.0  0.10688  0.29448  0.69908  1.0000
  C   C22       1.0  0.60449  0.80791  0.69838  1.0000
  C   C23       1.0  0.39717  0.80415  0.79993  1.0000
  C   C24       1.0  0.02594  0.08191  0.33328  1.0000
  C   C25       1.0  0.97224  0.07864  0.16534  1.0000
  C   C26       1.0  0.47168  0.56186  0.16815  1.0000
  C   C27       1.0  0.52999  0.43259  0.83154  1.0000
  C   C28       1.0  0.08271  0.32347  0.34130  1.0000
  C   C29       1.0  0.91563  0.32164  0.15677  1.0000
  C   C30       1.0  0.41678  0.81163  0.16193  1.0000
  C   C31       1.0  0.58595  0.18673  0.83795  1.0000
  C   C32       1.0  0.05321  0.20119  0.36193  1.0000
  C   C33       1.0  0.94531  0.19779  0.13647  1.0000
  C   C34       1.0  0.44445  0.68361  0.14039  1.0000
  C   C35       1.0  0.55731  0.31146  0.85942  1.0000
  C   C36       1.0  0.03634  0.44983  0.67324  1.0000
  C   C37       1.0  0.53395  0.95439  0.66867  1.0000
  C   C38       1.0  0.46741  0.95531  0.82862  1.0000
  C   C39       1.0  0.08429  0.32230  0.29111  1.0000
  C   C40       1.0  0.91369  0.32269  0.20696  1.0000
  C   C41       1.0  0.41741  0.81533  0.21237  1.0000
  C   C42       1.0  0.58660  0.18704  0.78763  1.0000
  C   C43       1.0  0.22169  0.12538  0.47296  1.0000
  C   C44       1.0  0.77648  0.11777  0.02273  1.0000
  C   C45       1.0  0.72233  0.62506  0.47250  1.0000
  C   C46       1.0  0.27676  0.61150  0.03048  1.0000
  C   C47       1.0  0.77865  0.88171  0.52498  1.0000
  C   C48       1.0  0.22090  0.86503  0.97647  1.0000
  C   C49       1.0  0.27692  0.37911  0.52780  1.0000
  C   C50       1.0  0.72070  0.37169  0.96868  1.0000
  C   C51       1.0  0.25187  0.24175  0.45126  1.0000
  C   C52       1.0  0.74578  0.23242  0.04466  1.0000
  C   C53       1.0  0.75218  0.73949  0.44963  1.0000
  C   C54       1.0  0.24602  0.72611  0.05244  1.0000
  C   C55       1.0  0.74859  0.76811  0.54781  1.0000
  C   C56       1.0  0.25138  0.74968  0.95444  1.0000
  C   C57       1.0  0.24672  0.26276  0.54947  1.0000
  C   C58       1.0  0.75107  0.25561  0.94661  1.0000
  C   C59       1.0  0.21878  0.13716  0.52328  1.0000
  C   C60       1.0  0.77931  0.13042  0.97247  1.0000
  C   C61       1.0  0.72012  0.64152  0.52280  1.0000
  C   C62       1.0  0.27972  0.62488  0.98024  1.0000
  C   C63       1.0  0.78055  0.86647  0.47461  1.0000
  C   C64       1.0  0.21781  0.85137  0.02665  1.0000
  C   C65       1.0  0.27983  0.36707  0.47747  1.0000
  C   C66       1.0  0.71760  0.35781  0.01889  1.0000
  C   C67       1.0  0.19592  0.98857  0.44296  1.0000
  C   C68       1.0  0.80288  0.98273  0.05262  1.0000
  C   C69       1.0  0.30289  0.47522  0.06020  1.0000
  C   C70       1.0  0.30253  0.51632  0.55780  1.0000
  C   C71       1.0  0.81228  0.97797  0.44820  1.0000
  C   C72       1.0  0.18534  0.96382  0.05226  1.0000
  C   C73       1.0  0.68549  0.47031  0.04489  1.0000
  C   C74       1.0  0.18669  0.02402  0.54884  1.0000
  C   C75       1.0  0.31250  0.51489  0.95442  1.0000
  C   C76       1.0  0.79545  0.07781  0.40774  1.0000
  C   C77       1.0  0.20182  0.07056  0.09172  1.0000
  C   C78       1.0  0.70207  0.56784  0.08603  1.0000
  C   C79       1.0  0.20322  0.92593  0.58973  1.0000
  C   C80       1.0  0.29683  0.41647  0.91312  1.0000
  C   C81       1.0  0.82411  0.19464  0.38515  1.0000
  C   C82       1.0  0.17244  0.18609  0.11413  1.0000
  C   C83       1.0  0.67327  0.68314  0.10923  1.0000
  C   C84       1.0  0.17440  0.81093  0.61263  1.0000
  C   C85       1.0  0.32664  0.30534  0.88990  1.0000
  C   C86       1.0  0.87071  0.21395  0.40205  1.0000
  C   C87       1.0  0.12540  0.19623  0.09823  1.0000
  C   C88       1.0  0.62677  0.70421  0.09217  1.0000
  C   C89       1.0  0.12778  0.79208  0.59573  1.0000
  C   C90       1.0  0.37336  0.29103  0.90687  1.0000
  C   C91       1.0  0.88799  0.10834  0.44118  1.0000
  C   C92       1.0  0.10860  0.08471  0.05993  1.0000
  C   C93       1.0  0.60980  0.60222  0.05204  1.0000
  C   C94       1.0  0.11075  0.89546  0.55607  1.0000
  C   C95       1.0  0.38938  0.39450  0.94710  1.0000
  C   C96       1.0  0.85923  0.99184  0.46388  1.0000
  C   C97       1.0  0.13818  0.97060  0.03707  1.0000
  C   C98       1.0  0.63872  0.48682  0.02870  1.0000
  C   C99       1.0  0.13982  0.00914  0.53279  1.0000
  C   C100      1.0  0.35935  0.50416  0.97072  1.0000
  C   C101      1.0  0.17103  0.03900  0.40001  1.0000
  C   C102      1.0  0.82676  0.03490  0.09607  1.0000
  C   C103      1.0  0.32634  0.52522  0.10407  1.0000
  C   C104      1.0  0.32624  0.46724  0.60152  1.0000
  C   C105      1.0  0.14652  0.91028  0.37211  1.0000
  C   C106      1.0  0.85119  0.90794  0.12448  1.0000
  C   C107      1.0  0.35065  0.39703  0.13220  1.0000
  C   C108      1.0  0.35055  0.59620  0.62952  1.0000
  C   C109      1.0  0.14643  0.72814  0.38620  1.0000
  C   C110      1.0  0.85226  0.72538  0.11045  1.0000
  C   C111      1.0  0.35228  0.21547  0.11733  1.0000
  C   C112      1.0  0.35177  0.77729  0.61472  1.0000
  C   C113      1.0  0.17232  0.67620  0.42854  1.0000
  C   C114      1.0  0.82754  0.67193  0.06749  1.0000
  C   C115      1.0  0.32814  0.16424  0.07381  1.0000
  C   C116      1.0  0.32698  0.82805  0.57163  1.0000
  C   C117      1.0  0.19648  0.80492  0.45646  1.0000
  C   C118      1.0  0.80345  0.79888  0.03904  1.0000
  C   C119      1.0  0.30400  0.29231  0.04577  1.0000
  C   C120      1.0  0.30298  0.69916  0.54365  1.0000
  C   C121      1.0  0.90060  0.34466  0.38087  1.0000
  C   C122      1.0  0.09470  0.32479  0.11953  1.0000
  C   C123      1.0  0.40304  0.83823  0.38574  1.0000
  C   C124      1.0  0.59696  0.83369  0.11446  1.0000
  C   C125      1.0  0.09794  0.66268  0.61751  1.0000
  C   C126      1.0  0.90445  0.66215  0.88082  1.0000
  C   C127      1.0  0.59630  0.18840  0.61961  1.0000
  C   C128      1.0  0.40433  0.16541  0.88477  1.0000
  C   C129      1.0  0.11757  0.60088  0.35769  1.0000
  C   C130      1.0  0.88080  0.59896  0.13956  1.0000
  C   C131      1.0  0.62015  0.09305  0.35765  1.0000
  C   C132      1.0  0.38108  0.08854  0.14602  1.0000
  C   C133      1.0  0.88350  0.40447  0.64008  1.0000
  C   C134      1.0  0.12234  0.39563  0.85869  1.0000
  C   C135      1.0  0.38093  0.90421  0.64305  1.0000
  C   C136      1.0  0.62146  0.90929  0.85351  1.0000
  C   C137      1.0  0.99883  0.95095  0.24937  1.0000
  C   C138      1.0  0.50143  0.43573  0.25162  1.0000
  C   C139      1.0  0.00379  0.04774  0.75013  1.0000
  C   C140      1.0  0.50093  0.56101  0.74811  1.0000
  N   N1        1.0  0.11016  0.43813  0.37167  1.0000
  N   N2        1.0  0.88846  0.43537  0.12596  1.0000
  N   N3        1.0  0.61180  0.93194  0.37225  1.0000
  N   N4        1.0  0.38893  0.92581  0.13187  1.0000
  N   N5        1.0  0.89086  0.56830  0.62693  1.0000
  N   N6        1.0  0.11497  0.55966  0.87203  1.0000
  N   N7        1.0  0.38825  0.06679  0.62888  1.0000
  N   N8        1.0  0.61362  0.07170  0.86794  1.0000
  N   N9        1.0  0.88640  0.43926  0.34386  1.0000
  N   N10       1.0  0.10959  0.42997  0.15434  1.0000
  N   N11       1.0  0.38893  0.93343  0.34884  1.0000
  N   N12       1.0  0.61198  0.92939  0.15115  1.0000
  N   N13       1.0  0.11328  0.56339  0.65318  1.0000
  N   N14       1.0  0.89007  0.55287  0.84675  1.0000
  N   N15       1.0  0.61184  0.06818  0.65016  1.0000
  N   N16       1.0  0.38985  0.06695  0.84840  1.0000
  C   C141      1.0  0.84837  0.05111  0.62480  1.0000
  C   C142      1.0  0.85576  0.23363  0.61548  1.0000
  C  Sn1       1.0  0.83469  0.31396  0.57428  1.0000
  C  Sn2       1.0  0.80570  0.20929  0.54187  1.0000
  C   C143      1.0  0.79850  0.02683  0.55153  1.0000
  C   C144      1.0  0.81908  0.94780  0.59286  1.0000
  H   H89       1.0  0.86412  0.98997  0.65679  1.0000
  O  Te1       1.0  0.84245  0.49646  0.56552  1.0000
  O  Te2       1.0  0.78420  0.28618  0.50043  1.0000
  H   H90       1.0  0.81333  0.80651  0.60008  1.0000
  Mg  Mg1       1.0  0.80545  0.54005  0.50418  1.0000
  C   C145      1.0  0.93895  0.75203  0.73542  1.0000
  C   C146      1.0  0.97073  0.87951  0.72176  1.0000
  C  Sn3       1.0  0.97461  0.91617  0.67324  1.0000
  C  Sn4       1.0  0.94609  0.82329  0.63782  1.0000
  C   C147      1.0  0.91438  0.69609  0.65186  1.0000
  C   C148      1.0  0.91079  0.66041  0.70051  1.0000
  H   H91       1.0  0.93616  0.72448  0.77307  1.0000
  O  Te3       1.0  0.00724  0.04390  0.66021  1.0000
  O  Te4       1.0  0.94923  0.85736  0.58907  1.0000
  H   H92       1.0  0.88616  0.56178  0.71108  1.0000
  Mg  Mg2       1.0  0.99871  0.04337  0.58922  1.0000
  C   C149      1.0  0.91316  0.17661  0.77965  1.0000
  C   C150      1.0  0.96067  0.17015  0.77530  1.0000
  C  Sn5       1.0  0.98977  0.29587  0.79950  1.0000
  C  Sn6       1.0  0.97085  0.43037  0.82858  1.0000
  C   C151      1.0  0.92327  0.43561  0.83273  1.0000
  C   C152      1.0  0.89447  0.30918  0.80834  1.0000
  H   H93       1.0  0.89087  0.07874  0.76080  1.0000
  O  Te5       1.0  0.03716  0.28752  0.79474  1.0000
  O  Te6       1.0  0.99914  0.55764  0.85318  1.0000
  H   H94       1.0  0.85768  0.31415  0.81174  1.0000
  Mg  Mg3       1.0  0.06155  0.49080  0.83533  1.0000
  C   C153      1.0  0.87049  0.99589  0.96204  1.0000
  C   C154      1.0  0.82430  0.02715  0.95023  1.0000
  C  Sn7       1.0  0.80013  0.92951  0.91314  1.0000
  C  Sn8       1.0  0.82412  0.79820  0.88747  1.0000
  C   C155      1.0  0.87101  0.76784  0.89958  1.0000
  C   C156      1.0  0.89417  0.86635  0.93675  1.0000
  H   H95       1.0  0.88910  0.07203  0.99082  1.0000
  O  Te7       1.0  0.75329  0.96249  0.90180  1.0000
  O  Te8       1.0  0.80148  0.69865  0.85025  1.0000
  H   H96       1.0  0.93046  0.84203  0.94591  1.0000
  Mg  Mg4       1.0  0.73756  0.79242  0.84817  1.0000
  C   C157      1.0  0.65315  0.44986  0.37293  1.0000
  C   C158      1.0  0.65098  0.26328  0.37974  1.0000
  C  Sn9       1.0  0.67157  0.18534  0.42151  1.0000
  C  Sn10      1.0  0.69472  0.29661  0.45706  1.0000
  C   C159      1.0  0.69667  0.48314  0.44992  1.0000
  C   C160      1.0  0.67596  0.55972  0.40798  1.0000
  H   H97       1.0  0.63711  0.50914  0.34049  1.0000
  O  Te9       1.0  0.66841  0.99869  0.42773  1.0000
  O  Te10      1.0  0.71558  0.22225  0.49915  1.0000
  H   H98       1.0  0.67762  0.70419  0.40273  1.0000
  Mg  Mg5       1.0  0.70221  0.96080  0.49114  1.0000
  C   C161      1.0  0.65405  0.55118  0.86791  1.0000
  C   C162      1.0  0.64725  0.73382  0.87813  1.0000
  C  Sn11      1.0  0.66795  0.81067  0.92012  1.0000
  C  Sn12      1.0  0.69597  0.70233  0.95241  1.0000
  C   C163      1.0  0.70259  0.51977  0.94185  1.0000
  C   C164      1.0  0.68170  0.44424  0.89973  1.0000
  H   H99       1.0  0.63792  0.49275  0.83532  1.0000
  O  Te11      1.0  0.66077  0.99336  0.92978  1.0000
  O  Te12      1.0  0.71708  0.77570  0.99463  1.0000
  H   H100      1.0  0.68700  0.30285  0.89182  1.0000
  Mg  Mg6       1.0  0.69759  0.03134  0.99197  1.0000
  C   C165      1.0  0.38649  0.57769  0.45745  1.0000
  C   C166      1.0  0.37838  0.67847  0.41547  1.0000
  C  Sn13      1.0  0.33433  0.68437  0.39182  1.0000
  C  Sn14      1.0  0.29779  0.58748  0.41063  1.0000
  C   C167      1.0  0.30625  0.48716  0.45266  1.0000
  C   C168      1.0  0.35047  0.48214  0.47603  1.0000
  H   H101      1.0  0.42069  0.57388  0.47555  1.0000
  O  Te13      1.0  0.32682  0.78567  0.34992  1.0000
  O  Te14      1.0  0.25343  0.59109  0.38772  1.0000
  H   H102      1.0  0.35673  0.40420  0.50855  1.0000
  Mg  Mg7       1.0  0.26039  0.74850  0.33165  1.0000
  C   C169      1.0  0.17936  0.30528  0.94425  1.0000
  C   C170      1.0  0.15754  0.28703  0.89819  1.0000
  C  Sn15      1.0  0.15298  0.11681  0.87659  1.0000
  C  Sn16      1.0  0.16994  0.96224  0.90167  1.0000
  C   C171      1.0  0.19169  0.98192  0.94774  1.0000
  C   C172      1.0  0.19676  0.15289  0.96901  1.0000
  H   H103      1.0  0.18274  0.43754  0.96072  1.0000
  O  Te15      1.0  0.13109  0.10100  0.83055  1.0000
  O  Te16      1.0  0.16583  0.79051  0.88093  1.0000
  H   H104      1.0  0.14052  0.15112  0.00469  1.0000
  Mg  Mg8       1.0  0.13323  0.83822  0.81744  1.0000
  C   C173      1.0  0.70314  0.38917  0.59751  1.0000
  C   C174      1.0  0.69344  0.50206  0.55806  1.0000
  C  Sn17      1.0  0.64804  0.52529  0.53891  1.0000
  C  Sn18      1.0  0.61176  0.43366  0.55972  1.0000
  C   C175      1.0  0.62182  0.32111  0.59919  1.0000
  C   C176      1.0  0.66737  0.29879  0.61806  1.0000
  H   H105      1.0  0.73838  0.37196  0.61213  1.0000
  O  Te17      1.0  0.63896  0.63853  0.49948  1.0000
  O  Te18      1.0  0.56608  0.45450  0.54130  1.0000
  H   H106      1.0  0.67487  0.21147  0.64862  1.0000
  Mg  Mg9       1.0  0.57112  0.62336  0.48721  1.0000
  C   C177      1.0  0.59112  0.30288  0.22072  1.0000
  C   C178      1.0  0.54337  0.32193  0.22132  1.0000
  C  Sn19      1.0  0.51390  0.19428  0.19844  1.0000
  C  Sn20      1.0  0.53271  0.04490  0.17457  1.0000
  C   C179      1.0  0.58053  0.02699  0.17421  1.0000
  C   C180      1.0  0.60970  0.15555  0.19720  1.0000
  H   H107      1.0  0.61369  0.40228  0.23853  1.0000
  O  Te19      1.0  0.46627  0.21541  0.19937  1.0000
  O  Te20      1.0  0.50337  0.91530  0.15143  1.0000
  H   H108      1.0  0.64668  0.14070  0.19676  1.0000
  Mg  Mg10      1.0  0.44142  0.00317  0.16266  1.0000
  C   C181      1.0  0.46774  0.41121  0.65243  1.0000
  C   C182      1.0  0.47057  0.44076  0.70199  1.0000
  C  Sn21      1.0  0.44615  0.33081  0.73163  1.0000
  C  Sn22      1.0  0.41843  0.18873  0.71117  1.0000
  C   C183      1.0  0.41585  0.16019  0.66155  1.0000
  C   C184      1.0  0.44042  0.27105  0.63223  1.0000
  H   H109      1.0  0.48677  0.49691  0.62974  1.0000
  O  Te21      1.0  0.44935  0.36225  0.78107  1.0000
  O  Te22      1.0  0.39367  0.07678  0.73996  1.0000
  H   H110      1.0  0.43824  0.24806  0.59386  1.0000
  Mg  Mg11      1.0  0.40914  0.17337  0.80537  1.0000
  C   C185      1.0  0.57967  0.80156  0.27950  1.0000
  C   C186      1.0  0.58398  0.82471  0.32929  1.0000
  C  Sn23      1.0  0.56158  0.70743  0.35884  1.0000
  C  Sn24      1.0  0.53439  0.56441  0.33806  1.0000
  C   C187      1.0  0.53033  0.54231  0.28821  1.0000
  C   C188      1.0  0.55288  0.66048  0.25897  1.0000
  H   H111      1.0  0.59714  0.89292  0.25688  1.0000
  O  Te23      1.0  0.56623  0.73254  0.40852  1.0000
  O  Te24      1.0  0.51164  0.44520  0.36675  1.0000
  H   H112      1.0  0.54957  0.64245  0.22042  1.0000
  Mg  Mg12      1.0  0.52855  0.53493  0.43257  1.0000
  C   C189      1.0  0.89414  0.74362  0.28846  1.0000
  C   C190      1.0  0.90928  0.59094  0.31439  1.0000
  C  Sn25      1.0  0.95640  0.55756  0.32365  1.0000
  C  Sn26      1.0  0.98889  0.67956  0.30660  1.0000
  C   C191      1.0  0.97339  0.83199  0.28071  1.0000
  C   C192      1.0  0.92616  0.86406  0.27164  1.0000
  H   H113      1.0  0.85760  0.76850  0.28145  1.0000
  O  Te25      1.0  0.97093  0.40434  0.34960  1.0000
  O  Te26      1.0  0.03619  0.64949  0.31536  1.0000
  H   H114      1.0  0.91445  0.98234  0.25158  1.0000
  Mg  Mg13      1.0  0.03902  0.42179  0.35237  1.0000
  C   C193      1.0  0.39722  0.24165  0.29515  1.0000
  C   C194      1.0  0.41174  0.08391  0.31914  1.0000
  C  Sn27      1.0  0.45862  0.04121  0.32535  1.0000
  C  Sn28      1.0  0.49148  0.15890  0.30719  1.0000
  C   C195      1.0  0.47660  0.31644  0.28327  1.0000
  C   C196      1.0  0.42961  0.35784  0.27724  1.0000
  H   H115      1.0  0.36086  0.27375  0.29051  1.0000
  O  Te27      1.0  0.47186  0.88304  0.34939  1.0000
  O  Te28      1.0  0.53855  0.11952  0.31291  1.0000
  H   H116      1.0  0.41837  0.48004  0.25869  1.0000
  Mg  Mg14      1.0  0.53983  0.88798  0.34821  1.0000
  C   C197      1.0  0.03473  0.89947  0.84581  1.0000
  C   C198      1.0  0.03352  0.92846  0.79636  1.0000
  C  Sn29      1.0  0.05945  0.81921  0.76761  1.0000
  C  Sn30      1.0  0.08706  0.67841  0.78887  1.0000
  C   C199      1.0  0.08801  0.65044  0.83838  1.0000
  C   C200      1.0  0.06194  0.76059  0.86681  1.0000
  H   H117      1.0  0.01454  0.98463  0.86781  1.0000
  O  Te29      1.0  0.05786  0.85006  0.71826  1.0000
  O  Te30      1.0  0.11330  0.56718  0.76098  1.0000
  H   H118      1.0  0.06286  0.73804  0.90510  1.0000
  Mg  Mg15      1.0  0.09972  0.66255  0.69533  1.0000
  C   C201      1.0  0.08892  0.80066  0.22442  1.0000
  C   C202      1.0  0.04136  0.83082  0.22180  1.0000
  C  Sn31      1.0  0.01143  0.71235  0.19594  1.0000
  C  Sn32      1.0  0.02956  0.56099  0.17232  1.0000
  C   C203      1.0  0.07720  0.53193  0.17519  1.0000
  C   C204      1.0  0.10683  0.65136  0.20115  1.0000
  H   H119      1.0  0.11185  0.89300  0.24453  1.0000
  O  Te31      1.0  0.96400  0.74452  0.19367  1.0000
  O  Te32      1.0  0.00044  0.44041  0.14625  1.0000
  H   H120      1.0  0.14366  0.62791  0.20320  1.0000
  Mg  Mg16      1.0  0.93832  0.54179  0.15369  1.0000
