data_image0
_chemical_formula_structural       H104C148N16C2Sn2C2HTe2HMgC2Sn2C2HTe2HMgC2Sn2C2HTe2HMgC2Sn2C2HTe2HMgC2Sn2C2HTe2HMgC2Sn2C2HTe2HMgC2Sn2C2HTe2HMgC2Sn2C2HTe2HMgC2Sn2C2HTe2HMgC2Sn2C2HTe2HMgC2Sn2C2HTe2HMgC2Sn2C2HTe2HMgC2Sn2C2HTe2HMgC2Sn2C2HTe2HMgC2Sn2C2HTe2HMgC2Sn2C2HTe2HMg
_chemical_formula_sum              "H136 C212 N16 Sn32 Te32 Mg16"
_cell_length_a       31.456
_cell_length_b       7.3323
_cell_length_c       24.9866
_cell_angle_alpha    90.1616
_cell_angle_beta     95.2325
_cell_angle_gamma    90.0293

_symmetry_space_group_name_H-M    'P1'
_space_group_IT_number       1

loop_
  _space_group_symop_operation_xyz
  'x, y, z'

loop_
  _atom_site_type_symbol
  _atom_site_label
  _atom_site_symmetry_multiplicity
  _atom_site_fract_x
  _atom_site_fract_y
  _atom_site_fract_z
  _atom_site_occupancy
  H   H1        1.0  0.41067  0.41407  0.26201  1.0000
  H   H2        1.0  0.58811  0.41866  0.24135  1.0000
  H   H3        1.0  0.91349  0.07594  0.75927  1.0000
  H   H4        1.0  0.58922  0.58295  0.73502  1.0000
  H   H5        1.0  0.54927  0.69020  0.22006  1.0000
  H   H6        1.0  0.44808  0.69040  0.28121  1.0000
  H   H7        1.0  0.95456  0.80117  0.78109  1.0000
  H   H8        1.0  0.45136  0.31073  0.78026  1.0000
  H   H9        1.0  0.52726  0.13468  0.31376  1.0000
  H   H10       1.0  0.47235  0.12928  0.19113  1.0000
  H   H11       1.0  0.02792  0.37163  0.81204  1.0000
  H   H12       1.0  0.47312  0.87822  0.69159  1.0000
  H   H13       1.0  0.37017  0.18271  0.30855  1.0000
  H   H14       1.0  0.62890  0.19363  0.19286  1.0000
  H   H15       1.0  0.87135  0.29936  0.80629  1.0000
  H   H16       1.0  0.62916  0.81223  0.68743  1.0000
  H   H17       1.0  0.51198  0.44980  0.36527  1.0000
  H   H18       1.0  0.48900  0.44220  0.13861  1.0000
  H   H19       1.0  0.98891  0.05856  0.63696  1.0000
  H   H20       1.0  0.48882  0.55737  0.63602  1.0000
  H   H21       1.0  0.55941  0.66762  0.41877  1.0000
  H   H22       1.0  0.44170  0.65280  0.08262  1.0000
  H   H23       1.0  0.94067  0.84551  0.58269  1.0000
  H   H24       1.0  0.44115  0.34313  0.58168  1.0000
  H   H25       1.0  0.48755  0.90816  0.36058  1.0000
  H   H26       1.0  0.51239  0.90780  0.14263  1.0000
  H   H27       1.0  0.98641  0.59179  0.85878  1.0000
  H   H28       1.0  0.51240  0.10347  0.64380  1.0000
  H   H29       1.0  0.59734  0.89974  0.27236  1.0000
  H   H30       1.0  0.40003  0.89237  0.22636  1.0000
  H   H31       1.0  0.90513  0.59874  0.72821  1.0000
  H   H32       1.0  0.40265  0.10586  0.72714  1.0000
  H   H33       1.0  0.17699  0.14479  0.37937  1.0000
  H   H34       1.0  0.82381  0.14525  0.11937  1.0000
  H   H35       1.0  0.67077  0.66050  0.38357  1.0000
  H   H36       1.0  0.32592  0.63972  0.11924  1.0000
  H   H37       1.0  0.17200  0.84344  0.88401  1.0000
  H   H38       1.0  0.67159  0.33975  0.87904  1.0000
  H   H39       1.0  0.87063  0.83894  0.51060  1.0000
  H   H40       1.0  0.37202  0.34063  0.51482  1.0000
  H   H41       1.0  0.77610  0.04230  0.39026  1.0000
  H   H42       1.0  0.27896  0.52168  0.38940  1.0000
  H   H43       1.0  0.83086  0.24621  0.35521  1.0000
  H   H44       1.0  0.33309  0.73189  0.35560  1.0000
  H   H45       1.0  0.92514  0.04140  0.47517  1.0000
  H   H46       1.0  0.42572  0.55054  0.48100  1.0000
  H   H47       1.0  0.13025  0.90961  0.33286  1.0000
  H   H48       1.0  0.87192  0.91387  0.16472  1.0000
  H   H49       1.0  0.62346  0.42644  0.33762  1.0000
  H   H50       1.0  0.37375  0.40490  0.16378  1.0000
  H   H51       1.0  0.12576  0.07950  0.83756  1.0000
  H   H52       1.0  0.62574  0.57553  0.83218  1.0000
  H   H53       1.0  0.17266  0.51662  0.45412  1.0000
  H   H54       1.0  0.82603  0.51109  0.04738  1.0000
  H   H55       1.0  0.67232  0.02325  0.45229  1.0000
  H   H56       1.0  0.32839  0.01071  0.04348  1.0000
  H   H57       1.0  0.17309  0.47852  0.95535  1.0000
  H   H58       1.0  0.67148  0.97381  0.95100  1.0000
  H   H59       1.0  0.21674  0.75618  0.50250  1.0000
  H   H60       1.0  0.77942  0.74565  0.00079  1.0000
  H   H61       1.0  0.71792  0.25942  0.49964  1.0000
  H   H62       1.0  0.28280  0.24868  0.99745  1.0000
  H   H63       1.0  0.21755  0.23957  0.00304  1.0000
  H   H64       1.0  0.71529  0.73479  0.99935  1.0000
  H   H65       1.0  0.94502  0.28028  0.41347  1.0000
  H   H66       1.0  0.05409  0.27601  0.08228  1.0000
  H   H67       1.0  0.44375  0.80278  0.42044  1.0000
  H   H68       1.0  0.55574  0.78748  0.08654  1.0000
  H   H69       1.0  0.05708  0.70435  0.58233  1.0000
  H   H70       1.0  0.94238  0.71862  0.91126  1.0000
  H   H71       1.0  0.55564  0.22316  0.58533  1.0000
  H   H72       1.0  0.44590  0.22691  0.91312  1.0000
  H   H73       1.0  0.10164  0.62052  0.32486  1.0000
  H   H74       1.0  0.90111  0.62541  0.17215  1.0000
  H   H75       1.0  0.59719  0.13247  0.32761  1.0000
  H   H76       1.0  0.40177  0.11816  0.17074  1.0000
  H   H77       1.0  0.90372  0.37484  0.67157  1.0000
  H   H78       1.0  0.10002  0.37289  0.82807  1.0000
  H   H79       1.0  0.40235  0.87819  0.67139  1.0000
  H   H80       1.0  0.59867  0.86955  0.82364  1.0000
  H   H81       1.0  0.26619  0.18919  0.36377  1.0000
  H   H82       1.0  0.73686  0.20924  0.13870  1.0000
  H   H83       1.0  0.75895  0.70224  0.36208  1.0000
  H   H84       1.0  0.23887  0.68979  0.13868  1.0000
  H   H85       1.0  0.73889  0.79421  0.63904  1.0000
  H   H86       1.0  0.25884  0.79747  0.86291  1.0000
  H   H87       1.0  0.18917  0.38803  0.60250  1.0000
  H   H88       1.0  0.75696  0.26176  0.86117  1.0000
  H   H89       1.0  0.26653  0.96874  0.39186  1.0000
  H   H90       1.0  0.73520  0.98281  0.11425  1.0000
  H   H91       1.0  0.76345  0.48132  0.39007  1.0000
  H   H92       1.0  0.23798  0.46663  0.11204  1.0000
  H   H93       1.0  0.73996  0.02016  0.61497  1.0000
  H   H94       1.0  0.26249  0.01932  0.89081  1.0000
  H   H95       1.0  0.23768  0.31556  0.63742  1.0000
  H   H96       1.0  0.75803  0.49071  0.88355  1.0000
  H   H97       1.0  0.31300  0.10862  0.40079  1.0000
  H   H98       1.0  0.68881  0.12286  0.10590  1.0000
  H   H99       1.0  0.80835  0.63059  0.39515  1.0000
  H   H100      1.0  0.19099  0.60350  0.10529  1.0000
  H   H101      1.0  0.69203  0.88979  0.60618  1.0000
  H   H102      1.0  0.30789  0.87283  0.89610  1.0000
  H   H103      1.0  0.23456  0.53453  0.60840  1.0000
  H   H104      1.0  0.80482  0.35325  0.89292  1.0000
  C   C1        1.0  0.52766  0.55092  0.28852  1.0000
  C   C2        1.0  0.47121  0.54660  0.21417  1.0000
  C   C3        1.0  0.97465  0.94901  0.71324  1.0000
  C   C4        1.0  0.47279  0.45393  0.71246  1.0000
  C   C5        1.0  0.47234  0.29388  0.28455  1.0000
  C   C6        1.0  0.52680  0.29337  0.21950  1.0000
  C   C7        1.0  0.97441  0.20368  0.78260  1.0000
  C   C8        1.0  0.52774  0.71091  0.71677  1.0000
  C   C9        1.0  0.42784  0.30528  0.28399  1.0000
  C   C10       1.0  0.57113  0.30920  0.21924  1.0000
  C   C11       1.0  0.92999  0.18617  0.78160  1.0000
  C   C12       1.0  0.57191  0.69461  0.71467  1.0000
  C   C13       1.0  0.42556  0.03127  0.33863  1.0000
  C   C14       1.0  0.57410  0.03660  0.16367  1.0000
  C   C15       1.0  0.92524  0.45927  0.83672  1.0000
  C   C16       1.0  0.57413  0.97225  0.66169  1.0000
  C   C17       1.0  0.55154  0.68283  0.26363  1.0000
  C   C18       1.0  0.44649  0.67894  0.23772  1.0000
  C   C19       1.0  0.95139  0.81373  0.73763  1.0000
  C   C20       1.0  0.44885  0.32088  0.73674  1.0000
  C   C21       1.0  0.49293  0.15028  0.31381  1.0000
  C   C22       1.0  0.50656  0.14795  0.19035  1.0000
  C   C23       1.0  0.99370  0.35087  0.81195  1.0000
  C   C24       1.0  0.50716  0.85881  0.68947  1.0000
  C   C25       1.0  0.40482  0.17571  0.31010  1.0000
  C   C26       1.0  0.59435  0.18302  0.19203  1.0000
  C   C27       1.0  0.90592  0.31151  0.80802  1.0000
  C   C28       1.0  0.59470  0.82294  0.68791  1.0000
  C   C29       1.0  0.53043  0.54896  0.34481  1.0000
  C   C30       1.0  0.46958  0.54086  0.15793  1.0000
  C   C31       1.0  0.97085  0.95702  0.65700  1.0000
  C   C32       1.0  0.47009  0.45845  0.65616  1.0000
  C   C33       1.0  0.58134  0.80079  0.34982  1.0000
  C   C34       1.0  0.41776  0.78808  0.15016  1.0000
  C   C35       1.0  0.91979  0.70590  0.65112  1.0000
  C   C36       1.0  0.41863  0.20867  0.65006  1.0000
  C   C37       1.0  0.55691  0.67170  0.37506  1.0000
  C   C38       1.0  0.44318  0.65925  0.12628  1.0000
  C   C39       1.0  0.94383  0.83744  0.62634  1.0000
  C   C40       1.0  0.44339  0.33794  0.62538  1.0000
  C   C41       1.0  0.47040  0.02150  0.34062  1.0000
  C   C42       1.0  0.52934  0.02207  0.16261  1.0000
  C   C43       1.0  0.97002  0.47626  0.83872  1.0000
  C   C44       1.0  0.52951  0.98709  0.66214  1.0000
  C   C45       1.0  0.57841  0.80350  0.29325  1.0000
  C   C46       1.0  0.41967  0.79535  0.20667  1.0000
  C   C47       1.0  0.92381  0.69686  0.70764  1.0000
  C   C48       1.0  0.42172  0.20262  0.70662  1.0000
  C   C49       1.0  0.22681  0.11250  0.47234  1.0000
  C   C50       1.0  0.77119  0.10395  0.02843  1.0000
  C   C51       1.0  0.72533  0.62000  0.47268  1.0000
  C   C52       1.0  0.27379  0.60446  0.02796  1.0000
  C   C53       1.0  0.77428  0.89223  0.52867  1.0000
  C   C54       1.0  0.22498  0.87927  0.97378  1.0000
  C   C55       1.0  0.27418  0.38957  0.52828  1.0000
  C   C56       1.0  0.72302  0.37567  0.97122  1.0000
  C   C57       1.0  0.26299  0.18438  0.45038  1.0000
  C   C58       1.0  0.73672  0.18517  0.05184  1.0000
  C   C59       1.0  0.76059  0.69462  0.44936  1.0000
  C   C60       1.0  0.23852  0.67733  0.05175  1.0000
  C   C61       1.0  0.73941  0.81606  0.55233  1.0000
  C   C62       1.0  0.26020  0.80607  0.94998  1.0000
  C   C63       1.0  0.23821  0.31713  0.55047  1.0000
  C   C64       1.0  0.75733  0.29322  0.94766  1.0000
  C   C65       1.0  0.28631  0.32422  0.47863  1.0000
  C   C66       1.0  0.71317  0.32252  0.02305  1.0000
  C   C67       1.0  0.78463  0.83245  0.47760  1.0000
  C   C68       1.0  0.21427  0.81518  0.02415  1.0000
  C   C69       1.0  0.71516  0.67946  0.52384  1.0000
  C   C70       1.0  0.28421  0.66724  0.97736  1.0000
  C   C71       1.0  0.21478  0.17763  0.52215  1.0000
  C   C72       1.0  0.78115  0.15719  0.97670  1.0000
  C   C73       1.0  0.17669  0.00643  0.39503  1.0000
  C   C74       1.0  0.82351  0.00562  0.10438  1.0000
  C   C75       1.0  0.67194  0.52017  0.39777  1.0000
  C   C76       1.0  0.32597  0.50144  0.10329  1.0000
  C   C77       1.0  0.17289  0.98331  0.89878  1.0000
  C   C78       1.0  0.67214  0.47909  0.89423  1.0000
  C   C79       1.0  0.86208  0.92593  0.47602  1.0000
  C   C80       1.0  0.36368  0.42439  0.47948  1.0000
  C   C81       1.0  0.81965  0.92826  0.45297  1.0000
  C   C82       1.0  0.32179  0.41904  0.45471  1.0000
  C   C83       1.0  0.80900  0.04035  0.40809  1.0000
  C   C84       1.0  0.31142  0.52581  0.40863  1.0000
  C   C85       1.0  0.83913  0.15467  0.38869  1.0000
  C   C86       1.0  0.34110  0.64324  0.38983  1.0000
  C   C87       1.0  0.88125  0.15875  0.41321  1.0000
  C   C88       1.0  0.38244  0.65679  0.41634  1.0000
  C   C89       1.0  0.89253  0.04009  0.45630  1.0000
  C   C90       1.0  0.39367  0.54281  0.46056  1.0000
  C   C91       1.0  0.15054  0.87430  0.36903  1.0000
  C   C92       1.0  0.85051  0.87566  0.12973  1.0000
  C   C93       1.0  0.64538  0.38875  0.37210  1.0000
  C   C94       1.0  0.35271  0.36986  0.12815  1.0000
  C   C95       1.0  0.14697  0.11575  0.87292  1.0000
  C   C96       1.0  0.64651  0.61182  0.86794  1.0000
  C   C97       1.0  0.14865  0.69670  0.38987  1.0000
  C   C98       1.0  0.85191  0.69663  0.10947  1.0000
  C   C99       1.0  0.64500  0.20895  0.39157  1.0000
  C   C100      1.0  0.35412  0.19239  0.10682  1.0000
  C   C101      1.0  0.14654  0.29505  0.89312  1.0000
  C   C102      1.0  0.64563  0.79081  0.88826  1.0000
  C   C103      1.0  0.17376  0.65395  0.43774  1.0000
  C   C104      1.0  0.82514  0.64950  0.06326  1.0000
  C   C105      1.0  0.67231  0.16258  0.43723  1.0000
  C   C106      1.0  0.32781  0.14830  0.05999  1.0000
  C   C107      1.0  0.17303  0.33944  0.93981  1.0000
  C   C108      1.0  0.67166  0.83500  0.93534  1.0000
  C   C109      1.0  0.19895  0.78792  0.46436  1.0000
  C   C110      1.0  0.79876  0.78067  0.03759  1.0000
  C   C111      1.0  0.69827  0.29509  0.46322  1.0000
  C   C112      1.0  0.30185  0.28148  0.03465  1.0000
  C   C113      1.0  0.19833  0.20561  0.96604  1.0000
  C   C114      1.0  0.69659  0.70104  0.96197  1.0000
  C   C115      1.0  0.20092  0.96600  0.44350  1.0000
  C   C116      1.0  0.79756  0.96055  0.05751  1.0000
  C   C117      1.0  0.69862  0.47570  0.44399  1.0000
  C   C118      1.0  0.30054  0.45973  0.05575  1.0000
  C   C119      1.0  0.19876  0.02577  0.94589  1.0000
  C   C120      1.0  0.69721  0.52092  0.94207  1.0000
  C   C121      1.0  0.91198  0.28918  0.39491  1.0000
  C   C122      1.0  0.08658  0.27768  0.10277  1.0000
  C   C123      1.0  0.41186  0.79343  0.39845  1.0000
  C   C124      1.0  0.58851  0.79145  0.10622  1.0000
  C   C125      1.0  0.08914  0.71213  0.60394  1.0000
  C   C126      1.0  0.90928  0.70539  0.89310  1.0000
  C   C127      1.0  0.58837  0.21927  0.60504  1.0000
  C   C128      1.0  0.41279  0.21664  0.89480  1.0000
  C   C129      1.0  0.11920  0.56741  0.36174  1.0000
  C   C130      1.0  0.88237  0.56959  0.13641  1.0000
  C   C131      1.0  0.61510  0.07991  0.36429  1.0000
  C   C132      1.0  0.38398  0.06431  0.13407  1.0000
  C   C133      1.0  0.88533  0.42976  0.63560  1.0000
  C   C134      1.0  0.11722  0.42480  0.86542  1.0000
  C   C135      1.0  0.38433  0.93174  0.63494  1.0000
  C   C136      1.0  0.61636  0.92114  0.86069  1.0000
  C   C137      1.0  0.27798  0.10845  0.39905  1.0000
  C   C138      1.0  0.72370  0.12142  0.10548  1.0000
  C   C139      1.0  0.77357  0.62339  0.39637  1.0000
  C   C140      1.0  0.22585  0.60514  0.10464  1.0000
  C   C141      1.0  0.72690  0.88400  0.60587  1.0000
  C   C142      1.0  0.27309  0.87811  0.89719  1.0000
  C   C143      1.0  0.22405  0.39293  0.60232  1.0000
  C   C144      1.0  0.76995  0.35354  0.89351  1.0000
  C   C145      1.0  0.00052  0.91863  0.24841  1.0000
  C   C146      1.0  0.49946  0.42078  0.25186  1.0000
  C   C147      1.0  0.00260  0.07887  0.75035  1.0000
  C   C148      1.0  0.50118  0.58192  0.74961  1.0000
  N   N1        1.0  0.11304  0.40371  0.37848  1.0000
  N   N2        1.0  0.88801  0.40476  0.11993  1.0000
  N   N3        1.0  0.60887  0.91698  0.38163  1.0000
  N   N4        1.0  0.39034  0.90061  0.11722  1.0000
  N   N5        1.0  0.89149  0.59372  0.61904  1.0000
  N   N6        1.0  0.11076  0.58785  0.88275  1.0000
  N   N7        1.0  0.39072  0.09500  0.61791  1.0000
  N   N8        1.0  0.61037  0.08424  0.87833  1.0000
  N   N9        1.0  0.89940  0.41039  0.35955  1.0000
  N   N10       1.0  0.09930  0.39603  0.13917  1.0000
  N   N11       1.0  0.39920  0.90041  0.35918  1.0000
  N   N12       1.0  0.60128  0.90947  0.14264  1.0000
  N   N13       1.0  0.10199  0.60337  0.64268  1.0000
  N   N14       1.0  0.89713  0.58275  0.85770  1.0000
  N   N15       1.0  0.60107  0.10100  0.64122  1.0000
  N   N16       1.0  0.40005  0.09379  0.85980  1.0000
  C   C149      1.0  0.88696  0.99587  0.96260  1.0000
  C   C150      1.0  0.88178  0.85856  0.92364  1.0000
  C  Sn1       1.0  0.84179  0.82703  0.89603  1.0000
  C  Sn2       1.0  0.80640  0.93524  0.90771  1.0000
  C   C151      1.0  0.81180  0.07236  0.94673  1.0000
  C   C152      1.0  0.85195  0.10270  0.97413  1.0000
  H   H105      1.0  0.91791  0.01943  0.98378  1.0000
  O  Te1       1.0  0.83718  0.68924  0.85725  1.0000
  O  Te2       1.0  0.76608  0.90668  0.88071  1.0000
  H   H106      1.0  0.78351  0.19933  0.00426  1.0000
  Mg  Mg1       1.0  0.77586  0.70255  0.83126  1.0000
  C   C153      1.0  0.10902  0.98775  0.03282  1.0000
  C   C154      1.0  0.11212  0.10342  0.07755  1.0000
  C  Sn3       1.0  0.15121  0.12589  0.10817  1.0000
  C  Sn4       1.0  0.18771  0.03065  0.09362  1.0000
  C   C155      1.0  0.18428  0.91535  0.04877  1.0000
  C   C156      1.0  0.14500  0.89382  0.01843  1.0000
  H   H107      1.0  0.07864  0.97116  0.00932  1.0000
  O  Te3       1.0  0.15386  0.24193  0.15275  1.0000
  O  Te4       1.0  0.22717  0.05065  0.12350  1.0000
  H   H108      1.0  0.21497  0.81411  0.98377  1.0000
  Mg  Mg2       1.0  0.21467  0.22427  0.18083  1.0000
  C   C157      1.0  0.30476  0.76325  0.53703  1.0000
  C   C158      1.0  0.30194  0.57731  0.54834  1.0000
  C  Sn5       1.0  0.32465  0.50436  0.59397  1.0000
  C  Sn6       1.0  0.35063  0.62005  0.62887  1.0000
  C   C159      1.0  0.35322  0.80590  0.61723  1.0000
  C   C160      1.0  0.33037  0.87746  0.57145  1.0000
  H   H109      1.0  0.28706  0.81865  0.50163  1.0000
  O  Te5       1.0  0.32148  0.31827  0.60465  1.0000
  O  Te6       1.0  0.37366  0.55073  0.67477  1.0000
  H   H110      1.0  0.33242  0.02145  0.56273  1.0000
  Mg  Mg3       1.0  0.35897  0.28805  0.67215  1.0000
  C   C161      1.0  0.08110  0.79059  0.20738  1.0000
  C   C162      1.0  0.03724  0.80475  0.21174  1.0000
  C  Sn7       1.0  0.00950  0.66865  0.19045  1.0000
  C  Sn8       1.0  0.02606  0.51569  0.16434  1.0000
  C   C163      1.0  0.06998  0.50274  0.16022  1.0000
  C   C164      1.0  0.09746  0.63974  0.18166  1.0000
  H   H111      1.0  0.10236  0.89653  0.22399  1.0000
  O  Te7       1.0  0.96577  0.68497  0.19514  1.0000
  O  Te8       1.0  0.99904  0.37767  0.14272  1.0000
  H   H112      1.0  0.13141  0.62868  0.17830  1.0000
  Mg  Mg4       1.0  0.94184  0.46155  0.15921  1.0000
  C   C165      1.0  0.02037  0.46371  0.66547  1.0000
  C   C166      1.0  0.06441  0.48393  0.66388  1.0000
  C  Sn9       1.0  0.09244  0.35436  0.68807  1.0000
  C  Sn10      1.0  0.07598  0.20185  0.71428  1.0000
  C   C167      1.0  0.03186  0.18280  0.71562  1.0000
  C   C168      1.0  0.00410  0.31329  0.69130  1.0000
  H   H113      1.0  0.99888  0.56461  0.64664  1.0000
  O  Te9       1.0  0.13636  0.37669  0.68612  1.0000
  O  Te10      1.0  0.10327  0.07029  0.73876  1.0000
  H   H114      1.0  0.97000  0.29754  0.69251  1.0000
  Mg  Mg5       1.0  0.16065  0.16087  0.72538  1.0000
  C   C169      1.0  0.80420  0.26606  0.53908  1.0000
  C   C170      1.0  0.80228  0.07884  0.54889  1.0000
  C  Sn11      1.0  0.82641  0.00291  0.59310  1.0000
  C  Sn12      1.0  0.85267  0.11689  0.62806  1.0000
  C   C171      1.0  0.85435  0.30406  0.61791  1.0000
  C   C172      1.0  0.83020  0.37860  0.57355  1.0000
  H   H115      1.0  0.78550  0.32377  0.50477  1.0000
  O  Te11      1.0  0.82414  0.81557  0.60230  1.0000
  O  Te12      1.0  0.87699  0.04460  0.67254  1.0000
  H   H116      1.0  0.83167  0.52358  0.56598  1.0000
  Mg  Mg6       1.0  0.86327  0.78120  0.66820  1.0000
  C   C173      1.0  0.56312  0.28880  0.76101  1.0000
  C   C174      1.0  0.53341  0.41167  0.77863  1.0000
  C  Sn13      1.0  0.53039  0.43798  0.83355  1.0000
  C  Sn14      1.0  0.55768  0.33930  0.87145  1.0000
  C   C175      1.0  0.58732  0.21679  0.85341  1.0000
  C   C176      1.0  0.59006  0.19146  0.79836  1.0000
  H   H117      1.0  0.56527  0.26927  0.71842  1.0000
  O  Te13      1.0  0.50051  0.56122  0.85047  1.0000
  O  Te14      1.0  0.55535  0.36302  0.92658  1.0000
  H   H118      1.0  0.61310  0.09641  0.78473  1.0000
  Mg  Mg7       1.0  0.50945  0.54635  0.92983  1.0000
  C   C177      1.0  0.62467  0.43056  0.02688  1.0000
  C   C178      1.0  0.66871  0.42249  0.04056  1.0000
  C  Sn15      1.0  0.68766  0.53062  0.08227  1.0000
  C  Sn16      1.0  0.66197  0.64883  0.11076  1.0000
  C   C179      1.0  0.61794  0.65581  0.09679  1.0000
  C   C180      1.0  0.59931  0.54706  0.05497  1.0000
  H   H119      1.0  0.68269  0.35612  0.99454  1.0000
  O  Te15      1.0  0.73171  0.52093  0.09540  1.0000
  O  Te16      1.0  0.68009  0.75833  0.15263  1.0000
  H   H120      1.0  0.56521  0.55325  0.04441  1.0000
  Mg  Mg8       1.0  0.74155  0.69691  0.15555  1.0000
  C   C181      1.0  0.41941  0.70640  0.78861  1.0000
  C   C182      1.0  0.46274  0.70430  0.78029  1.0000
  C  Sn17      1.0  0.49037  0.83563  0.80463  1.0000
  C  Sn18      1.0  0.47423  0.97138  0.83792  1.0000
  C   C183      1.0  0.43083  0.97224  0.84602  1.0000
  C   C184      1.0  0.40347  0.84021  0.82145  1.0000
  H   H121      1.0  0.39824  0.60420  0.76963  1.0000
  O  Te17      1.0  0.53357  0.83158  0.79588  1.0000
  O  Te18      1.0  0.50102  0.10423  0.86276  1.0000
  H   H122      1.0  0.36993  0.84181  0.82793  1.0000
  Mg  Mg9       1.0  0.55743  0.04179  0.83853  1.0000
  C   C185      1.0  0.96133  0.05127  0.14255  1.0000
  C   C186      1.0  0.97304  0.04785  0.19785  1.0000
  C  Sn19      1.0  0.95389  0.16711  0.23215  1.0000
  C  Sn20      1.0  0.92245  0.29191  0.21056  1.0000
  C   C187      1.0  0.91093  0.29418  0.15519  1.0000
  C   C188      1.0  0.93030  0.17428  0.12123  1.0000
  H   H123      1.0  0.97641  0.95845  0.11628  1.0000
  O  Te19      1.0  0.96598  0.16192  0.28730  1.0000
  O  Te20      1.0  0.90279  0.41257  0.24393  1.0000
  H   H124      1.0  0.92121  0.17688  0.07842  1.0000
  Mg  Mg10      1.0  0.93005  0.35349  0.31637  1.0000
  C   C189      1.0  0.32792  0.35578  0.88923  1.0000
  C   C190      1.0  0.37187  0.35156  0.90379  1.0000
  C  Sn21      1.0  0.38981  0.46181  0.94563  1.0000
  C  Sn22      1.0  0.36319  0.57826  0.97334  1.0000
  C   C191      1.0  0.31925  0.58139  0.95849  1.0000
  C   C192      1.0  0.30163  0.47054  0.91656  1.0000
  H   H125      1.0  0.31427  0.26996  0.85681  1.0000
  O  Te21      1.0  0.43379  0.45596  0.95964  1.0000
  O  Te22      1.0  0.30784  0.68004  0.01531  1.0000
  H   H126      1.0  0.26759  0.47375  0.90532  1.0000
  Mg  Mg11      1.0  0.36961  0.62377  0.01958  1.0000
  C   C193      1.0  0.06124  0.21790  0.26037  1.0000
  C   C194      1.0  0.03647  0.07509  0.27765  1.0000
  C  Sn23      1.0  0.03547  0.04062  0.33249  1.0000
  C  Sn24      1.0  0.05973  0.15143  0.37063  1.0000
  C   C195      1.0  0.08438  0.29404  0.35293  1.0000
  C   C196      1.0  0.08517  0.32730  0.29796  1.0000
  H   H127      1.0  0.06183  0.24371  0.21784  1.0000
  O  Te23      1.0  0.01069  0.89734  0.34907  1.0000
  O  Te24      1.0  0.05929  0.12002  0.42568  1.0000
  H   H128      1.0  0.10432  0.43796  0.28459  1.0000
  Mg  Mg12      1.0  0.02053  0.90849  0.42844  1.0000
  C   C197      1.0  0.91925  0.79722  0.28916  1.0000
  C   C198      1.0  0.96317  0.80888  0.28507  1.0000
  C  Sn25      1.0  0.99047  0.67291  0.30710  1.0000
  C  Sn26      1.0  0.97338  0.52261  0.33367  1.0000
  C   C199      1.0  0.92938  0.51214  0.33752  1.0000
  C   C200      1.0  0.90236  0.64899  0.31535  1.0000
  H   H129      1.0  0.89833  0.90305  0.27199  1.0000
  O  Te25      1.0  0.03429  0.68672  0.30266  1.0000
  O  Te26      1.0  0.99994  0.38477  0.35603  1.0000
  H   H130      1.0  0.86835  0.63987  0.31850  1.0000
  Mg  Mg13      1.0  0.05746  0.46464  0.33964  1.0000
  C   C201      1.0  0.62666  0.56954  0.52409  1.0000
  C   C202      1.0  0.66904  0.59786  0.54439  1.0000
  C  Sn27      1.0  0.68703  0.49346  0.58734  1.0000
  C  Sn28      1.0  0.66206  0.35828  0.61030  1.0000
  C   C203      1.0  0.61970  0.33092  0.58968  1.0000
  C   C204      1.0  0.60202  0.43619  0.54670  1.0000
  H   H131      1.0  0.61298  0.65092  0.49083  1.0000
  O  Te27      1.0  0.72941  0.52357  0.60715  1.0000
  O  Te28      1.0  0.67924  0.25197  0.65324  1.0000
  H   H132      1.0  0.56921  0.41416  0.53097  1.0000
  Mg  Mg14      1.0  0.73848  0.34410  0.66618  1.0000
  C   C205      1.0  0.10979  0.99730  0.53166  1.0000
  C   C206      1.0  0.11503  0.87070  0.57344  1.0000
  C  Sn29      1.0  0.15399  0.85777  0.60485  1.0000
  C  Sn30      1.0  0.18828  0.97397  0.59414  1.0000
  C   C207      1.0  0.18258  0.10027  0.55228  1.0000
  C   C208      1.0  0.14346  0.11201  0.52109  1.0000
  H   H133      1.0  0.07940  0.00647  0.50754  1.0000
  O  Te29      1.0  0.15870  0.73048  0.64642  1.0000
  O  Te30      1.0  0.22755  0.96398  0.62493  1.0000
  H   H134      1.0  0.13940  0.21013  0.48877  1.0000
  Mg  Mg15      1.0  0.21835  0.76848  0.67715  1.0000
  C   C209      1.0  0.06505  0.78862  0.76398  1.0000
  C   C210      1.0  0.03470  0.91058  0.78053  1.0000
  C  Sn31      1.0  0.03067  0.93769  0.83521  1.0000
  C  Sn32      1.0  0.05758  0.84073  0.87394  1.0000
  C   C211      1.0  0.08786  0.71911  0.85697  1.0000
  C   C212      1.0  0.09161  0.69298  0.80216  1.0000
  H   H135      1.0  0.06798  0.76846  0.72157  1.0000
  O  Te31      1.0  0.00005  0.06000  0.85105  1.0000
  O  Te32      1.0  0.05424  0.86527  0.92884  1.0000
  H   H136      1.0  0.11513  0.59863  0.78935  1.0000
  Mg  Mg16      1.0  0.00768  0.04681  0.93051  1.0000
