data_image0
_chemical_formula_structural       H80C140N16F8C2Sn2C2HTe2HMgC2Sn2C2HTe2HMgC2Sn2C2HTe2HMgC2Sn2C2HTe2HMgC2Sn2C2HTe2HMgC2Sn2C2HTe2HMgC2Sn2C2HTe2HMgC2Sn2C2HTe2HMgC2Sn2C2HTe2HMgC2Sn2C2HTe2HMgC2Sn2C2HTe2HMgC2Sn2C2HTe2HMgC2Sn2C2HTe2HMgC2Sn2C2HTe2HMgC2Sn2C2HTe2HMgC2Sn2C2HTe2HMg
_chemical_formula_sum              "H112 C204 N16 F8 Sn32 Te32 Mg16"
_cell_length_a       31.8741
_cell_length_b       7.10414
_cell_length_c       26.3729
_cell_angle_alpha    90.3212
_cell_angle_beta     96.9221
_cell_angle_gamma    89.7239

_symmetry_space_group_name_H-M    'P1'
_space_group_IT_number       1

loop_
  _space_group_symop_operation_xyz
  'x, y, z'

loop_
  _atom_site_type_symbol
  _atom_site_label
  _atom_site_symmetry_multiplicity
  _atom_site_fract_x
  _atom_site_fract_y
  _atom_site_fract_z
  _atom_site_occupancy
  H   H1        1.0  0.76985  0.04974  0.39366  1.0000
  H   H2        1.0  0.22770  0.95469  0.60508  1.0000
  H   H3        1.0  0.82289  0.25300  0.35827  1.0000
  H   H4        1.0  0.17268  0.76269  0.64085  1.0000
  H   H5        1.0  0.92067  0.02847  0.46806  1.0000
  H   H6        1.0  0.07821  0.97695  0.52545  1.0000
  H   H7        1.0  0.86778  0.83158  0.50493  1.0000
  H   H8        1.0  0.13305  0.16055  0.48788  1.0000
  H   H9        1.0  0.17659  0.15087  0.37820  1.0000
  H   H10       1.0  0.82060  0.14883  0.11850  1.0000
  H   H11       1.0  0.17679  0.85703  0.88249  1.0000
  H   H12       1.0  0.12787  0.91320  0.33463  1.0000
  H   H13       1.0  0.86553  0.90571  0.16564  1.0000
  H   H14       1.0  0.13229  0.10332  0.83631  1.0000
  H   H15       1.0  0.17050  0.50559  0.45021  1.0000
  H   H16       1.0  0.82994  0.50399  0.04530  1.0000
  H   H17       1.0  0.16819  0.49776  0.95842  1.0000
  H   H18       1.0  0.21641  0.74918  0.49625  1.0000
  H   H19       1.0  0.78696  0.75058  0.99672  1.0000
  H   H20       1.0  0.21146  0.24917  0.00549  1.0000
  H   H21       1.0  0.91036  0.91393  0.26108  1.0000
  H   H22       1.0  0.41427  0.40529  0.26014  1.0000
  H   H23       1.0  0.58911  0.39556  0.24261  1.0000
  H   H24       1.0  0.09186  0.13000  0.74617  1.0000
  H   H25       1.0  0.91540  0.10107  0.75227  1.0000
  H   H26       1.0  0.58530  0.59278  0.73901  1.0000
  H   H27       1.0  0.41123  0.60430  0.75959  1.0000
  H   H28       1.0  0.04635  0.18068  0.22488  1.0000
  H   H29       1.0  0.55097  0.67683  0.22467  1.0000
  H   H30       1.0  0.95660  0.82428  0.77386  1.0000
  H   H31       1.0  0.45155  0.32399  0.77790  1.0000
  H   H32       1.0  0.02206  0.58701  0.30898  1.0000
  H   H33       1.0  0.52711  0.08741  0.30838  1.0000
  H   H34       1.0  0.47540  0.08985  0.19214  1.0000
  H   H35       1.0  0.97567  0.39353  0.68355  1.0000
  H   H36       1.0  0.02750  0.41188  0.80664  1.0000
  H   H37       1.0  0.47320  0.91790  0.69227  1.0000
  H   H38       1.0  0.52519  0.91077  0.80829  1.0000
  H   H39       1.0  0.86842  0.69457  0.30647  1.0000
  H   H40       1.0  0.37319  0.18283  0.30622  1.0000
  H   H41       1.0  0.62977  0.16968  0.19628  1.0000
  H   H42       1.0  0.13152  0.35992  0.70011  1.0000
  H   H43       1.0  0.87295  0.32249  0.79788  1.0000
  H   H44       1.0  0.62670  0.81209  0.69294  1.0000
  H   H45       1.0  0.37117  0.82888  0.80740  1.0000
  H   H46       1.0  0.01188  0.91909  0.36030  1.0000
  H   H47       1.0  0.51361  0.41612  0.35881  1.0000
  H   H48       1.0  0.99132  0.08018  0.63781  1.0000
  H   H49       1.0  0.48328  0.58909  0.64155  1.0000
  H   H50       1.0  0.06030  0.13562  0.41331  1.0000
  H   H51       1.0  0.56023  0.63521  0.41297  1.0000
  H   H52       1.0  0.94365  0.85924  0.58544  1.0000
  H   H53       1.0  0.43477  0.37062  0.58944  1.0000
  H   H54       1.0  0.98077  0.37379  0.35532  1.0000
  H   H55       1.0  0.48690  0.87152  0.35538  1.0000
  H   H56       1.0  0.51542  0.86814  0.14536  1.0000
  H   H57       1.0  0.01471  0.61958  0.63780  1.0000
  H   H58       1.0  0.98566  0.62834  0.85280  1.0000
  H   H59       1.0  0.51381  0.13202  0.64542  1.0000
  H   H60       1.0  0.48572  0.13100  0.85639  1.0000
  H   H61       1.0  0.09568  0.38669  0.27658  1.0000
  H   H62       1.0  0.59867  0.88563  0.27759  1.0000
  H   H63       1.0  0.90765  0.61491  0.72271  1.0000
  H   H64       1.0  0.40229  0.11491  0.72722  1.0000
  H   H65       1.0  0.93817  0.27555  0.41094  1.0000
  H   H66       1.0  0.05519  0.26795  0.08984  1.0000
  H   H67       1.0  0.44320  0.75753  0.40881  1.0000
  H   H68       1.0  0.55962  0.78387  0.08445  1.0000
  H   H69       1.0  0.05879  0.73637  0.58546  1.0000
  H   H70       1.0  0.94215  0.71518  0.90976  1.0000
  H   H71       1.0  0.55793  0.26146  0.59582  1.0000
  H   H72       1.0  0.44243  0.24514  0.91223  1.0000
  H   H73       1.0  0.09674  0.61930  0.32911  1.0000
  H   H74       1.0  0.89614  0.61471  0.17293  1.0000
  H   H75       1.0  0.60065  0.11769  0.33019  1.0000
  H   H76       1.0  0.39813  0.10697  0.17130  1.0000
  H   H77       1.0  0.90476  0.38085  0.67093  1.0000
  H   H78       1.0  0.10446  0.39739  0.82792  1.0000
  H   H79       1.0  0.39841  0.88389  0.67341  1.0000
  H   H80       1.0  0.60253  0.89083  0.82445  1.0000
  C   C1        1.0  0.02615  0.02962  0.28832  1.0000
  C   C2        1.0  0.52933  0.52605  0.28734  1.0000
  C   C3        1.0  0.97661  0.97337  0.71018  1.0000
  C   C4        1.0  0.47028  0.47643  0.71393  1.0000
  C   C5        1.0  0.97006  0.77107  0.28195  1.0000
  C   C6        1.0  0.47421  0.26538  0.28080  1.0000
  C   C7        1.0  0.52873  0.26251  0.22078  1.0000
  C   C8        1.0  0.03041  0.24110  0.71767  1.0000
  C   C9        1.0  0.97506  0.23735  0.77606  1.0000
  C   C10       1.0  0.52569  0.73647  0.71933  1.0000
  C   C11       1.0  0.47173  0.73823  0.78054  1.0000
  C   C12       1.0  0.92641  0.79782  0.28197  1.0000
  C   C13       1.0  0.43060  0.28991  0.28102  1.0000
  C   C14       1.0  0.57248  0.28197  0.22121  1.0000
  C   C15       1.0  0.07460  0.23489  0.72212  1.0000
  C   C16       1.0  0.93125  0.21509  0.77433  1.0000
  C   C17       1.0  0.56916  0.70927  0.71846  1.0000
  C   C18       1.0  0.42806  0.71750  0.78096  1.0000
  C   C19       1.0  0.92111  0.52034  0.33483  1.0000
  C   C20       1.0  0.42649  0.01265  0.33421  1.0000
  C   C21       1.0  0.57599  0.00480  0.16694  1.0000
  C   C22       1.0  0.07649  0.50292  0.66515  1.0000
  C   C23       1.0  0.92583  0.48901  0.82918  1.0000
  C   C24       1.0  0.57391  0.98705  0.66568  1.0000
  C   C25       1.0  0.42506  0.99388  0.83568  1.0000
  C   C26       1.0  0.04951  0.16746  0.26612  1.0000
  C   C27       1.0  0.55313  0.66422  0.26589  1.0000
  C   C28       1.0  0.95350  0.83524  0.73257  1.0000
  C   C29       1.0  0.44770  0.33698  0.73661  1.0000
  C   C30       1.0  0.98865  0.61665  0.30959  1.0000
  C   C31       1.0  0.49354  0.11326  0.30881  1.0000
  C   C32       1.0  0.50912  0.11189  0.19230  1.0000
  C   C33       1.0  0.00984  0.38181  0.68638  1.0000
  C   C34       1.0  0.99375  0.38778  0.80547  1.0000
  C   C35       1.0  0.50668  0.88991  0.69160  1.0000
  C   C36       1.0  0.49157  0.88844  0.80895  1.0000
  C   C37       1.0  0.90239  0.67466  0.30748  1.0000
  C   C38       1.0  0.40719  0.16561  0.30688  1.0000
  C   C39       1.0  0.59572  0.15509  0.19524  1.0000
  C   C40       1.0  0.09718  0.36345  0.69653  1.0000
  C   C41       1.0  0.90703  0.33897  0.79999  1.0000
  C   C42       1.0  0.59279  0.83192  0.69246  1.0000
  C   C43       1.0  0.40518  0.84310  0.80776  1.0000
  C   C44       1.0  0.03004  0.02187  0.34179  1.0000
  C   C45       1.0  0.53197  0.51936  0.34078  1.0000
  C   C46       1.0  0.97331  0.97784  0.65668  1.0000
  C   C47       1.0  0.46581  0.48487  0.66047  1.0000
  C   C48       1.0  0.08085  0.27921  0.34916  1.0000
  C   C49       1.0  0.58243  0.77785  0.34965  1.0000
  C   C50       1.0  0.92268  0.71960  0.64984  1.0000
  C   C51       1.0  0.41566  0.22527  0.65401  1.0000
  C   C52       1.0  0.05699  0.14434  0.37183  1.0000
  C   C53       1.0  0.55806  0.64289  0.37151  1.0000
  C   C54       1.0  0.94672  0.85311  0.62695  1.0000
  C   C55       1.0  0.43888  0.36131  0.63092  1.0000
  C   C56       1.0  0.96508  0.49449  0.33598  1.0000
  C   C57       1.0  0.47057  0.98985  0.33557  1.0000
  C   C58       1.0  0.53186  0.98575  0.16543  1.0000
  C   C59       1.0  0.03201  0.51005  0.66025  1.0000
  C   C60       1.0  0.96998  0.51057  0.83198  1.0000
  C   C61       1.0  0.52991  0.01224  0.66478  1.0000
  C   C62       1.0  0.46911  0.01358  0.83645  1.0000
  C   C63       1.0  0.07700  0.28706  0.29548  1.0000
  C   C64       1.0  0.57983  0.78512  0.29601  1.0000
  C   C65       1.0  0.92633  0.71363  0.70351  1.0000
  C   C66       1.0  0.42021  0.21598  0.70772  1.0000
  C   C67       1.0  0.22532  0.11360  0.46893  1.0000
  C   C68       1.0  0.77697  0.11772  0.02495  1.0000
  C   C69       1.0  0.72377  0.61222  0.47751  1.0000
  C   C70       1.0  0.27123  0.59434  0.02780  1.0000
  C   C71       1.0  0.77780  0.88615  0.52945  1.0000
  C   C72       1.0  0.22141  0.88258  0.97546  1.0000
  C   C73       1.0  0.27596  0.39013  0.52550  1.0000
  C   C74       1.0  0.72800  0.40224  0.96922  1.0000
  C   C75       1.0  0.25788  0.20706  0.44833  1.0000
  C   C76       1.0  0.74445  0.21481  0.04514  1.0000
  C   C77       1.0  0.75527  0.70199  0.45399  1.0000
  C   C78       1.0  0.23721  0.67868  0.04829  1.0000
  C   C79       1.0  0.74637  0.79652  0.55307  1.0000
  C   C80       1.0  0.25507  0.79620  0.95478  1.0000
  C   C81       1.0  0.24359  0.29572  0.54620  1.0000
  C   C82       1.0  0.76100  0.30762  0.94931  1.0000
  C   C83       1.0  0.28343  0.34313  0.47509  1.0000
  C   C84       1.0  0.71919  0.35248  0.01870  1.0000
  C   C85       1.0  0.78267  0.83627  0.47842  1.0000
  C   C86       1.0  0.21206  0.82130  0.02380  1.0000
  C   C87       1.0  0.71883  0.66262  0.52857  1.0000
  C   C88       1.0  0.28058  0.65544  0.97943  1.0000
  C   C89       1.0  0.21775  0.16111  0.51932  1.0000
  C   C90       1.0  0.78560  0.16691  0.97534  1.0000
  C   C91       1.0  0.20002  0.96552  0.43991  1.0000
  C   C92       1.0  0.80081  0.96661  0.05441  1.0000
  C   C93       1.0  0.19705  0.03560  0.94723  1.0000
  C   C94       1.0  0.81530  0.92982  0.45211  1.0000
  C   C95       1.0  0.18398  0.06734  0.54365  1.0000
  C   C96       1.0  0.80297  0.04432  0.40951  1.0000
  C   C97       1.0  0.19492  0.95913  0.58785  1.0000
  C   C98       1.0  0.83231  0.15721  0.38963  1.0000
  C   C99       1.0  0.16459  0.85316  0.60798  1.0000
  C   C100      1.0  0.87502  0.15530  0.41099  1.0000
  C   C101      1.0  0.12222  0.85603  0.58535  1.0000
  C   C102      1.0  0.88765  0.03272  0.45172  1.0000
  C   C103      1.0  0.11100  0.97137  0.54268  1.0000
  C   C104      1.0  0.85809  0.92145  0.47227  1.0000
  C   C105      1.0  0.14163  0.07526  0.52175  1.0000
  C   C106      1.0  0.17572  0.00927  0.39351  1.0000
  C   C107      1.0  0.82215  0.00738  0.10287  1.0000
  C   C108      1.0  0.17537  0.99744  0.89881  1.0000
  C   C109      1.0  0.14848  0.87567  0.36914  1.0000
  C   C110      1.0  0.84719  0.87073  0.12927  1.0000
  C   C111      1.0  0.15053  0.13589  0.87292  1.0000
  C   C112      1.0  0.14588  0.69422  0.38968  1.0000
  C   C113      1.0  0.85077  0.68920  0.10857  1.0000
  C   C114      1.0  0.14728  0.31674  0.89413  1.0000
  C   C115      1.0  0.17183  0.64720  0.43487  1.0000
  C   C116      1.0  0.82775  0.64519  0.06109  1.0000
  C   C117      1.0  0.17016  0.35752  0.94193  1.0000
  C   C118      1.0  0.19802  0.78263  0.46000  1.0000
  C   C119      1.0  0.80348  0.78324  0.03418  1.0000
  C   C120      1.0  0.19447  0.21782  0.96820  1.0000
  C   C121      1.0  0.90547  0.28236  0.39195  1.0000
  C   C122      1.0  0.08755  0.26888  0.10995  1.0000
  C   C123      1.0  0.41044  0.77121  0.39040  1.0000
  C   C124      1.0  0.59162  0.77888  0.10547  1.0000
  C   C125      1.0  0.09120  0.73464  0.60539  1.0000
  C   C126      1.0  0.90992  0.71797  0.88928  1.0000
  C   C127      1.0  0.59089  0.23731  0.61246  1.0000
  C   C128      1.0  0.40968  0.23487  0.89360  1.0000
  C   C129      1.0  0.11511  0.56392  0.36389  1.0000
  C   C130      1.0  0.87998  0.55810  0.13686  1.0000
  C   C131      1.0  0.61695  0.06195  0.36621  1.0000
  C   C132      1.0  0.38145  0.04859  0.13574  1.0000
  C   C133      1.0  0.88781  0.43573  0.63515  1.0000
  C   C134      1.0  0.11895  0.45002  0.86531  1.0000
  C   C135      1.0  0.38126  0.94071  0.63801  1.0000
  C   C136      1.0  0.61976  0.94868  0.85975  1.0000
  C   C137      1.0  0.99793  0.89788  0.25203  1.0000
  C   C138      1.0  0.50149  0.39381  0.25070  1.0000
  C   C139      1.0  0.00352  0.10880  0.74683  1.0000
  C   C140      1.0  0.49863  0.60844  0.74982  1.0000
  N   N1        1.0  0.10885  0.39619  0.38019  1.0000
  N   N2        1.0  0.88752  0.38979  0.12125  1.0000
  N   N3        1.0  0.60947  0.89482  0.38198  1.0000
  N   N4        1.0  0.38931  0.88049  0.12010  1.0000
  N   N5        1.0  0.89492  0.60216  0.61861  1.0000
  N   N6        1.0  0.11012  0.61585  0.88155  1.0000
  N   N7        1.0  0.38795  0.10886  0.62250  1.0000
  N   N8        1.0  0.61235  0.11649  0.87582  1.0000
  N   N9        1.0  0.89337  0.39827  0.35549  1.0000
  N   N10       1.0  0.09955  0.38061  0.14763  1.0000
  N   N11       1.0  0.39873  0.89091  0.35479  1.0000
  N   N12       1.0  0.60310  0.88092  0.14533  1.0000
  N   N13       1.0  0.10322  0.62738  0.64383  1.0000
  N   N14       1.0  0.89815  0.61172  0.85033  1.0000
  N   N15       1.0  0.60218  0.10783  0.64552  1.0000
  N   N16       1.0  0.39783  0.11735  0.85725  1.0000
  F   F1        1.0  0.26653  0.15775  0.40040  1.0000
  F   F2        1.0  0.73539  0.16639  0.09258  1.0000
  F   F3        1.0  0.76053  0.64885  0.40523  1.0000
  F   F4        1.0  0.22715  0.61265  0.09394  1.0000
  F   F5        1.0  0.74150  0.85042  0.60195  1.0000
  F   F6        1.0  0.26468  0.86048  0.90891  1.0000
  F   F7        1.0  0.23550  0.34254  0.59451  1.0000
  F   F8        1.0  0.77080  0.36072  0.90247  1.0000
  C   C141      1.0  0.30573  0.21620  0.03588  1.0000
  C   C142      1.0  0.29567  0.39819  0.05093  1.0000
  C  Sn1       1.0  0.31544  0.47423  0.09659  1.0000
  C  Sn2       1.0  0.34584  0.36574  0.12766  1.0000
  C   C143      1.0  0.35571  0.18387  0.11225  1.0000
  C   C144      1.0  0.33572  0.10913  0.06649  1.0000
  H   H81       1.0  0.29028  0.15839  0.00046  1.0000
  O  Te1       1.0  0.30500  0.65626  0.11107  1.0000
  O  Te2       1.0  0.36609  0.43832  0.17347  1.0000
  H   H82       1.0  0.34246  0.96826  0.05483  1.0000
  Mg  Mg1       1.0  0.34117  0.69326  0.17685  1.0000
  C   C145      1.0  0.69652  0.78421  0.95858  1.0000
  C   C146      1.0  0.70139  0.59330  0.94753  1.0000
  C  Sn3       1.0  0.68143  0.51654  0.90207  1.0000
  C  Sn4       1.0  0.65615  0.63345  0.86708  1.0000
  C   C147      1.0  0.65151  0.82431  0.87846  1.0000
  C   C148      1.0  0.67161  0.89964  0.92408  1.0000
  H   H83       1.0  0.71209  0.84254  0.99385  1.0000
  O  Te3       1.0  0.68661  0.32550  0.89164  1.0000
  O  Te4       1.0  0.63586  0.56041  0.82135  1.0000
  H   H84       1.0  0.66893  0.04749  0.93260  1.0000
  Mg  Mg2       1.0  0.65256  0.29152  0.82430  1.0000
  C   C149      1.0  0.33257  0.50283  0.61287  1.0000
  C   C150      1.0  0.30363  0.52502  0.56909  1.0000
  C  Sn5       1.0  0.30002  0.69757  0.54374  1.0000
  C  Sn6       1.0  0.32590  0.85048  0.56267  1.0000
  C   C151      1.0  0.35478  0.82680  0.60648  1.0000
  C   C152      1.0  0.35813  0.65354  0.63155  1.0000
  H   H85       1.0  0.33518  0.36875  0.63226  1.0000
  O  Te5       1.0  0.27093  0.71734  0.50006  1.0000
  O  Te6       1.0  0.32403  0.02445  0.53807  1.0000
  H   H86       1.0  0.38055  0.63637  0.66543  1.0000
  Mg  Mg3       1.0  0.27857  0.98201  0.47992  1.0000
  C   C153      1.0  0.69256  0.58257  0.09814  1.0000
  C   C154      1.0  0.68812  0.45991  0.05624  1.0000
  C  Sn7       1.0  0.64902  0.44052  0.02651  1.0000
  C  Sn8       1.0  0.61376  0.54611  0.03905  1.0000
  C   C155      1.0  0.61854  0.66855  0.08102  1.0000
  C   C156      1.0  0.65781  0.68683  0.11051  1.0000
  H   H87       1.0  0.72295  0.59680  0.12095  1.0000
  O  Te7       1.0  0.74483  0.33593  0.98480  1.0000
  O  Te8       1.0  0.57432  0.52949  0.00997  1.0000
  H   H88       1.0  0.66124  0.78190  0.14293  1.0000
  Mg  Mg4       1.0  0.68458  0.36181  0.95680  1.0000
  C   C157      1.0  0.57197  0.22813  0.77847  1.0000
  C   C158      1.0  0.58546  0.23250  0.83088  1.0000
  C  Sn9       1.0  0.56680  0.35720  0.86275  1.0000
  C  Sn10      1.0  0.53403  0.47959  0.84164  1.0000
  C   C159      1.0  0.52075  0.47404  0.78916  1.0000
  C   C160      1.0  0.53965  0.34875  0.75762  1.0000
  H   H89       1.0  0.58658  0.13112  0.75406  1.0000
  O  Te9       1.0  0.58066  0.35978  0.91503  1.0000
  O  Te10      1.0  0.51482  0.60557  0.87262  1.0000
  H   H90       1.0  0.52918  0.34531  0.71705  1.0000
  Mg  Mg5       1.0  0.54468  0.55643  0.94157  1.0000
  C   C161      1.0  0.37124  0.43058  0.47039  1.0000
  C   C162      1.0  0.32734  0.43734  0.45851  1.0000
  C  Sn11      1.0  0.30899  0.54922  0.41834  1.0000
  C  Sn12      1.0  0.33517  0.65613  0.38958  1.0000
  C   C163      1.0  0.37906  0.64831  0.40175  1.0000
  C   C164      1.0  0.39709  0.53593  0.44204  1.0000
  H   H91       1.0  0.38520  0.34356  0.50155  1.0000
  O  Te11      1.0  0.26507  0.55440  0.40699  1.0000
  O  Te12      1.0  0.31766  0.76908  0.34922  1.0000
  H   H92       1.0  0.43109  0.53063  0.45121  1.0000
  Mg  Mg6       1.0  0.25614  0.72951  0.34846  1.0000
  C   C165      1.0  0.07955  0.76713  0.21978  1.0000
  C   C166      1.0  0.03588  0.78212  0.22034  1.0000
  C  Sn13      1.0  0.00890  0.64691  0.19565  1.0000
  C  Sn14      1.0  0.02605  0.49399  0.16997  1.0000
  C   C167      1.0  0.06979  0.48018  0.16966  1.0000
  C   C168      1.0  0.09650  0.61630  0.19447  1.0000
  H   H93       1.0  0.10022  0.87238  0.23899  1.0000
  O  Te13      1.0  0.96534  0.66406  0.19657  1.0000
  O  Te14      1.0  0.99981  0.35684  0.14501  1.0000
  H   H94       1.0  0.13032  0.60459  0.19406  1.0000
  Mg  Mg7       1.0  0.94255  0.44166  0.15699  1.0000
  C   C169      1.0  0.69038  0.23362  0.46786  1.0000
  C   C170      1.0  0.69910  0.41768  0.45407  1.0000
  C  Sn15      1.0  0.67893  0.49414  0.40881  1.0000
  C  Sn16      1.0  0.64947  0.38396  0.37686  1.0000
  C   C171      1.0  0.64093  0.20001  0.39102  1.0000
  C   C172      1.0  0.66132  0.12487  0.43638  1.0000
  H   H95       1.0  0.70613  0.17550  0.50297  1.0000
  O  Te15      1.0  0.68803  0.67826  0.39559  1.0000
  O  Te16      1.0  0.62884  0.45691  0.33143  1.0000
  H   H96       1.0  0.65346  0.98239  0.44707  1.0000
  Mg  Mg8       1.0  0.65183  0.71497  0.32987  1.0000
  C   C173      1.0  0.06742  0.81608  0.76506  1.0000
  C   C174      1.0  0.03570  0.93791  0.77776  1.0000
  C  Sn17      1.0  0.02945  0.96528  0.82881  1.0000
  C  Sn18      1.0  0.05549  0.86873  0.86780  1.0000
  C   C175      1.0  0.08715  0.74725  0.85470  1.0000
  C   C176      1.0  0.09312  0.72085  0.80349  1.0000
  H   H97       1.0  0.07206  0.79572  0.72544  1.0000
  O  Te17      1.0  0.99869  0.08746  0.84083  1.0000
  O  Te18      1.0  0.04994  0.89355  0.91914  1.0000
  H   H98       1.0  0.11770  0.62660  0.79367  1.0000
  Mg  Mg9       1.0  0.00341  0.07476  0.91631  1.0000
  C   C177      1.0  0.88900  0.99676  0.96151  1.0000
  C   C178      1.0  0.88337  0.86732  0.92119  1.0000
  C  Sn19      1.0  0.84358  0.84394  0.89333  1.0000
  C  Sn20      1.0  0.80884  0.95238  0.90615  1.0000
  C   C179      1.0  0.81587  0.08159  0.94653  1.0000
  C   C180      1.0  0.85582  0.10383  0.97417  1.0000
  H   H99       1.0  0.91991  0.01405  0.98287  1.0000
  O  Te19      1.0  0.83851  0.71395  0.85317  1.0000
  O  Te20      1.0  0.76873  0.93187  0.87893  1.0000
  H   H100      1.0  0.76047  0.18549  0.00536  1.0000
  Mg  Mg10      1.0  0.77772  0.73658  0.82742  1.0000
  C   C181      1.0  0.30796  0.42667  0.89997  1.0000
  C   C182      1.0  0.31136  0.53706  0.94428  1.0000
  C  Sn21      1.0  0.35072  0.56503  0.97278  1.0000
  C  Sn22      1.0  0.38730  0.48077  0.95651  1.0000
  C   C183      1.0  0.38357  0.37068  0.91210  1.0000
  C   C184      1.0  0.34403  0.34357  0.88388  1.0000
  H   H101      1.0  0.27737  0.40577  0.87811  1.0000
  O  Te21      1.0  0.25386  0.65702  0.01698  1.0000
  O  Te22      1.0  0.42704  0.50646  0.98426  1.0000
  H   H102      1.0  0.34141  0.25819  0.84955  1.0000
  Mg  Mg11      1.0  0.31500  0.65055  0.04188  1.0000
  C   C185      1.0  0.95994  0.02560  0.14897  1.0000
  C   C186      1.0  0.97126  0.02755  0.20184  1.0000
  C  Sn23      1.0  0.95197  0.15415  0.23259  1.0000
  C  Sn24      1.0  0.92076  0.28095  0.20989  1.0000
  C   C187      1.0  0.90963  0.27779  0.15697  1.0000
  C   C188      1.0  0.92915  0.15057  0.12655  1.0000
  H   H103      1.0  0.97395  0.92710  0.12543  1.0000
  O  Te23      1.0  0.96366  0.15426  0.28535  1.0000
  O  Te24      1.0  0.90096  0.40890  0.23974  1.0000
  H   H104      1.0  0.92036  0.14901  0.08562  1.0000
  Mg  Mg12      1.0  0.92767  0.35506  0.30990  1.0000
  C   C189      1.0  0.46264  0.51864  0.14753  1.0000
  C   C190      1.0  0.47435  0.52215  0.20033  1.0000
  C  Sn25      1.0  0.45508  0.64883  0.23110  1.0000
  C  Sn26      1.0  0.42351  0.77412  0.20848  1.0000
  C   C191      1.0  0.41200  0.76940  0.15563  1.0000
  C   C192      1.0  0.43149  0.64211  0.12520  1.0000
  H   H105      1.0  0.47770  0.42009  0.12399  1.0000
  O  Te25      1.0  0.46717  0.65051  0.28377  1.0000
  O  Te26      1.0  0.40373  0.90211  0.23834  1.0000
  H   H106      1.0  0.42240  0.63935  0.08433  1.0000
  Mg  Mg13      1.0  0.43105  0.85071  0.30838  1.0000
  C   C193      1.0  0.85039  0.07533  0.62865  1.0000
  C   C194      1.0  0.85913  0.25781  0.61354  1.0000
  C  Sn27      1.0  0.83719  0.33402  0.56927  1.0000
  C  Sn28      1.0  0.80594  0.22521  0.53966  1.0000
  C   C195      1.0  0.79740  0.04284  0.55512  1.0000
  C   C196      1.0  0.81848  0.96793  0.59948  1.0000
  H   H107      1.0  0.86751  0.01740  0.66299  1.0000
  O  Te27      1.0  0.84633  0.51654  0.55472  1.0000
  O  Te28      1.0  0.78353  0.29795  0.49525  1.0000
  H   H108      1.0  0.81169  0.82669  0.61118  1.0000
  Mg  Mg14      1.0  0.80732  0.55359  0.49117  1.0000
  C   C197      1.0  0.12452  0.92726  0.02682  1.0000
  C   C198      1.0  0.16823  0.91872  0.04052  1.0000
  C  Sn29      1.0  0.18804  0.01835  0.08309  1.0000
  C  Sn30      1.0  0.16247  0.12842  0.11242  1.0000
  C   C199      1.0  0.11878  0.13593  0.09842  1.0000
  C   C200      1.0  0.10035  0.03572  0.05574  1.0000
  H   H109      1.0  0.20996  0.86830  0.99381  1.0000
  O  Te29      1.0  0.23176  0.00832  0.09624  1.0000
  O  Te30      1.0  0.18038  0.22934  0.15517  1.0000
  H   H110      1.0  0.06651  0.04226  0.04516  1.0000
  Mg  Mg15      1.0  0.24140  0.17099  0.15774  1.0000
  C   C201      1.0  0.63135  0.57834  0.53389  1.0000
  C   C202      1.0  0.67464  0.58810  0.55031  1.0000
  C  Sn31      1.0  0.69277  0.47236  0.58975  1.0000
  C  Sn32      1.0  0.66700  0.34460  0.61311  1.0000
  C   C203      1.0  0.62372  0.33582  0.59638  1.0000
  C   C204      1.0  0.60591  0.45231  0.55689  1.0000
  H   H111      1.0  0.61756  0.66840  0.50332  1.0000
  O  Te31      1.0  0.73607  0.48397  0.60571  1.0000
  O  Te32      1.0  0.68430  0.22726  0.65259  1.0000
  H   H112      1.0  0.57240  0.44464  0.54416  1.0000
  Mg  Mg16      1.0  0.74493  0.29501  0.66095  1.0000
