data_image0
_chemical_formula_structural       H88C140N16SnCSn2CSnTe4Mg2SnCSn2CSnTe4Mg2SnCSn2CSnTe4Mg2SnCSn2CSnTe4Mg2SnCSn2CSnTe4Mg2SnCSn2CSnTe4Mg2SnCSn2CSnTe4Mg2SnCSn2CSnTe4Mg2SnCSn2CSnTe4Mg2SnCSn2CSnTe4Mg2SnCSn2CSnTe4Mg2SnCSn2CSnTe4Mg2SnCSn2CSnTe4Mg2SnCSn2CSnTe4Mg2SnCSn2CSnTe4Mg2SnCSn2CSnTe4Mg2
_chemical_formula_sum              "H88 C172 N16 Sn64 Te64 Mg32"
_cell_length_a       29.0911
_cell_length_b       7.40345
_cell_length_c       27.9476
_cell_angle_alpha    90.2522
_cell_angle_beta     94.3656
_cell_angle_gamma    89.8457

_symmetry_space_group_name_H-M    'P1'
_space_group_IT_number       1

loop_
  _space_group_symop_operation_xyz
  'x, y, z'

loop_
  _atom_site_type_symbol
  _atom_site_label
  _atom_site_symmetry_multiplicity
  _atom_site_fract_x
  _atom_site_fract_y
  _atom_site_fract_z
  _atom_site_occupancy
  H   H1        1.0  0.75910  0.06871  0.39558  1.0000
  H   H2        1.0  0.73836  0.55755  0.09837  1.0000
  H   H3        1.0  0.23950  0.93568  0.60214  1.0000
  H   H4        1.0  0.74174  0.41726  0.59714  1.0000
  H   H5        1.0  0.81095  0.27648  0.35490  1.0000
  H   H6        1.0  0.68614  0.76228  0.14024  1.0000
  H   H7        1.0  0.18731  0.73092  0.64334  1.0000
  H   H8        1.0  0.68831  0.21736  0.63866  1.0000
  H   H9        1.0  0.92417  0.11960  0.45401  1.0000
  H   H10       1.0  0.57376  0.61546  0.03886  1.0000
  H   H11       1.0  0.07454  0.88465  0.54327  1.0000
  H   H12       1.0  0.57362  0.42705  0.54977  1.0000
  H   H13       1.0  0.87269  0.91312  0.49461  1.0000
  H   H14       1.0  0.62549  0.41034  0.99731  1.0000
  H   H15       1.0  0.12648  0.08613  0.50170  1.0000
  H   H16       1.0  0.62685  0.62119  0.50703  1.0000
  H   H17       1.0  0.82769  0.17698  0.10645  1.0000
  H   H18       1.0  0.67339  0.67204  0.38722  1.0000
  H   H19       1.0  0.83006  0.82790  0.60862  1.0000
  H   H20       1.0  0.17125  0.81357  0.89161  1.0000
  H   H21       1.0  0.87106  0.95105  0.15714  1.0000
  H   H22       1.0  0.63145  0.43964  0.33723  1.0000
  H   H23       1.0  0.87263  0.05815  0.65900  1.0000
  H   H24       1.0  0.13165  0.04699  0.83991  1.0000
  H   H25       1.0  0.82779  0.53019  0.05689  1.0000
  H   H26       1.0  0.67132  0.03382  0.44243  1.0000
  H   H27       1.0  0.83027  0.47100  0.55679  1.0000
  H   H28       1.0  0.17316  0.45797  0.94381  1.0000
  H   H29       1.0  0.78488  0.75654  0.00571  1.0000
  H   H30       1.0  0.71282  0.26678  0.49282  1.0000
  H   H31       1.0  0.78722  0.24180  0.50644  1.0000
  H   H32       1.0  0.21323  0.22499  0.99530  1.0000
  H   H33       1.0  0.25547  0.22761  0.41292  1.0000
  H   H34       1.0  0.74219  0.21790  0.08293  1.0000
  H   H35       1.0  0.75510  0.72273  0.41126  1.0000
  H   H36       1.0  0.24219  0.71089  0.09065  1.0000
  H   H37       1.0  0.74570  0.78527  0.58616  1.0000
  H   H38       1.0  0.25491  0.76484  0.91617  1.0000
  H   H39       1.0  0.24309  0.27713  0.58779  1.0000
  H   H40       1.0  0.75472  0.27105  0.90834  1.0000
  H   H41       1.0  0.90168  0.93017  0.25038  1.0000
  H   H42       1.0  0.40497  0.42998  0.25775  1.0000
  H   H43       1.0  0.59765  0.43040  0.24286  1.0000
  H   H44       1.0  0.90691  0.05661  0.75457  1.0000
  H   H45       1.0  0.40443  0.57278  0.75487  1.0000
  H   H46       1.0  0.93944  0.21054  0.27410  1.0000
  H   H47       1.0  0.44584  0.70293  0.27854  1.0000
  H   H48       1.0  0.44485  0.29660  0.77493  1.0000
  H   H49       1.0  0.02672  0.67655  0.30817  1.0000
  H   H50       1.0  0.52916  0.14842  0.30637  1.0000
  H   H51       1.0  0.47298  0.14733  0.19763  1.0000
  H   H52       1.0  0.03109  0.32664  0.80798  1.0000
  H   H53       1.0  0.52955  0.84570  0.80438  1.0000
  H   H54       1.0  0.85649  0.70241  0.29106  1.0000
  H   H55       1.0  0.35941  0.20651  0.29962  1.0000
  H   H56       1.0  0.64241  0.20450  0.20005  1.0000
  H   H57       1.0  0.86112  0.28263  0.79612  1.0000
  H   H58       1.0  0.35973  0.79682  0.79830  1.0000
  H   H59       1.0  0.99487  0.98392  0.14871  1.0000
  H   H60       1.0  0.49262  0.46383  0.15050  1.0000
  H   H61       1.0  0.49199  0.52793  0.64662  1.0000
  H   H62       1.0  0.94658  0.19616  0.09767  1.0000
  H   H63       1.0  0.44386  0.68047  0.10143  1.0000
  H   H64       1.0  0.44277  0.31096  0.59780  1.0000
  H   H65       1.0  0.98238  0.45136  0.34814  1.0000
  H   H66       1.0  0.48454  0.92954  0.34844  1.0000
  H   H67       1.0  0.51683  0.92776  0.15366  1.0000
  H   H68       1.0  0.98638  0.54694  0.85001  1.0000
  H   H69       1.0  0.48566  0.06631  0.84728  1.0000
  H   H70       1.0  0.89068  0.41519  0.22385  1.0000
  H   H71       1.0  0.39628  0.91181  0.23040  1.0000
  H   H72       1.0  0.39541  0.08666  0.72677  1.0000
  H   H73       1.0  0.93523  0.36085  0.39916  1.0000
  H   H74       1.0  0.05903  0.32979  0.10335  1.0000
  H   H75       1.0  0.43797  0.85110  0.40357  1.0000
  H   H76       1.0  0.56176  0.84770  0.09739  1.0000
  H   H77       1.0  0.06249  0.65127  0.60092  1.0000
  H   H78       1.0  0.94019  0.66288  0.89693  1.0000
  H   H79       1.0  0.55944  0.20364  0.60814  1.0000
  H   H80       1.0  0.43969  0.15607  0.90174  1.0000
  H   H81       1.0  0.10118  0.65436  0.32382  1.0000
  H   H82       1.0  0.89662  0.65324  0.17368  1.0000
  H   H83       1.0  0.60494  0.14552  0.32315  1.0000
  H   H84       1.0  0.39692  0.14180  0.18024  1.0000
  H   H85       1.0  0.90009  0.34747  0.67344  1.0000
  H   H86       1.0  0.10634  0.34014  0.82476  1.0000
  H   H87       1.0  0.39746  0.85023  0.67681  1.0000
  H   H88       1.0  0.60578  0.85668  0.81913  1.0000
  C   C1        1.0  0.97003  0.07795  0.21526  1.0000
  C   C2        1.0  0.47198  0.56383  0.21830  1.0000
  C   C3        1.0  0.47124  0.43287  0.71468  1.0000
  C   C4        1.0  0.96796  0.82467  0.27704  1.0000
  C   C5        1.0  0.47091  0.31004  0.27975  1.0000
  C   C6        1.0  0.53155  0.30896  0.22279  1.0000
  C   C7        1.0  0.97281  0.17205  0.77861  1.0000
  C   C8        1.0  0.47080  0.68831  0.77693  1.0000
  C   C9        1.0  0.91971  0.82819  0.27245  1.0000
  C   C10       1.0  0.42278  0.32293  0.27816  1.0000
  C   C11       1.0  0.57958  0.32204  0.22306  1.0000
  C   C12       1.0  0.92464  0.16232  0.77571  1.0000
  C   C13       1.0  0.42265  0.67839  0.77559  1.0000
  C   C14       1.0  0.91550  0.56452  0.32394  1.0000
  C   C15       1.0  0.41824  0.05603  0.32832  1.0000
  C   C16       1.0  0.58327  0.05331  0.17260  1.0000
  C   C17       1.0  0.91976  0.42922  0.82666  1.0000
  C   C18       1.0  0.41893  0.94422  0.82708  1.0000
  C   C19       1.0  0.94096  0.20464  0.23540  1.0000
  C   C20       1.0  0.44509  0.69520  0.23966  1.0000
  C   C21       1.0  0.44419  0.30322  0.73607  1.0000
  C   C22       1.0  0.98936  0.68721  0.30546  1.0000
  C   C23       1.0  0.49209  0.16678  0.30614  1.0000
  C   C24       1.0  0.50997  0.16506  0.19680  1.0000
  C   C25       1.0  0.99385  0.31248  0.80642  1.0000
  C   C26       1.0  0.49239  0.82988  0.80392  1.0000
  C   C27       1.0  0.89396  0.70016  0.29524  1.0000
  C   C28       1.0  0.39686  0.19762  0.30165  1.0000
  C   C29       1.0  0.60503  0.19556  0.19890  1.0000
  C   C30       1.0  0.89858  0.28916  0.79904  1.0000
  C   C31       1.0  0.39717  0.80415  0.79993  1.0000
  C   C32       1.0  0.97224  0.07864  0.16534  1.0000
  C   C33       1.0  0.47168  0.56186  0.16815  1.0000
  C   C34       1.0  0.47094  0.43183  0.66448  1.0000
  C   C35       1.0  0.91563  0.32164  0.15677  1.0000
  C   C36       1.0  0.41678  0.81163  0.16193  1.0000
  C   C37       1.0  0.41607  0.18276  0.65848  1.0000
  C   C38       1.0  0.94531  0.19779  0.13647  1.0000
  C   C39       1.0  0.44445  0.68361  0.14039  1.0000
  C   C40       1.0  0.44361  0.30959  0.63678  1.0000
  C   C41       1.0  0.96410  0.55950  0.32849  1.0000
  C   C42       1.0  0.46670  0.04217  0.33020  1.0000
  C   C43       1.0  0.53487  0.04020  0.17186  1.0000
  C   C44       1.0  0.96832  0.43815  0.83026  1.0000
  C   C45       1.0  0.46741  0.95531  0.82862  1.0000
  C   C46       1.0  0.91369  0.32269  0.20696  1.0000
  C   C47       1.0  0.41741  0.81533  0.21237  1.0000
  C   C48       1.0  0.41661  0.18217  0.70886  1.0000
  C   C49       1.0  0.22169  0.12538  0.47296  1.0000
  C   C50       1.0  0.77648  0.11777  0.02273  1.0000
  C   C51       1.0  0.72233  0.62506  0.47250  1.0000
  C   C52       1.0  0.27676  0.61150  0.03048  1.0000
  C   C53       1.0  0.77865  0.88171  0.52498  1.0000
  C   C54       1.0  0.22090  0.86503  0.97647  1.0000
  C   C55       1.0  0.27692  0.37911  0.52780  1.0000
  C   C56       1.0  0.72070  0.37169  0.96868  1.0000
  C   C57       1.0  0.25187  0.24175  0.45126  1.0000
  C   C58       1.0  0.74578  0.23242  0.04466  1.0000
  C   C59       1.0  0.75218  0.73949  0.44963  1.0000
  C   C60       1.0  0.24602  0.72611  0.05244  1.0000
  C   C61       1.0  0.74859  0.76811  0.54781  1.0000
  C   C62       1.0  0.25138  0.74968  0.95444  1.0000
  C   C63       1.0  0.24672  0.26276  0.54947  1.0000
  C   C64       1.0  0.75107  0.25561  0.94661  1.0000
  C   C65       1.0  0.21878  0.13716  0.52328  1.0000
  C   C66       1.0  0.77931  0.13042  0.97247  1.0000
  C   C67       1.0  0.72012  0.64152  0.52280  1.0000
  C   C68       1.0  0.27972  0.62488  0.98024  1.0000
  C   C69       1.0  0.78055  0.86647  0.47461  1.0000
  C   C70       1.0  0.21781  0.85137  0.02665  1.0000
  C   C71       1.0  0.27983  0.36707  0.47747  1.0000
  C   C72       1.0  0.71760  0.35781  0.01889  1.0000
  C   C73       1.0  0.80288  0.98273  0.05262  1.0000
  C   C74       1.0  0.69659  0.48585  0.44335  1.0000
  C   C75       1.0  0.80492  0.01895  0.55432  1.0000
  C   C76       1.0  0.19578  0.00340  0.94664  1.0000
  C   C77       1.0  0.81228  0.97797  0.44820  1.0000
  C   C78       1.0  0.68549  0.47031  0.04489  1.0000
  C   C79       1.0  0.18669  0.02402  0.54884  1.0000
  C   C80       1.0  0.68783  0.53230  0.54928  1.0000
  C   C81       1.0  0.79545  0.07781  0.40774  1.0000
  C   C82       1.0  0.70207  0.56784  0.08603  1.0000
  C   C83       1.0  0.20322  0.92593  0.58973  1.0000
  C   C84       1.0  0.70482  0.42059  0.58733  1.0000
  C   C85       1.0  0.82411  0.19464  0.38515  1.0000
  C   C86       1.0  0.67327  0.68314  0.10923  1.0000
  C   C87       1.0  0.17440  0.81093  0.61263  1.0000
  C   C88       1.0  0.67532  0.30900  0.61045  1.0000
  C   C89       1.0  0.87071  0.21395  0.40205  1.0000
  C   C90       1.0  0.62677  0.70421  0.09217  1.0000
  C   C91       1.0  0.12778  0.79208  0.59573  1.0000
  C   C92       1.0  0.62765  0.30953  0.59705  1.0000
  C   C93       1.0  0.88799  0.10834  0.44118  1.0000
  C   C94       1.0  0.60980  0.60222  0.05204  1.0000
  C   C95       1.0  0.11075  0.89546  0.55607  1.0000
  C   C96       1.0  0.61049  0.42553  0.56011  1.0000
  C   C97       1.0  0.85923  0.99184  0.46388  1.0000
  C   C98       1.0  0.63872  0.48682  0.02870  1.0000
  C   C99       1.0  0.13982  0.00914  0.53279  1.0000
  C   C100      1.0  0.64020  0.53436  0.53619  1.0000
  C   C101      1.0  0.82676  0.03490  0.09607  1.0000
  C   C102      1.0  0.67411  0.53154  0.39872  1.0000
  C   C103      1.0  0.82874  0.96944  0.59797  1.0000
  C   C104      1.0  0.17305  0.95538  0.90226  1.0000
  C   C105      1.0  0.85119  0.90794  0.12448  1.0000
  C   C106      1.0  0.65056  0.40092  0.37067  1.0000
  C   C107      1.0  0.85291  0.09831  0.62605  1.0000
  C   C108      1.0  0.15066  0.08615  0.87345  1.0000
  C   C109      1.0  0.85226  0.72538  0.11045  1.0000
  C   C110      1.0  0.64869  0.22098  0.38632  1.0000
  C   C111      1.0  0.85427  0.27936  0.61128  1.0000
  C   C112      1.0  0.15009  0.26794  0.88819  1.0000
  C   C113      1.0  0.82754  0.67193  0.06749  1.0000
  C   C114      1.0  0.67211  0.17352  0.43044  1.0000
  C   C115      1.0  0.82973  0.33037  0.56807  1.0000
  C   C116      1.0  0.17335  0.31711  0.93235  1.0000
  C   C117      1.0  0.80345  0.79888  0.03904  1.0000
  C   C118      1.0  0.69541  0.30430  0.45852  1.0000
  C   C119      1.0  0.80555  0.20174  0.54007  1.0000
  C   C120      1.0  0.19571  0.18646  0.96107  1.0000
  C   C121      1.0  0.90060  0.34466  0.38087  1.0000
  C   C122      1.0  0.09470  0.32479  0.11953  1.0000
  C   C123      1.0  0.40304  0.83823  0.38574  1.0000
  C   C124      1.0  0.59696  0.83369  0.11446  1.0000
  C   C125      1.0  0.09794  0.66268  0.61751  1.0000
  C   C126      1.0  0.90445  0.66215  0.88082  1.0000
  C   C127      1.0  0.59630  0.18840  0.61961  1.0000
  C   C128      1.0  0.40433  0.16541  0.88477  1.0000
  C   C129      1.0  0.11757  0.60088  0.35769  1.0000
  C   C130      1.0  0.88080  0.59896  0.13956  1.0000
  C   C131      1.0  0.62015  0.09305  0.35765  1.0000
  C   C132      1.0  0.38108  0.08854  0.14602  1.0000
  C   C133      1.0  0.88350  0.40447  0.64008  1.0000
  C   C134      1.0  0.12234  0.39563  0.85869  1.0000
  C   C135      1.0  0.38093  0.90421  0.64305  1.0000
  C   C136      1.0  0.62146  0.90929  0.85351  1.0000
  C   C137      1.0  0.99883  0.95095  0.24937  1.0000
  C   C138      1.0  0.50143  0.43573  0.25162  1.0000
  C   C139      1.0  0.00379  0.04774  0.75013  1.0000
  C   C140      1.0  0.50093  0.56101  0.74811  1.0000
  N   N1        1.0  0.11016  0.43813  0.37167  1.0000
  N   N2        1.0  0.88846  0.43537  0.12596  1.0000
  N   N3        1.0  0.61180  0.93194  0.37225  1.0000
  N   N4        1.0  0.38893  0.92581  0.13187  1.0000
  N   N5        1.0  0.89086  0.56830  0.62693  1.0000
  N   N6        1.0  0.11497  0.55966  0.87203  1.0000
  N   N7        1.0  0.38825  0.06679  0.62888  1.0000
  N   N8        1.0  0.61362  0.07170  0.86794  1.0000
  N   N9        1.0  0.88640  0.43926  0.34386  1.0000
  N   N10       1.0  0.10959  0.42997  0.15434  1.0000
  N   N11       1.0  0.38893  0.93343  0.34884  1.0000
  N   N12       1.0  0.61198  0.92939  0.15115  1.0000
  N   N13       1.0  0.11328  0.56339  0.65318  1.0000
  N   N14       1.0  0.89007  0.55287  0.84675  1.0000
  N   N15       1.0  0.61184  0.06818  0.65016  1.0000
  N   N16       1.0  0.38985  0.06695  0.84840  1.0000
  C  Sn1       1.0  0.20362  0.76027  0.44517  1.0000
  C   C141      1.0  0.20557  0.94677  0.43811  1.0000
  C  Sn2       1.0  0.17433  0.03179  0.40574  1.0000
  C  Sn3       1.0  0.13902  0.92828  0.37991  1.0000
  C   C142      1.0  0.13707  0.74192  0.38698  1.0000
  C  Sn4       1.0  0.16899  0.65677  0.41934  1.0000
  O  Te1       1.0  0.23589  0.67811  0.47771  1.0000
  O  Te2       1.0  0.17699  0.21840  0.39927  1.0000
  O  Te3       1.0  0.10742  0.01062  0.34735  1.0000
  O  Te4       1.0  0.16634  0.47028  0.42582  1.0000
  Mg  Mg1       1.0  0.12522  0.26845  0.35097  1.0000
  Mg  Mg2       1.0  0.21808  0.42011  0.47412  1.0000
  C  Sn5       1.0  0.05840  0.72516  0.76539  1.0000
  C   C143      1.0  0.02862  0.85931  0.78014  1.0000
  C  Sn6       1.0  0.03125  0.91719  0.82791  1.0000
  C  Sn7       1.0  0.06437  0.83944  0.86164  1.0000
  C   C144      1.0  0.09413  0.70540  0.84689  1.0000
  C  Sn8       1.0  0.09151  0.64741  0.79913  1.0000
  O  Te5       1.0  0.05515  0.66938  0.71746  1.0000
  O  Te6       1.0  0.00178  0.05146  0.84180  1.0000
  O  Te7       1.0  0.06760  0.89534  0.90961  1.0000
  O  Te8       1.0  0.12165  0.51325  0.78523  1.0000
  Mg  Mg3       1.0  0.01965  0.08230  0.91113  1.0000
  Mg  Mg4       1.0  0.10383  0.48237  0.71591  1.0000
  C  Sn9       1.0  0.67831  0.49396  0.87966  1.0000
  C   C145      1.0  0.70255  0.51463  0.92447  1.0000
  C  Sn10      1.0  0.69733  0.67137  0.95155  1.0000
  C  Sn11      1.0  0.66724  0.81031  0.93349  1.0000
  C   C146      1.0  0.64302  0.78960  0.88872  1.0000
  C  Sn12      1.0  0.64822  0.63291  0.86160  1.0000
  O  Te9       1.0  0.68405  0.33612  0.85321  1.0000
  O  Te10      1.0  0.72194  0.68897  0.99624  1.0000
  O  Te11      1.0  0.66152  0.96823  0.96000  1.0000
  O  Te12      1.0  0.62363  0.61526  0.81695  1.0000
  Mg  Mg5       1.0  0.62940  0.91328  0.01888  1.0000
  Mg  Mg6       1.0  0.64301  0.37514  0.79429  1.0000
  C  Sn13      1.0  0.56327  0.61574  0.36052  1.0000
  C   C147      1.0  0.58962  0.75852  0.34496  1.0000
  C  Sn14      1.0  0.58311  0.81990  0.29773  1.0000
  C  Sn15      1.0  0.54956  0.73692  0.26538  1.0000
  C   C148      1.0  0.52323  0.59426  0.28095  1.0000
  C  Sn16      1.0  0.52971  0.53277  0.32817  1.0000
  O  Te13      1.0  0.57035  0.55659  0.40789  1.0000
  O  Te14      1.0  0.60988  0.96281  0.28300  1.0000
  O  Te15      1.0  0.54249  0.79620  0.21798  1.0000
  O  Te16      1.0  0.50296  0.38997  0.34290  1.0000
  Mg  Mg7       1.0  0.58744  0.99528  0.21491  1.0000
  Mg  Mg8       1.0  0.52536  0.35746  0.41099  1.0000
  C  Sn17      1.0  0.10978  0.01640  0.06213  1.0000
  C   C149      1.0  0.12054  0.13632  0.10007  1.0000
  C  Sn18      1.0  0.16628  0.18484  0.11247  1.0000
  C  Sn19      1.0  0.20203  0.11207  0.08639  1.0000
  C   C150      1.0  0.19058  0.99225  0.04847  1.0000
  C  Sn20      1.0  0.14484  0.94363  0.03605  1.0000
  O  Te17      1.0  0.06313  0.96979  0.05036  1.0000
  O  Te18      1.0  0.17619  0.30492  0.15055  1.0000
  O  Te19      1.0  0.24802  0.15879  0.09819  1.0000
  O  Te20      1.0  0.20805  0.83949  0.99799  1.0000
  Mg  Mg9       1.0  0.24412  0.32739  0.15290  1.0000
  Mg  Mg10      1.0  0.14013  0.81701  0.99559  1.0000
  C  Sn21      1.0  0.52652  0.96507  0.68441  1.0000
  C   C151      1.0  0.57420  0.97549  0.68163  1.0000
  C  Sn22      1.0  0.60240  0.82792  0.69461  1.0000
  C  Sn23      1.0  0.58252  0.66651  0.71067  1.0000
  C   C152      1.0  0.53487  0.65614  0.71343  1.0000
  C  Sn24      1.0  0.50665  0.80366  0.70047  1.0000
  O  Te21      1.0  0.49968  0.11425  0.67126  1.0000
  O  Te22      1.0  0.64998  0.84158  0.69154  1.0000
  O  Te23      1.0  0.61010  0.51727  0.72383  1.0000
  O  Te24      1.0  0.45910  0.79004  0.70353  1.0000
  Mg  Mg11      1.0  0.67305  0.60170  0.71345  1.0000
  Mg  Mg12      1.0  0.43667  0.02979  0.68161  1.0000
  C  Sn25      1.0  0.31392  0.71320  0.40022  1.0000
  C   C153      1.0  0.36096  0.74037  0.41195  1.0000
  C  Sn26      1.0  0.38605  0.61983  0.44216  1.0000
  C  Sn27      1.0  0.36367  0.46891  0.46102  1.0000
  C   C154      1.0  0.31666  0.44178  0.44928  1.0000
  C  Sn28      1.0  0.29154  0.56228  0.41908  1.0000
  O  Te25      1.0  0.28952  0.83542  0.36995  1.0000
  O  Te26      1.0  0.43304  0.64986  0.45338  1.0000
  O  Te27      1.0  0.38811  0.34666  0.49131  1.0000
  O  Te28      1.0  0.24458  0.53229  0.40785  1.0000
  Mg  Mg13      1.0  0.45147  0.44535  0.49611  1.0000
  Mg  Mg14      1.0  0.22612  0.73665  0.36511  1.0000
  C  Sn29      1.0  0.02971  0.45951  0.68945  1.0000
  C   C155      1.0  0.07712  0.46511  0.68449  1.0000
  C  Sn30      1.0  0.10458  0.31316  0.69494  1.0000
  C  Sn31      1.0  0.08421  0.15221  0.71065  1.0000
  C   C156      1.0  0.03683  0.14665  0.71560  1.0000
  C  Sn32      1.0  0.00934  0.29856  0.70516  1.0000
  O  Te29      1.0  0.00292  0.61303  0.67880  1.0000
  O  Te30      1.0  0.15190  0.32204  0.68973  1.0000
  O  Te31      1.0  0.11036  0.99864  0.72131  1.0000
  O  Te32      1.0  0.96204  0.28972  0.71036  1.0000
  Mg  Mg15      1.0  0.17392  0.07740  0.70862  1.0000
  Mg  Mg16      1.0  0.94000  0.53424  0.69146  1.0000
  C  Sn33      1.0  0.02399  0.60985  0.16166  1.0000
  C   C157      1.0  0.07179  0.58766  0.16300  1.0000
  C  Sn34      1.0  0.10050  0.67604  0.19792  1.0000
  C  Sn35      1.0  0.08102  0.78887  0.23224  1.0000
  C   C158      1.0  0.03325  0.81099  0.23089  1.0000
  C  Sn36      1.0  0.00452  0.72268  0.19597  1.0000
  O  Te33      1.0  0.99595  0.52018  0.12643  1.0000
  O  Te34      1.0  0.14819  0.65181  0.19853  1.0000
  O  Te35      1.0  0.10911  0.87857  0.26748  1.0000
  O  Te36      1.0  0.95685  0.74684  0.19536  1.0000
  Mg  Mg17      1.0  0.17203  0.80265  0.25356  1.0000
  Mg  Mg18      1.0  0.93299  0.59600  0.14036  1.0000
  C  Sn37      1.0  0.29780  0.34783  0.91457  1.0000
  C   C159      1.0  0.30791  0.46135  0.95403  1.0000
  C  Sn38      1.0  0.35353  0.50659  0.96817  1.0000
  C  Sn39      1.0  0.38981  0.43699  0.94231  1.0000
  C   C160      1.0  0.37969  0.32357  0.90287  1.0000
  C  Sn40      1.0  0.33407  0.27823  0.88871  1.0000
  O  Te37      1.0  0.25193  0.30441  0.90108  1.0000
  O  Te38      1.0  0.28967  0.60444  0.00775  1.0000
  O  Te39      1.0  0.43570  0.48051  0.95584  1.0000
  O  Te40      1.0  0.32481  0.16464  0.84915  1.0000
  Mg  Mg19      1.0  0.35771  0.62459  0.01218  1.0000
  Mg  Mg20      1.0  0.25679  0.14447  0.84468  1.0000
  C  Sn41      1.0  0.33502  0.42380  0.13554  1.0000
  C   C161      1.0  0.34058  0.23969  0.12629  1.0000
  C  Sn42      1.0  0.33000  0.17011  0.08024  1.0000
  C  Sn43      1.0  0.31354  0.28700  0.04263  1.0000
  C   C162      1.0  0.30799  0.47099  0.05189  1.0000
  C  Sn44      1.0  0.31856  0.54069  0.09794  1.0000
  O  Te41      1.0  0.34581  0.49042  0.18185  1.0000
  O  Te42      1.0  0.33514  0.98556  0.07186  1.0000
  O  Te43      1.0  0.37586  0.23605  0.99630  1.0000
  O  Te44      1.0  0.31274  0.72512  0.10631  1.0000
  Mg  Mg21      1.0  0.31577  0.95906  0.00274  1.0000
  Mg  Mg22      1.0  0.33213  0.75178  0.17542  1.0000
  C  Sn45      1.0  0.91497  0.72447  0.71724  1.0000
  C   C163      1.0  0.90919  0.71622  0.66718  1.0000
  C  Sn46      1.0  0.94062  0.80090  0.63932  1.0000
  C  Sn47      1.0  0.97866  0.89571  0.66198  1.0000
  C   C164      1.0  0.98444  0.90389  0.71201  1.0000
  C  Sn48      1.0  0.95301  0.81927  0.73989  1.0000
  O  Te45      1.0  0.88312  0.63881  0.74437  1.0000
  O  Te46      1.0  0.93410  0.79084  0.58933  1.0000
  O  Te47      1.0  0.01053  0.98140  0.63480  1.0000
  O  Te48      1.0  0.95952  0.82928  0.78985  1.0000
  Mg  Mg23      1.0  0.98685  0.92939  0.56789  1.0000
  Mg  Mg24      1.0  0.90681  0.69070  0.81133  1.0000
  C  Sn49      1.0  0.30952  0.81948  0.57044  1.0000
  C   C165      1.0  0.33637  0.79342  0.61349  1.0000
  C  Sn50      1.0  0.35052  0.61997  0.62763  1.0000
  C  Sn51      1.0  0.33759  0.46942  0.59810  1.0000
  C   C166      1.0  0.31076  0.49552  0.55508  1.0000
  C  Sn52      1.0  0.29659  0.66893  0.54092  1.0000
  O  Te49      1.0  0.29577  0.99409  0.55702  1.0000
  O  Te50      1.0  0.37734  0.59729  0.67083  1.0000
  O  Te51      1.0  0.35137  0.29473  0.61156  1.0000
  O  Te52      1.0  0.26980  0.69165  0.49774  1.0000
  Mg  Mg25      1.0  0.38760  0.33296  0.67361  1.0000
  Mg  Mg26      1.0  0.25953  0.95592  0.49491  1.0000
  C  Sn53      1.0  0.02036  0.13960  0.34109  1.0000
  C   C167      1.0  0.01817  0.11792  0.29127  1.0000
  C  Sn54      1.0  0.05263  0.18926  0.26477  1.0000
  C  Sn55      1.0  0.09006  0.28417  0.28856  1.0000
  C   C168      1.0  0.09224  0.30579  0.33835  1.0000
  C  Sn56      1.0  0.05779  0.23451  0.36488  1.0000
  O  Te53      1.0  0.98553  0.06714  0.36686  1.0000
  O  Te54      1.0  0.04969  0.16590  0.21499  1.0000
  O  Te55      1.0  0.12490  0.35665  0.26275  1.0000
  O  Te56      1.0  0.06072  0.25780  0.41463  1.0000
  Mg  Mg27      1.0  0.10558  0.28937  0.19560  1.0000
  Mg  Mg28      1.0  0.00486  0.13432  0.43405  1.0000
  C  Sn57      1.0  0.59201  0.24405  0.77954  1.0000
  C   C169      1.0  0.59571  0.22497  0.82941  1.0000
  C  Sn58      1.0  0.56229  0.29933  0.85702  1.0000
  C  Sn59      1.0  0.52436  0.39467  0.83431  1.0000
  C   C170      1.0  0.52067  0.41368  0.78447  1.0000
  C  Sn60      1.0  0.55408  0.33938  0.75683  1.0000
  O  Te57      1.0  0.62582  0.16858  0.75265  1.0000
  O  Te58      1.0  0.56674  0.27854  0.90682  1.0000
  O  Te59      1.0  0.49054  0.47015  0.86125  1.0000
  O  Te60      1.0  0.54963  0.36011  0.70705  1.0000
  Mg  Mg29      1.0  0.51180  0.40563  0.92796  1.0000
  Mg  Mg30      1.0  0.60454  0.23300  0.68588  1.0000
  C  Sn61      1.0  0.88326  0.89106  0.95570  1.0000
  C   C171      1.0  0.87340  0.77672  0.91635  1.0000
  C  Sn62      1.0  0.83187  0.79381  0.88817  1.0000
  C  Sn63      1.0  0.79952  0.92805  0.89953  1.0000
  C   C172      1.0  0.81007  0.04230  0.93885  1.0000
  C  Sn64      1.0  0.85160  0.02529  0.96706  1.0000
  O  Te61      1.0  0.92499  0.87156  0.98338  1.0000
  O  Te62      1.0  0.82278  0.67790  0.84902  1.0000
  O  Te63      1.0  0.75776  0.94747  0.87181  1.0000
  O  Te64      1.0  0.78758  0.12529  0.00618  1.0000
  Mg  Mg31      1.0  0.76116  0.75755  0.82213  1.0000
  Mg  Mg32      1.0  0.84920  0.04582  0.03308  1.0000
