data_image0
_chemical_formula_structural       H104C148N16SnCSn2CSnTe4Mg2SnCSn2CSnTe4Mg2SnCSn2CSnTe4Mg2SnCSn2CSnTe4Mg2SnCSn2CSnTe4Mg2SnCSn2CSnTe4Mg2SnCSn2CSnTe4Mg2SnCSn2CSnTe4Mg2SnCSn2CSnTe4Mg2SnCSn2CSnTe4Mg2SnCSn2CSnTe4Mg2SnCSn2CSnTe4Mg2SnCSn2CSnTe4Mg2SnCSn2CSnTe4Mg2SnCSn2CSnTe4Mg2SnCSn2CSnTe4Mg2
_chemical_formula_sum              "H104 C180 N16 Sn64 Te64 Mg32"
_cell_length_a       31.456
_cell_length_b       7.3323
_cell_length_c       24.9866
_cell_angle_alpha    90.1616
_cell_angle_beta     95.2325
_cell_angle_gamma    90.0293

_symmetry_space_group_name_H-M    'P1'
_space_group_IT_number       1

loop_
  _space_group_symop_operation_xyz
  'x, y, z'

loop_
  _atom_site_type_symbol
  _atom_site_label
  _atom_site_symmetry_multiplicity
  _atom_site_fract_x
  _atom_site_fract_y
  _atom_site_fract_z
  _atom_site_occupancy
  H   H1        1.0  0.08802  0.92276  0.22993  1.0000
  H   H2        1.0  0.09150  0.08747  0.73876  1.0000
  H   H3        1.0  0.91349  0.07594  0.75927  1.0000
  H   H4        1.0  0.58922  0.58295  0.73502  1.0000
  H   H5        1.0  0.95456  0.80117  0.78109  1.0000
  H   H6        1.0  0.45136  0.31073  0.78026  1.0000
  H   H7        1.0  0.55236  0.31694  0.71721  1.0000
  H   H8        1.0  0.97213  0.61945  0.19179  1.0000
  H   H9        1.0  0.97446  0.36988  0.69066  1.0000
  H   H10       1.0  0.02792  0.37163  0.81204  1.0000
  H   H11       1.0  0.47312  0.87822  0.69159  1.0000
  H   H12       1.0  0.12742  0.69389  0.18193  1.0000
  H   H13       1.0  0.13116  0.31878  0.69148  1.0000
  H   H14       1.0  0.87135  0.29936  0.80629  1.0000
  H   H15       1.0  0.62916  0.81223  0.68743  1.0000
  H   H16       1.0  0.98891  0.05856  0.63696  1.0000
  H   H17       1.0  0.48882  0.55737  0.63602  1.0000
  H   H18       1.0  0.51338  0.55012  0.86294  1.0000
  H   H19       1.0  0.94067  0.84551  0.58269  1.0000
  H   H20       1.0  0.44115  0.34313  0.58168  1.0000
  H   H21       1.0  0.56047  0.33185  0.91591  1.0000
  H   H22       1.0  0.01111  0.39114  0.14418  1.0000
  H   H23       1.0  0.01364  0.59821  0.64376  1.0000
  H   H24       1.0  0.98641  0.59179  0.85878  1.0000
  H   H25       1.0  0.51240  0.10347  0.64380  1.0000
  H   H26       1.0  0.90513  0.59874  0.72821  1.0000
  H   H27       1.0  0.40265  0.10586  0.72714  1.0000
  H   H28       1.0  0.60022  0.10692  0.76918  1.0000
  H   H29       1.0  0.17699  0.14479  0.37937  1.0000
  H   H30       1.0  0.82381  0.14525  0.11937  1.0000
  H   H31       1.0  0.82797  0.85285  0.61832  1.0000
  H   H32       1.0  0.87063  0.83894  0.51060  1.0000
  H   H33       1.0  0.12835  0.81436  0.99066  1.0000
  H   H34       1.0  0.37202  0.34063  0.51482  1.0000
  H   H35       1.0  0.62686  0.32594  0.99328  1.0000
  H   H36       1.0  0.12939  0.15744  0.48556  1.0000
  H   H37       1.0  0.37064  0.67704  0.00763  1.0000
  H   H38       1.0  0.77610  0.04230  0.39026  1.0000
  H   H39       1.0  0.22170  0.02514  0.11176  1.0000
  H   H40       1.0  0.27896  0.52168  0.38940  1.0000
  H   H41       1.0  0.72387  0.54245  0.10867  1.0000
  H   H42       1.0  0.22208  0.98505  0.61230  1.0000
  H   H43       1.0  0.27592  0.44992  0.89120  1.0000
  H   H44       1.0  0.83086  0.24621  0.35521  1.0000
  H   H45       1.0  0.16644  0.23237  0.14468  1.0000
  H   H46       1.0  0.33309  0.73189  0.35560  1.0000
  H   H47       1.0  0.66994  0.75074  0.14411  1.0000
  H   H48       1.0  0.16790  0.77791  0.64740  1.0000
  H   H49       1.0  0.33140  0.24677  0.85697  1.0000
  H   H50       1.0  0.92514  0.04140  0.47517  1.0000
  H   H51       1.0  0.07349  0.02017  0.02383  1.0000
  H   H52       1.0  0.42572  0.55054  0.48100  1.0000
  H   H53       1.0  0.57323  0.53286  0.02914  1.0000
  H   H54       1.0  0.07547  0.95063  0.52055  1.0000
  H   H55       1.0  0.42607  0.47994  0.97199  1.0000
  H   H56       1.0  0.13025  0.90961  0.33286  1.0000
  H   H57       1.0  0.87192  0.91387  0.16472  1.0000
  H   H58       1.0  0.87581  0.08639  0.66343  1.0000
  H   H59       1.0  0.17266  0.51662  0.45412  1.0000
  H   H60       1.0  0.82603  0.51109  0.04738  1.0000
  H   H61       1.0  0.82768  0.48804  0.54773  1.0000
  H   H62       1.0  0.21674  0.75618  0.50250  1.0000
  H   H63       1.0  0.77942  0.74565  0.00079  1.0000
  H   H64       1.0  0.78168  0.25098  0.50087  1.0000
  H   H65       1.0  0.94502  0.28028  0.41347  1.0000
  H   H66       1.0  0.05409  0.27601  0.08228  1.0000
  H   H67       1.0  0.44375  0.80278  0.42044  1.0000
  H   H68       1.0  0.55574  0.78748  0.08654  1.0000
  H   H69       1.0  0.05708  0.70435  0.58233  1.0000
  H   H70       1.0  0.94238  0.71862  0.91126  1.0000
  H   H71       1.0  0.55564  0.22316  0.58533  1.0000
  H   H72       1.0  0.44590  0.22691  0.91312  1.0000
  H   H73       1.0  0.10164  0.62052  0.32486  1.0000
  H   H74       1.0  0.90111  0.62541  0.17215  1.0000
  H   H75       1.0  0.59719  0.13247  0.32761  1.0000
  H   H76       1.0  0.40177  0.11816  0.17074  1.0000
  H   H77       1.0  0.90372  0.37484  0.67157  1.0000
  H   H78       1.0  0.10002  0.37289  0.82807  1.0000
  H   H79       1.0  0.40235  0.87819  0.67139  1.0000
  H   H80       1.0  0.59867  0.86955  0.82364  1.0000
  H   H81       1.0  0.26619  0.18919  0.36377  1.0000
  H   H82       1.0  0.73686  0.20924  0.13870  1.0000
  H   H83       1.0  0.75895  0.70224  0.36208  1.0000
  H   H84       1.0  0.23887  0.68979  0.13868  1.0000
  H   H85       1.0  0.73889  0.79421  0.63904  1.0000
  H   H86       1.0  0.25884  0.79747  0.86291  1.0000
  H   H87       1.0  0.18917  0.38803  0.60250  1.0000
  H   H88       1.0  0.75696  0.26176  0.86117  1.0000
  H   H89       1.0  0.26653  0.96874  0.39186  1.0000
  H   H90       1.0  0.73520  0.98281  0.11425  1.0000
  H   H91       1.0  0.76345  0.48132  0.39007  1.0000
  H   H92       1.0  0.23798  0.46663  0.11204  1.0000
  H   H93       1.0  0.73996  0.02016  0.61497  1.0000
  H   H94       1.0  0.26249  0.01932  0.89081  1.0000
  H   H95       1.0  0.23768  0.31556  0.63742  1.0000
  H   H96       1.0  0.75803  0.49071  0.88355  1.0000
  H   H97       1.0  0.31300  0.10862  0.40079  1.0000
  H   H98       1.0  0.68881  0.12286  0.10590  1.0000
  H   H99       1.0  0.80835  0.63059  0.39515  1.0000
  H   H100      1.0  0.19099  0.60350  0.10529  1.0000
  H   H101      1.0  0.69203  0.88979  0.60618  1.0000
  H   H102      1.0  0.30789  0.87283  0.89610  1.0000
  H   H103      1.0  0.23456  0.53453  0.60840  1.0000
  H   H104      1.0  0.80482  0.35325  0.89292  1.0000
  C   C1        1.0  0.97465  0.94901  0.71324  1.0000
  C   C2        1.0  0.47279  0.45393  0.71246  1.0000
  C   C3        1.0  0.52990  0.45299  0.78590  1.0000
  C   C4        1.0  0.02664  0.79017  0.21464  1.0000
  C   C5        1.0  0.02949  0.20831  0.71793  1.0000
  C   C6        1.0  0.97441  0.20368  0.78260  1.0000
  C   C7        1.0  0.52774  0.71091  0.71677  1.0000
  C   C8        1.0  0.07055  0.80909  0.21068  1.0000
  C   C9        1.0  0.07393  0.19651  0.71736  1.0000
  C   C10       1.0  0.92999  0.18617  0.78160  1.0000
  C   C11       1.0  0.57191  0.69461  0.71467  1.0000
  C   C12       1.0  0.07261  0.52688  0.15927  1.0000
  C   C13       1.0  0.07567  0.47261  0.66340  1.0000
  C   C14       1.0  0.92524  0.45927  0.83672  1.0000
  C   C15       1.0  0.57413  0.97225  0.66169  1.0000
  C   C16       1.0  0.95139  0.81373  0.73763  1.0000
  C   C17       1.0  0.44885  0.32088  0.73674  1.0000
  C   C18       1.0  0.55427  0.32297  0.76079  1.0000
  C   C19       1.0  0.00598  0.63990  0.18846  1.0000
  C   C20       1.0  0.00869  0.35355  0.68961  1.0000
  C   C21       1.0  0.99370  0.35087  0.81195  1.0000
  C   C22       1.0  0.50716  0.85881  0.68947  1.0000
  C   C23       1.0  0.09315  0.67992  0.18378  1.0000
  C   C24       1.0  0.09659  0.32648  0.69089  1.0000
  C   C25       1.0  0.90592  0.31151  0.80802  1.0000
  C   C26       1.0  0.59470  0.82294  0.68791  1.0000
  C   C27       1.0  0.97085  0.95702  0.65700  1.0000
  C   C28       1.0  0.47009  0.45845  0.65616  1.0000
  C   C29       1.0  0.53216  0.45262  0.84219  1.0000
  C   C30       1.0  0.91979  0.70590  0.65112  1.0000
  C   C31       1.0  0.41863  0.20867  0.65006  1.0000
  C   C32       1.0  0.58324  0.20175  0.84675  1.0000
  C   C33       1.0  0.94383  0.83744  0.62634  1.0000
  C   C34       1.0  0.44339  0.33794  0.62538  1.0000
  C   C35       1.0  0.55845  0.32935  0.87220  1.0000
  C   C36       1.0  0.02814  0.51024  0.16114  1.0000
  C   C37       1.0  0.03093  0.48341  0.66272  1.0000
  C   C38       1.0  0.97002  0.47626  0.83872  1.0000
  C   C39       1.0  0.52951  0.98709  0.66214  1.0000
  C   C40       1.0  0.92381  0.69686  0.70764  1.0000
  C   C41       1.0  0.42172  0.20262  0.70662  1.0000
  C   C42       1.0  0.58096  0.20170  0.79022  1.0000
  C   C43       1.0  0.22681  0.11250  0.47234  1.0000
  C   C44       1.0  0.77119  0.10395  0.02843  1.0000
  C   C45       1.0  0.72533  0.62000  0.47268  1.0000
  C   C46       1.0  0.27379  0.60446  0.02796  1.0000
  C   C47       1.0  0.77428  0.89223  0.52867  1.0000
  C   C48       1.0  0.22498  0.87927  0.97378  1.0000
  C   C49       1.0  0.27418  0.38957  0.52828  1.0000
  C   C50       1.0  0.72302  0.37567  0.97122  1.0000
  C   C51       1.0  0.26299  0.18438  0.45038  1.0000
  C   C52       1.0  0.73672  0.18517  0.05184  1.0000
  C   C53       1.0  0.76059  0.69462  0.44936  1.0000
  C   C54       1.0  0.23852  0.67733  0.05175  1.0000
  C   C55       1.0  0.73941  0.81606  0.55233  1.0000
  C   C56       1.0  0.26020  0.80607  0.94998  1.0000
  C   C57       1.0  0.23821  0.31713  0.55047  1.0000
  C   C58       1.0  0.75733  0.29322  0.94766  1.0000
  C   C59       1.0  0.28631  0.32422  0.47863  1.0000
  C   C60       1.0  0.71317  0.32252  0.02305  1.0000
  C   C61       1.0  0.78463  0.83245  0.47760  1.0000
  C   C62       1.0  0.21427  0.81518  0.02415  1.0000
  C   C63       1.0  0.71516  0.67946  0.52384  1.0000
  C   C64       1.0  0.28421  0.66724  0.97736  1.0000
  C   C65       1.0  0.21478  0.17763  0.52215  1.0000
  C   C66       1.0  0.78115  0.15719  0.97670  1.0000
  C   C67       1.0  0.17669  0.00643  0.39503  1.0000
  C   C68       1.0  0.82351  0.00562  0.10438  1.0000
  C   C69       1.0  0.82721  0.99258  0.60361  1.0000
  C   C70       1.0  0.86208  0.92593  0.47602  1.0000
  C   C71       1.0  0.13654  0.90395  0.02493  1.0000
  C   C72       1.0  0.36368  0.42439  0.47948  1.0000
  C   C73       1.0  0.63617  0.41766  0.02666  1.0000
  C   C74       1.0  0.13753  0.07618  0.52146  1.0000
  C   C75       1.0  0.36219  0.58503  0.97402  1.0000
  C   C76       1.0  0.81965  0.92826  0.45297  1.0000
  C   C77       1.0  0.17876  0.90806  0.04868  1.0000
  C   C78       1.0  0.32179  0.41904  0.45471  1.0000
  C   C79       1.0  0.67899  0.42266  0.04811  1.0000
  C   C80       1.0  0.17937  0.08304  0.54630  1.0000
  C   C81       1.0  0.31950  0.57430  0.95228  1.0000
  C   C82       1.0  0.80900  0.04035  0.40809  1.0000
  C   C83       1.0  0.18894  0.02220  0.09340  1.0000
  C   C84       1.0  0.31142  0.52581  0.40863  1.0000
  C   C85       1.0  0.69069  0.53927  0.09186  1.0000
  C   C86       1.0  0.18962  0.97946  0.59308  1.0000
  C   C87       1.0  0.30897  0.45706  0.90835  1.0000
  C   C88       1.0  0.83913  0.15467  0.38869  1.0000
  C   C89       1.0  0.15859  0.13807  0.11163  1.0000
  C   C90       1.0  0.34110  0.64324  0.38983  1.0000
  C   C91       1.0  0.66108  0.65575  0.11151  1.0000
  C   C92       1.0  0.15989  0.86361  0.61251  1.0000
  C   C93       1.0  0.33949  0.34384  0.88927  1.0000
  C   C94       1.0  0.88125  0.15875  0.41321  1.0000
  C   C95       1.0  0.11682  0.14206  0.08600  1.0000
  C   C96       1.0  0.38244  0.65679  0.41634  1.0000
  C   C97       1.0  0.61860  0.65809  0.08814  1.0000
  C   C98       1.0  0.11857  0.84849  0.58593  1.0000
  C   C99       1.0  0.38192  0.34722  0.91281  1.0000
  C   C100      1.0  0.89253  0.04009  0.45630  1.0000
  C   C101      1.0  0.10587  0.02010  0.04345  1.0000
  C   C102      1.0  0.39367  0.54281  0.46056  1.0000
  C   C103      1.0  0.60627  0.53431  0.04653  1.0000
  C   C104      1.0  0.10748  0.95958  0.54104  1.0000
  C   C105      1.0  0.39314  0.47314  0.95427  1.0000
  C   C106      1.0  0.15054  0.87430  0.36903  1.0000
  C   C107      1.0  0.85051  0.87566  0.12973  1.0000
  C   C108      1.0  0.85404  0.12373  0.62880  1.0000
  C   C109      1.0  0.14865  0.69670  0.38987  1.0000
  C   C110      1.0  0.85191  0.69663  0.10947  1.0000
  C   C111      1.0  0.85482  0.30268  0.60875  1.0000
  C   C112      1.0  0.17376  0.65395  0.43774  1.0000
  C   C113      1.0  0.82514  0.64950  0.06326  1.0000
  C   C114      1.0  0.82750  0.34913  0.56308  1.0000
  C   C115      1.0  0.19895  0.78792  0.46436  1.0000
  C   C116      1.0  0.79876  0.78067  0.03759  1.0000
  C   C117      1.0  0.80131  0.21669  0.53745  1.0000
  C   C118      1.0  0.20092  0.96600  0.44350  1.0000
  C   C119      1.0  0.79756  0.96055  0.05751  1.0000
  C   C120      1.0  0.80083  0.03679  0.55715  1.0000
  C   C121      1.0  0.91198  0.28918  0.39491  1.0000
  C   C122      1.0  0.08658  0.27768  0.10277  1.0000
  C   C123      1.0  0.41186  0.79343  0.39845  1.0000
  C   C124      1.0  0.58851  0.79145  0.10622  1.0000
  C   C125      1.0  0.08914  0.71213  0.60394  1.0000
  C   C126      1.0  0.90928  0.70539  0.89310  1.0000
  C   C127      1.0  0.58837  0.21927  0.60504  1.0000
  C   C128      1.0  0.41279  0.21664  0.89480  1.0000
  C   C129      1.0  0.11920  0.56741  0.36174  1.0000
  C   C130      1.0  0.88237  0.56959  0.13641  1.0000
  C   C131      1.0  0.61510  0.07991  0.36429  1.0000
  C   C132      1.0  0.38398  0.06431  0.13407  1.0000
  C   C133      1.0  0.88533  0.42976  0.63560  1.0000
  C   C134      1.0  0.11722  0.42480  0.86542  1.0000
  C   C135      1.0  0.38433  0.93174  0.63494  1.0000
  C   C136      1.0  0.61636  0.92114  0.86069  1.0000
  C   C137      1.0  0.27798  0.10845  0.39905  1.0000
  C   C138      1.0  0.72370  0.12142  0.10548  1.0000
  C   C139      1.0  0.77357  0.62339  0.39637  1.0000
  C   C140      1.0  0.22585  0.60514  0.10464  1.0000
  C   C141      1.0  0.72690  0.88400  0.60587  1.0000
  C   C142      1.0  0.27309  0.87811  0.89719  1.0000
  C   C143      1.0  0.22405  0.39293  0.60232  1.0000
  C   C144      1.0  0.76995  0.35354  0.89351  1.0000
  C   C145      1.0  0.00052  0.91863  0.24841  1.0000
  C   C146      1.0  0.49946  0.42078  0.25186  1.0000
  C   C147      1.0  0.00260  0.07887  0.75035  1.0000
  C   C148      1.0  0.50118  0.58192  0.74961  1.0000
  N   N1        1.0  0.11304  0.40371  0.37848  1.0000
  N   N2        1.0  0.88801  0.40476  0.11993  1.0000
  N   N3        1.0  0.60887  0.91698  0.38163  1.0000
  N   N4        1.0  0.39034  0.90061  0.11722  1.0000
  N   N5        1.0  0.89149  0.59372  0.61904  1.0000
  N   N6        1.0  0.11076  0.58785  0.88275  1.0000
  N   N7        1.0  0.39072  0.09500  0.61791  1.0000
  N   N8        1.0  0.61037  0.08424  0.87833  1.0000
  N   N9        1.0  0.89940  0.41039  0.35955  1.0000
  N   N10       1.0  0.09930  0.39603  0.13917  1.0000
  N   N11       1.0  0.39920  0.90041  0.35918  1.0000
  N   N12       1.0  0.60128  0.90947  0.14264  1.0000
  N   N13       1.0  0.10199  0.60337  0.64268  1.0000
  N   N14       1.0  0.89713  0.58275  0.85770  1.0000
  N   N15       1.0  0.60107  0.10100  0.64122  1.0000
  N   N16       1.0  0.40005  0.09379  0.85980  1.0000
  C  Sn1       1.0  0.18915  0.33265  0.93939  1.0000
  C   C149      1.0  0.16110  0.31325  0.89303  1.0000
  C  Sn2       1.0  0.14784  0.14017  0.87491  1.0000
  C  Sn3       1.0  0.16302  0.98319  0.90375  1.0000
  C   C150      1.0  0.19104  0.00263  0.95009  1.0000
  C  Sn4       1.0  0.20421  0.17567  0.96823  1.0000
  O  Te1       1.0  0.20198  0.50701  0.95676  1.0000
  O  Te2       1.0  0.11979  0.12421  0.82844  1.0000
  O  Te3       1.0  0.15016  0.80874  0.88633  1.0000
  O  Te4       1.0  0.15979  0.18189  0.01467  1.0000
  Mg  Mg1       1.0  0.11161  0.85740  0.82084  1.0000
  Mg  Mg2       1.0  0.16810  0.44862  0.02233  1.0000
  C  Sn5       1.0  0.04656  0.96921  0.85424  1.0000
  C   C151      1.0  0.04049  0.98341  0.79830  1.0000
  C  Sn6       1.0  0.05376  0.84332  0.76568  1.0000
  C  Sn7       1.0  0.07349  0.68569  0.78947  1.0000
  C   C152      1.0  0.07955  0.67154  0.84537  1.0000
  C  Sn8       1.0  0.06629  0.81158  0.87803  1.0000
  O  Te5       1.0  0.03292  0.11092  0.88607  1.0000
  O  Te6       1.0  0.04736  0.86065  0.70986  1.0000
  O  Te7       1.0  0.08701  0.54394  0.75759  1.0000
  O  Te8       1.0  0.07268  0.79430  0.93382  1.0000
  Mg  Mg3       1.0  0.07125  0.63095  0.68352  1.0000
  Mg  Mg4       1.0  0.04866  0.02386  0.96019  1.0000
  C  Sn9       1.0  0.56024  0.60460  0.37191  1.0000
  C   C153      1.0  0.58527  0.74436  0.35337  1.0000
  C  Sn10      1.0  0.57857  0.80388  0.30021  1.0000
  C  Sn11      1.0  0.54617  0.72207  0.26485  1.0000
  C   C154      1.0  0.52116  0.58242  0.28339  1.0000
  C  Sn12      1.0  0.52783  0.52279  0.33655  1.0000
  O  Te9       1.0  0.56749  0.54727  0.42521  1.0000
  O  Te10      1.0  0.60401  0.94378  0.28259  1.0000
  O  Te11      1.0  0.53893  0.77952  0.21151  1.0000
  O  Te12      1.0  0.50241  0.38300  0.35417  1.0000
  Mg  Mg5       1.0  0.58186  0.97466  0.20642  1.0000
  Mg  Mg6       1.0  0.52452  0.35208  0.43033  1.0000
  C  Sn13      1.0  0.31589  0.73677  0.52978  1.0000
  C   C155      1.0  0.31029  0.55571  0.54501  1.0000
  C  Sn14      1.0  0.32374  0.49873  0.59711  1.0000
  C  Sn15      1.0  0.34316  0.62537  0.63480  1.0000
  C   C156      1.0  0.34874  0.80630  0.61957  1.0000
  C  Sn16      1.0  0.33531  0.86341  0.56746  1.0000
  O  Te13      1.0  0.30221  0.79074  0.47747  1.0000
  O  Te14      1.0  0.31781  0.31699  0.61139  1.0000
  O  Te15      1.0  0.35685  0.57124  0.68713  1.0000
  O  Te16      1.0  0.34110  0.04502  0.55318  1.0000
  Mg  Mg7       1.0  0.34176  0.30916  0.68743  1.0000
  Mg  Mg8       1.0  0.31714  0.05303  0.47717  1.0000
  C  Sn17      1.0  0.57707  0.31988  0.20117  1.0000
  C   C157      1.0  0.53324  0.32303  0.20653  1.0000
  C  Sn18      1.0  0.50821  0.16867  0.19400  1.0000
  C  Sn19      1.0  0.52738  0.00775  0.17576  1.0000
  C   C158      1.0  0.57119  0.00464  0.17041  1.0000
  C  Sn20      1.0  0.59625  0.15896  0.18292  1.0000
  O  Te17      1.0  0.60148  0.47578  0.21393  1.0000
  O  Te18      1.0  0.46445  0.17513  0.19966  1.0000
  O  Te19      1.0  0.50305  0.85179  0.16299  1.0000
  O  Te20      1.0  0.63998  0.15254  0.17728  1.0000
  Mg  Mg9       1.0  0.44477  0.92777  0.17728  1.0000
  Mg  Mg10      1.0  0.65981  0.39978  0.19967  1.0000
  C  Sn21      1.0  0.98918  0.57991  0.30209  1.0000
  C   C159      1.0  0.97430  0.73875  0.27589  1.0000
  C  Sn22      1.0  0.93466  0.81166  0.28541  1.0000
  C  Sn23      1.0  0.90937  0.72405  0.32190  1.0000
  C   C160      1.0  0.92426  0.56533  0.34808  1.0000
  C  Sn24      1.0  0.96390  0.49230  0.33858  1.0000
  O  Te21      1.0  0.02891  0.50944  0.29197  1.0000
  O  Te22      1.0  0.92045  0.97056  0.25873  1.0000
  O  Te23      1.0  0.86961  0.79466  0.33201  1.0000
  O  Te24      1.0  0.97811  0.33352  0.36525  1.0000
  Mg  Mg11      1.0  0.86401  0.01402  0.28592  1.0000
  Mg  Mg12      1.0  0.03442  0.28999  0.33811  1.0000
  C  Sn25      1.0  0.07012  0.16946  0.26257  1.0000
  C   C161      1.0  0.04236  0.04007  0.28113  1.0000
  C  Sn26      1.0  0.03321  0.04120  0.33480  1.0000
  C  Sn27      1.0  0.05219  0.17451  0.37066  1.0000
  C   C162      1.0  0.07992  0.30381  0.35210  1.0000
  C  Sn28      1.0  0.08909  0.30277  0.29844  1.0000
  O  Te25      1.0  0.07880  0.16578  0.20876  1.0000
  O  Te26      1.0  0.00549  0.91042  0.35242  1.0000
  O  Te27      1.0  0.04348  0.17810  0.42451  1.0000
  O  Te28      1.0  0.11691  0.43347  0.28081  1.0000
  Mg  Mg13      1.0  0.00361  0.97154  0.42939  1.0000
  Mg  Mg14      1.0  0.11879  0.37253  0.20384  1.0000
  C  Sn29      1.0  0.66669  0.41293  0.62093  1.0000
  C   C163      1.0  0.62377  0.39419  0.60173  1.0000
  C  Sn30      1.0  0.60899  0.46297  0.55136  1.0000
  C  Sn31      1.0  0.63770  0.55225  0.51951  1.0000
  C   C164      1.0  0.68059  0.57092  0.53871  1.0000
  C  Sn32      1.0  0.69541  0.50221  0.58908  1.0000
  O  Te29      1.0  0.68077  0.34311  0.67140  1.0000
  O  Te30      1.0  0.56593  0.44264  0.53303  1.0000
  O  Te31      1.0  0.62359  0.62208  0.46901  1.0000
  O  Te32      1.0  0.73843  0.52247  0.60740  1.0000
  Mg  Mg15      1.0  0.56205  0.56067  0.46159  1.0000
  Mg  Mg16      1.0  0.74236  0.40441  0.67882  1.0000
  C  Sn33      1.0  0.68781  0.82830  0.93530  1.0000
  C   C165      1.0  0.66042  0.80939  0.88833  1.0000
  C  Sn34      1.0  0.64745  0.63650  0.86973  1.0000
  C  Sn35      1.0  0.66213  0.47919  0.89870  1.0000
  C   C166      1.0  0.68949  0.49813  0.94563  1.0000
  C  Sn36      1.0  0.70249  0.67099  0.96426  1.0000
  O  Te33      1.0  0.70037  0.00248  0.95315  1.0000
  O  Te34      1.0  0.62007  0.62104  0.82266  1.0000
  O  Te35      1.0  0.64955  0.30492  0.88080  1.0000
  O  Te36      1.0  0.65741  0.67672  0.01130  1.0000
  Mg  Mg17      1.0  0.61192  0.35430  0.81457  1.0000
  Mg  Mg18      1.0  0.66556  0.94338  0.01945  1.0000
  C  Sn37      1.0  0.41052  0.75549  0.81713  1.0000
  C   C167      1.0  0.42588  0.90957  0.84575  1.0000
  C  Sn38      1.0  0.46671  0.97662  0.83959  1.0000
  C  Sn39      1.0  0.49274  0.88790  0.80406  1.0000
  C   C168      1.0  0.47738  0.73394  0.77545  1.0000
  C  Sn40      1.0  0.43655  0.66677  0.78159  1.0000
  O  Te37      1.0  0.36960  0.69085  0.82391  1.0000
  O  Te38      1.0  0.48126  0.13083  0.86866  1.0000
  O  Te39      1.0  0.53369  0.95268  0.79730  1.0000
  O  Te40      1.0  0.42188  0.51268  0.75255  1.0000
  Mg  Mg19      1.0  0.53926  0.16715  0.84571  1.0000
  Mg  Mg20      1.0  0.36388  0.47630  0.77544  1.0000
  C  Sn41      1.0  0.97161  0.09416  0.14559  1.0000
  C   C169      1.0  0.97946  0.08117  0.20141  1.0000
  C  Sn42      1.0  0.95212  0.16502  0.23499  1.0000
  C  Sn43      1.0  0.91616  0.26383  0.21232  1.0000
  C   C170      1.0  0.90832  0.27676  0.15653  1.0000
  C  Sn44      1.0  0.93565  0.19297  0.12292  1.0000
  O  Te41      1.0  0.99937  0.00924  0.11279  1.0000
  O  Te42      1.0  0.96064  0.15017  0.29067  1.0000
  O  Te43      1.0  0.88840  0.34878  0.24518  1.0000
  O  Te44      1.0  0.92715  0.20775  0.06727  1.0000
  Mg  Mg21      1.0  0.91347  0.28959  0.31861  1.0000
  Mg  Mg22      1.0  0.97428  0.06833  0.03930  1.0000
  C  Sn45      1.0  0.82926  0.88536  0.87993  1.0000
  C   C171      1.0  0.87247  0.87132  0.89820  1.0000
  C  Sn46      1.0  0.88761  0.94351  0.94813  1.0000
  C  Sn47      1.0  0.85886  0.03148  0.98050  1.0000
  C   C172      1.0  0.81569  0.04546  0.96223  1.0000
  C  Sn48      1.0  0.80063  0.97333  0.91229  1.0000
  O  Te45      1.0  0.81482  0.81219  0.82988  1.0000
  O  Te46      1.0  0.93094  0.92785  0.96554  1.0000
  O  Te47      1.0  0.80090  0.09490  0.03058  1.0000
  O  Te48      1.0  0.75733  0.98892  0.89490  1.0000
  Mg  Mg23      1.0  0.86272  0.03940  0.03672  1.0000
  Mg  Mg24      1.0  0.75295  0.86758  0.82374  1.0000
  C  Sn49      1.0  0.43402  0.81399  0.21633  1.0000
  C   C173      1.0  0.42655  0.81904  0.16036  1.0000
  C  Sn50      1.0  0.43964  0.67485  0.12911  1.0000
  C  Sn51      1.0  0.46061  0.52235  0.15434  1.0000
  C   C174      1.0  0.46807  0.51733  0.21028  1.0000
  C  Sn52      1.0  0.45499  0.66149  0.24156  1.0000
  O  Te49      1.0  0.42066  0.95966  0.24677  1.0000
  O  Te50      1.0  0.43182  0.68303  0.07322  1.0000
  O  Te51      1.0  0.47398  0.37663  0.12384  1.0000
  O  Te52      1.0  0.46279  0.65335  0.29741  1.0000
  Mg  Mg25      1.0  0.45607  0.45098  0.04908  1.0000
  Mg  Mg26      1.0  0.43854  0.88527  0.32159  1.0000
  C  Sn53      1.0  0.33112  0.18213  0.04303  1.0000
  C   C175      1.0  0.35726  0.19793  0.09114  1.0000
  C  Sn54      1.0  0.35273  0.34585  0.12550  1.0000
  C  Sn55      1.0  0.32140  0.48074  0.11152  1.0000
  C   C176      1.0  0.29528  0.46489  0.06344  1.0000
  C  Sn56      1.0  0.29979  0.31702  0.02904  1.0000
  O  Te53      1.0  0.33621  0.03311  0.00928  1.0000
  O  Te54      1.0  0.37924  0.35873  0.17337  1.0000
  O  Te55      1.0  0.31633  0.62984  0.14532  1.0000
  O  Te56      1.0  0.34574  0.31386  0.98121  1.0000
  Mg  Mg27      1.0  0.36003  0.58704  0.20610  1.0000
  Mg  Mg28      1.0  0.36491  0.08558  0.94846  1.0000
  C  Sn57      1.0  0.66925  0.19409  0.45472  1.0000
  C   C177      1.0  0.64208  0.21310  0.40761  1.0000
  C  Sn58      1.0  0.64529  0.36533  0.37473  1.0000
  C  Sn59      1.0  0.67633  0.50136  0.38921  1.0000
  C   C178      1.0  0.70349  0.48231  0.43629  1.0000
  C  Sn60      1.0  0.70029  0.33013  0.46920  1.0000
  O  Te57      1.0  0.66548  0.04077  0.48698  1.0000
  O  Te58      1.0  0.61776  0.38135  0.32784  1.0000
  O  Te59      1.0  0.68008  0.65476  0.35690  1.0000
  O  Te60      1.0  0.72781  0.31406  0.51606  1.0000
  Mg  Mg29      1.0  0.63534  0.61507  0.29702  1.0000
  Mg  Mg30      1.0  0.71027  0.08036  0.54689  1.0000
  C  Sn61      1.0  0.48948  0.08559  0.30716  1.0000
  C   C179      1.0  0.47397  0.23870  0.27848  1.0000
  C  Sn62      1.0  0.43277  0.30289  0.28382  1.0000
  C  Sn63      1.0  0.40651  0.21223  0.31857  1.0000
  C   C180      1.0  0.42202  0.05924  0.34724  1.0000
  C  Sn64      1.0  0.46334  0.99493  0.34192  1.0000
  O  Te61      1.0  0.53077  0.02381  0.30121  1.0000
  O  Te62      1.0  0.41797  0.45619  0.25472  1.0000
  O  Te63      1.0  0.36519  0.27415  0.32451  1.0000
  O  Te64      1.0  0.47814  0.84175  0.37100  1.0000
  Mg  Mg31      1.0  0.35944  0.48840  0.27638  1.0000
  Mg  Mg32      1.0  0.53667  0.80949  0.34939  1.0000
