data_image0
_chemical_formula_structural       H24C44N16C2Sn2C2HTe2HMgC2Sn2C2HTe2HMgC2Sn2C2HTe2HMgC2Sn2C2HTe2HMgC2Sn2C2HTe2HMgC2Sn2C2HTe2HMgC2Sn2C2HTe2HMgC2Sn2C2HTe2HMgC2Sn2C2HTe2HMgC2Sn2C2HTe2HMgC2Sn2C2HTe2HMgC2Sn2C2HTe2HMgC2Sn2C2HTe2HMgC2Sn2C2HTe2HMgC2Sn2C2HTe2HMgC2Sn2C2HTe2HMgC2Sn2C2HTe2HMgC2Sn2C2HTe2HMgC2Sn2C2HTe2HMgC2Sn2C2HTe2HMgC2Sn2C2HTe2HMgC2Sn2C2HTe2HMgC2Sn2C2HTe2HMgC2Sn2C2HTe2HMgC2Sn2C2HTe2HMgC2Sn2C2HTe2HMgC2Sn2C2HTe2HMgC2Sn2C2HTe2HMgC2Sn2C2HTe2HMgC2Sn2C2HTe2HMgC2Sn2C2HTe2HMgC2Sn2C2HTe2HMg
_chemical_formula_sum              "H88 C172 N16 Sn64 Te64 Mg32"
_cell_length_a       29.0911
_cell_length_b       7.40345
_cell_length_c       27.9476
_cell_angle_alpha    90.2522
_cell_angle_beta     94.3656
_cell_angle_gamma    89.8457

_symmetry_space_group_name_H-M    'P1'
_space_group_IT_number       1

loop_
  _space_group_symop_operation_xyz
  'x, y, z'

loop_
  _atom_site_type_symbol
  _atom_site_label
  _atom_site_symmetry_multiplicity
  _atom_site_fract_x
  _atom_site_fract_y
  _atom_site_fract_z
  _atom_site_occupancy
  H   H1        1.0  0.25547  0.22761  0.41292  1.0000
  H   H2        1.0  0.74219  0.21790  0.08293  1.0000
  H   H3        1.0  0.75510  0.72273  0.41126  1.0000
  H   H4        1.0  0.24219  0.71089  0.09065  1.0000
  H   H5        1.0  0.74570  0.78527  0.58616  1.0000
  H   H6        1.0  0.25491  0.76484  0.91617  1.0000
  H   H7        1.0  0.24309  0.27713  0.58779  1.0000
  H   H8        1.0  0.75472  0.27105  0.90834  1.0000
  H   H9        1.0  0.93523  0.36085  0.39916  1.0000
  H   H10       1.0  0.05903  0.32979  0.10335  1.0000
  H   H11       1.0  0.43797  0.85110  0.40357  1.0000
  H   H12       1.0  0.56176  0.84770  0.09739  1.0000
  H   H13       1.0  0.06249  0.65127  0.60092  1.0000
  H   H14       1.0  0.94019  0.66288  0.89693  1.0000
  H   H15       1.0  0.55944  0.20364  0.60814  1.0000
  H   H16       1.0  0.43969  0.15607  0.90174  1.0000
  H   H17       1.0  0.10118  0.65436  0.32382  1.0000
  H   H18       1.0  0.89662  0.65324  0.17368  1.0000
  H   H19       1.0  0.60494  0.14552  0.32315  1.0000
  H   H20       1.0  0.39692  0.14180  0.18024  1.0000
  H   H21       1.0  0.90009  0.34747  0.67344  1.0000
  H   H22       1.0  0.10634  0.34014  0.82476  1.0000
  H   H23       1.0  0.39746  0.85023  0.67681  1.0000
  H   H24       1.0  0.60578  0.85668  0.81913  1.0000
  C   C1        1.0  0.22169  0.12538  0.47296  1.0000
  C   C2        1.0  0.77648  0.11777  0.02273  1.0000
  C   C3        1.0  0.72233  0.62506  0.47250  1.0000
  C   C4        1.0  0.27676  0.61150  0.03048  1.0000
  C   C5        1.0  0.77865  0.88171  0.52498  1.0000
  C   C6        1.0  0.22090  0.86503  0.97647  1.0000
  C   C7        1.0  0.27692  0.37911  0.52780  1.0000
  C   C8        1.0  0.72070  0.37169  0.96868  1.0000
  C   C9        1.0  0.25187  0.24175  0.45126  1.0000
  C   C10       1.0  0.74578  0.23242  0.04466  1.0000
  C   C11       1.0  0.75218  0.73949  0.44963  1.0000
  C   C12       1.0  0.24602  0.72611  0.05244  1.0000
  C   C13       1.0  0.74859  0.76811  0.54781  1.0000
  C   C14       1.0  0.25138  0.74968  0.95444  1.0000
  C   C15       1.0  0.24672  0.26276  0.54947  1.0000
  C   C16       1.0  0.75107  0.25561  0.94661  1.0000
  C   C17       1.0  0.21878  0.13716  0.52328  1.0000
  C   C18       1.0  0.77931  0.13042  0.97247  1.0000
  C   C19       1.0  0.72012  0.64152  0.52280  1.0000
  C   C20       1.0  0.27972  0.62488  0.98024  1.0000
  C   C21       1.0  0.78055  0.86647  0.47461  1.0000
  C   C22       1.0  0.21781  0.85137  0.02665  1.0000
  C   C23       1.0  0.27983  0.36707  0.47747  1.0000
  C   C24       1.0  0.71760  0.35781  0.01889  1.0000
  C   C25       1.0  0.90060  0.34466  0.38087  1.0000
  C   C26       1.0  0.09470  0.32479  0.11953  1.0000
  C   C27       1.0  0.40304  0.83823  0.38574  1.0000
  C   C28       1.0  0.59696  0.83369  0.11446  1.0000
  C   C29       1.0  0.09794  0.66268  0.61751  1.0000
  C   C30       1.0  0.90445  0.66215  0.88082  1.0000
  C   C31       1.0  0.59630  0.18840  0.61961  1.0000
  C   C32       1.0  0.40433  0.16541  0.88477  1.0000
  C   C33       1.0  0.11757  0.60088  0.35769  1.0000
  C   C34       1.0  0.88080  0.59896  0.13956  1.0000
  C   C35       1.0  0.62015  0.09305  0.35765  1.0000
  C   C36       1.0  0.38108  0.08854  0.14602  1.0000
  C   C37       1.0  0.88350  0.40447  0.64008  1.0000
  C   C38       1.0  0.12234  0.39563  0.85869  1.0000
  C   C39       1.0  0.38093  0.90421  0.64305  1.0000
  C   C40       1.0  0.62146  0.90929  0.85351  1.0000
  C   C41       1.0  0.99883  0.95095  0.24937  1.0000
  C   C42       1.0  0.50143  0.43573  0.25162  1.0000
  C   C43       1.0  0.00379  0.04774  0.75013  1.0000
  C   C44       1.0  0.50093  0.56101  0.74811  1.0000
  N   N1        1.0  0.11016  0.43813  0.37167  1.0000
  N   N2        1.0  0.88846  0.43537  0.12596  1.0000
  N   N3        1.0  0.61180  0.93194  0.37225  1.0000
  N   N4        1.0  0.38893  0.92581  0.13187  1.0000
  N   N5        1.0  0.89086  0.56830  0.62693  1.0000
  N   N6        1.0  0.11497  0.55966  0.87203  1.0000
  N   N7        1.0  0.38825  0.06679  0.62888  1.0000
  N   N8        1.0  0.61362  0.07170  0.86794  1.0000
  N   N9        1.0  0.88640  0.43926  0.34386  1.0000
  N   N10       1.0  0.10959  0.42997  0.15434  1.0000
  N   N11       1.0  0.38893  0.93343  0.34884  1.0000
  N   N12       1.0  0.61198  0.92939  0.15115  1.0000
  N   N13       1.0  0.11328  0.56339  0.65318  1.0000
  N   N14       1.0  0.89007  0.55287  0.84675  1.0000
  N   N15       1.0  0.61184  0.06818  0.65016  1.0000
  N   N16       1.0  0.38985  0.06695  0.84840  1.0000
  C   C45       1.0  0.98919  0.64933  0.31428  1.0000
  C   C46       1.0  0.97402  0.78590  0.28247  1.0000
  C  Sn1       1.0  0.92689  0.81743  0.27254  1.0000
  C  Sn2       1.0  0.89444  0.71006  0.29493  1.0000
  C   C47       1.0  0.90997  0.57385  0.32672  1.0000
  C   C48       1.0  0.95720  0.54342  0.33639  1.0000
  H   H25       1.0  0.02574  0.62584  0.32178  1.0000
  O  Te1       1.0  0.91233  0.95439  0.24066  1.0000
  O  Te2       1.0  0.84714  0.73873  0.28565  1.0000
  H   H26       1.0  0.96894  0.43775  0.36104  1.0000
  Mg  Mg1       1.0  0.84425  0.94149  0.23955  1.0000
  C   C49       1.0  0.02064  0.57154  0.17346  1.0000
  C   C50       1.0  0.06822  0.55749  0.17021  1.0000
  C  Sn3       1.0  0.09815  0.67781  0.19539  1.0000
  C  Sn4       1.0  0.08000  0.81456  0.22435  1.0000
  C   C51       1.0  0.03236  0.82740  0.22739  1.0000
  C   C52       1.0  0.00272  0.70633  0.20202  1.0000
  H   H27       1.0  0.99771  0.47782  0.15386  1.0000
  O  Te3       1.0  0.14559  0.66191  0.19173  1.0000
  O  Te4       1.0  0.10913  0.93654  0.24991  1.0000
  H   H28       1.0  0.96589  0.71717  0.20457  1.0000
  Mg  Mg2       1.0  0.17127  0.86009  0.23337  1.0000
  C   C53       1.0  0.47808  0.05525  0.32586  1.0000
  C   C54       1.0  0.43087  0.05397  0.33206  1.0000
  C  Sn5       1.0  0.40179  0.18325  0.30941  1.0000
  C  Sn6       1.0  0.42042  0.31609  0.28002  1.0000
  C   C55       1.0  0.46769  0.31615  0.27402  1.0000
  C   C56       1.0  0.49648  0.18618  0.29686  1.0000
  H   H29       1.0  0.49967  0.95464  0.34351  1.0000
  O  Te5       1.0  0.35470  0.18006  0.31601  1.0000
  O  Te6       1.0  0.39213  0.44685  0.25696  1.0000
  H   H30       1.0  0.53303  0.18714  0.29203  1.0000
  Mg  Mg3       1.0  0.33020  0.38664  0.27705  1.0000
  C   C57       1.0  0.60478  0.23992  0.20536  1.0000
  C   C58       1.0  0.58989  0.08110  0.18190  1.0000
  C  Sn7       1.0  0.54301  0.03843  0.17691  1.0000
  C  Sn8       1.0  0.51052  0.15725  0.19578  1.0000
  C   C59       1.0  0.52576  0.31587  0.21917  1.0000
  C   C60       1.0  0.57275  0.35723  0.22397  1.0000
  H   H31       1.0  0.64113  0.27198  0.20906  1.0000
  O  Te7       1.0  0.52805  0.87916  0.15338  1.0000
  O  Te8       1.0  0.46346  0.11793  0.19128  1.0000
  H   H32       1.0  0.58427  0.48026  0.24212  1.0000
  Mg  Mg4       1.0  0.46024  0.88466  0.15627  1.0000
  C   C61       1.0  0.01194  0.36639  0.69076  1.0000
  C   C62       1.0  0.02730  0.20815  0.71397  1.0000
  C  Sn9       1.0  0.07430  0.16663  0.71882  1.0000
  C  Sn10      1.0  0.10643  0.28605  0.70006  1.0000
  C   C63       1.0  0.09071  0.44409  0.67693  1.0000
  C   C64       1.0  0.04360  0.48428  0.67226  1.0000
  H   H33       1.0  0.97549  0.39756  0.68717  1.0000
  O  Te9       1.0  0.08838  0.00793  0.74209  1.0000
  O  Te10      1.0  0.15360  0.24789  0.70442  1.0000
  H   H34       1.0  0.03172  0.60687  0.65432  1.0000
  Mg  Mg5       1.0  0.15684  0.01501  0.73909  1.0000
  C   C65       1.0  0.91316  0.17661  0.77965  1.0000
  C   C66       1.0  0.96067  0.17015  0.77530  1.0000
  C  Sn11      1.0  0.98977  0.29587  0.79950  1.0000
  C  Sn12      1.0  0.97085  0.43037  0.82858  1.0000
  C   C67       1.0  0.92327  0.43561  0.83273  1.0000
  C   C68       1.0  0.89447  0.30918  0.80834  1.0000
  H   H35       1.0  0.89087  0.07874  0.76080  1.0000
  O  Te11      1.0  0.03716  0.28752  0.79474  1.0000
  O  Te12      1.0  0.99914  0.55764  0.85318  1.0000
  H   H36       1.0  0.85768  0.31415  0.81174  1.0000
  Mg  Mg6       1.0  0.06155  0.49080  0.83533  1.0000
  C   C69       1.0  0.52249  0.93415  0.67075  1.0000
  C   C70       1.0  0.57016  0.95844  0.67148  1.0000
  C  Sn13      1.0  0.60014  0.83601  0.69571  1.0000
  C  Sn14      1.0  0.58196  0.68658  0.71960  1.0000
  C   C71       1.0  0.53421  0.66341  0.71863  1.0000
  C   C72       1.0  0.50453  0.78677  0.69429  1.0000
  H   H37       1.0  0.50021  0.02954  0.65189  1.0000
  O  Te13      1.0  0.64768  0.86233  0.69609  1.0000
  O  Te14      1.0  0.61113  0.56213  0.74408  1.0000
  H   H38       1.0  0.46762  0.76786  0.69371  1.0000
  Mg  Mg7       1.0  0.67339  0.65597  0.73435  1.0000
  C   C73       1.0  0.41131  0.69218  0.77999  1.0000
  C   C74       1.0  0.45851  0.68778  0.77375  1.0000
  C  Sn15      1.0  0.48803  0.81475  0.79684  1.0000
  C  Sn16      1.0  0.46985  0.94841  0.82672  1.0000
  C   C75       1.0  0.42259  0.95159  0.83276  1.0000
  C   C76       1.0  0.39336  0.82393  0.80947  1.0000
  H   H39       1.0  0.38870  0.59335  0.76199  1.0000
  O  Te15      1.0  0.53509  0.80845  0.79020  1.0000
  O  Te16      1.0  0.49926  0.07689  0.85024  1.0000
  H   H40       1.0  0.35683  0.82730  0.81433  1.0000
  Mg  Mg8       1.0  0.56029  0.01277  0.82989  1.0000
  C   C77       1.0  0.03064  0.09580  0.34559  1.0000
  C   C78       1.0  0.02433  0.08441  0.29559  1.0000
  C  Sn17      1.0  0.05040  0.19220  0.26699  1.0000
  C  Sn18      1.0  0.08338  0.31346  0.28895  1.0000
  C   C79       1.0  0.08945  0.32375  0.33900  1.0000
  C   C80       1.0  0.06317  0.21532  0.36728  1.0000
  H   H41       1.0  0.01032  0.01184  0.36747  1.0000
  O  Te17      1.0  0.04365  0.17917  0.21710  1.0000
  O  Te18      1.0  0.10991  0.42270  0.26123  1.0000
  H   H42       1.0  0.06808  0.22408  0.40598  1.0000
  Mg  Mg9       1.0  0.08812  0.35614  0.19465  1.0000
  C   C81       1.0  0.91664  0.30300  0.21913  1.0000
  C   C82       1.0  0.91539  0.33013  0.16959  1.0000
  C  Sn19      1.0  0.94208  0.22232  0.14125  1.0000
  C  Sn20      1.0  0.97050  0.08487  0.16300  1.0000
  C   C83       1.0  0.97148  0.05871  0.21259  1.0000
  C   C84       1.0  0.94465  0.16741  0.24061  1.0000
  H   H43       1.0  0.89586  0.38702  0.24081  1.0000
  O  Te19      1.0  0.94043  0.25129  0.09182  1.0000
  O  Te20      1.0  0.99682  0.97513  0.13552  1.0000
  H   H44       1.0  0.94560  0.14629  0.27896  1.0000
  Mg  Mg10      1.0  0.98353  0.06692  0.06957  1.0000
  C   C85       1.0  0.55005  0.64533  0.36308  1.0000
  C   C86       1.0  0.58031  0.77685  0.34845  1.0000
  C  Sn21      1.0  0.58381  0.80951  0.29967  1.0000
  C  Sn22      1.0  0.55646  0.70844  0.26496  1.0000
  C   C87       1.0  0.52626  0.57725  0.27996  1.0000
  C   C88       1.0  0.52305  0.54563  0.32887  1.0000
  H   H45       1.0  0.54754  0.62092  0.40092  1.0000
  O  Te21      1.0  0.61423  0.94137  0.28568  1.0000
  O  Te22      1.0  0.55926  0.73836  0.21597  1.0000
  H   H46       1.0  0.49959  0.44387  0.34018  1.0000
  Mg  Mg11      1.0  0.60580  0.93260  0.21470  1.0000
  C   C89       1.0  0.42082  0.79583  0.22447  1.0000
  C   C90       1.0  0.41722  0.82084  0.17479  1.0000
  C  Sn23      1.0  0.44143  0.70840  0.14521  1.0000
  C  Sn24      1.0  0.46973  0.56840  0.16585  1.0000
  C   C91       1.0  0.47308  0.54441  0.21558  1.0000
  C   C92       1.0  0.44871  0.65774  0.24485  1.0000
  H   H47       1.0  0.40195  0.88344  0.24711  1.0000
  O  Te23      1.0  0.43746  0.73530  0.09564  1.0000
  O  Te24      1.0  0.49429  0.45403  0.13711  1.0000
  H   H48       1.0  0.45148  0.63827  0.28331  1.0000
  Mg  Mg12      1.0  0.47769  0.54454  0.07149  1.0000
  C   C93       1.0  0.92589  0.68141  0.72007  1.0000
  C   C94       1.0  0.91592  0.68274  0.67036  1.0000
  C  Sn25      1.0  0.93857  0.80281  0.64178  1.0000
  C  Sn26      1.0  0.97182  0.92359  0.66347  1.0000
  C   C95       1.0  0.98158  0.92112  0.71323  1.0000
  C   C96       1.0  0.95869  0.80045  0.74149  1.0000
  H   H49       1.0  0.90821  0.58799  0.74194  1.0000
  O  Te25      1.0  0.92817  0.80239  0.59218  1.0000
  O  Te26      1.0  0.99566  0.04495  0.63575  1.0000
  H   H50       1.0  0.96645  0.79938  0.77997  1.0000
  Mg  Mg13      1.0  0.96889  0.99306  0.56963  1.0000
  C   C97       1.0  0.08399  0.68566  0.77888  1.0000
  C   C98       1.0  0.09100  0.67718  0.82885  1.0000
  C  Sn27      1.0  0.06578  0.78892  0.85766  1.0000
  C  Sn28      1.0  0.03294  0.91124  0.83594  1.0000
  C   C99       1.0  0.02615  0.91860  0.78592  1.0000
  C   C100      1.0  0.05159  0.80622  0.75743  1.0000
  H   H51       1.0  0.10365  0.59864  0.75684  1.0000
  O  Te27      1.0  0.07323  0.77876  0.90753  1.0000
  O  Te28      1.0  0.00793  0.02441  0.86388  1.0000
  H   H52       1.0  0.04613  0.81272  0.71875  1.0000
  Mg  Mg14      1.0  0.02978  0.96070  0.93032  1.0000
  C   C101      1.0  0.46774  0.41121  0.65243  1.0000
  C   C102      1.0  0.47057  0.44076  0.70199  1.0000
  C  Sn29      1.0  0.44615  0.33081  0.73163  1.0000
  C  Sn30      1.0  0.41843  0.18873  0.71117  1.0000
  C   C103      1.0  0.41585  0.16019  0.66155  1.0000
  C   C104      1.0  0.44042  0.27105  0.63223  1.0000
  H   H53       1.0  0.48677  0.49691  0.62974  1.0000
  O  Te29      1.0  0.44935  0.36225  0.78107  1.0000
  O  Te30      1.0  0.39367  0.07678  0.73996  1.0000
  H   H54       1.0  0.43824  0.24806  0.59386  1.0000
  Mg  Mg15      1.0  0.40914  0.17337  0.80537  1.0000
  C   C105      1.0  0.54967  0.35229  0.85896  1.0000
  C   C106      1.0  0.57713  0.21035  0.84425  1.0000
  C  Sn31      1.0  0.58269  0.18273  0.79554  1.0000
  C  Sn32      1.0  0.56032  0.29963  0.76100  1.0000
  C   C107      1.0  0.53295  0.44132  0.77609  1.0000
  C   C108      1.0  0.52760  0.46770  0.82492  1.0000
  H   H55       1.0  0.54555  0.37278  0.89674  1.0000
  O  Te31      1.0  0.61023  0.04022  0.78147  1.0000
  O  Te32      1.0  0.56530  0.27513  0.71209  1.0000
  H   H56       1.0  0.50637  0.57768  0.83629  1.0000
  Mg  Mg16      1.0  0.60641  0.06189  0.71066  1.0000
  C   C109      1.0  0.81264  0.17174  0.38503  1.0000
  C   C110      1.0  0.85861  0.21622  0.39783  1.0000
  C  Sn33      1.0  0.88285  0.12920  0.43622  1.0000
  C  Sn34      1.0  0.85989  0.99518  0.46220  1.0000
  C   C111      1.0  0.81390  0.95156  0.44910  1.0000
  C   C112      1.0  0.79065  0.03953  0.41063  1.0000
  H   H57       1.0  0.79412  0.23972  0.35526  1.0000
  O  Te33      1.0  0.92875  0.17533  0.44854  1.0000
  O  Te34      1.0  0.88331  0.90605  0.50071  1.0000
  H   H58       1.0  0.75438  0.00497  0.40071  1.0000
  Mg  Mg17      1.0  0.94612  0.01605  0.50378  1.0000
  C   C113      1.0  0.18412  0.16465  0.11421  1.0000
  C   C114      1.0  0.13762  0.20195  0.10186  1.0000
  C  Sn35      1.0  0.11376  0.10769  0.06437  1.0000
  C  Sn36      1.0  0.13628  0.97364  0.03884  1.0000
  C   C115      1.0  0.18280  0.93723  0.05150  1.0000
  C   C116      1.0  0.20703  0.03240  0.08906  1.0000
  H   H59       1.0  0.20233  0.23820  0.14329  1.0000
  O  Te35      1.0  0.06731  0.14671  0.05248  1.0000
  O  Te36      1.0  0.11326  0.87736  0.00123  1.0000
  H   H60       1.0  0.24302  0.00341  0.09864  1.0000
  Mg  Mg18      1.0  0.12323  0.99506  0.99847  1.0000
  C   C117      1.0  0.37101  0.50820  0.46804  1.0000
  C   C118      1.0  0.32352  0.48544  0.45850  1.0000
  C  Sn37      1.0  0.30024  0.57400  0.41978  1.0000
  C  Sn38      1.0  0.32505  0.68734  0.39012  1.0000
  C   C119      1.0  0.37256  0.70912  0.39994  1.0000
  C   C120      1.0  0.39552  0.61990  0.43879  1.0000
  H   H61       1.0  0.38877  0.43910  0.49808  1.0000
  O  Te37      1.0  0.25278  0.54982  0.41077  1.0000
  O  Te38      1.0  0.30265  0.77741  0.35117  1.0000
  H   H62       1.0  0.43229  0.63746  0.44615  1.0000
  Mg  Mg19      1.0  0.23765  0.70143  0.35348  1.0000
  C   C121      1.0  0.70083  0.60417  0.09521  1.0000
  C   C122      1.0  0.69017  0.48463  0.05716  1.0000
  C  Sn39      1.0  0.64557  0.47907  0.03481  1.0000
  C  Sn40      1.0  0.61108  0.59554  0.05091  1.0000
  C   C123      1.0  0.62211  0.71474  0.08898  1.0000
  C   C124      1.0  0.66684  0.71914  0.11110  1.0000
  H   H63       1.0  0.73545  0.60766  0.11231  1.0000
  O  Te39      1.0  0.70861  0.37462  0.99686  1.0000
  O  Te40      1.0  0.56623  0.59283  0.02920  1.0000
  H   H64       1.0  0.67510  0.81179  0.14054  1.0000
  Mg  Mg20      1.0  0.64249  0.42109  0.97883  1.0000
  C   C125      1.0  0.11200  0.93171  0.54696  1.0000
  C   C126      1.0  0.12265  0.81182  0.58470  1.0000
  C  Sn41      1.0  0.16732  0.80441  0.60683  1.0000
  C  Sn42      1.0  0.20190  0.91936  0.59081  1.0000
  C   C127      1.0  0.19158  0.03892  0.55306  1.0000
  C   C128      1.0  0.14677  0.04518  0.53116  1.0000
  H   H65       1.0  0.07733  0.93664  0.53003  1.0000
  O  Te41      1.0  0.17737  0.68379  0.64447  1.0000
  O  Te42      1.0  0.24683  0.91478  0.61230  1.0000
  H   H66       1.0  0.13854  0.13810  0.50196  1.0000
  Mg  Mg21      1.0  0.24363  0.72747  0.66228  1.0000
  C   C129      1.0  0.81373  0.80850  0.88727  1.0000
  C   C130      1.0  0.86166  0.79526  0.89484  1.0000
  C  Sn43      1.0  0.88526  0.89484  0.93147  1.0000
  C  Sn44      1.0  0.86031  0.00966  0.96103  1.0000
  C   C131      1.0  0.81305  0.02187  0.95319  1.0000
  C   C132      1.0  0.78910  0.92167  0.91642  1.0000
  H   H67       1.0  0.79573  0.73090  0.85884  1.0000
  O  Te43      1.0  0.93315  0.88007  0.93853  1.0000
  O  Te44      1.0  0.88371  0.11065  0.99791  1.0000
  H   H68       1.0  0.75199  0.93186  0.91059  1.0000
  Mg  Mg22      1.0  0.94926  0.04484  0.99341  1.0000
  C   C133      1.0  0.70314  0.38917  0.59751  1.0000
  C   C134      1.0  0.69344  0.50206  0.55806  1.0000
  C  Sn45      1.0  0.64804  0.52529  0.53891  1.0000
  C  Sn46      1.0  0.61176  0.43366  0.55972  1.0000
  C   C135      1.0  0.62182  0.32111  0.59919  1.0000
  C   C136      1.0  0.66737  0.29879  0.61806  1.0000
  H   H69       1.0  0.73838  0.37196  0.61213  1.0000
  O  Te45      1.0  0.63896  0.63853  0.49948  1.0000
  O  Te46      1.0  0.56608  0.45450  0.54130  1.0000
  H   H70       1.0  0.67487  0.21147  0.64862  1.0000
  Mg  Mg23      1.0  0.57112  0.62336  0.48721  1.0000
  C   C137      1.0  0.38779  0.43013  0.95638  1.0000
  C   C138      1.0  0.37828  0.31104  0.91799  1.0000
  C  Sn47      1.0  0.33376  0.29983  0.89561  1.0000
  C  Sn48      1.0  0.29818  0.41009  0.91205  1.0000
  C   C139      1.0  0.30806  0.52889  0.95046  1.0000
  C   C140      1.0  0.35272  0.53898  0.97261  1.0000
  H   H71       1.0  0.42235  0.43802  0.97350  1.0000
  O  Te47      1.0  0.32485  0.18008  0.85731  1.0000
  O  Te48      1.0  0.25339  0.40165  0.89032  1.0000
  H   H72       1.0  0.28697  0.61544  0.00231  1.0000
  Mg  Mg24      1.0  0.25832  0.21733  0.83941  1.0000
  C   C141      1.0  0.16424  0.02785  0.38846  1.0000
  C   C142      1.0  0.18889  0.00706  0.43300  1.0000
  C  Sn49      1.0  0.19367  0.83600  0.45360  1.0000
  C  Sn50      1.0  0.17408  0.68316  0.42905  1.0000
  C   C143      1.0  0.14951  0.70536  0.38449  1.0000
  C   C144      1.0  0.14424  0.87716  0.36421  1.0000
  H   H73       1.0  0.16018  0.16075  0.37275  1.0000
  O  Te49      1.0  0.21839  0.81764  0.49814  1.0000
  O  Te50      1.0  0.17903  0.51063  0.44881  1.0000
  H   H74       1.0  0.12518  0.89320  0.32971  1.0000
  Mg  Mg25      1.0  0.21571  0.55468  0.51035  1.0000
  C   C145      1.0  0.83330  0.02427  0.10778  1.0000
  C   C146      1.0  0.80983  0.00153  0.06265  1.0000
  C  Sn51      1.0  0.80482  0.82978  0.04191  1.0000
  C  Sn52      1.0  0.82438  0.67825  0.06689  1.0000
  C   C147      1.0  0.84778  0.70241  0.11204  1.0000
  C   C148      1.0  0.85191  0.87488  0.13246  1.0000
  H   H75       1.0  0.83649  0.15769  0.12359  1.0000
  O  Te51      1.0  0.85438  0.82531  0.99679  1.0000
  O  Te52      1.0  0.82056  0.50508  0.04700  1.0000
  H   H76       1.0  0.87007  0.89243  0.16741  1.0000
  Mg  Mg26      1.0  0.85834  0.56217  0.98461  1.0000
  C   C149      1.0  0.69087  0.25708  0.45739  1.0000
  C   C150      1.0  0.69863  0.43872  0.44734  1.0000
  C  Sn53      1.0  0.67867  0.51611  0.40521  1.0000
  C  Sn54      1.0  0.65043  0.40934  0.37261  1.0000
  C   C151      1.0  0.64285  0.22778  0.38301  1.0000
  C   C152      1.0  0.66300  0.15169  0.42527  1.0000
  H   H77       1.0  0.70644  0.19822  0.49010  1.0000
  O  Te53      1.0  0.68679  0.69777  0.39571  1.0000
  O  Te54      1.0  0.63004  0.48328  0.33024  1.0000
  H   H78       1.0  0.65696  0.01108  0.43306  1.0000
  Mg  Mg27      1.0  0.65139  0.73707  0.33323  1.0000
  C   C153      1.0  0.30868  0.24525  0.04697  1.0000
  C   C154      1.0  0.30070  0.42761  0.05654  1.0000
  C  Sn55      1.0  0.32137  0.50880  0.09795  1.0000
  C  Sn56      1.0  0.35057  0.40516  0.13029  1.0000
  C   C155      1.0  0.35836  0.22285  0.12037  1.0000
  C   C156      1.0  0.33749  0.14295  0.07884  1.0000
  H   H79       1.0  0.29255  0.18343  0.01482  1.0000
  O  Te55      1.0  0.31301  0.69114  0.10697  1.0000
  O  Te56      1.0  0.37169  0.48293  0.17193  1.0000
  H   H80       1.0  0.34370  0.00178  0.07142  1.0000
  Mg  Mg28      1.0  0.34966  0.73617  0.16851  1.0000
  C   C157      1.0  0.83714  0.97930  0.60848  1.0000
  C   C158      1.0  0.80839  0.00339  0.56660  1.0000
  C  Sn57      1.0  0.80420  0.17400  0.54563  1.0000
  C  Sn58      1.0  0.82861  0.32299  0.56705  1.0000
  C   C159      1.0  0.85731  0.29746  0.60893  1.0000
  C   C160      1.0  0.86192  0.12617  0.62962  1.0000
  H   H81       1.0  0.84073  0.84675  0.62448  1.0000
  O  Te57      1.0  0.77532  0.19570  0.50380  1.0000
  O  Te58      1.0  0.82438  0.49496  0.54683  1.0000
  H   H82       1.0  0.88421  0.10753  0.66203  1.0000
  Mg  Mg29      1.0  0.78086  0.45640  0.48974  1.0000
  C   C161      1.0  0.16506  0.96586  0.89149  1.0000
  C   C162      1.0  0.19257  0.98799  0.93431  1.0000
  C  Sn59      1.0  0.19846  0.15864  0.95554  1.0000
  C  Sn60      1.0  0.17564  0.30968  0.93341  1.0000
  C   C163      1.0  0.14816  0.28611  0.89059  1.0000
  C   C164      1.0  0.14321  0.11475  0.86965  1.0000
  H   H83       1.0  0.16120  0.83327  0.87529  1.0000
  O  Te59      1.0  0.22609  0.17837  0.99832  1.0000
  O  Te60      1.0  0.18022  0.48174  0.95387  1.0000
  H   H84       1.0  0.12188  0.09764  0.83651  1.0000
  Mg  Mg30      1.0  0.14852  0.42420  0.01235  1.0000
  C   C165      1.0  0.34594  0.54908  0.62834  1.0000
  C   C166      1.0  0.35352  0.73127  0.61879  1.0000
  C  Sn61      1.0  0.33235  0.81139  0.57761  1.0000
  C  Sn62      1.0  0.30305  0.70684  0.54547  1.0000
  C   C167      1.0  0.29567  0.52471  0.55536  1.0000
  C   C168      1.0  0.31704  0.44588  0.59667  1.0000
  H   H85       1.0  0.36246  0.48810  0.66031  1.0000
  O  Te61      1.0  0.34031  0.99356  0.56860  1.0000
  O  Te62      1.0  0.28144  0.78352  0.50405  1.0000
  H   H86       1.0  0.31114  0.30485  0.60407  1.0000
  Mg  Mg31      1.0  0.30374  0.03696  0.50741  1.0000
  C   C169      1.0  0.66436  0.47748  0.88427  1.0000
  C   C170      1.0  0.69268  0.49748  0.92663  1.0000
  C  Sn63      1.0  0.69814  0.66689  0.94852  1.0000
  C  Sn64      1.0  0.67475  0.81883  0.92754  1.0000
  C   C171      1.0  0.64646  0.79738  0.88517  1.0000
  C   C172      1.0  0.64126  0.62725  0.86356  1.0000
  H   H87       1.0  0.66031  0.34584  0.86756  1.0000
  O  Te63      1.0  0.72658  0.68450  0.99082  1.0000
  O  Te64      1.0  0.67957  0.98968  0.94867  1.0000
  H   H88       1.0  0.61930  0.61179  0.83078  1.0000
  Mg  Mg32      1.0  0.64904  0.92933  0.00611  1.0000
