data_image0
_chemical_formula_structural       H24C50N12C2Sn2C2HTe2HMgC2Sn2C2HTe2HMgC2Sn2C2HTe2HMg
_chemical_formula_sum              "H30 C62 N12 Sn6 Te6 Mg3"
_cell_length_a       18.9566
_cell_length_b       18.1841
_cell_length_c       8.01264
_cell_angle_alpha    90.8936
_cell_angle_beta     60.4866
_cell_angle_gamma    118.759

_symmetry_space_group_name_H-M    'P1'
_space_group_IT_number       1

loop_
  _space_group_symop_operation_xyz
  'x, y, z'

loop_
  _atom_site_type_symbol
  _atom_site_label
  _atom_site_symmetry_multiplicity
  _atom_site_fract_x
  _atom_site_fract_y
  _atom_site_fract_z
  _atom_site_occupancy
  H   H1        1.0  0.18402  0.14542  0.29998  1.0000
  H   H2        1.0  0.23375  0.00770  0.17298  1.0000
  H   H3        1.0  0.36745  0.02583  0.15352  1.0000
  H   H4        1.0  0.51889  0.11519  0.14592  1.0000
  H   H5        1.0  0.46660  0.32112  0.25326  1.0000
  H   H6        1.0  0.31592  0.23363  0.26268  1.0000
  H   H7        1.0  0.83583  0.00577  0.25077  1.0000
  H   H8        1.0  0.97776  0.18755  0.24547  1.0000
  H   H9        1.0  0.95449  0.77760  0.27714  1.0000
  H   H10       1.0  0.80717  0.78914  0.23590  1.0000
  H   H11       1.0  0.68872  0.65433  0.23047  1.0000
  H   H12       1.0  0.62497  0.50006  0.21545  1.0000
  H   H13       1.0  0.85817  0.51045  0.20468  1.0000
  H   H14       1.0  0.92319  0.66346  0.21770  1.0000
  H   H15       1.0  0.17708  0.17512  0.79120  1.0000
  H   H16       1.0  0.22677  0.03630  0.68053  1.0000
  H   H17       1.0  0.82548  0.03038  0.75491  1.0000
  H   H18       1.0  0.97875  0.21630  0.70568  1.0000
  H   H19       1.0  0.94581  0.80322  0.78868  1.0000
  H   H20       1.0  0.79808  0.81446  0.74829  1.0000
  H   H21       1.0  0.67802  0.67913  0.74951  1.0000
  H   H22       1.0  0.61459  0.52492  0.73205  1.0000
  H   H23       1.0  0.85050  0.53667  0.71101  1.0000
  H   H24       1.0  0.91564  0.68957  0.72420  1.0000
  C   C1        1.0  0.03936  0.07226  0.25575  1.0000
  C   C2        1.0  0.08552  0.03146  0.26699  1.0000
  C   C3        1.0  0.17311  0.08434  0.26435  1.0000
  C   C4        1.0  0.24202  0.06711  0.21498  1.0000
  C   C5        1.0  0.38910  0.09045  0.17622  1.0000
  C   C6        1.0  0.47337  0.13981  0.17194  1.0000
  C   C7        1.0  0.50156  0.22326  0.20095  1.0000
  C   C8        1.0  0.44378  0.25626  0.23234  1.0000
  C   C9        1.0  0.35929  0.20660  0.23796  1.0000
  C   C10       1.0  0.32984  0.12242  0.21048  1.0000
  C   C11       1.0  0.58995  0.27540  0.20070  1.0000
  C   C12       1.0  0.95211  0.02282  0.26107  1.0000
  C   C13       1.0  0.89736  0.05603  0.25271  1.0000
  C   C14       1.0  0.91624  0.13848  0.24286  1.0000
  C   C15       1.0  0.71442  0.28549  0.20101  1.0000
  C   C16       1.0  0.04111  0.94112  0.28034  1.0000
  C   C17       1.0  0.95696  0.89698  0.27343  1.0000
  C   C18       1.0  0.91794  0.80691  0.26731  1.0000
  C   C19       1.0  0.84376  0.75933  0.24418  1.0000
  C   C20       1.0  0.72560  0.62262  0.22634  1.0000
  C   C21       1.0  0.68943  0.53628  0.21850  1.0000
  C   C22       1.0  0.73680  0.49498  0.21203  1.0000
  C   C23       1.0  0.82160  0.54263  0.21106  1.0000
  C   C24       1.0  0.85741  0.62836  0.21907  1.0000
  C   C25       1.0  0.80958  0.67031  0.22933  1.0000
  C   C26       1.0  0.70037  0.40354  0.20503  1.0000
  C   C27       1.0  0.07584  0.89133  0.30613  1.0000
  C   C28       1.0  0.08692  0.16389  0.22885  1.0000
  C   C29       1.0  0.03212  0.09950  0.75000  1.0000
  C   C30       1.0  0.07999  0.06004  0.75839  1.0000
  C   C31       1.0  0.16625  0.11345  0.75935  1.0000
  C   C32       1.0  0.23381  0.09571  0.72049  1.0000
  C   C33       1.0  0.58018  0.30187  0.71084  1.0000
  C   C34       1.0  0.94524  0.04914  0.75403  1.0000
  C   C35       1.0  0.89062  0.08201  0.74302  1.0000
  C   C36       1.0  0.91333  0.16582  0.71797  1.0000
  C   C37       1.0  0.70814  0.31295  0.69602  1.0000
  C   C38       1.0  0.03688  0.96970  0.76983  1.0000
  C   C39       1.0  0.95001  0.92362  0.77399  1.0000
  C   C40       1.0  0.90910  0.83226  0.77818  1.0000
  C   C41       1.0  0.83402  0.78415  0.75807  1.0000
  C   C42       1.0  0.71526  0.64748  0.74308  1.0000
  C   C43       1.0  0.67950  0.56151  0.73340  1.0000
  C   C44       1.0  0.72793  0.52076  0.72311  1.0000
  C   C45       1.0  0.81327  0.56850  0.71993  1.0000
  C   C46       1.0  0.84886  0.65407  0.72936  1.0000
  C   C47       1.0  0.79978  0.69520  0.74393  1.0000
  C   C48       1.0  0.69153  0.42965  0.71389  1.0000
  C   C49       1.0  0.07654  0.92224  0.78094  1.0000
  C   C50       1.0  0.07499  0.18995  0.73721  1.0000
  N   N1        1.0  0.61929  0.35882  0.20552  1.0000
  N   N2        1.0  0.91419  0.93738  0.26797  1.0000
  N   N3        1.0  0.63472  0.23558  0.19875  1.0000
  N   N4        1.0  0.75075  0.36990  0.20090  1.0000
  N   N5        1.0  0.09988  0.84621  0.33075  1.0000
  N   N6        1.0  0.13055  0.23990  0.20204  1.0000
  N   N7        1.0  0.60817  0.38426  0.72303  1.0000
  N   N8        1.0  0.90628  0.96307  0.76823  1.0000
  N   N9        1.0  0.62774  0.26324  0.69613  1.0000
  N   N10       1.0  0.74402  0.39692  0.69954  1.0000
  N   N11       1.0  0.10630  0.88020  0.79143  1.0000
  N   N12       1.0  0.11343  0.26452  0.72777  1.0000
  C   C51       1.0  0.44550  0.14610  0.68058  1.0000
  C   C52       1.0  0.48777  0.23042  0.70030  1.0000
  C  Sn1       1.0  0.44115  0.27526  0.74163  1.0000
  C  Sn2       1.0  0.35053  0.23475  0.76360  1.0000
  C   C53       1.0  0.30881  0.15035  0.74374  1.0000
  C   C54       1.0  0.35610  0.10608  0.70231  1.0000
  H   H25       1.0  0.48205  0.11182  0.64863  1.0000
  O  Te1       1.0  0.48442  0.35947  0.76078  1.0000
  O  Te2       1.0  0.30235  0.27807  0.80501  1.0000
  H   H26       1.0  0.32332  0.04078  0.68718  1.0000
  Mg  Mg1       1.0  0.39057  0.39191  0.81757  1.0000
  C   C55       1.0  0.72791  0.16556  0.70223  1.0000
  C   C56       1.0  0.74625  0.24929  0.71016  1.0000
  C  Sn3       1.0  0.82741  0.31145  0.70850  1.0000
  C  Sn4       1.0  0.89129  0.28918  0.69864  1.0000
  C   C57       1.0  0.87234  0.20525  0.69061  1.0000
  C   C58       1.0  0.79089  0.14354  0.69243  1.0000
  H   H27       1.0  0.66492  0.11782  0.70352  1.0000
  O  Te3       1.0  0.84464  0.39480  0.71658  1.0000
  O  Te4       1.0  0.97297  0.35005  0.69669  1.0000
  H   H28       1.0  0.77675  0.07873  0.68615  1.0000
  Mg  Mg2       1.0  0.96550  0.45512  0.71021  1.0000
  C   C59       1.0  0.73464  0.13829  0.21051  1.0000
  C   C60       1.0  0.75224  0.22185  0.21800  1.0000
  C  Sn5       1.0  0.83164  0.28385  0.22208  1.0000
  C  Sn6       1.0  0.89447  0.26160  0.21851  1.0000
  C   C61       1.0  0.87628  0.17785  0.21087  1.0000
  C   C62       1.0  0.79660  0.11630  0.20691  1.0000
  H   H29       1.0  0.67303  0.09067  0.20733  1.0000
  O  Te5       1.0  0.84814  0.36703  0.22963  1.0000
  O  Te6       1.0  0.97437  0.32232  0.22238  1.0000
  H   H30       1.0  0.78304  0.05162  0.20098  1.0000
  Mg  Mg3       1.0  0.96652  0.42718  0.23261  1.0000
