data_image0
_chemical_formula_structural       H12C32N12SnCSn2CSnTe4Mg2SnCSn2CSnTe4Mg2SnCSn2CSnTe4Mg2SnCSn2CSnTe4Mg2SnCSn2CSnTe4Mg2SnCSn2CSnTe4Mg2
_chemical_formula_sum              "H12 C44 N12 Sn24 Te24 Mg12"
_cell_length_a       18.9566
_cell_length_b       18.1841
_cell_length_c       8.01264
_cell_angle_alpha    90.8936
_cell_angle_beta     60.4866
_cell_angle_gamma    118.759

_symmetry_space_group_name_H-M    'P1'
_space_group_IT_number       1

loop_
  _space_group_symop_operation_xyz
  'x, y, z'

loop_
  _atom_site_type_symbol
  _atom_site_label
  _atom_site_symmetry_multiplicity
  _atom_site_fract_x
  _atom_site_fract_y
  _atom_site_fract_z
  _atom_site_occupancy
  H   H1        1.0  0.18402  0.14542  0.29998  1.0000
  H   H2        1.0  0.23375  0.00770  0.17298  1.0000
  H   H3        1.0  0.83583  0.00577  0.25077  1.0000
  H   H4        1.0  0.97776  0.18755  0.24547  1.0000
  H   H5        1.0  0.95449  0.77760  0.27714  1.0000
  H   H6        1.0  0.80717  0.78914  0.23590  1.0000
  H   H7        1.0  0.17708  0.17512  0.79120  1.0000
  H   H8        1.0  0.22677  0.03630  0.68053  1.0000
  H   H9        1.0  0.82548  0.03038  0.75491  1.0000
  H   H10       1.0  0.97875  0.21630  0.70568  1.0000
  H   H11       1.0  0.94581  0.80322  0.78868  1.0000
  H   H12       1.0  0.79808  0.81446  0.74829  1.0000
  C   C1        1.0  0.03936  0.07226  0.25575  1.0000
  C   C2        1.0  0.08552  0.03146  0.26699  1.0000
  C   C3        1.0  0.17311  0.08434  0.26435  1.0000
  C   C4        1.0  0.24202  0.06711  0.21498  1.0000
  C   C5        1.0  0.58995  0.27540  0.20070  1.0000
  C   C6        1.0  0.95211  0.02282  0.26107  1.0000
  C   C7        1.0  0.89736  0.05603  0.25271  1.0000
  C   C8        1.0  0.91624  0.13848  0.24286  1.0000
  C   C9        1.0  0.71442  0.28549  0.20101  1.0000
  C   C10       1.0  0.04111  0.94112  0.28034  1.0000
  C   C11       1.0  0.95696  0.89698  0.27343  1.0000
  C   C12       1.0  0.91794  0.80691  0.26731  1.0000
  C   C13       1.0  0.84376  0.75933  0.24418  1.0000
  C   C14       1.0  0.70037  0.40354  0.20503  1.0000
  C   C15       1.0  0.07584  0.89133  0.30613  1.0000
  C   C16       1.0  0.08692  0.16389  0.22885  1.0000
  C   C17       1.0  0.03212  0.09950  0.75000  1.0000
  C   C18       1.0  0.07999  0.06004  0.75839  1.0000
  C   C19       1.0  0.16625  0.11345  0.75935  1.0000
  C   C20       1.0  0.23381  0.09571  0.72049  1.0000
  C   C21       1.0  0.58018  0.30187  0.71084  1.0000
  C   C22       1.0  0.94524  0.04914  0.75403  1.0000
  C   C23       1.0  0.89062  0.08201  0.74302  1.0000
  C   C24       1.0  0.91333  0.16582  0.71797  1.0000
  C   C25       1.0  0.70814  0.31295  0.69602  1.0000
  C   C26       1.0  0.03688  0.96970  0.76983  1.0000
  C   C27       1.0  0.95001  0.92362  0.77399  1.0000
  C   C28       1.0  0.90910  0.83226  0.77818  1.0000
  C   C29       1.0  0.83402  0.78415  0.75807  1.0000
  C   C30       1.0  0.69153  0.42965  0.71389  1.0000
  C   C31       1.0  0.07654  0.92224  0.78094  1.0000
  C   C32       1.0  0.07499  0.18995  0.73721  1.0000
  N   N1        1.0  0.61929  0.35882  0.20552  1.0000
  N   N2        1.0  0.91419  0.93738  0.26797  1.0000
  N   N3        1.0  0.63472  0.23558  0.19875  1.0000
  N   N4        1.0  0.75075  0.36990  0.20090  1.0000
  N   N5        1.0  0.09988  0.84621  0.33075  1.0000
  N   N6        1.0  0.13055  0.23990  0.20204  1.0000
  N   N7        1.0  0.60817  0.38426  0.72303  1.0000
  N   N8        1.0  0.90628  0.96307  0.76823  1.0000
  N   N9        1.0  0.62774  0.26324  0.69613  1.0000
  N   N10       1.0  0.74402  0.39692  0.69954  1.0000
  N   N11       1.0  0.10630  0.88020  0.79143  1.0000
  N   N12       1.0  0.11343  0.26452  0.72777  1.0000
  C  Sn1       1.0  0.39309  0.08546  0.23273  1.0000
  C   C33       1.0  0.32884  0.10865  0.25765  1.0000
  C  Sn2       1.0  0.35589  0.19596  0.23602  1.0000
  C  Sn3       1.0  0.44912  0.26147  0.18836  1.0000
  C   C34       1.0  0.51331  0.23827  0.16344  1.0000
  C  Sn4       1.0  0.48632  0.15096  0.18508  1.0000
  O  Te1       1.0  0.36452  0.99777  0.25505  1.0000
  O  Te2       1.0  0.29041  0.21755  0.26172  1.0000
  O  Te3       1.0  0.47765  0.34921  0.16606  1.0000
  O  Te4       1.0  0.55175  0.12937  0.15937  1.0000
  Mg  Mg1       1.0  0.36293  0.34601  0.21572  1.0000
  Mg  Mg2       1.0  0.47932  0.00094  0.20523  1.0000
  C  Sn5       1.0  0.88019  0.30166  0.15099  1.0000
  C   C35       1.0  0.79588  0.26057  0.15186  1.0000
  C  Sn6       1.0  0.73717  0.16920  0.20892  1.0000
  C  Sn7       1.0  0.76324  0.11782  0.26644  1.0000
  C   C36       1.0  0.84749  0.15891  0.26560  1.0000
  C  Sn8       1.0  0.90626  0.25028  0.20852  1.0000
  O  Te5       1.0  0.93780  0.39310  0.09341  1.0000
  O  Te6       1.0  0.65324  0.12960  0.20853  1.0000
  O  Te7       1.0  0.70554  0.02631  0.32405  1.0000
  O  Te8       1.0  0.99013  0.28987  0.20893  1.0000
  Mg  Mg3       1.0  0.59830  0.00288  0.29915  1.0000
  Mg  Mg4       1.0  0.04510  0.41658  0.11843  1.0000
  C  Sn9       1.0  0.69649  0.59544  0.28549  1.0000
  C   C37       1.0  0.77978  0.65206  0.28251  1.0000
  C  Sn10      1.0  0.85010  0.63271  0.22398  1.0000
  C  Sn11      1.0  0.83693  0.55516  0.16711  1.0000
  C   C38       1.0  0.75369  0.49860  0.17007  1.0000
  C  Sn12      1.0  0.68332  0.51789  0.22862  1.0000
  O  Te9       1.0  0.62714  0.61610  0.34452  1.0000
  O  Te10      1.0  0.93275  0.69031  0.22226  1.0000
  O  Te11      1.0  0.90637  0.53453  0.10806  1.0000
  O  Te12      1.0  0.60072  0.46035  0.23032  1.0000
  Mg  Mg5       1.0  0.00665  0.63357  0.13026  1.0000
  Mg  Mg6       1.0  0.52680  0.51704  0.32219  1.0000
  C  Sn13      1.0  0.38318  0.11297  0.73982  1.0000
  C   C39       1.0  0.31845  0.13617  0.76858  1.0000
  C  Sn14      1.0  0.34423  0.22292  0.75550  1.0000
  C  Sn15      1.0  0.43667  0.28787  0.71265  1.0000
  C   C40       1.0  0.50134  0.26467  0.68388  1.0000
  C  Sn16      1.0  0.47562  0.17792  0.69697  1.0000
  O  Te13      1.0  0.35588  0.02585  0.75358  1.0000
  O  Te14      1.0  0.27828  0.24452  0.78490  1.0000
  O  Te15      1.0  0.46393  0.37505  0.69890  1.0000
  O  Te16      1.0  0.54152  0.15632  0.66756  1.0000
  Mg  Mg7       1.0  0.34901  0.37210  0.75076  1.0000
  Mg  Mg8       1.0  0.47088  0.02878  0.70156  1.0000
  C  Sn17      1.0  0.71454  0.16438  0.76779  1.0000
  C   C41       1.0  0.74000  0.25109  0.75488  1.0000
  C  Sn18      1.0  0.83300  0.31698  0.69911  1.0000
  C  Sn19      1.0  0.90202  0.29578  0.65519  1.0000
  C   C42       1.0  0.87656  0.20913  0.66808  1.0000
  C  Sn20      1.0  0.78356  0.14319  0.72387  1.0000
  O  Te17      1.0  0.62115  0.09957  0.82383  1.0000
  O  Te18      1.0  0.85676  0.40318  0.68731  1.0000
  O  Te19      1.0  0.99547  0.36068  0.59913  1.0000
  O  Te20      1.0  0.75980  0.05704  0.73565  1.0000
  Mg  Mg9       1.0  0.99326  0.46844  0.60425  1.0000
  Mg  Mg10      1.0  0.62335  0.99173  0.81858  1.0000
  C  Sn21      1.0  0.69756  0.58832  0.67539  1.0000
  C   C43       1.0  0.73461  0.53709  0.66835  1.0000
  C  Sn22      1.0  0.80285  0.56235  0.71671  1.0000
  C  Sn23      1.0  0.83470  0.64042  0.77342  1.0000
  C   C44       1.0  0.79765  0.69159  0.78048  1.0000
  C  Sn24      1.0  0.72941  0.66639  0.73210  1.0000
  O  Te21      1.0  0.62939  0.56181  0.62644  1.0000
  O  Te22      1.0  0.83886  0.51007  0.70851  1.0000
  O  Te23      1.0  0.90292  0.66690  0.82238  1.0000
  O  Te24      1.0  0.69339  0.71861  0.74032  1.0000
  Mg  Mg11      1.0  0.93055  0.57373  0.78890  1.0000
  Mg  Mg12      1.0  0.60167  0.65499  0.66007  1.0000
