data_image0
_chemical_formula_structural       H24C50N12SnCSn2CSnTe4Mg2SnCSn2CSnTe4Mg2SnCSn2CSnTe4Mg2
_chemical_formula_sum              "H24 C56 N12 Sn12 Te12 Mg6"
_cell_length_a       18.9566
_cell_length_b       18.1841
_cell_length_c       8.01264
_cell_angle_alpha    90.8936
_cell_angle_beta     60.4866
_cell_angle_gamma    118.759

_symmetry_space_group_name_H-M    'P1'
_space_group_IT_number       1

loop_
  _space_group_symop_operation_xyz
  'x, y, z'

loop_
  _atom_site_type_symbol
  _atom_site_label
  _atom_site_symmetry_multiplicity
  _atom_site_fract_x
  _atom_site_fract_y
  _atom_site_fract_z
  _atom_site_occupancy
  H   H1        1.0  0.18402  0.14542  0.29998  1.0000
  H   H2        1.0  0.23375  0.00770  0.17298  1.0000
  H   H3        1.0  0.36745  0.02583  0.15352  1.0000
  H   H4        1.0  0.51889  0.11519  0.14592  1.0000
  H   H5        1.0  0.46660  0.32112  0.25326  1.0000
  H   H6        1.0  0.31592  0.23363  0.26268  1.0000
  H   H7        1.0  0.83583  0.00577  0.25077  1.0000
  H   H8        1.0  0.97776  0.18755  0.24547  1.0000
  H   H9        1.0  0.95449  0.77760  0.27714  1.0000
  H   H10       1.0  0.80717  0.78914  0.23590  1.0000
  H   H11       1.0  0.17708  0.17512  0.79120  1.0000
  H   H12       1.0  0.22677  0.03630  0.68053  1.0000
  H   H13       1.0  0.82548  0.03038  0.75491  1.0000
  H   H14       1.0  0.97875  0.21630  0.70568  1.0000
  H   H15       1.0  0.95894  0.32744  0.69709  1.0000
  H   H16       1.0  0.87114  0.39296  0.68888  1.0000
  H   H17       1.0  0.66004  0.14590  0.70526  1.0000
  H   H18       1.0  0.74631  0.07944  0.71430  1.0000
  H   H19       1.0  0.94581  0.80322  0.78868  1.0000
  H   H20       1.0  0.79808  0.81446  0.74829  1.0000
  H   H21       1.0  0.67802  0.67913  0.74951  1.0000
  H   H22       1.0  0.61459  0.52492  0.73205  1.0000
  H   H23       1.0  0.85050  0.53667  0.71101  1.0000
  H   H24       1.0  0.91564  0.68957  0.72420  1.0000
  C   C1        1.0  0.03936  0.07226  0.25575  1.0000
  C   C2        1.0  0.08552  0.03146  0.26699  1.0000
  C   C3        1.0  0.17311  0.08434  0.26435  1.0000
  C   C4        1.0  0.24202  0.06711  0.21498  1.0000
  C   C5        1.0  0.38910  0.09045  0.17622  1.0000
  C   C6        1.0  0.47337  0.13981  0.17194  1.0000
  C   C7        1.0  0.50156  0.22326  0.20095  1.0000
  C   C8        1.0  0.44378  0.25626  0.23234  1.0000
  C   C9        1.0  0.35929  0.20660  0.23796  1.0000
  C   C10       1.0  0.32984  0.12242  0.21048  1.0000
  C   C11       1.0  0.58995  0.27540  0.20070  1.0000
  C   C12       1.0  0.95211  0.02282  0.26107  1.0000
  C   C13       1.0  0.89736  0.05603  0.25271  1.0000
  C   C14       1.0  0.91624  0.13848  0.24286  1.0000
  C   C15       1.0  0.71442  0.28549  0.20101  1.0000
  C   C16       1.0  0.04111  0.94112  0.28034  1.0000
  C   C17       1.0  0.95696  0.89698  0.27343  1.0000
  C   C18       1.0  0.91794  0.80691  0.26731  1.0000
  C   C19       1.0  0.84376  0.75933  0.24418  1.0000
  C   C20       1.0  0.70037  0.40354  0.20503  1.0000
  C   C21       1.0  0.07584  0.89133  0.30613  1.0000
  C   C22       1.0  0.08692  0.16389  0.22885  1.0000
  C   C23       1.0  0.03212  0.09950  0.75000  1.0000
  C   C24       1.0  0.07999  0.06004  0.75839  1.0000
  C   C25       1.0  0.16625  0.11345  0.75935  1.0000
  C   C26       1.0  0.23381  0.09571  0.72049  1.0000
  C   C27       1.0  0.58018  0.30187  0.71084  1.0000
  C   C28       1.0  0.94524  0.04914  0.75403  1.0000
  C   C29       1.0  0.89062  0.08201  0.74302  1.0000
  C   C30       1.0  0.91333  0.16582  0.71797  1.0000
  C   C31       1.0  0.89342  0.28776  0.69870  1.0000
  C   C32       1.0  0.84492  0.32461  0.69395  1.0000
  C   C33       1.0  0.75999  0.27344  0.69747  1.0000
  C   C34       1.0  0.72503  0.18461  0.70563  1.0000
  C   C35       1.0  0.77354  0.14780  0.71121  1.0000
  C   C36       1.0  0.85866  0.19854  0.70854  1.0000
  C   C37       1.0  0.70814  0.31295  0.69602  1.0000
  C   C38       1.0  0.03688  0.96970  0.76983  1.0000
  C   C39       1.0  0.95001  0.92362  0.77399  1.0000
  C   C40       1.0  0.90910  0.83226  0.77818  1.0000
  C   C41       1.0  0.83402  0.78415  0.75807  1.0000
  C   C42       1.0  0.71526  0.64748  0.74308  1.0000
  C   C43       1.0  0.67950  0.56151  0.73340  1.0000
  C   C44       1.0  0.72793  0.52076  0.72311  1.0000
  C   C45       1.0  0.81327  0.56850  0.71993  1.0000
  C   C46       1.0  0.84886  0.65407  0.72936  1.0000
  C   C47       1.0  0.79978  0.69520  0.74393  1.0000
  C   C48       1.0  0.69153  0.42965  0.71389  1.0000
  C   C49       1.0  0.07654  0.92224  0.78094  1.0000
  C   C50       1.0  0.07499  0.18995  0.73721  1.0000
  N   N1        1.0  0.61929  0.35882  0.20552  1.0000
  N   N2        1.0  0.91419  0.93738  0.26797  1.0000
  N   N3        1.0  0.63472  0.23558  0.19875  1.0000
  N   N4        1.0  0.75075  0.36990  0.20090  1.0000
  N   N5        1.0  0.09988  0.84621  0.33075  1.0000
  N   N6        1.0  0.13055  0.23990  0.20204  1.0000
  N   N7        1.0  0.60817  0.38426  0.72303  1.0000
  N   N8        1.0  0.90628  0.96307  0.76823  1.0000
  N   N9        1.0  0.62774  0.26324  0.69613  1.0000
  N   N10       1.0  0.74402  0.39692  0.69954  1.0000
  N   N11       1.0  0.10630  0.88020  0.79143  1.0000
  N   N12       1.0  0.11343  0.26452  0.72777  1.0000
  C  Sn1       1.0  0.39700  0.26411  0.81905  1.0000
  C   C51       1.0  0.46582  0.24413  0.77410  1.0000
  C  Sn2       1.0  0.46622  0.17792  0.68364  1.0000
  C  Sn3       1.0  0.39642  0.13072  0.63700  1.0000
  C   C52       1.0  0.32766  0.15072  0.68191  1.0000
  C  Sn4       1.0  0.32719  0.21692  0.77241  1.0000
  O  Te1       1.0  0.39795  0.33057  0.90948  1.0000
  O  Te2       1.0  0.53572  0.15910  0.64021  1.0000
  O  Te3       1.0  0.39551  0.06422  0.54650  1.0000
  O  Te4       1.0  0.25775  0.23575  0.81580  1.0000
  Mg  Mg1       1.0  0.50489  0.06283  0.51657  1.0000
  Mg  Mg2       1.0  0.28855  0.33204  0.93934  1.0000
  C  Sn5       1.0  0.81835  0.55255  0.27303  1.0000
  C   C53       1.0  0.73766  0.49731  0.26629  1.0000
  C  Sn6       1.0  0.69532  0.53159  0.22010  1.0000
  C  Sn7       1.0  0.73448  0.62301  0.17967  1.0000
  C   C54       1.0  0.81514  0.67819  0.18638  1.0000
  C  Sn8       1.0  0.85752  0.64396  0.23259  1.0000
  O  Te5       1.0  0.85951  0.51684  0.31952  1.0000
  O  Te6       1.0  0.61466  0.47506  0.21434  1.0000
  O  Te7       1.0  0.69324  0.65868  0.13316  1.0000
  O  Te8       1.0  0.93813  0.70044  0.23833  1.0000
  Mg  Mg3       1.0  0.58421  0.55497  0.14372  1.0000
  Mg  Mg4       1.0  0.96867  0.62061  0.30883  1.0000
  C  Sn9       1.0  0.88019  0.30166  0.15099  1.0000
  C   C55       1.0  0.79588  0.26057  0.15186  1.0000
  C  Sn10      1.0  0.73717  0.16920  0.20892  1.0000
  C  Sn11      1.0  0.76324  0.11782  0.26644  1.0000
  C   C56       1.0  0.84749  0.15891  0.26560  1.0000
  C  Sn12      1.0  0.90626  0.25028  0.20852  1.0000
  O  Te9       1.0  0.93780  0.39310  0.09341  1.0000
  O  Te10      1.0  0.65324  0.12960  0.20853  1.0000
  O  Te11      1.0  0.70554  0.02631  0.32405  1.0000
  O  Te12      1.0  0.99013  0.28987  0.20893  1.0000
  Mg  Mg5       1.0  0.59830  0.00288  0.29915  1.0000
  Mg  Mg6       1.0  0.04510  0.41658  0.11843  1.0000
