data_image0
_chemical_formula_structural       H12C32N12C2Sn2C2HTe2HMgC2Sn2C2HTe2HMgC2Sn2C2HTe2HMgC2Sn2C2HTe2HMgC2Sn2C2HTe2HMgC2Sn2C2HTe2HMg
_chemical_formula_sum              "H24 C56 N12 Sn12 Te12 Mg6"
_cell_length_a       18.9566
_cell_length_b       18.1841
_cell_length_c       8.01264
_cell_angle_alpha    90.8936
_cell_angle_beta     60.4866
_cell_angle_gamma    118.759

_symmetry_space_group_name_H-M    'P1'
_space_group_IT_number       1

loop_
  _space_group_symop_operation_xyz
  'x, y, z'

loop_
  _atom_site_type_symbol
  _atom_site_label
  _atom_site_symmetry_multiplicity
  _atom_site_fract_x
  _atom_site_fract_y
  _atom_site_fract_z
  _atom_site_occupancy
  H   H1        1.0  0.18402  0.14542  0.29998  1.0000
  H   H2        1.0  0.23375  0.00770  0.17298  1.0000
  H   H3        1.0  0.83583  0.00577  0.25077  1.0000
  H   H4        1.0  0.97776  0.18755  0.24547  1.0000
  H   H5        1.0  0.95449  0.77760  0.27714  1.0000
  H   H6        1.0  0.80717  0.78914  0.23590  1.0000
  H   H7        1.0  0.17708  0.17512  0.79120  1.0000
  H   H8        1.0  0.22677  0.03630  0.68053  1.0000
  H   H9        1.0  0.82548  0.03038  0.75491  1.0000
  H   H10       1.0  0.97875  0.21630  0.70568  1.0000
  H   H11       1.0  0.94581  0.80322  0.78868  1.0000
  H   H12       1.0  0.79808  0.81446  0.74829  1.0000
  C   C1        1.0  0.03936  0.07226  0.25575  1.0000
  C   C2        1.0  0.08552  0.03146  0.26699  1.0000
  C   C3        1.0  0.17311  0.08434  0.26435  1.0000
  C   C4        1.0  0.24202  0.06711  0.21498  1.0000
  C   C5        1.0  0.58995  0.27540  0.20070  1.0000
  C   C6        1.0  0.95211  0.02282  0.26107  1.0000
  C   C7        1.0  0.89736  0.05603  0.25271  1.0000
  C   C8        1.0  0.91624  0.13848  0.24286  1.0000
  C   C9        1.0  0.71442  0.28549  0.20101  1.0000
  C   C10       1.0  0.04111  0.94112  0.28034  1.0000
  C   C11       1.0  0.95696  0.89698  0.27343  1.0000
  C   C12       1.0  0.91794  0.80691  0.26731  1.0000
  C   C13       1.0  0.84376  0.75933  0.24418  1.0000
  C   C14       1.0  0.70037  0.40354  0.20503  1.0000
  C   C15       1.0  0.07584  0.89133  0.30613  1.0000
  C   C16       1.0  0.08692  0.16389  0.22885  1.0000
  C   C17       1.0  0.03212  0.09950  0.75000  1.0000
  C   C18       1.0  0.07999  0.06004  0.75839  1.0000
  C   C19       1.0  0.16625  0.11345  0.75935  1.0000
  C   C20       1.0  0.23381  0.09571  0.72049  1.0000
  C   C21       1.0  0.58018  0.30187  0.71084  1.0000
  C   C22       1.0  0.94524  0.04914  0.75403  1.0000
  C   C23       1.0  0.89062  0.08201  0.74302  1.0000
  C   C24       1.0  0.91333  0.16582  0.71797  1.0000
  C   C25       1.0  0.70814  0.31295  0.69602  1.0000
  C   C26       1.0  0.03688  0.96970  0.76983  1.0000
  C   C27       1.0  0.95001  0.92362  0.77399  1.0000
  C   C28       1.0  0.90910  0.83226  0.77818  1.0000
  C   C29       1.0  0.83402  0.78415  0.75807  1.0000
  C   C30       1.0  0.69153  0.42965  0.71389  1.0000
  C   C31       1.0  0.07654  0.92224  0.78094  1.0000
  C   C32       1.0  0.07499  0.18995  0.73721  1.0000
  N   N1        1.0  0.61929  0.35882  0.20552  1.0000
  N   N2        1.0  0.91419  0.93738  0.26797  1.0000
  N   N3        1.0  0.63472  0.23558  0.19875  1.0000
  N   N4        1.0  0.75075  0.36990  0.20090  1.0000
  N   N5        1.0  0.09988  0.84621  0.33075  1.0000
  N   N6        1.0  0.13055  0.23990  0.20204  1.0000
  N   N7        1.0  0.60817  0.38426  0.72303  1.0000
  N   N8        1.0  0.90628  0.96307  0.76823  1.0000
  N   N9        1.0  0.62774  0.26324  0.69613  1.0000
  N   N10       1.0  0.74402  0.39692  0.69954  1.0000
  N   N11       1.0  0.10630  0.88020  0.79143  1.0000
  N   N12       1.0  0.11343  0.26452  0.72777  1.0000
  C   C33       1.0  0.41205  0.09329  0.16507  1.0000
  C   C34       1.0  0.34172  0.11116  0.21011  1.0000
  C  Sn1       1.0  0.35522  0.19124  0.24309  1.0000
  C  Sn2       1.0  0.44081  0.25449  0.23060  1.0000
  C   C35       1.0  0.51077  0.23600  0.18531  1.0000
  C   C36       1.0  0.49651  0.15564  0.15264  1.0000
  H   H13       1.0  0.40105  0.03114  0.13968  1.0000
  O  Te1       1.0  0.28419  0.20802  0.28801  1.0000
  O  Te2       1.0  0.45616  0.33507  0.26280  1.0000
  H   H14       1.0  0.55101  0.14185  0.11764  1.0000
  Mg  Mg1       1.0  0.33825  0.32737  0.31968  1.0000
  C   C37       1.0  0.73464  0.13829  0.21051  1.0000
  C   C38       1.0  0.75224  0.22185  0.21800  1.0000
  C  Sn3       1.0  0.83164  0.28385  0.22208  1.0000
  C  Sn4       1.0  0.89447  0.26160  0.21851  1.0000
  C   C39       1.0  0.87628  0.17785  0.21087  1.0000
  C   C40       1.0  0.79660  0.11630  0.20691  1.0000
  H   H15       1.0  0.67303  0.09067  0.20733  1.0000
  O  Te3       1.0  0.84814  0.36703  0.22963  1.0000
  O  Te4       1.0  0.97437  0.32232  0.22238  1.0000
  H   H16       1.0  0.78304  0.05162  0.20098  1.0000
  Mg  Mg2       1.0  0.96652  0.42718  0.23261  1.0000
  C   C41       1.0  0.85833  0.60835  0.22223  1.0000
  C   C42       1.0  0.82681  0.66285  0.21419  1.0000
  C  Sn5       1.0  0.74359  0.63001  0.21313  1.0000
  C  Sn6       1.0  0.69108  0.54093  0.22032  1.0000
  C   C43       1.0  0.72317  0.48692  0.22848  1.0000
  C   C44       1.0  0.80656  0.52046  0.22940  1.0000
  H   H17       1.0  0.92281  0.63428  0.22305  1.0000
  O  Te5       1.0  0.71313  0.68538  0.20498  1.0000
  O  Te6       1.0  0.60765  0.50640  0.21952  1.0000
  H   H18       1.0  0.83091  0.47823  0.23575  1.0000
  Mg  Mg3       1.0  0.59509  0.60784  0.20706  1.0000
  C   C45       1.0  0.36197  0.25234  0.77067  1.0000
  C   C46       1.0  0.32590  0.17288  0.72644  1.0000
  C  Sn7       1.0  0.37314  0.12853  0.68262  1.0000
  C  Sn8       1.0  0.45805  0.16456  0.68326  1.0000
  C   C47       1.0  0.49352  0.24405  0.72784  1.0000
  C   C48       1.0  0.44569  0.28789  0.77141  1.0000
  H   H19       1.0  0.32494  0.28624  0.80450  1.0000
  O  Te7       1.0  0.33614  0.04923  0.63868  1.0000
  O  Te8       1.0  0.50668  0.12159  0.64007  1.0000
  H   H20       1.0  0.47360  0.34939  0.80578  1.0000
  Mg  Mg4       1.0  0.42810  0.01531  0.58936  1.0000
  C   C49       1.0  0.72791  0.16556  0.70223  1.0000
  C   C50       1.0  0.74625  0.24929  0.71016  1.0000
  C  Sn9       1.0  0.82741  0.31145  0.70850  1.0000
  C  Sn10      1.0  0.89129  0.28918  0.69864  1.0000
  C   C51       1.0  0.87234  0.20525  0.69061  1.0000
  C   C52       1.0  0.79089  0.14354  0.69243  1.0000
  H   H21       1.0  0.66492  0.11782  0.70352  1.0000
  O  Te9       1.0  0.84464  0.39480  0.71658  1.0000
  O  Te10      1.0  0.97297  0.35005  0.69669  1.0000
  H   H22       1.0  0.77675  0.07873  0.68615  1.0000
  Mg  Mg5       1.0  0.96550  0.45512  0.71021  1.0000
  C   C53       1.0  0.67548  0.57984  0.74208  1.0000
  C   C54       1.0  0.71640  0.53042  0.71421  1.0000
  C  Sn11      1.0  0.80149  0.56419  0.70817  1.0000
  C  Sn12      1.0  0.84625  0.64902  0.73055  1.0000
  C   C55       1.0  0.80470  0.69790  0.75850  1.0000
  C   C56       1.0  0.71956  0.66349  0.76424  1.0000
  H   H23       1.0  0.60958  0.55320  0.74663  1.0000
  O  Te11      1.0  0.84143  0.51396  0.68013  1.0000
  O  Te12      1.0  0.93131  0.68434  0.72519  1.0000
  H   H24       1.0  0.68786  0.70174  0.78595  1.0000
  Mg  Mg6       1.0  0.95806  0.59062  0.68346  1.0000
