data_image0
_chemical_formula_structural       Zn2H24C60S8N16C2Sn2C2HTe2HMgC2Sn2C2HTe2HMgC2Sn2C2HTe2HMgC2Sn2C2HTe2HMgC2Sn2C2HTe2HMgC2Sn2C2HTe2HMgC2Sn2C2HTe2HMgC2Sn2C2HTe2HMgC2Sn2C2HTe2HMgC2Sn2C2HTe2HMgC2Sn2C2HTe2HMgC2Sn2C2HTe2HMgC2Sn2C2HTe2HMgC2Sn2C2HTe2HMgC2Sn2C2HTe2HMgC2Sn2C2HTe2HMg
_chemical_formula_sum              "Zn2 H56 C124 S8 N16 Sn32 Te32 Mg16"
_cell_length_a       30.2891
_cell_length_b       21.5617
_cell_length_c       9.79808
_cell_angle_alpha    90.7262
_cell_angle_beta     89.7716
_cell_angle_gamma    89.9298

_symmetry_space_group_name_H-M    'P1'
_space_group_IT_number       1

loop_
  _space_group_symop_operation_xyz
  'x, y, z'

loop_
  _atom_site_type_symbol
  _atom_site_label
  _atom_site_symmetry_multiplicity
  _atom_site_fract_x
  _atom_site_fract_y
  _atom_site_fract_z
  _atom_site_occupancy
  Zn  Zn1       1.0  0.00066  0.99863  0.00985  1.0000
  Zn  Zn2       1.0  0.99913  0.00085  0.49678  1.0000
  H   H1        1.0  0.16854  0.05826  0.48794  1.0000
  H   H2        1.0  0.83011  0.94303  0.46492  1.0000
  H   H3        1.0  0.83227  0.06227  0.03848  1.0000
  H   H4        1.0  0.16855  0.93497  0.00861  1.0000
  H   H5        1.0  0.04347  0.76054  0.00918  1.0000
  H   H6        1.0  0.95694  0.23686  0.01363  1.0000
  H   H7        1.0  0.95272  0.76412  0.46251  1.0000
  H   H8        1.0  0.04567  0.23751  0.51455  1.0000
  H   H9        1.0  0.24307  0.72464  0.38094  1.0000
  H   H10       1.0  0.75606  0.27122  0.37302  1.0000
  H   H11       1.0  0.75713  0.72553  0.12708  1.0000
  H   H12       1.0  0.24131  0.28081  0.13470  1.0000
  H   H13       1.0  0.16938  0.05864  0.99662  1.0000
  H   H14       1.0  0.83172  0.93799  0.02505  1.0000
  H   H15       1.0  0.83164  0.06694  0.48479  1.0000
  H   H16       1.0  0.16691  0.93397  0.49629  1.0000
  H   H17       1.0  0.04024  0.76156  0.49909  1.0000
  H   H18       1.0  0.95787  0.23784  0.54897  1.0000
  H   H19       1.0  0.95596  0.76145  0.97322  1.0000
  H   H20       1.0  0.04477  0.23573  0.97864  1.0000
  H   H21       1.0  0.24340  0.72488  0.87619  1.0000
  H   H22       1.0  0.76057  0.27986  0.86167  1.0000
  H   H23       1.0  0.75577  0.72635  0.62781  1.0000
  H   H24       1.0  0.24752  0.26925  0.62816  1.0000
  C   C1        1.0  0.13981  0.02857  0.49080  1.0000
  C   C2        1.0  0.85882  0.97250  0.47473  1.0000
  C   C3        1.0  0.86044  0.03157  0.03078  1.0000
  C   C4        1.0  0.14037  0.96575  0.00816  1.0000
  C   C5        1.0  0.39411  0.46882  0.00318  1.0000
  C   C6        1.0  0.60580  0.53144  0.01393  1.0000
  C   C7        1.0  0.60579  0.46788  0.48587  1.0000
  C   C8        1.0  0.39400  0.53155  0.49254  1.0000
  C   C9        1.0  0.08157  0.11268  0.48984  1.0000
  C   C10       1.0  0.91714  0.88839  0.47173  1.0000
  C   C11       1.0  0.92000  0.11365  0.02639  1.0000
  C   C12       1.0  0.08072  0.88425  0.02002  1.0000
  C   C13       1.0  0.09452  0.04967  0.49013  1.0000
  C   C14       1.0  0.90403  0.95126  0.47750  1.0000
  C   C15       1.0  0.90601  0.05113  0.02611  1.0000
  C   C16       1.0  0.09475  0.94660  0.01398  1.0000
  C   C17       1.0  0.02213  0.80068  0.00390  1.0000
  C   C18       1.0  0.97848  0.19682  0.00823  1.0000
  C   C19       1.0  0.97462  0.80331  0.47600  1.0000
  C   C20       1.0  0.02401  0.19772  0.51640  1.0000
  C   C21       1.0  0.03639  0.86454  0.01153  1.0000
  C   C22       1.0  0.96432  0.13299  0.01567  1.0000
  C   C23       1.0  0.96122  0.86764  0.47876  1.0000
  C   C24       1.0  0.03756  0.13361  0.50306  1.0000
  C   C25       1.0  0.24561  0.69862  0.47655  1.0000
  C   C26       1.0  0.75275  0.29894  0.46757  1.0000
  C   C27       1.0  0.75213  0.70147  0.02867  1.0000
  C   C28       1.0  0.24569  0.30301  0.03493  1.0000
  C   C29       1.0  0.47780  0.49919  0.00554  1.0000
  C   C30       1.0  0.52266  0.49882  0.01127  1.0000
  C   C31       1.0  0.14071  0.02894  0.00084  1.0000
  C   C32       1.0  0.86017  0.96824  0.02252  1.0000
  C   C33       1.0  0.85961  0.03572  0.48581  1.0000
  C   C34       1.0  0.13900  0.96528  0.49633  1.0000
  C   C35       1.0  0.39441  0.46839  0.50224  1.0000
  C   C36       1.0  0.60591  0.53110  0.49821  1.0000
  C   C37       1.0  0.60615  0.46838  0.99907  1.0000
  C   C38       1.0  0.39477  0.53193  0.99384  1.0000
  C   C39       1.0  0.08168  0.11187  0.98959  1.0000
  C   C40       1.0  0.91895  0.88564  0.99283  1.0000
  C   C41       1.0  0.91985  0.11569  0.51857  1.0000
  C   C42       1.0  0.07866  0.88466  0.50868  1.0000
  C   C43       1.0  0.09529  0.04936  0.99845  1.0000
  C   C44       1.0  0.90555  0.94817  0.00937  1.0000
  C   C45       1.0  0.90532  0.05396  0.49953  1.0000
  C   C46       1.0  0.09319  0.94680  0.50168  1.0000
  C   C47       1.0  0.01936  0.80213  0.49317  1.0000
  C   C48       1.0  0.97914  0.19812  0.53235  1.0000
  C   C49       1.0  0.97735  0.80115  0.98712  1.0000
  C   C50       1.0  0.02331  0.19621  0.99192  1.0000
  C   C51       1.0  0.03416  0.86581  0.49949  1.0000
  C   C52       1.0  0.96441  0.13463  0.52103  1.0000
  C   C53       1.0  0.96328  0.86524  0.99328  1.0000
  C   C54       1.0  0.03737  0.13216  0.99593  1.0000
  C   C55       1.0  0.24773  0.70021  0.97289  1.0000
  C   C56       1.0  0.75546  0.30336  0.96088  1.0000
  C   C57       1.0  0.75227  0.70026  0.53126  1.0000
  C   C58       1.0  0.24987  0.29602  0.53352  1.0000
  C   C59       1.0  0.47760  0.50041  0.48589  1.0000
  C   C60       1.0  0.52251  0.50058  0.48444  1.0000
  S   S1        1.0  0.44560  0.56848  0.47764  1.0000
  S   S2        1.0  0.55383  0.43185  0.47111  1.0000
  S   S3        1.0  0.55377  0.56731  0.03065  1.0000
  S   S4        1.0  0.44567  0.43120  0.01131  1.0000
  S   S5        1.0  0.44672  0.56824  0.99753  1.0000
  S   S6        1.0  0.55470  0.43051  0.00479  1.0000
  S   S7        1.0  0.55441  0.56886  0.49173  1.0000
  S   S8        1.0  0.44626  0.43167  0.49213  1.0000
  N   N1        1.0  0.22222  0.71050  0.07670  1.0000
  N   N2        1.0  0.77954  0.29145  0.06605  1.0000
  N   N3        1.0  0.77748  0.71040  0.42726  1.0000
  N   N4        1.0  0.22316  0.28670  0.43282  1.0000
  N   N5        1.0  0.06787  0.99831  0.00751  1.0000
  N   N6        1.0  0.93298  0.99943  0.01448  1.0000
  N   N7        1.0  0.99995  0.90309  0.00565  1.0000
  N   N8        1.0  0.00079  0.09436  0.00911  1.0000
  N   N9        1.0  0.21858  0.70838  0.57698  1.0000
  N   N10       1.0  0.77870  0.29119  0.57010  1.0000
  N   N11       1.0  0.77668  0.71288  0.92372  1.0000
  N   N12       1.0  0.22141  0.28866  0.93113  1.0000
  N   N13       1.0  0.06667  0.99897  0.49632  1.0000
  N   N14       1.0  0.93182  0.00181  0.49177  1.0000
  N   N15       1.0  0.99810  0.90500  0.49134  1.0000
  N   N16       1.0  0.00061  0.09601  0.50628  1.0000
  C   C61       1.0  0.17206  0.81408  0.66356  1.0000
  C   C62       1.0  0.18117  0.76003  0.58837  1.0000
  C  Sn1       1.0  0.15634  0.74514  0.47268  1.0000
  C  Sn2       1.0  0.12177  0.78519  0.43174  1.0000
  C   C63       1.0  0.11293  0.83918  0.50759  1.0000
  C   C64       1.0  0.13798  0.85363  0.62322  1.0000
  H   H25       1.0  0.19145  0.82529  0.75298  1.0000
  O  Te1       1.0  0.16588  0.69094  0.39875  1.0000
  O  Te2       1.0  0.09645  0.77143  0.31650  1.0000
  H   H26       1.0  0.13093  0.89550  0.68136  1.0000
  Mg  Mg1       1.0  0.12210  0.69221  0.24917  1.0000
  C   C65       1.0  0.82140  0.18318  0.65451  1.0000
  C   C66       1.0  0.81468  0.23833  0.58409  1.0000
  C  Sn3       1.0  0.84358  0.25540  0.47965  1.0000
  C  Sn4       1.0  0.87984  0.21643  0.44528  1.0000
  C   C67       1.0  0.88625  0.16132  0.51628  1.0000
  C   C68       1.0  0.85714  0.14470  0.62064  1.0000
  H   H27       1.0  0.79886  0.17029  0.73521  1.0000
  O  Te3       1.0  0.83640  0.31067  0.41036  1.0000
  O  Te4       1.0  0.90922  0.23236  0.34130  1.0000
  H   H28       1.0  0.86233  0.10198  0.67509  1.0000
  Mg  Mg2       1.0  0.88555  0.31235  0.27650  1.0000
  C   C69       1.0  0.82207  0.81966  0.84404  1.0000
  C   C70       1.0  0.81440  0.76386  0.91112  1.0000
  C  Sn5       1.0  0.84275  0.74037  0.01905  1.0000
  C  Sn6       1.0  0.87810  0.77933  0.06037  1.0000
  C   C71       1.0  0.88418  0.84084  0.99267  1.0000
  C   C72       1.0  0.85692  0.85813  0.88477  1.0000
  H   H29       1.0  0.80097  0.83305  0.76061  1.0000
  O  Te5       1.0  0.83463  0.68446  0.08492  1.0000
  O  Te6       1.0  0.90563  0.76275  0.16796  1.0000
  H   H30       1.0  0.86285  0.90135  0.83291  1.0000
  Mg  Mg3       1.0  0.88127  0.68203  0.22588  1.0000
  C   C73       1.0  0.15836  0.15921  0.84910  1.0000
  C   C74       1.0  0.12613  0.15477  0.95093  1.0000
  C  Sn7       1.0  0.12443  0.19430  0.05380  1.0000
  C  Sn8       1.0  0.15431  0.24494  0.05444  1.0000
  C   C75       1.0  0.18512  0.25474  0.95205  1.0000
  C   C76       1.0  0.18783  0.20915  0.84962  1.0000
  H   H31       1.0  0.16044  0.12395  0.76980  1.0000
  O  Te7       1.0  0.09204  0.18914  0.15479  1.0000
  O  Te8       1.0  0.15204  0.29087  0.15601  1.0000
  H   H32       1.0  0.21277  0.21262  0.77074  1.0000
  Mg  Mg4       1.0  0.10218  0.26338  0.27157  1.0000
  C   C77       1.0  0.14500  0.74878  0.93820  1.0000
  C   C78       1.0  0.18122  0.74343  0.03095  1.0000
  C  Sn9       1.0  0.18321  0.78873  0.13397  1.0000
  C  Sn10      1.0  0.14954  0.83439  0.14407  1.0000
  C   C79       1.0  0.11472  0.83355  0.05084  1.0000
  C   C80       1.0  0.11177  0.79378  0.94813  1.0000
  H   H33       1.0  0.14370  0.71353  0.85877  1.0000
  O  Te9       1.0  0.21835  0.78848  0.22576  1.0000
  O  Te10      1.0  0.15070  0.88018  0.24607  1.0000
  H   H34       1.0  0.08470  0.79345  0.87638  1.0000
  Mg  Mg5       1.0  0.20534  0.86046  0.34702  1.0000
  C   C81       1.0  0.87327  0.22036  0.91930  1.0000
  C   C82       1.0  0.88712  0.16966  0.01311  1.0000
  C  Sn11      1.0  0.86218  0.16058  0.13141  1.0000
  C  Sn12      1.0  0.82396  0.19724  0.15596  1.0000
  C   C83       1.0  0.81166  0.24205  0.06144  1.0000
  C   C84       1.0  0.83558  0.25652  0.94341  1.0000
  H   H35       1.0  0.89276  0.22708  0.82795  1.0000
  O  Te11      1.0  0.87520  0.11549  0.22408  1.0000
  O  Te12      1.0  0.79842  0.18912  0.27334  1.0000
  H   H36       1.0  0.82583  0.29130  0.87076  1.0000
  Mg  Mg6       1.0  0.82963  0.12180  0.36917  1.0000
  C   C85       1.0  0.82201  0.81434  0.33081  1.0000
  C   C86       1.0  0.81391  0.76240  0.41096  1.0000
  C  Sn13      1.0  0.84000  0.75077  0.52512  1.0000
  C  Sn14      1.0  0.87481  0.79201  0.55944  1.0000
  C   C87       1.0  0.88263  0.84387  0.47865  1.0000
  C   C88       1.0  0.85633  0.85505  0.36461  1.0000
  H   H37       1.0  0.80165  0.82302  0.24261  1.0000
  O  Te13      1.0  0.83146  0.69864  0.60406  1.0000
  O  Te14      1.0  0.90138  0.78151  0.67301  1.0000
  H   H38       1.0  0.86260  0.89530  0.30263  1.0000
  Mg  Mg7       1.0  0.87677  0.70416  0.74890  1.0000
  C   C89       1.0  0.14786  0.24503  0.57790  1.0000
  C   C90       1.0  0.18188  0.24619  0.48119  1.0000
  C  Sn15      1.0  0.18246  0.20341  0.37291  1.0000
  C  Sn16      1.0  0.14830  0.15869  0.36148  1.0000
  C   C91       1.0  0.11440  0.15794  0.45870  1.0000
  C   C92       1.0  0.11415  0.20096  0.56667  1.0000
  H   H39       1.0  0.14765  0.27833  0.66140  1.0000
  O  Te15      1.0  0.21670  0.20520  0.27722  1.0000
  O  Te16      1.0  0.14807  0.11541  0.25425  1.0000
  H   H40       1.0  0.08779  0.20007  0.64148  1.0000
  Mg  Mg8       1.0  0.20189  0.13650  0.14940  1.0000
  C   C93       1.0  0.31053  0.57391  0.09574  1.0000
  C   C94       1.0  0.34662  0.56859  0.00703  1.0000
  C  Sn17      1.0  0.35120  0.61707  0.90250  1.0000
  C  Sn18      1.0  0.32033  0.66598  0.88676  1.0000
  C   C95       1.0  0.28436  0.67092  0.97610  1.0000
  C   C96       1.0  0.28008  0.62215  0.08032  1.0000
  H   H41       1.0  0.30623  0.54065  0.17642  1.0000
  O  Te17      1.0  0.38743  0.61106  0.81474  1.0000
  O  Te18      1.0  0.32542  0.70933  0.78320  1.0000
  H   H42       1.0  0.25215  0.62630  0.14904  1.0000
  Mg  Mg9       1.0  0.38011  0.68160  0.68924  1.0000
  C   C97       1.0  0.69072  0.42737  0.09555  1.0000
  C   C98       1.0  0.65504  0.43305  0.00659  1.0000
  C  Sn19      1.0  0.64909  0.39768  0.89626  1.0000
  C  Sn20      1.0  0.68080  0.35001  0.87490  1.0000
  C   C99       1.0  0.71636  0.34469  0.96454  1.0000
  C   C100      1.0  0.72200  0.38035  0.07459  1.0000
  H   H43       1.0  0.69407  0.45939  0.18075  1.0000
  O  Te19      1.0  0.61325  0.40404  0.80833  1.0000
  O  Te20      1.0  0.67694  0.30826  0.76547  1.0000
  H   H44       1.0  0.74961  0.37591  0.14350  1.0000
  Mg  Mg10      1.0  0.62234  0.33586  0.67371  1.0000
  C   C101      1.0  0.65005  0.63413  0.62489  1.0000
  C   C102      1.0  0.64185  0.58729  0.52844  1.0000
  C  Sn21      1.0  0.67370  0.57205  0.43002  1.0000
  C  Sn22      1.0  0.71447  0.60436  0.42840  1.0000
  C   C103      1.0  0.72236  0.65112  0.52539  1.0000
  C   C104      1.0  0.69026  0.66601  0.62340  1.0000
  H   H45       1.0  0.62523  0.64564  0.70078  1.0000
  O  Te21      1.0  0.66496  0.52514  0.33438  1.0000
  O  Te22      1.0  0.74688  0.59005  0.33119  1.0000
  H   H46       1.0  0.69663  0.70225  0.69812  1.0000
  Mg  Mg11      1.0  0.71949  0.52250  0.22218  1.0000
  C   C105      1.0  0.35211  0.36377  0.62380  1.0000
  C   C106      1.0  0.35914  0.41147  0.53098  1.0000
  C  Sn23      1.0  0.32667  0.42625  0.43581  1.0000
  C  Sn24      1.0  0.28646  0.39258  0.43380  1.0000
  C   C107      1.0  0.27974  0.34496  0.52714  1.0000
  C   C108      1.0  0.31245  0.33055  0.62191  1.0000
  H   H47       1.0  0.37741  0.35264  0.69718  1.0000
  O  Te23      1.0  0.33424  0.47403  0.34378  1.0000
  O  Te24      1.0  0.25345  0.40639  0.33979  1.0000
  H   H48       1.0  0.30699  0.29364  0.69382  1.0000
  Mg  Mg12      1.0  0.27926  0.47552  0.23508  1.0000
  C   C109      1.0  0.34797  0.63400  0.37709  1.0000
  C   C110      1.0  0.35764  0.58803  0.47175  1.0000
  C  Sn25      1.0  0.32695  0.57292  0.57279  1.0000
  C  Sn26      1.0  0.28584  0.60448  0.57891  1.0000
  C   C111      1.0  0.27647  0.65036  0.48369  1.0000
  C   C112      1.0  0.30742  0.66513  0.38302  1.0000
  H   H49       1.0  0.37190  0.64541  0.29916  1.0000
  O  Te25      1.0  0.33715  0.52689  0.66659  1.0000
  O  Te26      1.0  0.25457  0.59028  0.67881  1.0000
  H   H50       1.0  0.29992  0.70069  0.30970  1.0000
  Mg  Mg13      1.0  0.28377  0.52406  0.78379  1.0000
  C   C113      1.0  0.64995  0.36171  0.37244  1.0000
  C   C114      1.0  0.64175  0.41083  0.46348  1.0000
  C  Sn27      1.0  0.67357  0.42828  0.55936  1.0000
  C  Sn28      1.0  0.71432  0.39587  0.56390  1.0000
  C   C115      1.0  0.72222  0.34682  0.47232  1.0000
  C   C116      1.0  0.69014  0.32973  0.37682  1.0000
  H   H51       1.0  0.62514  0.34850  0.29850  1.0000
  O  Te27      1.0  0.66483  0.47745  0.64960  1.0000
  O  Te28      1.0  0.74671  0.41236  0.65866  1.0000
  H   H52       1.0  0.69651  0.29172  0.30629  1.0000
  Mg  Mg14      1.0  0.71933  0.48255  0.76023  1.0000
  C   C117      1.0  0.65166  0.63403  0.13552  1.0000
  C   C118      1.0  0.64160  0.58859  0.03757  1.0000
  C  Sn29      1.0  0.67007  0.58083  0.93199  1.0000
  C  Sn30      1.0  0.71064  0.61347  0.92463  1.0000
  C   C119      1.0  0.72171  0.65305  0.02317  1.0000
  C   C120      1.0  0.69168  0.66622  0.12836  1.0000
  H   H53       1.0  0.62845  0.64420  0.21695  1.0000
  O  Te29      1.0  0.65948  0.53532  0.83495  1.0000
  O  Te30      1.0  0.74099  0.60087  0.82023  1.0000
  H   H54       1.0  0.69949  0.70138  0.20423  1.0000
  Mg  Mg15      1.0  0.71157  0.53478  0.71205  1.0000
  C   C121      1.0  0.34788  0.36875  0.12764  1.0000
  C   C122      1.0  0.35730  0.41362  0.03010  1.0000
  C  Sn31      1.0  0.32505  0.43353  0.92980  1.0000
  C  Sn32      1.0  0.28393  0.40210  0.92739  1.0000
  C   C123      1.0  0.27610  0.35155  0.02548  1.0000
  C   C124      1.0  0.30732  0.33774  0.12537  1.0000
  H   H55       1.0  0.37202  0.35809  0.20497  1.0000
  O  Te31      1.0  0.33500  0.47847  0.83309  1.0000
  O  Te32      1.0  0.25239  0.41534  0.82831  1.0000
  H   H56       1.0  0.30001  0.30302  0.20093  1.0000
  Mg  Mg16      1.0  0.28132  0.48026  0.71841  1.0000
