data_image0
_chemical_formula_structural       Zn2H24C60S8N16SnCSn2CSnTe4Mg2SnCSn2CSnTe4Mg2SnCSn2CSnTe4Mg2SnCSn2CSnTe4Mg2SnCSn2CSnTe4Mg2SnCSn2CSnTe4Mg2SnCSn2CSnTe4Mg2SnCSn2CSnTe4Mg2SnCSn2CSnTe4Mg2SnCSn2CSnTe4Mg2SnCSn2CSnTe4Mg2SnCSn2CSnTe4Mg2SnCSn2CSnTe4Mg2SnCSn2CSnTe4Mg2SnCSn2CSnTe4Mg2SnCSn2CSnTe4Mg2
_chemical_formula_sum              "Zn2 H24 C92 S8 N16 Sn64 Te64 Mg32"
_cell_length_a       30.2891
_cell_length_b       21.5617
_cell_length_c       9.79808
_cell_angle_alpha    90.7262
_cell_angle_beta     89.7716
_cell_angle_gamma    89.9298

_symmetry_space_group_name_H-M    'P1'
_space_group_IT_number       1

loop_
  _space_group_symop_operation_xyz
  'x, y, z'

loop_
  _atom_site_type_symbol
  _atom_site_label
  _atom_site_symmetry_multiplicity
  _atom_site_fract_x
  _atom_site_fract_y
  _atom_site_fract_z
  _atom_site_occupancy
  Zn  Zn1       1.0  0.00066  0.99863  0.00985  1.0000
  Zn  Zn2       1.0  0.99913  0.00085  0.49678  1.0000
  H   H1        1.0  0.16854  0.05826  0.48794  1.0000
  H   H2        1.0  0.83011  0.94303  0.46492  1.0000
  H   H3        1.0  0.83227  0.06227  0.03848  1.0000
  H   H4        1.0  0.16855  0.93497  0.00861  1.0000
  H   H5        1.0  0.04347  0.76054  0.00918  1.0000
  H   H6        1.0  0.95694  0.23686  0.01363  1.0000
  H   H7        1.0  0.95272  0.76412  0.46251  1.0000
  H   H8        1.0  0.04567  0.23751  0.51455  1.0000
  H   H9        1.0  0.24307  0.72464  0.38094  1.0000
  H   H10       1.0  0.75606  0.27122  0.37302  1.0000
  H   H11       1.0  0.75713  0.72553  0.12708  1.0000
  H   H12       1.0  0.24131  0.28081  0.13470  1.0000
  H   H13       1.0  0.16938  0.05864  0.99662  1.0000
  H   H14       1.0  0.83172  0.93799  0.02505  1.0000
  H   H15       1.0  0.83164  0.06694  0.48479  1.0000
  H   H16       1.0  0.16691  0.93397  0.49629  1.0000
  H   H17       1.0  0.04024  0.76156  0.49909  1.0000
  H   H18       1.0  0.95787  0.23784  0.54897  1.0000
  H   H19       1.0  0.95596  0.76145  0.97322  1.0000
  H   H20       1.0  0.04477  0.23573  0.97864  1.0000
  H   H21       1.0  0.24340  0.72488  0.87619  1.0000
  H   H22       1.0  0.76057  0.27986  0.86167  1.0000
  H   H23       1.0  0.75577  0.72635  0.62781  1.0000
  H   H24       1.0  0.24752  0.26925  0.62816  1.0000
  C   C1        1.0  0.13981  0.02857  0.49080  1.0000
  C   C2        1.0  0.85882  0.97250  0.47473  1.0000
  C   C3        1.0  0.86044  0.03157  0.03078  1.0000
  C   C4        1.0  0.14037  0.96575  0.00816  1.0000
  C   C5        1.0  0.39411  0.46882  0.00318  1.0000
  C   C6        1.0  0.60580  0.53144  0.01393  1.0000
  C   C7        1.0  0.60579  0.46788  0.48587  1.0000
  C   C8        1.0  0.39400  0.53155  0.49254  1.0000
  C   C9        1.0  0.08157  0.11268  0.48984  1.0000
  C   C10       1.0  0.91714  0.88839  0.47173  1.0000
  C   C11       1.0  0.92000  0.11365  0.02639  1.0000
  C   C12       1.0  0.08072  0.88425  0.02002  1.0000
  C   C13       1.0  0.09452  0.04967  0.49013  1.0000
  C   C14       1.0  0.90403  0.95126  0.47750  1.0000
  C   C15       1.0  0.90601  0.05113  0.02611  1.0000
  C   C16       1.0  0.09475  0.94660  0.01398  1.0000
  C   C17       1.0  0.02213  0.80068  0.00390  1.0000
  C   C18       1.0  0.97848  0.19682  0.00823  1.0000
  C   C19       1.0  0.97462  0.80331  0.47600  1.0000
  C   C20       1.0  0.02401  0.19772  0.51640  1.0000
  C   C21       1.0  0.03639  0.86454  0.01153  1.0000
  C   C22       1.0  0.96432  0.13299  0.01567  1.0000
  C   C23       1.0  0.96122  0.86764  0.47876  1.0000
  C   C24       1.0  0.03756  0.13361  0.50306  1.0000
  C   C25       1.0  0.24561  0.69862  0.47655  1.0000
  C   C26       1.0  0.75275  0.29894  0.46757  1.0000
  C   C27       1.0  0.75213  0.70147  0.02867  1.0000
  C   C28       1.0  0.24569  0.30301  0.03493  1.0000
  C   C29       1.0  0.47780  0.49919  0.00554  1.0000
  C   C30       1.0  0.52266  0.49882  0.01127  1.0000
  C   C31       1.0  0.14071  0.02894  0.00084  1.0000
  C   C32       1.0  0.86017  0.96824  0.02252  1.0000
  C   C33       1.0  0.85961  0.03572  0.48581  1.0000
  C   C34       1.0  0.13900  0.96528  0.49633  1.0000
  C   C35       1.0  0.39441  0.46839  0.50224  1.0000
  C   C36       1.0  0.60591  0.53110  0.49821  1.0000
  C   C37       1.0  0.60615  0.46838  0.99907  1.0000
  C   C38       1.0  0.39477  0.53193  0.99384  1.0000
  C   C39       1.0  0.08168  0.11187  0.98959  1.0000
  C   C40       1.0  0.91895  0.88564  0.99283  1.0000
  C   C41       1.0  0.91985  0.11569  0.51857  1.0000
  C   C42       1.0  0.07866  0.88466  0.50868  1.0000
  C   C43       1.0  0.09529  0.04936  0.99845  1.0000
  C   C44       1.0  0.90555  0.94817  0.00937  1.0000
  C   C45       1.0  0.90532  0.05396  0.49953  1.0000
  C   C46       1.0  0.09319  0.94680  0.50168  1.0000
  C   C47       1.0  0.01936  0.80213  0.49317  1.0000
  C   C48       1.0  0.97914  0.19812  0.53235  1.0000
  C   C49       1.0  0.97735  0.80115  0.98712  1.0000
  C   C50       1.0  0.02331  0.19621  0.99192  1.0000
  C   C51       1.0  0.03416  0.86581  0.49949  1.0000
  C   C52       1.0  0.96441  0.13463  0.52103  1.0000
  C   C53       1.0  0.96328  0.86524  0.99328  1.0000
  C   C54       1.0  0.03737  0.13216  0.99593  1.0000
  C   C55       1.0  0.24773  0.70021  0.97289  1.0000
  C   C56       1.0  0.75546  0.30336  0.96088  1.0000
  C   C57       1.0  0.75227  0.70026  0.53126  1.0000
  C   C58       1.0  0.24987  0.29602  0.53352  1.0000
  C   C59       1.0  0.47760  0.50041  0.48589  1.0000
  C   C60       1.0  0.52251  0.50058  0.48444  1.0000
  S   S1        1.0  0.44560  0.56848  0.47764  1.0000
  S   S2        1.0  0.55383  0.43185  0.47111  1.0000
  S   S3        1.0  0.55377  0.56731  0.03065  1.0000
  S   S4        1.0  0.44567  0.43120  0.01131  1.0000
  S   S5        1.0  0.44672  0.56824  0.99753  1.0000
  S   S6        1.0  0.55470  0.43051  0.00479  1.0000
  S   S7        1.0  0.55441  0.56886  0.49173  1.0000
  S   S8        1.0  0.44626  0.43167  0.49213  1.0000
  N   N1        1.0  0.22222  0.71050  0.07670  1.0000
  N   N2        1.0  0.77954  0.29145  0.06605  1.0000
  N   N3        1.0  0.77748  0.71040  0.42726  1.0000
  N   N4        1.0  0.22316  0.28670  0.43282  1.0000
  N   N5        1.0  0.06787  0.99831  0.00751  1.0000
  N   N6        1.0  0.93298  0.99943  0.01448  1.0000
  N   N7        1.0  0.99995  0.90309  0.00565  1.0000
  N   N8        1.0  0.00079  0.09436  0.00911  1.0000
  N   N9        1.0  0.21858  0.70838  0.57698  1.0000
  N   N10       1.0  0.77870  0.29119  0.57010  1.0000
  N   N11       1.0  0.77668  0.71288  0.92372  1.0000
  N   N12       1.0  0.22141  0.28866  0.93113  1.0000
  N   N13       1.0  0.06667  0.99897  0.49632  1.0000
  N   N14       1.0  0.93182  0.00181  0.49177  1.0000
  N   N15       1.0  0.99810  0.90500  0.49134  1.0000
  N   N16       1.0  0.00061  0.09601  0.50628  1.0000
  C  Sn1       1.0  0.11734  0.76457  0.45242  1.0000
  C   C61       1.0  0.10748  0.81663  0.53339  1.0000
  C  Sn2       1.0  0.13841  0.83976  0.62629  1.0000
  C  Sn3       1.0  0.18007  0.81028  0.63846  1.0000
  C   C62       1.0  0.18991  0.75827  0.55751  1.0000
  C  Sn4       1.0  0.15900  0.73509  0.46459  1.0000
  O  Te1       1.0  0.08593  0.74224  0.36021  1.0000
  O  Te2       1.0  0.12779  0.89185  0.70617  1.0000
  O  Te3       1.0  0.21149  0.83266  0.73076  1.0000
  O  Te4       1.0  0.16960  0.68304  0.38473  1.0000
  Mg  Mg1       1.0  0.18158  0.90490  0.81701  1.0000
  Mg  Mg2       1.0  0.11585  0.66998  0.27381  1.0000
  C  Sn5       1.0  0.84890  0.24052  0.42216  1.0000
  C   C63       1.0  0.81437  0.24145  0.51720  1.0000
  C  Sn6       1.0  0.81658  0.20527  0.63423  1.0000
  C  Sn7       1.0  0.85410  0.16738  0.65680  1.0000
  C   C64       1.0  0.88860  0.16647  0.56181  1.0000
  C  Sn8       1.0  0.88642  0.20264  0.44473  1.0000
  O  Te5       1.0  0.84599  0.27707  0.30588  1.0000
  O  Te6       1.0  0.78165  0.20695  0.72776  1.0000
  O  Te7       1.0  0.85699  0.13082  0.77320  1.0000
  O  Te8       1.0  0.92133  0.20097  0.35125  1.0000
  Mg  Mg3       1.0  0.80099  0.14892  0.87071  1.0000
  Mg  Mg4       1.0  0.90203  0.25900  0.20831  1.0000
  C  Sn9       1.0  0.83090  0.80547  0.82319  1.0000
  C   C65       1.0  0.82131  0.75326  0.90096  1.0000
  C  Sn10      1.0  0.84215  0.73975  0.02851  1.0000
  C  Sn11      1.0  0.87189  0.78514  0.07944  1.0000
  C   C66       1.0  0.88146  0.83731  0.00170  1.0000
  C  Sn12      1.0  0.86064  0.85087  0.87412  1.0000
  O  Te9       1.0  0.81098  0.81228  0.69596  1.0000
  O  Te10      1.0  0.83206  0.68716  0.10437  1.0000
  O  Te11      1.0  0.89182  0.77830  0.20678  1.0000
  O  Te12      1.0  0.87071  0.90342  0.79829  1.0000
  Mg  Mg5       1.0  0.86757  0.69873  0.27196  1.0000
  Mg  Mg6       1.0  0.83521  0.89191  0.63073  1.0000
  C  Sn13      1.0  0.16923  0.19509  0.82716  1.0000
  C   C67       1.0  0.17851  0.24613  0.91155  1.0000
  C  Sn14      1.0  0.16014  0.24591  0.04034  1.0000
  C  Sn15      1.0  0.13062  0.19945  0.08578  1.0000
  C   C68       1.0  0.12136  0.14845  0.00142  1.0000
  C  Sn16      1.0  0.13970  0.14864  0.87259  1.0000
  O  Te13      1.0  0.18926  0.19051  0.69880  1.0000
  O  Te14      1.0  0.16992  0.29736  0.12287  1.0000
  O  Te15      1.0  0.11058  0.20408  0.21425  1.0000
  O  Te16      1.0  0.12995  0.09722  0.79010  1.0000
  Mg  Mg7       1.0  0.13438  0.28279  0.28941  1.0000
  Mg  Mg8       1.0  0.16548  0.11172  0.62358  1.0000
  C  Sn17      1.0  0.15517  0.76188  0.92086  1.0000
  C   C69       1.0  0.18842  0.75392  0.02317  1.0000
  C  Sn18      1.0  0.18307  0.78847  0.14368  1.0000
  C  Sn19      1.0  0.14497  0.82597  0.16239  1.0000
  C   C70       1.0  0.11303  0.82814  0.06014  1.0000
  C  Sn20      1.0  0.11706  0.79938  0.93957  1.0000
  O  Te17      1.0  0.16120  0.72696  0.80121  1.0000
  O  Te18      1.0  0.21549  0.78553  0.24448  1.0000
  O  Te19      1.0  0.13896  0.86090  0.28216  1.0000
  O  Te20      1.0  0.08468  0.80229  0.83883  1.0000
  Mg  Mg9       1.0  0.19232  0.84153  0.38963  1.0000
  Mg  Mg10      1.0  0.10780  0.74629  0.69367  1.0000
  C  Sn21      1.0  0.83498  0.20615  0.18230  1.0000
  C   C71       1.0  0.82393  0.25204  0.08890  1.0000
  C  Sn22      1.0  0.84025  0.25623  0.95693  1.0000
  C  Sn23      1.0  0.86950  0.20776  0.91743  1.0000
  C   C72       1.0  0.88182  0.15613  0.01079  1.0000
  C  Sn24      1.0  0.86422  0.15767  0.14280  1.0000
  O  Te21      1.0  0.81698  0.20864  0.31369  1.0000
  O  Te22      1.0  0.82874  0.30264  0.86537  1.0000
  O  Te23      1.0  0.88750  0.20530  0.78591  1.0000
  O  Te24      1.0  0.87572  0.11129  0.23432  1.0000
  Mg  Mg11      1.0  0.86183  0.27910  0.69789  1.0000
  Mg  Mg12      1.0  0.84263  0.13477  0.40180  1.0000
  C  Sn25      1.0  0.83108  0.79930  0.31442  1.0000
  C   C73       1.0  0.82094  0.75144  0.40412  1.0000
  C  Sn26      1.0  0.83931  0.75064  0.53463  1.0000
  C  Sn27      1.0  0.86841  0.79869  0.57639  1.0000
  C   C74       1.0  0.87853  0.84651  0.48672  1.0000
  C  Sn28      1.0  0.86017  0.84734  0.35618  1.0000
  O  Te25      1.0  0.81233  0.79916  0.18443  1.0000
  O  Te26      1.0  0.82870  0.70230  0.62249  1.0000
  O  Te27      1.0  0.88716  0.79878  0.70649  1.0000
  O  Te28      1.0  0.87077  0.89565  0.26835  1.0000
  Mg  Mg13      1.0  0.86258  0.72296  0.78932  1.0000
  Mg  Mg14      1.0  0.83689  0.87506  0.10153  1.0000
  C  Sn29      1.0  0.16722  0.19821  0.32431  1.0000
  C   C75       1.0  0.17908  0.24641  0.41347  1.0000
  C  Sn30      1.0  0.16210  0.24885  0.54619  1.0000
  C  Sn31      1.0  0.13266  0.20211  0.59077  1.0000
  C   C76       1.0  0.12082  0.15394  0.50165  1.0000
  C  Sn32      1.0  0.13778  0.15146  0.36889  1.0000
  O  Te29      1.0  0.18460  0.19669  0.19208  1.0000
  O  Te30      1.0  0.17443  0.29752  0.63345  1.0000
  O  Te31      1.0  0.11528  0.20366  0.72312  1.0000
  O  Te32      1.0  0.12547  0.10283  0.28167  1.0000
  Mg  Mg15      1.0  0.14197  0.27930  0.80406  1.0000
  Mg  Mg16      1.0  0.15793  0.12098  0.11107  1.0000
  C  Sn33      1.0  0.29773  0.60904  0.11054  1.0000
  C   C77       1.0  0.29119  0.65815  0.02110  1.0000
  C  Sn34      1.0  0.31508  0.66825  0.90188  1.0000
  C  Sn35      1.0  0.34748  0.62254  0.87136  1.0000
  C   C78       1.0  0.35401  0.57346  0.96076  1.0000
  C  Sn36      1.0  0.33013  0.56332  0.08003  1.0000
  O  Te33      1.0  0.27217  0.60562  0.22914  1.0000
  O  Te34      1.0  0.30794  0.71779  0.81405  1.0000
  O  Te35      1.0  0.37304  0.62600  0.75266  1.0000
  O  Te36      1.0  0.33725  0.51382  0.16781  1.0000
  Mg  Mg17      1.0  0.35105  0.70220  0.66506  1.0000
  Mg  Mg18      1.0  0.29415  0.52935  0.31678  1.0000
  C  Sn37      1.0  0.68069  0.36072  0.84394  1.0000
  C   C79       1.0  0.71769  0.35894  0.92854  1.0000
  C  Sn38      1.0  0.71835  0.38309  0.05583  1.0000
  C  Sn39      1.0  0.67990  0.41543  0.09952  1.0000
  C   C80       1.0  0.64292  0.41719  0.01495  1.0000
  C  Sn40      1.0  0.64225  0.39305  0.88763  1.0000
  O  Te37      1.0  0.68207  0.33047  0.71710  1.0000
  O  Te38      1.0  0.75575  0.38069  0.13860  1.0000
  O  Te39      1.0  0.67855  0.44569  0.22646  1.0000
  O  Te40      1.0  0.60487  0.39544  0.80490  1.0000
  Mg  Mg19      1.0  0.73777  0.42912  0.30264  1.0000
  Mg  Mg20      1.0  0.62280  0.34700  0.64087  1.0000
  C  Sn41      1.0  0.69623  0.56052  0.44295  1.0000
  C   C81       1.0  0.65757  0.56074  0.52129  1.0000
  C  Sn42      1.0  0.64563  0.61325  0.59789  1.0000
  C  Sn43      1.0  0.67289  0.66668  0.59609  1.0000
  C   C82       1.0  0.71152  0.66645  0.51777  1.0000
  C  Sn44      1.0  0.72348  0.61395  0.44115  1.0000
  O  Te41      1.0  0.70752  0.50751  0.36716  1.0000
  O  Te42      1.0  0.60683  0.61236  0.67546  1.0000
  O  Te43      1.0  0.66157  0.71971  0.67197  1.0000
  O  Te44      1.0  0.76225  0.61483  0.36361  1.0000
  Mg  Mg21      1.0  0.60551  0.69592  0.76152  1.0000
  Mg  Mg22      1.0  0.76360  0.53132  0.27745  1.0000
  C  Sn45      1.0  0.32548  0.35310  0.64711  1.0000
  C   C83       1.0  0.28699  0.35164  0.56896  1.0000
  C  Sn46      1.0  0.28434  0.38521  0.44827  1.0000
  C  Sn47      1.0  0.32093  0.42097  0.40471  1.0000
  C   C84       1.0  0.35940  0.42241  0.48282  1.0000
  C  Sn48      1.0  0.36208  0.38885  0.60355  1.0000
  O  Te45      1.0  0.32740  0.31918  0.76742  1.0000
  O  Te46      1.0  0.24550  0.38305  0.37189  1.0000
  O  Te47      1.0  0.31899  0.45491  0.28430  1.0000
  O  Te48      1.0  0.40088  0.39100  0.67990  1.0000
  Mg  Mg23      1.0  0.25892  0.43716  0.21537  1.0000
  Mg  Mg24      1.0  0.38751  0.33688  0.83638  1.0000
  C  Sn49      1.0  0.35365  0.64406  0.41379  1.0000
  C   C85       1.0  0.36052  0.59413  0.50076  1.0000
  C  Sn50      1.0  0.32536  0.56919  0.57457  1.0000
  C  Sn51      1.0  0.28243  0.59468  0.56112  1.0000
  C   C86       1.0  0.27557  0.64458  0.47417  1.0000
  C  Sn52      1.0  0.31072  0.66955  0.40033  1.0000
  O  Te49      1.0  0.38928  0.66825  0.34098  1.0000
  O  Te50      1.0  0.33304  0.51928  0.66092  1.0000
  O  Te51      1.0  0.24679  0.57045  0.63402  1.0000
  O  Te52      1.0  0.30305  0.71942  0.31401  1.0000
  Mg  Mg25      1.0  0.27388  0.50241  0.73860  1.0000
  Mg  Mg26      1.0  0.36217  0.73631  0.23624  1.0000
  C  Sn53      1.0  0.69565  0.43937  0.54572  1.0000
  C   C87       1.0  0.65681  0.43697  0.46934  1.0000
  C  Sn54      1.0  0.64520  0.38278  0.39863  1.0000
  C  Sn55      1.0  0.67297  0.32987  0.40446  1.0000
  C   C88       1.0  0.71178  0.33229  0.48082  1.0000
  C  Sn56      1.0  0.72342  0.38647  0.55155  1.0000
  O  Te53      1.0  0.70661  0.49403  0.61561  1.0000
  O  Te54      1.0  0.60621  0.38150  0.32291  1.0000
  O  Te55      1.0  0.66198  0.27519  0.33449  1.0000
  O  Te56      1.0  0.76238  0.38776  0.62725  1.0000
  Mg  Mg27      1.0  0.60548  0.29627  0.24534  1.0000
  Mg  Mg28      1.0  0.76313  0.47295  0.70491  1.0000
  C  Sn57      1.0  0.69449  0.56313  0.94047  1.0000
  C   C89       1.0  0.65905  0.55576  0.02710  1.0000
  C  Sn58      1.0  0.64835  0.60708  0.10923  1.0000
  C  Sn59      1.0  0.67491  0.66115  0.10461  1.0000
  C   C90       1.0  0.71161  0.66275  0.01801  1.0000
  C  Sn60      1.0  0.72105  0.61720  0.93586  1.0000
  O  Te57      1.0  0.70457  0.51129  0.85926  1.0000
  O  Te58      1.0  0.61147  0.60437  0.19505  1.0000
  O  Te59      1.0  0.66480  0.71301  0.18592  1.0000
  O  Te60      1.0  0.75790  0.61990  0.85006  1.0000
  Mg  Mg29      1.0  0.61124  0.68686  0.28613  1.0000
  Mg  Mg30      1.0  0.75815  0.53745  0.75889  1.0000
  C  Sn61      1.0  0.29550  0.39379  0.89227  1.0000
  C   C91       1.0  0.28847  0.34563  0.98393  1.0000
  C  Sn62      1.0  0.31491  0.33597  0.10271  1.0000
  C  Sn63      1.0  0.34776  0.38117  0.13052  1.0000
  C   C92       1.0  0.35477  0.42930  0.03890  1.0000
  C  Sn64      1.0  0.32834  0.43900  0.92007  1.0000
  O  Te61      1.0  0.26997  0.39678  0.77416  1.0000
  O  Te62      1.0  0.30729  0.28738  0.19279  1.0000
  O  Te63      1.0  0.37329  0.37814  0.24874  1.0000
  O  Te64      1.0  0.33595  0.48755  0.83004  1.0000
  Mg  Mg31      1.0  0.35055  0.30324  0.34007  1.0000
  Mg  Mg32      1.0  0.29269  0.47175  0.68278  1.0000
