data_image0
_chemical_formula_structural       Zn2H56C108S8N16C2Sn2C2HTe2HMgC2Sn2C2HTe2HMgC2Sn2C2HTe2HMgC2Sn2C2HTe2HMgC2Sn2C2HTe2HMgC2Sn2C2HTe2HMgC2Sn2C2HTe2HMgC2Sn2C2HTe2HMg
_chemical_formula_sum              "Zn2 H72 C140 S8 N16 Sn16 Te16 Mg8"
_cell_length_a       30.2891
_cell_length_b       21.5617
_cell_length_c       9.79808
_cell_angle_alpha    90.7262
_cell_angle_beta     89.7716
_cell_angle_gamma    89.9298

_symmetry_space_group_name_H-M    'P1'
_space_group_IT_number       1

loop_
  _space_group_symop_operation_xyz
  'x, y, z'

loop_
  _atom_site_type_symbol
  _atom_site_label
  _atom_site_symmetry_multiplicity
  _atom_site_fract_x
  _atom_site_fract_y
  _atom_site_fract_z
  _atom_site_occupancy
  Zn  Zn1       1.0  0.00066  0.99863  0.00985  1.0000
  Zn  Zn2       1.0  0.99913  0.00085  0.49678  1.0000
  H   H1        1.0  0.16854  0.05826  0.48794  1.0000
  H   H2        1.0  0.83011  0.94303  0.46492  1.0000
  H   H3        1.0  0.83227  0.06227  0.03848  1.0000
  H   H4        1.0  0.16855  0.93497  0.00861  1.0000
  H   H5        1.0  0.04347  0.76054  0.00918  1.0000
  H   H6        1.0  0.95694  0.23686  0.01363  1.0000
  H   H7        1.0  0.95272  0.76412  0.46251  1.0000
  H   H8        1.0  0.04567  0.23751  0.51455  1.0000
  H   H9        1.0  0.90706  0.22069  0.36860  1.0000
  H   H10       1.0  0.90304  0.77987  0.13939  1.0000
  H   H11       1.0  0.14335  0.88086  0.21465  1.0000
  H   H12       1.0  0.85913  0.12838  0.22657  1.0000
  H   H13       1.0  0.14225  0.11984  0.28722  1.0000
  H   H14       1.0  0.84578  0.29651  0.38987  1.0000
  H   H15       1.0  0.84191  0.70509  0.10906  1.0000
  H   H16       1.0  0.20536  0.80615  0.23658  1.0000
  H   H17       1.0  0.79802  0.20470  0.24064  1.0000
  H   H18       1.0  0.20385  0.19440  0.26440  1.0000
  H   H19       1.0  0.24307  0.72464  0.38094  1.0000
  H   H20       1.0  0.75606  0.27122  0.37302  1.0000
  H   H21       1.0  0.75713  0.72553  0.12708  1.0000
  H   H22       1.0  0.24131  0.28081  0.13470  1.0000
  H   H23       1.0  0.74429  0.60112  0.35949  1.0000
  H   H24       1.0  0.25633  0.39521  0.36720  1.0000
  H   H25       1.0  0.31633  0.30664  0.19563  1.0000
  H   H26       1.0  0.68147  0.52729  0.34768  1.0000
  H   H27       1.0  0.31849  0.47023  0.35492  1.0000
  H   H28       1.0  0.38122  0.37604  0.17899  1.0000
  H   H29       1.0  0.16938  0.05864  0.99662  1.0000
  H   H30       1.0  0.83172  0.93799  0.02505  1.0000
  H   H31       1.0  0.83164  0.06694  0.48479  1.0000
  H   H32       1.0  0.16691  0.93397  0.49629  1.0000
  H   H33       1.0  0.04024  0.76156  0.49909  1.0000
  H   H34       1.0  0.95787  0.23784  0.54897  1.0000
  H   H35       1.0  0.95596  0.76145  0.97322  1.0000
  H   H36       1.0  0.04477  0.23573  0.97864  1.0000
  H   H37       1.0  0.09836  0.78228  0.85768  1.0000
  H   H38       1.0  0.90200  0.20818  0.84875  1.0000
  H   H39       1.0  0.10178  0.21082  0.66030  1.0000
  H   H40       1.0  0.85295  0.11742  0.70227  1.0000
  H   H41       1.0  0.85444  0.88549  0.80221  1.0000
  H   H42       1.0  0.15914  0.70613  0.88301  1.0000
  H   H43       1.0  0.84180  0.28562  0.86482  1.0000
  H   H44       1.0  0.16279  0.28594  0.63640  1.0000
  H   H45       1.0  0.79088  0.19211  0.72055  1.0000
  H   H46       1.0  0.79328  0.81053  0.77167  1.0000
  H   H47       1.0  0.24340  0.72488  0.87619  1.0000
  H   H48       1.0  0.76057  0.27986  0.86167  1.0000
  H   H49       1.0  0.75577  0.72635  0.62781  1.0000
  H   H50       1.0  0.24752  0.26925  0.62816  1.0000
  H   H51       1.0  0.25576  0.39908  0.85750  1.0000
  H   H52       1.0  0.68041  0.69841  0.69168  1.0000
  H   H53       1.0  0.32321  0.29816  0.68698  1.0000
  H   H54       1.0  0.31991  0.47122  0.84552  1.0000
  H   H55       1.0  0.61629  0.62710  0.67444  1.0000
  H   H56       1.0  0.38588  0.37162  0.67207  1.0000
  C   C1        1.0  0.13981  0.02857  0.49080  1.0000
  C   C2        1.0  0.85882  0.97250  0.47473  1.0000
  C   C3        1.0  0.86044  0.03157  0.03078  1.0000
  C   C4        1.0  0.14037  0.96575  0.00816  1.0000
  C   C5        1.0  0.39411  0.46882  0.00318  1.0000
  C   C6        1.0  0.60580  0.53144  0.01393  1.0000
  C   C7        1.0  0.60579  0.46788  0.48587  1.0000
  C   C8        1.0  0.39400  0.53155  0.49254  1.0000
  C   C9        1.0  0.08157  0.11268  0.48984  1.0000
  C   C10       1.0  0.91714  0.88839  0.47173  1.0000
  C   C11       1.0  0.92000  0.11365  0.02639  1.0000
  C   C12       1.0  0.08072  0.88425  0.02002  1.0000
  C   C13       1.0  0.09452  0.04967  0.49013  1.0000
  C   C14       1.0  0.90403  0.95126  0.47750  1.0000
  C   C15       1.0  0.90601  0.05113  0.02611  1.0000
  C   C16       1.0  0.09475  0.94660  0.01398  1.0000
  C   C17       1.0  0.02213  0.80068  0.00390  1.0000
  C   C18       1.0  0.97848  0.19682  0.00823  1.0000
  C   C19       1.0  0.97462  0.80331  0.47600  1.0000
  C   C20       1.0  0.02401  0.19772  0.51640  1.0000
  C   C21       1.0  0.03639  0.86454  0.01153  1.0000
  C   C22       1.0  0.96432  0.13299  0.01567  1.0000
  C   C23       1.0  0.96122  0.86764  0.47876  1.0000
  C   C24       1.0  0.03756  0.13361  0.50306  1.0000
  C   C25       1.0  0.11606  0.83693  0.03487  1.0000
  C   C26       1.0  0.88490  0.16202  0.03594  1.0000
  C   C27       1.0  0.11737  0.15944  0.47591  1.0000
  C   C28       1.0  0.88236  0.21514  0.44839  1.0000
  C   C29       1.0  0.87950  0.78644  0.05732  1.0000
  C   C30       1.0  0.14706  0.84294  0.14109  1.0000
  C   C31       1.0  0.85491  0.16217  0.14611  1.0000
  C   C32       1.0  0.14704  0.15571  0.36490  1.0000
  C   C33       1.0  0.84764  0.25746  0.45884  1.0000
  C   C34       1.0  0.84476  0.74463  0.04172  1.0000
  C   C35       1.0  0.18168  0.80111  0.15416  1.0000
  C   C36       1.0  0.82075  0.20514  0.15461  1.0000
  C   C37       1.0  0.18157  0.19768  0.35141  1.0000
  C   C38       1.0  0.18669  0.75170  0.06052  1.0000
  C   C39       1.0  0.81493  0.24959  0.05237  1.0000
  C   C40       1.0  0.18809  0.24477  0.44981  1.0000
  C   C41       1.0  0.24561  0.69862  0.47655  1.0000
  C   C42       1.0  0.75275  0.29894  0.46757  1.0000
  C   C43       1.0  0.75213  0.70147  0.02867  1.0000
  C   C44       1.0  0.24569  0.30301  0.03493  1.0000
  C   C45       1.0  0.28199  0.34756  0.02612  1.0000
  C   C46       1.0  0.71643  0.60594  0.42917  1.0000
  C   C47       1.0  0.28462  0.39091  0.43442  1.0000
  C   C48       1.0  0.31747  0.34195  0.11723  1.0000
  C   C49       1.0  0.68118  0.56509  0.42204  1.0000
  C   C50       1.0  0.31936  0.43265  0.42770  1.0000
  C   C51       1.0  0.35396  0.38079  0.10781  1.0000
  C   C52       1.0  0.35526  0.42810  0.01005  1.0000
  C   C53       1.0  0.47780  0.49919  0.00554  1.0000
  C   C54       1.0  0.52266  0.49882  0.01127  1.0000
  C   C55       1.0  0.14071  0.02894  0.00084  1.0000
  C   C56       1.0  0.86017  0.96824  0.02252  1.0000
  C   C57       1.0  0.85961  0.03572  0.48581  1.0000
  C   C58       1.0  0.13900  0.96528  0.49633  1.0000
  C   C59       1.0  0.39441  0.46839  0.50224  1.0000
  C   C60       1.0  0.60591  0.53110  0.49821  1.0000
  C   C61       1.0  0.60615  0.46838  0.99907  1.0000
  C   C62       1.0  0.39477  0.53193  0.99384  1.0000
  C   C63       1.0  0.08168  0.11187  0.98959  1.0000
  C   C64       1.0  0.91895  0.88564  0.99283  1.0000
  C   C65       1.0  0.91985  0.11569  0.51857  1.0000
  C   C66       1.0  0.07866  0.88466  0.50868  1.0000
  C   C67       1.0  0.09529  0.04936  0.99845  1.0000
  C   C68       1.0  0.90555  0.94817  0.00937  1.0000
  C   C69       1.0  0.90532  0.05396  0.49953  1.0000
  C   C70       1.0  0.09319  0.94680  0.50168  1.0000
  C   C71       1.0  0.01936  0.80213  0.49317  1.0000
  C   C72       1.0  0.97914  0.19812  0.53235  1.0000
  C   C73       1.0  0.97735  0.80115  0.98712  1.0000
  C   C74       1.0  0.02331  0.19621  0.99192  1.0000
  C   C75       1.0  0.03416  0.86581  0.49949  1.0000
  C   C76       1.0  0.96441  0.13463  0.52103  1.0000
  C   C77       1.0  0.96328  0.86524  0.99328  1.0000
  C   C78       1.0  0.03737  0.13216  0.99593  1.0000
  C   C79       1.0  0.88473  0.16349  0.53415  1.0000
  C   C80       1.0  0.88331  0.83880  0.97398  1.0000
  C   C81       1.0  0.12093  0.78669  0.94322  1.0000
  C   C82       1.0  0.87973  0.20778  0.93610  1.0000
  C   C83       1.0  0.12353  0.20759  0.57195  1.0000
  C   C84       1.0  0.85124  0.15635  0.63286  1.0000
  C   C85       1.0  0.85153  0.84634  0.87064  1.0000
  C   C86       1.0  0.15552  0.74445  0.95562  1.0000
  C   C87       1.0  0.84547  0.25101  0.94386  1.0000
  C   C88       1.0  0.15825  0.24957  0.55978  1.0000
  C   C89       1.0  0.81652  0.19835  0.64406  1.0000
  C   C90       1.0  0.81710  0.80436  0.85313  1.0000
  C   C91       1.0  0.81394  0.24904  0.55575  1.0000
  C   C92       1.0  0.81251  0.75371  0.94103  1.0000
  C   C93       1.0  0.24773  0.70021  0.97289  1.0000
  C   C94       1.0  0.75546  0.30336  0.96088  1.0000
  C   C95       1.0  0.75227  0.70026  0.53126  1.0000
  C   C96       1.0  0.24987  0.29602  0.53352  1.0000
  C   C97       1.0  0.71635  0.65507  0.52521  1.0000
  C   C98       1.0  0.28562  0.34150  0.52702  1.0000
  C   C99       1.0  0.28322  0.39478  0.92808  1.0000
  C   C100      1.0  0.68022  0.66155  0.61474  1.0000
  C   C101      1.0  0.32234  0.33548  0.61325  1.0000
  C   C102      1.0  0.31910  0.43474  0.92105  1.0000
  C   C103      1.0  0.64425  0.62160  0.60520  1.0000
  C   C104      1.0  0.35762  0.37662  0.60486  1.0000
  C   C105      1.0  0.64432  0.57247  0.50913  1.0000
  C   C106      1.0  0.35654  0.42611  0.51242  1.0000
  C   C107      1.0  0.47760  0.50041  0.48589  1.0000
  C   C108      1.0  0.52251  0.50058  0.48444  1.0000
  S   S1        1.0  0.44560  0.56848  0.47764  1.0000
  S   S2        1.0  0.55383  0.43185  0.47111  1.0000
  S   S3        1.0  0.55377  0.56731  0.03065  1.0000
  S   S4        1.0  0.44567  0.43120  0.01131  1.0000
  S   S5        1.0  0.44672  0.56824  0.99753  1.0000
  S   S6        1.0  0.55470  0.43051  0.00479  1.0000
  S   S7        1.0  0.55441  0.56886  0.49173  1.0000
  S   S8        1.0  0.44626  0.43167  0.49213  1.0000
  N   N1        1.0  0.22222  0.71050  0.07670  1.0000
  N   N2        1.0  0.77954  0.29145  0.06605  1.0000
  N   N3        1.0  0.77748  0.71040  0.42726  1.0000
  N   N4        1.0  0.22316  0.28670  0.43282  1.0000
  N   N5        1.0  0.06787  0.99831  0.00751  1.0000
  N   N6        1.0  0.93298  0.99943  0.01448  1.0000
  N   N7        1.0  0.99995  0.90309  0.00565  1.0000
  N   N8        1.0  0.00079  0.09436  0.00911  1.0000
  N   N9        1.0  0.21858  0.70838  0.57698  1.0000
  N   N10       1.0  0.77870  0.29119  0.57010  1.0000
  N   N11       1.0  0.77668  0.71288  0.92372  1.0000
  N   N12       1.0  0.22141  0.28866  0.93113  1.0000
  N   N13       1.0  0.06667  0.99897  0.49632  1.0000
  N   N14       1.0  0.93182  0.00181  0.49177  1.0000
  N   N15       1.0  0.99810  0.90500  0.49134  1.0000
  N   N16       1.0  0.00061  0.09601  0.50628  1.0000
  C   C109      1.0  0.82201  0.81434  0.33081  1.0000
  C   C110      1.0  0.81391  0.76240  0.41096  1.0000
  C  Sn1       1.0  0.84000  0.75077  0.52512  1.0000
  C  Sn2       1.0  0.87481  0.79201  0.55944  1.0000
  C   C111      1.0  0.88263  0.84387  0.47865  1.0000
  C   C112      1.0  0.85633  0.85505  0.36461  1.0000
  H   H57       1.0  0.80165  0.82302  0.24261  1.0000
  O  Te1       1.0  0.83146  0.69864  0.60406  1.0000
  O  Te2       1.0  0.90138  0.78151  0.67301  1.0000
  H   H58       1.0  0.86260  0.89530  0.30263  1.0000
  Mg  Mg1       1.0  0.87677  0.70416  0.74890  1.0000
  C   C113      1.0  0.64995  0.36171  0.37244  1.0000
  C   C114      1.0  0.64175  0.41083  0.46348  1.0000
  C  Sn3       1.0  0.67357  0.42828  0.55936  1.0000
  C  Sn4       1.0  0.71432  0.39587  0.56390  1.0000
  C   C115      1.0  0.72222  0.34682  0.47232  1.0000
  C   C116      1.0  0.69014  0.32973  0.37682  1.0000
  H   H59       1.0  0.62514  0.34850  0.29850  1.0000
  O  Te3       1.0  0.66483  0.47745  0.64960  1.0000
  O  Te4       1.0  0.74671  0.41236  0.65866  1.0000
  H   H60       1.0  0.69651  0.29172  0.30629  1.0000
  Mg  Mg2       1.0  0.71933  0.48255  0.76023  1.0000
  C   C117      1.0  0.14315  0.74859  0.43106  1.0000
  C   C118      1.0  0.17730  0.74858  0.52655  1.0000
  C  Sn5       1.0  0.17832  0.79324  0.63106  1.0000
  C  Sn6       1.0  0.14446  0.83867  0.63990  1.0000
  C   C119      1.0  0.11043  0.83825  0.54393  1.0000
  C   C120      1.0  0.10974  0.79336  0.43973  1.0000
  H   H61       1.0  0.14261  0.71384  0.35048  1.0000
  O  Te5       1.0  0.21268  0.79258  0.72558  1.0000
  O  Te6       1.0  0.14466  0.88382  0.74335  1.0000
  H   H62       1.0  0.08328  0.79335  0.36587  1.0000
  Mg  Mg3       1.0  0.19850  0.86373  0.84797  1.0000
  C   C121      1.0  0.67226  0.34595  0.86352  1.0000
  C   C122      1.0  0.71155  0.34742  0.93777  1.0000
  C  Sn7       1.0  0.71795  0.38368  0.04627  1.0000
  C  Sn8       1.0  0.68300  0.42492  0.08084  1.0000
  C   C123      1.0  0.64381  0.42306  0.00598  1.0000
  C   C124      1.0  0.63777  0.38660  0.89758  1.0000
  H   H63       1.0  0.66858  0.31326  0.77969  1.0000
  O  Te7       1.0  0.75742  0.38455  0.11936  1.0000
  O  Te8       1.0  0.68721  0.46737  0.18883  1.0000
  H   H64       1.0  0.60734  0.38544  0.84016  1.0000
  Mg  Mg4       1.0  0.74737  0.45081  0.25791  1.0000
  C   C125      1.0  0.33166  0.65885  0.87607  1.0000
  C   C126      1.0  0.29169  0.65676  0.94759  1.0000
  C  Sn9       1.0  0.28661  0.60732  0.04991  1.0000
  C  Sn10      1.0  0.32095  0.56504  0.08100  1.0000
  C   C127      1.0  0.36082  0.56754  0.00892  1.0000
  C   C128      1.0  0.36555  0.61718  0.90670  1.0000
  H   H65       1.0  0.33633  0.69282  0.79703  1.0000
  O  Te9       1.0  0.24647  0.60585  0.12034  1.0000
  O  Te10      1.0  0.31546  0.52093  0.18281  1.0000
  H   H66       1.0  0.39651  0.61882  0.85140  1.0000
  Mg  Mg5       1.0  0.25480  0.53724  0.25032  1.0000
  C   C129      1.0  0.12677  0.22360  0.07953  1.0000
  C   C130      1.0  0.11460  0.17937  0.99400  1.0000
  C  Sn11      1.0  0.14142  0.16416  0.88212  1.0000
  C  Sn12      1.0  0.17982  0.19973  0.85567  1.0000
  C   C131      1.0  0.19043  0.24963  0.94190  1.0000
  C   C132      1.0  0.16465  0.25870  0.05354  1.0000
  H   H67       1.0  0.10584  0.23506  0.16595  1.0000
  O  Te11      1.0  0.13006  0.11408  0.79768  1.0000
  O  Te12      1.0  0.20721  0.18553  0.74459  1.0000
  H   H68       1.0  0.17309  0.29739  0.11979  1.0000
  Mg  Mg6       1.0  0.17782  0.11295  0.65900  1.0000
  C   C133      1.0  0.30932  0.57174  0.59797  1.0000
  C   C134      1.0  0.34529  0.56724  0.50862  1.0000
  C  Sn13      1.0  0.35065  0.61036  0.40464  1.0000
  C  Sn14      1.0  0.31937  0.65885  0.39012  1.0000
  C   C135      1.0  0.28352  0.66298  0.48010  1.0000
  C   C136      1.0  0.27846  0.61956  0.58376  1.0000
  H   H69       1.0  0.30541  0.53817  0.67822  1.0000
  O  Te13      1.0  0.38677  0.60517  0.31622  1.0000
  O  Te14      1.0  0.32394  0.70259  0.28713  1.0000
  H   H70       1.0  0.25062  0.62308  0.65298  1.0000
  Mg  Mg7       1.0  0.37868  0.67598  0.19189  1.0000
  C   C137      1.0  0.65166  0.63403  0.13552  1.0000
  C   C138      1.0  0.64160  0.58859  0.03757  1.0000
  C  Sn15      1.0  0.67007  0.58083  0.93199  1.0000
  C  Sn16      1.0  0.71064  0.61347  0.92463  1.0000
  C   C139      1.0  0.72171  0.65305  0.02317  1.0000
  C   C140      1.0  0.69168  0.66622  0.12836  1.0000
  H   H71       1.0  0.62845  0.64420  0.21695  1.0000
  O  Te15      1.0  0.65948  0.53532  0.83495  1.0000
  O  Te16      1.0  0.74099  0.60087  0.82023  1.0000
  H   H72       1.0  0.69949  0.70138  0.20423  1.0000
  Mg  Mg8       1.0  0.71157  0.53478  0.71205  1.0000
