data_image0
_chemical_formula_structural       Zn2H56C108S8N16SnCSn2CSnTe4Mg2SnCSn2CSnTe4Mg2SnCSn2CSnTe4Mg2SnCSn2CSnTe4Mg2SnCSn2CSnTe4Mg2SnCSn2CSnTe4Mg2SnCSn2CSnTe4Mg2SnCSn2CSnTe4Mg2
_chemical_formula_sum              "Zn2 H56 C124 S8 N16 Sn32 Te32 Mg16"
_cell_length_a       30.2891
_cell_length_b       21.5617
_cell_length_c       9.79808
_cell_angle_alpha    90.7262
_cell_angle_beta     89.7716
_cell_angle_gamma    89.9298

_symmetry_space_group_name_H-M    'P1'
_space_group_IT_number       1

loop_
  _space_group_symop_operation_xyz
  'x, y, z'

loop_
  _atom_site_type_symbol
  _atom_site_label
  _atom_site_symmetry_multiplicity
  _atom_site_fract_x
  _atom_site_fract_y
  _atom_site_fract_z
  _atom_site_occupancy
  Zn  Zn1       1.0  0.00066  0.99863  0.00985  1.0000
  Zn  Zn2       1.0  0.99913  0.00085  0.49678  1.0000
  H   H1        1.0  0.16854  0.05826  0.48794  1.0000
  H   H2        1.0  0.83011  0.94303  0.46492  1.0000
  H   H3        1.0  0.83227  0.06227  0.03848  1.0000
  H   H4        1.0  0.16855  0.93497  0.00861  1.0000
  H   H5        1.0  0.04347  0.76054  0.00918  1.0000
  H   H6        1.0  0.95694  0.23686  0.01363  1.0000
  H   H7        1.0  0.95272  0.76412  0.46251  1.0000
  H   H8        1.0  0.04567  0.23751  0.51455  1.0000
  H   H9        1.0  0.90706  0.22069  0.36860  1.0000
  H   H10       1.0  0.90304  0.77987  0.13939  1.0000
  H   H11       1.0  0.09710  0.21471  0.14813  1.0000
  H   H12       1.0  0.85453  0.87789  0.27520  1.0000
  H   H13       1.0  0.84578  0.29651  0.38987  1.0000
  H   H14       1.0  0.84191  0.70509  0.10906  1.0000
  H   H15       1.0  0.15731  0.29171  0.12456  1.0000
  H   H16       1.0  0.79395  0.80108  0.25876  1.0000
  H   H17       1.0  0.24307  0.72464  0.38094  1.0000
  H   H18       1.0  0.75606  0.27122  0.37302  1.0000
  H   H19       1.0  0.75713  0.72553  0.12708  1.0000
  H   H20       1.0  0.24131  0.28081  0.13470  1.0000
  H   H21       1.0  0.25633  0.39521  0.36720  1.0000
  H   H22       1.0  0.31635  0.69706  0.31418  1.0000
  H   H23       1.0  0.68046  0.29597  0.31243  1.0000
  H   H24       1.0  0.68310  0.69748  0.20117  1.0000
  H   H25       1.0  0.31849  0.47023  0.35492  1.0000
  H   H26       1.0  0.38119  0.62732  0.32390  1.0000
  H   H27       1.0  0.61633  0.36774  0.32232  1.0000
  H   H28       1.0  0.61907  0.62601  0.19132  1.0000
  H   H29       1.0  0.16938  0.05864  0.99662  1.0000
  H   H30       1.0  0.83172  0.93799  0.02505  1.0000
  H   H31       1.0  0.83164  0.06694  0.48479  1.0000
  H   H32       1.0  0.16691  0.93397  0.49629  1.0000
  H   H33       1.0  0.04024  0.76156  0.49909  1.0000
  H   H34       1.0  0.95787  0.23784  0.54897  1.0000
  H   H35       1.0  0.95596  0.76145  0.97322  1.0000
  H   H36       1.0  0.04477  0.23573  0.97864  1.0000
  H   H37       1.0  0.90023  0.79120  0.64141  1.0000
  H   H38       1.0  0.85295  0.11742  0.70227  1.0000
  H   H39       1.0  0.85444  0.88549  0.80221  1.0000
  H   H40       1.0  0.14630  0.11493  0.79675  1.0000
  H   H41       1.0  0.83990  0.71426  0.62439  1.0000
  H   H42       1.0  0.79088  0.19211  0.72055  1.0000
  H   H43       1.0  0.79328  0.81053  0.77167  1.0000
  H   H44       1.0  0.20713  0.19102  0.77506  1.0000
  H   H45       1.0  0.24340  0.72488  0.87619  1.0000
  H   H46       1.0  0.76057  0.27986  0.86167  1.0000
  H   H47       1.0  0.75577  0.72635  0.62781  1.0000
  H   H48       1.0  0.24752  0.26925  0.62816  1.0000
  H   H49       1.0  0.25664  0.60128  0.65014  1.0000
  H   H50       1.0  0.74421  0.40068  0.63115  1.0000
  H   H51       1.0  0.74030  0.60575  0.84999  1.0000
  H   H52       1.0  0.32321  0.29816  0.68698  1.0000
  H   H53       1.0  0.32070  0.52870  0.65484  1.0000
  H   H54       1.0  0.68070  0.47403  0.63916  1.0000
  H   H55       1.0  0.67800  0.53035  0.84755  1.0000
  H   H56       1.0  0.38588  0.37162  0.67207  1.0000
  C   C1        1.0  0.13981  0.02857  0.49080  1.0000
  C   C2        1.0  0.85882  0.97250  0.47473  1.0000
  C   C3        1.0  0.86044  0.03157  0.03078  1.0000
  C   C4        1.0  0.14037  0.96575  0.00816  1.0000
  C   C5        1.0  0.39411  0.46882  0.00318  1.0000
  C   C6        1.0  0.60580  0.53144  0.01393  1.0000
  C   C7        1.0  0.60579  0.46788  0.48587  1.0000
  C   C8        1.0  0.39400  0.53155  0.49254  1.0000
  C   C9        1.0  0.08157  0.11268  0.48984  1.0000
  C   C10       1.0  0.91714  0.88839  0.47173  1.0000
  C   C11       1.0  0.92000  0.11365  0.02639  1.0000
  C   C12       1.0  0.08072  0.88425  0.02002  1.0000
  C   C13       1.0  0.09452  0.04967  0.49013  1.0000
  C   C14       1.0  0.90403  0.95126  0.47750  1.0000
  C   C15       1.0  0.90601  0.05113  0.02611  1.0000
  C   C16       1.0  0.09475  0.94660  0.01398  1.0000
  C   C17       1.0  0.02213  0.80068  0.00390  1.0000
  C   C18       1.0  0.97848  0.19682  0.00823  1.0000
  C   C19       1.0  0.97462  0.80331  0.47600  1.0000
  C   C20       1.0  0.02401  0.19772  0.51640  1.0000
  C   C21       1.0  0.03639  0.86454  0.01153  1.0000
  C   C22       1.0  0.96432  0.13299  0.01567  1.0000
  C   C23       1.0  0.96122  0.86764  0.47876  1.0000
  C   C24       1.0  0.03756  0.13361  0.50306  1.0000
  C   C25       1.0  0.88162  0.84095  0.46058  1.0000
  C   C26       1.0  0.88236  0.21514  0.44839  1.0000
  C   C27       1.0  0.87950  0.78644  0.05732  1.0000
  C   C28       1.0  0.12064  0.21009  0.06455  1.0000
  C   C29       1.0  0.85088  0.84283  0.35332  1.0000
  C   C30       1.0  0.84764  0.25746  0.45884  1.0000
  C   C31       1.0  0.84476  0.74463  0.04172  1.0000
  C   C32       1.0  0.15475  0.25306  0.05256  1.0000
  C   C33       1.0  0.81701  0.79958  0.34328  1.0000
  C   C34       1.0  0.81213  0.75324  0.44176  1.0000
  C   C35       1.0  0.24561  0.69862  0.47655  1.0000
  C   C36       1.0  0.75275  0.29894  0.46757  1.0000
  C   C37       1.0  0.75213  0.70147  0.02867  1.0000
  C   C38       1.0  0.24569  0.30301  0.03493  1.0000
  C   C39       1.0  0.28226  0.65443  0.48274  1.0000
  C   C40       1.0  0.71639  0.34350  0.47188  1.0000
  C   C41       1.0  0.71567  0.65702  0.02435  1.0000
  C   C42       1.0  0.28462  0.39091  0.43442  1.0000
  C   C43       1.0  0.31769  0.66098  0.39082  1.0000
  C   C44       1.0  0.68019  0.33472  0.38470  1.0000
  C   C45       1.0  0.68139  0.66198  0.12124  1.0000
  C   C46       1.0  0.31936  0.43265  0.42770  1.0000
  C   C47       1.0  0.35410  0.62172  0.39597  1.0000
  C   C48       1.0  0.64415  0.37472  0.39077  1.0000
  C   C49       1.0  0.64550  0.62175  0.11612  1.0000
  C   C50       1.0  0.35548  0.57302  0.49035  1.0000
  C   C51       1.0  0.64399  0.42591  0.48171  1.0000
  C   C52       1.0  0.64391  0.57356  0.01775  1.0000
  C   C53       1.0  0.47780  0.49919  0.00554  1.0000
  C   C54       1.0  0.52266  0.49882  0.01127  1.0000
  C   C55       1.0  0.14071  0.02894  0.00084  1.0000
  C   C56       1.0  0.86017  0.96824  0.02252  1.0000
  C   C57       1.0  0.85961  0.03572  0.48581  1.0000
  C   C58       1.0  0.13900  0.96528  0.49633  1.0000
  C   C59       1.0  0.39441  0.46839  0.50224  1.0000
  C   C60       1.0  0.60591  0.53110  0.49821  1.0000
  C   C61       1.0  0.60615  0.46838  0.99907  1.0000
  C   C62       1.0  0.39477  0.53193  0.99384  1.0000
  C   C63       1.0  0.08168  0.11187  0.98959  1.0000
  C   C64       1.0  0.91895  0.88564  0.99283  1.0000
  C   C65       1.0  0.91985  0.11569  0.51857  1.0000
  C   C66       1.0  0.07866  0.88466  0.50868  1.0000
  C   C67       1.0  0.09529  0.04936  0.99845  1.0000
  C   C68       1.0  0.90555  0.94817  0.00937  1.0000
  C   C69       1.0  0.90532  0.05396  0.49953  1.0000
  C   C70       1.0  0.09319  0.94680  0.50168  1.0000
  C   C71       1.0  0.01936  0.80213  0.49317  1.0000
  C   C72       1.0  0.97914  0.19812  0.53235  1.0000
  C   C73       1.0  0.97735  0.80115  0.98712  1.0000
  C   C74       1.0  0.02331  0.19621  0.99192  1.0000
  C   C75       1.0  0.03416  0.86581  0.49949  1.0000
  C   C76       1.0  0.96441  0.13463  0.52103  1.0000
  C   C77       1.0  0.96328  0.86524  0.99328  1.0000
  C   C78       1.0  0.03737  0.13216  0.99593  1.0000
  C   C79       1.0  0.88473  0.16349  0.53415  1.0000
  C   C80       1.0  0.88331  0.83880  0.97398  1.0000
  C   C81       1.0  0.11707  0.15909  0.97438  1.0000
  C   C82       1.0  0.87719  0.79342  0.55676  1.0000
  C   C83       1.0  0.85124  0.15635  0.63286  1.0000
  C   C84       1.0  0.85153  0.84634  0.87064  1.0000
  C   C85       1.0  0.14897  0.15312  0.86995  1.0000
  C   C86       1.0  0.84306  0.75024  0.54811  1.0000
  C   C87       1.0  0.81652  0.19835  0.64406  1.0000
  C   C88       1.0  0.81710  0.80436  0.85313  1.0000
  C   C89       1.0  0.18301  0.19588  0.85696  1.0000
  C   C90       1.0  0.81394  0.24904  0.55575  1.0000
  C   C91       1.0  0.81251  0.75371  0.94103  1.0000
  C   C92       1.0  0.18672  0.24617  0.94897  1.0000
  C   C93       1.0  0.24773  0.70021  0.97289  1.0000
  C   C94       1.0  0.75546  0.30336  0.96088  1.0000
  C   C95       1.0  0.75227  0.70026  0.53126  1.0000
  C   C96       1.0  0.24987  0.29602  0.53352  1.0000
  C   C97       1.0  0.28562  0.34150  0.52702  1.0000
  C   C98       1.0  0.28382  0.60612  0.57817  1.0000
  C   C99       1.0  0.71622  0.39439  0.56328  1.0000
  C   C100      1.0  0.71390  0.60918  0.92531  1.0000
  C   C101      1.0  0.32234  0.33548  0.61325  1.0000
  C   C102      1.0  0.31962  0.56584  0.58100  1.0000
  C   C103      1.0  0.68070  0.43503  0.56782  1.0000
  C   C104      1.0  0.67894  0.56760  0.92324  1.0000
  C   C105      1.0  0.35762  0.37662  0.60486  1.0000
  C   C106      1.0  0.35654  0.42611  0.51242  1.0000
  C   C107      1.0  0.47760  0.50041  0.48589  1.0000
  C   C108      1.0  0.52251  0.50058  0.48444  1.0000
  S   S1        1.0  0.44560  0.56848  0.47764  1.0000
  S   S2        1.0  0.55383  0.43185  0.47111  1.0000
  S   S3        1.0  0.55377  0.56731  0.03065  1.0000
  S   S4        1.0  0.44567  0.43120  0.01131  1.0000
  S   S5        1.0  0.44672  0.56824  0.99753  1.0000
  S   S6        1.0  0.55470  0.43051  0.00479  1.0000
  S   S7        1.0  0.55441  0.56886  0.49173  1.0000
  S   S8        1.0  0.44626  0.43167  0.49213  1.0000
  N   N1        1.0  0.22222  0.71050  0.07670  1.0000
  N   N2        1.0  0.77954  0.29145  0.06605  1.0000
  N   N3        1.0  0.77748  0.71040  0.42726  1.0000
  N   N4        1.0  0.22316  0.28670  0.43282  1.0000
  N   N5        1.0  0.06787  0.99831  0.00751  1.0000
  N   N6        1.0  0.93298  0.99943  0.01448  1.0000
  N   N7        1.0  0.99995  0.90309  0.00565  1.0000
  N   N8        1.0  0.00079  0.09436  0.00911  1.0000
  N   N9        1.0  0.21858  0.70838  0.57698  1.0000
  N   N10       1.0  0.77870  0.29119  0.57010  1.0000
  N   N11       1.0  0.77668  0.71288  0.92372  1.0000
  N   N12       1.0  0.22141  0.28866  0.93113  1.0000
  N   N13       1.0  0.06667  0.99897  0.49632  1.0000
  N   N14       1.0  0.93182  0.00181  0.49177  1.0000
  N   N15       1.0  0.99810  0.90500  0.49134  1.0000
  N   N16       1.0  0.00061  0.09601  0.50628  1.0000
  C  Sn1       1.0  0.83877  0.15763  0.13500  1.0000
  C   C109      1.0  0.87197  0.15274  0.03595  1.0000
  C  Sn2       1.0  0.87853  0.20726  0.94655  1.0000
  C  Sn3       1.0  0.85270  0.26205  0.95640  1.0000
  C   C110      1.0  0.82083  0.26116  0.05541  1.0000
  C  Sn4       1.0  0.81294  0.21242  0.14485  1.0000
  O  Te1       1.0  0.83149  0.10831  0.22331  1.0000
  O  Te2       1.0  0.91189  0.20129  0.84834  1.0000
  O  Te3       1.0  0.86001  0.31138  0.86798  1.0000
  O  Te4       1.0  0.77961  0.21837  0.24303  1.0000
  Mg  Mg1       1.0  0.90924  0.28120  0.75135  1.0000
  Mg  Mg2       1.0  0.78225  0.13851  0.34011  1.0000
  C  Sn5       1.0  0.29550  0.39379  0.89227  1.0000
  C   C111      1.0  0.28847  0.34563  0.98393  1.0000
  C  Sn6       1.0  0.31491  0.33597  0.10271  1.0000
  C  Sn7       1.0  0.34776  0.38117  0.13052  1.0000
  C   C112      1.0  0.35477  0.42930  0.03890  1.0000
  C  Sn8       1.0  0.32834  0.43900  0.92007  1.0000
  O  Te5       1.0  0.26997  0.39678  0.77416  1.0000
  O  Te6       1.0  0.30729  0.28738  0.19279  1.0000
  O  Te7       1.0  0.37329  0.37814  0.24874  1.0000
  O  Te8       1.0  0.33595  0.48755  0.83004  1.0000
  Mg  Mg3       1.0  0.35055  0.30324  0.34007  1.0000
  Mg  Mg4       1.0  0.29269  0.47175  0.68278  1.0000
  C  Sn9       1.0  0.16306  0.84711  0.12747  1.0000
  C   C113      1.0  0.12904  0.84647  0.03152  1.0000
  C  Sn10      1.0  0.11960  0.79905  0.95274  1.0000
  C  Sn11      1.0  0.14598  0.74537  0.97028  1.0000
  C   C114      1.0  0.18126  0.74026  0.06620  1.0000
  C  Sn12      1.0  0.18944  0.79343  0.14501  1.0000
  O  Te9       1.0  0.17062  0.90078  0.20511  1.0000
  O  Te10      1.0  0.08541  0.79954  0.85744  1.0000
  O  Te11      1.0  0.13839  0.69167  0.89253  1.0000
  O  Te12      1.0  0.22360  0.79295  0.24028  1.0000
  Mg  Mg5       1.0  0.08799  0.71511  0.77596  1.0000
  Mg  Mg6       1.0  0.22104  0.87734  0.32186  1.0000
  C  Sn13      1.0  0.32332  0.64456  0.85399  1.0000
  C   C115      1.0  0.28556  0.64550  0.93643  1.0000
  C  Sn14      1.0  0.28612  0.60776  0.05951  1.0000
  C  Sn15      1.0  0.32393  0.57416  0.10113  1.0000
  C   C116      1.0  0.36167  0.57324  0.01873  1.0000
  C  Sn16      1.0  0.36113  0.61096  0.89561  1.0000
  O  Te13      1.0  0.32331  0.67686  0.73136  1.0000
  O  Te14      1.0  0.24799  0.60937  0.14018  1.0000
  O  Te15      1.0  0.32391  0.54184  0.22387  1.0000
  O  Te16      1.0  0.39924  0.60937  0.81498  1.0000
  Mg  Mg7       1.0  0.26413  0.55803  0.29853  1.0000
  Mg  Mg8       1.0  0.38315  0.66072  0.65665  1.0000
  C  Sn17      1.0  0.67683  0.64395  0.64751  1.0000
  C   C117      1.0  0.71519  0.64429  0.56781  1.0000
  C  Sn18      1.0  0.71703  0.61099  0.44469  1.0000
  C  Sn19      1.0  0.67973  0.57666  0.40025  1.0000
  C   C118      1.0  0.64139  0.57633  0.47991  1.0000
  C  Sn20      1.0  0.63953  0.60961  0.60307  1.0000
  O  Te17      1.0  0.67573  0.67758  0.77024  1.0000
  O  Te18      1.0  0.75575  0.61202  0.36679  1.0000
  O  Te19      1.0  0.68085  0.54302  0.27741  1.0000
  O  Te20      1.0  0.60083  0.60860  0.68093  1.0000
  Mg  Mg9       1.0  0.74109  0.55886  0.20712  1.0000
  Mg  Mg10      1.0  0.61545  0.66177  0.84057  1.0000
  C  Sn21      1.0  0.69564  0.43908  0.06069  1.0000
  C   C119      1.0  0.65674  0.44543  0.97854  1.0000
  C  Sn22      1.0  0.64688  0.39468  0.89409  1.0000
  C  Sn23      1.0  0.67519  0.34222  0.89176  1.0000
  C   C120      1.0  0.71276  0.34164  0.97390  1.0000
  C  Sn24      1.0  0.72394  0.38662  0.05837  1.0000
  O  Te21      1.0  0.70485  0.49034  0.14434  1.0000
  O  Te22      1.0  0.60911  0.39635  0.81283  1.0000
  O  Te23      1.0  0.66595  0.29095  0.80802  1.0000
  O  Te24      1.0  0.76169  0.38496  0.13960  1.0000
  Mg  Mg11      1.0  0.61061  0.31522  0.71600  1.0000
  Mg  Mg12      1.0  0.76020  0.46605  0.23652  1.0000
  C  Sn25      1.0  0.11734  0.76457  0.45242  1.0000
  C   C121      1.0  0.10748  0.81663  0.53339  1.0000
  C  Sn26      1.0  0.13841  0.83976  0.62629  1.0000
  C  Sn27      1.0  0.18007  0.81028  0.63846  1.0000
  C   C122      1.0  0.18991  0.75827  0.55751  1.0000
  C  Sn28      1.0  0.15900  0.73509  0.46459  1.0000
  O  Te25      1.0  0.08593  0.74224  0.36021  1.0000
  O  Te26      1.0  0.12779  0.89185  0.70617  1.0000
  O  Te27      1.0  0.21149  0.83266  0.73076  1.0000
  O  Te28      1.0  0.16960  0.68304  0.38473  1.0000
  Mg  Mg13      1.0  0.18158  0.90490  0.81701  1.0000
  Mg  Mg14      1.0  0.11585  0.66998  0.27381  1.0000
  C  Sn29      1.0  0.12190  0.22989  0.55579  1.0000
  C   C123      1.0  0.11174  0.17926  0.47122  1.0000
  C  Sn30      1.0  0.14252  0.15711  0.37586  1.0000
  C  Sn31      1.0  0.18436  0.18614  0.36485  1.0000
  C   C124      1.0  0.19451  0.23673  0.44939  1.0000
  C  Sn32      1.0  0.16374  0.25892  0.54477  1.0000
  O  Te29      1.0  0.09062  0.25125  0.65040  1.0000
  O  Te30      1.0  0.13159  0.10644  0.29241  1.0000
  O  Te31      1.0  0.21564  0.16473  0.27013  1.0000
  O  Te32      1.0  0.17465  0.30955  0.62821  1.0000
  Mg  Mg15      1.0  0.18530  0.09431  0.17930  1.0000
  Mg  Mg16      1.0  0.12098  0.32170  0.74140  1.0000
