data_image0
_chemical_formula_structural       H120C180N24O24C2Sn2C2HTe2HMgC2Sn2C2HTe2HMgC2Sn2C2HTe2HMgC2Sn2C2HTe2HMgC2Sn2C2HTe2HMgC2Sn2C2HTe2HMgC2Sn2C2HTe2HMgC2Sn2C2HTe2HMgC2Sn2C2HTe2HMgC2Sn2C2HTe2HMgC2Sn2C2HTe2HMgC2Sn2C2HTe2HMgC2Sn2C2HTe2HMgC2Sn2C2HTe2HMgC2Sn2C2HTe2HMgC2Sn2C2HTe2HMgC2Sn2C2HTe2HMgC2Sn2C2HTe2HMgC2Sn2C2HTe2HMgC2Sn2C2HTe2HMgC2Sn2C2HTe2HMgC2Sn2C2HTe2HMgC2Sn2C2HTe2HMgC2Sn2C2HTe2HMg
_chemical_formula_sum              "H168 C276 N24 O24 Sn48 Te48 Mg24"
_cell_length_a       49.5333
_cell_length_b       49.6846
_cell_length_c       7.8538
_cell_angle_alpha    91.1046
_cell_angle_beta     114.609
_cell_angle_gamma    119.952

_symmetry_space_group_name_H-M    'P1'
_space_group_IT_number       1

loop_
  _space_group_symop_operation_xyz
  'x, y, z'

loop_
  _atom_site_type_symbol
  _atom_site_label
  _atom_site_symmetry_multiplicity
  _atom_site_fract_x
  _atom_site_fract_y
  _atom_site_fract_z
  _atom_site_occupancy
  H   H1        1.0  0.45178  0.49658  0.27667  1.0000
  H   H2        1.0  0.53003  0.97954  0.25351  1.0000
  H   H3        1.0  0.04485  0.57480  0.24890  1.0000
  H   H4        1.0  0.57123  0.54249  0.25749  1.0000
  H   H5        1.0  0.48203  0.05485  0.22853  1.0000
  H   H6        1.0  0.96858  0.45182  0.25125  1.0000
  H   H7        1.0  0.52713  0.50057  0.23764  1.0000
  H   H8        1.0  0.51665  0.04746  0.14099  1.0000
  H   H9        1.0  0.97458  0.49816  0.28800  1.0000
  H   H10       1.0  0.48762  0.53325  0.21946  1.0000
  H   H11       1.0  0.49645  0.98685  0.28563  1.0000
  H   H12       1.0  0.03552  0.52871  0.18896  1.0000
  H   H13       1.0  0.49973  0.44662  0.24084  1.0000
  H   H14       1.0  0.57329  0.07306  0.14930  1.0000
  H   H15       1.0  0.94716  0.52528  0.27347  1.0000
  H   H16       1.0  0.51333  0.58665  0.20482  1.0000
  H   H17       1.0  0.44221  0.95774  0.26434  1.0000
  H   H18       1.0  0.06356  0.50358  0.20236  1.0000
  H   H19       1.0  0.40207  0.39663  0.26712  1.0000
  H   H20       1.0  0.63025  0.02684  0.25937  1.0000
  H   H21       1.0  0.99501  0.62446  0.26623  1.0000
  H   H22       1.0  0.61934  0.64319  0.28105  1.0000
  H   H23       1.0  0.38297  0.99915  0.23782  1.0000
  H   H24       1.0  0.01919  0.40449  0.21252  1.0000
  H   H25       1.0  0.78607  0.26878  0.06980  1.0000
  H   H26       1.0  0.72822  0.53146  0.13806  1.0000
  H   H27       1.0  0.48352  0.22529  0.20163  1.0000
  H   H28       1.0  0.22806  0.74281  0.28328  1.0000
  H   H29       1.0  0.26700  0.49443  0.10699  1.0000
  H   H30       1.0  0.52490  0.80441  0.98545  1.0000
  H   H31       1.0  0.82723  0.20998  0.50153  1.0000
  H   H32       1.0  0.84518  0.63816  0.49950  1.0000
  H   H33       1.0  0.38784  0.21771  0.30707  1.0000
  H   H34       1.0  0.20987  0.83286  0.24295  1.0000
  H   H35       1.0  0.19719  0.40359  0.32342  1.0000
  H   H36       1.0  0.62418  0.81662  0.59597  1.0000
  H   H37       1.0  0.84431  0.30735  0.13686  1.0000
  H   H38       1.0  0.69898  0.55254  0.20292  1.0000
  H   H39       1.0  0.46188  0.17091  0.19471  1.0000
  H   H40       1.0  0.17407  0.70911  0.29461  1.0000
  H   H41       1.0  0.30765  0.47858  0.16587  1.0000
  H   H42       1.0  0.54775  0.86042  0.09066  1.0000
  H   H43       1.0  0.76664  0.17028  0.42706  1.0000
  H   H44       1.0  0.87445  0.61720  0.42877  1.0000
  H   H45       1.0  0.40951  0.27296  0.30805  1.0000
  H   H46       1.0  0.26415  0.86664  0.23892  1.0000
  H   H47       1.0  0.15754  0.42005  0.27248  1.0000
  H   H48       1.0  0.60255  0.76142  0.48839  1.0000
  H   H49       1.0  0.18963  0.48348  0.10270  1.0000
  H   H50       1.0  0.53033  0.73595  0.05089  1.0000
  H   H51       1.0  0.29170  0.81696  0.24614  1.0000
  H   H52       1.0  0.80646  0.53962  0.17432  1.0000
  H   H53       1.0  0.47835  0.29419  0.23062  1.0000
  H   H54       1.0  0.72126  0.19366  0.09005  1.0000
  H   H55       1.0  0.27638  0.41617  0.34503  1.0000
  H   H56       1.0  0.61765  0.88459  0.53759  1.0000
  H   H57       1.0  0.14519  0.75806  0.26773  1.0000
  H   H58       1.0  0.76682  0.62958  0.46522  1.0000
  H   H59       1.0  0.39339  0.14890  0.28113  1.0000
  H   H60       1.0  0.89140  0.28197  0.45157  1.0000
  H   H61       1.0  0.43420  0.46292  0.79241  1.0000
  H   H62       1.0  0.51646  0.94393  0.74036  1.0000
  H   H63       1.0  0.03068  0.54729  0.76567  1.0000
  H   H64       1.0  0.55148  0.50763  0.73442  1.0000
  H   H65       1.0  0.46839  0.01979  0.73282  1.0000
  H   H66       1.0  0.95334  0.42581  0.74719  1.0000
  H   H67       1.0  0.50564  0.46564  0.70723  1.0000
  H   H68       1.0  0.50221  0.01306  0.67483  1.0000
  H   H69       1.0  0.95846  0.46805  0.76375  1.0000
  H   H70       1.0  0.47656  0.50364  0.78625  1.0000
  H   H71       1.0  0.47679  0.94819  0.77304  1.0000
  H   H72       1.0  0.02003  0.49951  0.66932  1.0000
  H   H73       1.0  0.47987  0.41311  0.71457  1.0000
  H   H74       1.0  0.55753  0.04157  0.70250  1.0000
  H   H75       1.0  0.92636  0.49179  0.71285  1.0000
  H   H76       1.0  0.49953  0.55554  0.74226  1.0000
  H   H77       1.0  0.42168  0.92184  0.75857  1.0000
  H   H78       1.0  0.04743  0.47160  0.68957  1.0000
  H   H79       1.0  0.38691  0.36293  0.78564  1.0000
  H   H80       1.0  0.62027  0.00150  0.79101  1.0000
  H   H81       1.0  0.97332  0.59163  0.72105  1.0000
  H   H82       1.0  0.59393  0.60445  0.68329  1.0000
  H   H83       1.0  0.36874  0.96964  0.73757  1.0000
  H   H84       1.0  0.00292  0.37544  0.75794  1.0000
  H   H85       1.0  0.75991  0.24404  0.53635  1.0000
  H   H86       1.0  0.70107  0.49551  0.49925  1.0000
  H   H87       1.0  0.48140  0.19994  0.72352  1.0000
  H   H88       1.0  0.20746  0.71317  0.77005  1.0000
  H   H89       1.0  0.25333  0.46228  0.66578  1.0000
  H   H90       1.0  0.51518  0.77497  0.43471  1.0000
  H   H91       1.0  0.80272  0.18845  0.98975  1.0000
  H   H92       1.0  0.81779  0.60217  0.87399  1.0000
  H   H93       1.0  0.38011  0.18707  0.78876  1.0000
  H   H94       1.0  0.18851  0.80279  0.72590  1.0000
  H   H95       1.0  0.18294  0.37078  0.87588  1.0000
  H   H96       1.0  0.61134  0.78299  0.04408  1.0000
  H   H97       1.0  0.82029  0.28426  0.61102  1.0000
  H   H98       1.0  0.67130  0.51606  0.56552  1.0000
  H   H99       1.0  0.46041  0.14449  0.71495  1.0000
  H   H100      1.0  0.15289  0.67921  0.77631  1.0000
  H   H101      1.0  0.29322  0.44597  0.71715  1.0000
  H   H102      1.0  0.53876  0.83007  0.54509  1.0000
  H   H103      1.0  0.74426  0.14761  0.90784  1.0000
  H   H104      1.0  0.84764  0.58145  0.81091  1.0000
  H   H105      1.0  0.40053  0.24176  0.79663  1.0000
  H   H106      1.0  0.24277  0.83682  0.71931  1.0000
  H   H107      1.0  0.14224  0.38667  0.81912  1.0000
  H   H108      1.0  0.58680  0.72660  0.92986  1.0000
  H   H109      1.0  0.17493  0.45046  0.65034  1.0000
  H   H110      1.0  0.51774  0.70492  0.48527  1.0000
  H   H111      1.0  0.27155  0.78794  0.74116  1.0000
  H   H112      1.0  0.78034  0.50489  0.54179  1.0000
  H   H113      1.0  0.47295  0.26697  0.74375  1.0000
  H   H114      1.0  0.69612  0.17068  0.57827  1.0000
  H   H115      1.0  0.26088  0.38226  0.88540  1.0000
  H   H116      1.0  0.60837  0.85296  0.99341  1.0000
  H   H117      1.0  0.12473  0.72831  0.75857  1.0000
  H   H118      1.0  0.73896  0.59307  0.83305  1.0000
  H   H119      1.0  0.38779  0.11964  0.76051  1.0000
  H   H120      1.0  0.86671  0.26247  0.95623  1.0000
  C   C1        1.0  0.42332  0.44655  0.27437  1.0000
  C   C2        1.0  0.58016  0.00018  0.25928  1.0000
  C   C3        1.0  0.02390  0.60357  0.25615  1.0000
  C   C4        1.0  0.59876  0.59274  0.26935  1.0000
  C   C5        1.0  0.43213  0.03075  0.23505  1.0000
  C   C6        1.0  0.99090  0.42457  0.23629  1.0000
  C   C7        1.0  0.45083  0.47427  0.26660  1.0000
  C   C8        1.0  0.55062  0.00011  0.23660  1.0000
  C   C9        1.0  0.02297  0.57483  0.24943  1.0000
  C   C10       1.0  0.56923  0.56324  0.24787  1.0000
  C   C11       1.0  0.46124  0.03258  0.23294  1.0000
  C   C12       1.0  0.98959  0.45219  0.23617  1.0000
  C   C13       1.0  0.47805  0.47433  0.25032  1.0000
  C   C14       1.0  0.54761  0.02625  0.19684  1.0000
  C   C15       1.0  0.99539  0.54630  0.25339  1.0000
  C   C16       1.0  0.53826  0.56049  0.22619  1.0000
  C   C17       1.0  0.46466  0.00613  0.24016  1.0000
  C   C18       1.0  0.01563  0.48071  0.22273  1.0000
  C   C19       1.0  0.50634  0.50287  0.23706  1.0000
  C   C20       1.0  0.51838  0.02768  0.18961  1.0000
  C   C21       1.0  0.99458  0.51650  0.25577  1.0000
  C   C22       1.0  0.50874  0.53105  0.22431  1.0000
  C   C23       1.0  0.49440  0.00665  0.24042  1.0000
  C   C24       1.0  0.01582  0.51022  0.22233  1.0000
  C   C25       1.0  0.47833  0.44618  0.25161  1.0000
  C   C26       1.0  0.57495  0.05239  0.17653  1.0000
  C   C27       1.0  0.96797  0.54682  0.26318  1.0000
  C   C28       1.0  0.53683  0.58807  0.21854  1.0000
  C   C29       1.0  0.43846  0.97750  0.25185  1.0000
  C   C30       1.0  0.04339  0.48126  0.21035  1.0000
  C   C31       1.0  0.45141  0.41787  0.26125  1.0000
  C   C32       1.0  0.60561  0.05362  0.20539  1.0000
  C   C33       1.0  0.96752  0.57482  0.26673  1.0000
  C   C34       1.0  0.56597  0.61796  0.24051  1.0000
  C   C35       1.0  0.40848  0.97423  0.24939  1.0000
  C   C36       1.0  0.04572  0.45425  0.21015  1.0000
  C   C37       1.0  0.42404  0.41863  0.26967  1.0000
  C   C38       1.0  0.60770  0.02717  0.24623  1.0000
  C   C39       1.0  0.99565  0.60291  0.26445  1.0000
  C   C40       1.0  0.59693  0.62014  0.26772  1.0000
  C   C41       1.0  0.40592  0.00118  0.23959  1.0000
  C   C42       1.0  0.01886  0.42611  0.22049  1.0000
  C   C43       1.0  0.84348  0.25087  0.38884  1.0000
  C   C44       1.0  0.78934  0.61176  0.40874  1.0000
  C   C45       1.0  0.41071  0.19239  0.27460  1.0000
  C   C46       1.0  0.18824  0.78404  0.25883  1.0000
  C   C47       1.0  0.24354  0.42842  0.28829  1.0000
  C   C48       1.0  0.60040  0.84067  0.44021  1.0000
  C   C49       1.0  0.83164  0.26800  0.26775  1.0000
  C   C50       1.0  0.75567  0.58116  0.30340  1.0000
  C   C51       1.0  0.43841  0.19471  0.24569  1.0000
  C   C52       1.0  0.19337  0.75803  0.27009  1.0000
  C   C53       1.0  0.26377  0.45463  0.22728  1.0000
  C   C54       1.0  0.57180  0.83711  0.26477  1.0000
  C   C55       1.0  0.79499  0.25589  0.16423  1.0000
  C   C56       1.0  0.75384  0.55473  0.21767  1.0000
  C   C57       1.0  0.46306  0.22385  0.22865  1.0000
  C   C58       1.0  0.22377  0.76229  0.27133  1.0000
  C   C59       1.0  0.25211  0.47489  0.15715  1.0000
  C   C60       1.0  0.54640  0.80697  0.11950  1.0000
  C   C61       1.0  0.76950  0.22686  0.17242  1.0000
  C   C62       1.0  0.78420  0.55764  0.23147  1.0000
  C   C63       1.0  0.46145  0.25093  0.24085  1.0000
  C   C64       1.0  0.24885  0.79114  0.25795  1.0000
  C   C65       1.0  0.22171  0.47064  0.15168  1.0000
  C   C66       1.0  0.54812  0.78005  0.14334  1.0000
  C   C67       1.0  0.78132  0.20991  0.29641  1.0000
  C   C68       1.0  0.81787  0.58836  0.33479  1.0000
  C   C69       1.0  0.43370  0.24868  0.26935  1.0000
  C   C70       1.0  0.24378  0.81710  0.24715  1.0000
  C   C71       1.0  0.20170  0.44460  0.21421  1.0000
  C   C72       1.0  0.57699  0.78375  0.31790  1.0000
  C   C73       1.0  0.81816  0.22251  0.40412  1.0000
  C   C74       1.0  0.81968  0.61477  0.42151  1.0000
  C   C75       1.0  0.40883  0.21940  0.28483  1.0000
  C   C76       1.0  0.21366  0.81305  0.24953  1.0000
  C   C77       1.0  0.21274  0.42373  0.27923  1.0000
  C   C78       1.0  0.60254  0.81397  0.46230  1.0000
  C   C79       1.0  0.85618  0.29683  0.24037  1.0000
  C   C80       1.0  0.72344  0.57692  0.28328  1.0000
  C   C81       1.0  0.44145  0.16756  0.23078  1.0000
  C   C82       1.0  0.16783  0.72754  0.28095  1.0000
  C   C83       1.0  0.29504  0.45964  0.22832  1.0000
  C   C84       1.0  0.56864  0.86409  0.23414  1.0000
  C   C85       1.0  0.75586  0.18034  0.31462  1.0000
  C   C86       1.0  0.84987  0.59281  0.34894  1.0000
  C   C87       1.0  0.43068  0.27598  0.28027  1.0000
  C   C88       1.0  0.26953  0.84772  0.24010  1.0000
  C   C89       1.0  0.17103  0.44005  0.21893  1.0000
  C   C90       1.0  0.58048  0.75692  0.34781  1.0000
  C   C91       1.0  0.40636  0.41257  0.78565  1.0000
  C   C92       1.0  0.56897  0.97011  0.77041  1.0000
  C   C93       1.0  0.00595  0.57354  0.74601  1.0000
  C   C94       1.0  0.57646  0.55637  0.71357  1.0000
  C   C95       1.0  0.41879  0.99870  0.73811  1.0000
  C   C96       1.0  0.97486  0.39738  0.75389  1.0000
  C   C97       1.0  0.43359  0.44083  0.77872  1.0000
  C   C98       1.0  0.53755  0.96685  0.74294  1.0000
  C   C99       1.0  0.00702  0.54584  0.74871  1.0000
  C   C100      1.0  0.54976  0.52860  0.72654  1.0000
  C   C101      1.0  0.44654  0.99814  0.73426  1.0000
  C   C102      1.0  0.97417  0.42501  0.73760  1.0000
  C   C103      1.0  0.46033  0.44130  0.75410  1.0000
  C   C104      1.0  0.53335  0.99282  0.72193  1.0000
  C   C105      1.0  0.97822  0.51610  0.73256  1.0000
  C   C106      1.0  0.52169  0.52778  0.73688  1.0000
  C   C107      1.0  0.44766  0.97043  0.73947  1.0000
  C   C108      1.0  0.00039  0.45196  0.71602  1.0000
  C   C109      1.0  0.48847  0.46984  0.73991  1.0000
  C   C110      1.0  0.50275  0.99211  0.70871  1.0000
  C   C111      1.0  0.97846  0.48690  0.73387  1.0000
  C   C112      1.0  0.49403  0.49957  0.75644  1.0000
  C   C113      1.0  0.47667  0.96939  0.74053  1.0000
  C   C114      1.0  0.00040  0.48124  0.70400  1.0000
  C   C115      1.0  0.45983  0.41276  0.74079  1.0000
  C   C116      1.0  0.56085  0.02159  0.71995  1.0000
  C   C117      1.0  0.94823  0.51454  0.71909  1.0000
  C   C118      1.0  0.52060  0.55555  0.72957  1.0000
  C   C119      1.0  0.42017  0.94289  0.74962  1.0000
  C   C120      1.0  0.02752  0.45065  0.70824  1.0000
  C   C121      1.0  0.43405  0.38430  0.75571  1.0000
  C   C122      1.0  0.59249  0.02554  0.74522  1.0000
  C   C123      1.0  0.94634  0.54178  0.71643  1.0000
  C   C124      1.0  0.54665  0.58344  0.71278  1.0000
  C   C125      1.0  0.39120  0.94195  0.74752  1.0000
  C   C126      1.0  0.02956  0.42353  0.72639  1.0000
  C   C127      1.0  0.40738  0.38474  0.77616  1.0000
  C   C128      1.0  0.59651  0.99965  0.77558  1.0000
  C   C129      1.0  0.97548  0.57099  0.73133  1.0000
  C   C130      1.0  0.57449  0.58357  0.70541  1.0000
  C   C131      1.0  0.39119  0.97017  0.74223  1.0000
  C   C132      1.0  0.00291  0.39721  0.74977  1.0000
  C   C133      1.0  0.81853  0.22952  0.87914  1.0000
  C   C134      1.0  0.76184  0.57556  0.77888  1.0000
  C   C135      1.0  0.40462  0.16328  0.76025  1.0000
  C   C136      1.0  0.16777  0.75444  0.75009  1.0000
  C   C137      1.0  0.22855  0.39492  0.83394  1.0000
  C   C138      1.0  0.58985  0.80888  0.89108  1.0000
  C   C139      1.0  0.80630  0.24568  0.75009  1.0000
  C   C140      1.0  0.72824  0.54490  0.67003  1.0000
  C   C141      1.0  0.43390  0.16697  0.74297  1.0000
  C   C142      1.0  0.17314  0.72864  0.76202  1.0000
  C   C143      1.0  0.24883  0.42114  0.77351  1.0000
  C   C144      1.0  0.56192  0.80635  0.71666  1.0000
  C   C145      1.0  0.76927  0.23222  0.63857  1.0000
  C   C146      1.0  0.72663  0.51876  0.58193  1.0000
  C   C147      1.0  0.45920  0.19708  0.73727  1.0000
  C   C148      1.0  0.20344  0.73283  0.76163  1.0000
  C   C149      1.0  0.23779  0.44208  0.70964  1.0000
  C   C150      1.0  0.53613  0.77668  0.56800  1.0000
  C   C151      1.0  0.74410  0.20353  0.65233  1.0000
  C   C152      1.0  0.75727  0.52202  0.59818  1.0000
  C   C153      1.0  0.45628  0.22350  0.74645  1.0000
  C   C154      1.0  0.22871  0.76185  0.75178  1.0000
  C   C155      1.0  0.20709  0.43750  0.70184  1.0000
  C   C156      1.0  0.53692  0.74926  0.58644  1.0000
  C   C157      1.0  0.75647  0.18734  0.78043  1.0000
  C   C158      1.0  0.79082  0.55267  0.70672  1.0000
  C   C159      1.0  0.42692  0.21971  0.76317  1.0000
  C   C160      1.0  0.22335  0.78773  0.74040  1.0000
  C   C161      1.0  0.18656  0.41107  0.76052  1.0000
  C   C162      1.0  0.56463  0.75162  0.76156  1.0000
  C   C163      1.0  0.79337  0.20061  0.89054  1.0000
  C   C164      1.0  0.79237  0.57880  0.79382  1.0000
  C   C165      1.0  0.40196  0.18977  0.77173  1.0000
  C   C166      1.0  0.19291  0.78339  0.73835  1.0000
  C   C167      1.0  0.19805  0.39057  0.82786  1.0000
  C   C168      1.0  0.59059  0.78139  0.91016  1.0000
  C   C169      1.0  0.83137  0.27467  0.72556  1.0000
  C   C170      1.0  0.69590  0.54030  0.64951  1.0000
  C   C171      1.0  0.43780  0.14022  0.73176  1.0000
  C   C172      1.0  0.14746  0.69816  0.77015  1.0000
  C   C173      1.0  0.27989  0.42601  0.77142  1.0000
  C   C174      1.0  0.55930  0.83367  0.68972  1.0000
  C   C175      1.0  0.73205  0.15768  0.80237  1.0000
  C   C176      1.0  0.82313  0.55725  0.72654  1.0000
  C   C177      1.0  0.42240  0.24608  0.77159  1.0000
  C   C178      1.0  0.24879  0.81827  0.73026  1.0000
  C   C179      1.0  0.15530  0.40610  0.76048  1.0000
  C   C180      1.0  0.56597  0.72367  0.78873  1.0000
  N   N1        1.0  0.30694  0.44165  0.29597  1.0000
  N   N2        1.0  0.59010  0.89186  0.36994  1.0000
  N   N3        1.0  0.13887  0.72244  0.27537  1.0000
  N   N4        1.0  0.72347  0.60080  0.35637  1.0000
  N   N5        1.0  0.42092  0.14042  0.25661  1.0000
  N   N6        1.0  0.89037  0.30898  0.32616  1.0000
  N   N7        1.0  0.55844  0.72899  0.21337  1.0000
  N   N8        1.0  0.29786  0.85279  0.23668  1.0000
  N   N9        1.0  0.16068  0.45957  0.16635  1.0000
  N   N10       1.0  0.45229  0.30287  0.25680  1.0000
  N   N11       1.0  0.72159  0.16700  0.20232  1.0000
  N   N12       1.0  0.84936  0.56912  0.26915  1.0000
  N   N13       1.0  0.29079  0.40695  0.82728  1.0000
  N   N14       1.0  0.58003  0.86092  0.82887  1.0000
  N   N15       1.0  0.11908  0.69349  0.77072  1.0000
  N   N16       1.0  0.69615  0.56388  0.72803  1.0000
  N   N17       1.0  0.41534  0.11238  0.74307  1.0000
  N   N18       1.0  0.86579  0.28786  0.83040  1.0000
  N   N19       1.0  0.54282  0.69585  0.65271  1.0000
  N   N20       1.0  0.27745  0.82325  0.73259  1.0000
  N   N21       1.0  0.14396  0.42467  0.69809  1.0000
  N   N22       1.0  0.44344  0.27364  0.75156  1.0000
  N   N23       1.0  0.69753  0.14390  0.70378  1.0000
  N   N24       1.0  0.82291  0.53367  0.64782  1.0000
  O   O1        1.0  0.21155  0.49074  0.08622  1.0000
  O   O2        1.0  0.52273  0.75132  0.00409  1.0000
  O   O3        1.0  0.27764  0.79429  0.25868  1.0000
  O   O4        1.0  0.78140  0.53167  0.14873  1.0000
  O   O5        1.0  0.48569  0.27844  0.22431  1.0000
  O   O6        1.0  0.73452  0.21547  0.06426  1.0000
  O   O7        1.0  0.25378  0.40840  0.35551  1.0000
  O   O8        1.0  0.62521  0.86921  0.58298  1.0000
  O   O9        1.0  0.15965  0.78104  0.25952  1.0000
  O   O10       1.0  0.79211  0.63751  0.49445  1.0000
  O   O11       1.0  0.38632  0.16468  0.28862  1.0000
  O   O12       1.0  0.87846  0.26168  0.48847  1.0000
  O   O13       1.0  0.19727  0.45792  0.63805  1.0000
  O   O14       1.0  0.51167  0.72124  0.44040  1.0000
  O   O15       1.0  0.25729  0.76497  0.75032  1.0000
  O   O16       1.0  0.75485  0.49656  0.51214  1.0000
  O   O17       1.0  0.48116  0.25193  0.74145  1.0000
  O   O18       1.0  0.70885  0.19135  0.54354  1.0000
  O   O19       1.0  0.23856  0.37464  0.89806  1.0000
  O   O20       1.0  0.61546  0.83720  0.03436  1.0000
  O   O21       1.0  0.13891  0.75123  0.74793  1.0000
  O   O22       1.0  0.76440  0.60112  0.86499  1.0000
  O   O23       1.0  0.37976  0.13486  0.76601  1.0000
  O   O24       1.0  0.85367  0.24146  0.98905  1.0000
  C   C181      1.0  0.36962  0.47589  0.25549  1.0000
  C   C182      1.0  0.34183  0.45187  0.28063  1.0000
  C  Sn1       1.0  0.34071  0.42403  0.31752  1.0000
  C  Sn2       1.0  0.36795  0.42025  0.32944  1.0000
  C   C183      1.0  0.39565  0.44443  0.30422  1.0000
  C   C184      1.0  0.39650  0.47219  0.26731  1.0000
  H   H121      1.0  0.37030  0.49738  0.22704  1.0000
  O  Te1       1.0  0.31275  0.40026  0.34219  1.0000
  O  Te2       1.0  0.36748  0.39267  0.36622  1.0000
  H   H122      1.0  0.41803  0.49080  0.24798  1.0000
  Mg  Mg1       1.0  0.32382  0.36702  0.38940  1.0000
  C   C185      1.0  0.54763  0.91672  0.19300  1.0000
  C   C186      1.0  0.57746  0.91564  0.30348  1.0000
  C  Sn3       1.0  0.61099  0.94429  0.42207  1.0000
  C  Sn4       1.0  0.61464  0.97455  0.42993  1.0000
  C   C187      1.0  0.58463  0.97538  0.31894  1.0000
  C   C188      1.0  0.55120  0.94656  0.20072  1.0000
  H   H123      1.0  0.52177  0.89443  0.10160  1.0000
  O  Te3       1.0  0.64052  0.94276  0.53145  1.0000
  O  Te4       1.0  0.64784  0.00355  0.54728  1.0000
  H   H124      1.0  0.52811  0.94741  0.11529  1.0000
  Mg  Mg2       1.0  0.68015  0.98892  0.66934  1.0000
  C   C189      1.0  0.08836  0.63850  0.22223  1.0000
  C   C190      1.0  0.06196  0.63392  0.26555  1.0000
  C  Sn5       1.0  0.06005  0.66005  0.31057  1.0000
  C  Sn6       1.0  0.08506  0.69131  0.31208  1.0000
  C   C191      1.0  0.11135  0.69564  0.26840  1.0000
  C   C192      1.0  0.11302  0.66933  0.22361  1.0000
  H   H125      1.0  0.08965  0.61815  0.18747  1.0000
  O  Te5       1.0  0.03352  0.65504  0.35357  1.0000
  O  Te6       1.0  0.08375  0.71784  0.35650  1.0000
  H   H126      1.0  0.13345  0.67288  0.18995  1.0000
  Mg  Mg3       1.0  0.04268  0.69879  0.40522  1.0000
  C   C193      1.0  0.63127  0.56385  0.18423  1.0000
  C   C194      1.0  0.62976  0.58672  0.27937  1.0000
  C  Sn7       1.0  0.66104  0.61684  0.40153  1.0000
  C  Sn8       1.0  0.69440  0.62414  0.42861  1.0000
  C   C195      1.0  0.69562  0.60111  0.33265  1.0000
  C   C196      1.0  0.66416  0.57104  0.21079  1.0000
  H   H127      1.0  0.60693  0.54059  0.08985  1.0000
  O  Te7       1.0  0.65905  0.63940  0.49554  1.0000
  O  Te8       1.0  0.72606  0.65407  0.54982  1.0000
  H   H128      1.0  0.66533  0.55335  0.13704  1.0000
  Mg  Mg4       1.0  0.70958  0.67683  0.64613  1.0000
  C   C197      1.0  0.45873  0.09739  0.22761  1.0000
  C   C198      1.0  0.43684  0.06692  0.24239  1.0000
  C  Sn9       1.0  0.40650  0.05936  0.25333  1.0000
  C  Sn10      1.0  0.39798  0.08278  0.24930  1.0000
  C   C199      1.0  0.42004  0.11318  0.23434  1.0000
  C   C200      1.0  0.45034  0.12049  0.22355  1.0000
  H   H129      1.0  0.48216  0.10304  0.21915  1.0000
  O  Te9       1.0  0.38492  0.02881  0.26812  1.0000
  O  Te10      1.0  0.36781  0.07586  0.25994  1.0000
  H   H130      1.0  0.46727  0.14407  0.21197  1.0000
  Mg  Mg5       1.0  0.34670  0.03085  0.27866  1.0000
  C   C201      1.0  0.92158  0.38304  0.21048  1.0000
  C   C202      1.0  0.95623  0.39399  0.25031  1.0000
  C  Sn11      1.0  0.96979  0.37503  0.31186  1.0000
  C  Sn12      1.0  0.94820  0.34454  0.33376  1.0000
  C   C203      1.0  0.91357  0.33379  0.29341  1.0000
  C   C204      1.0  0.90027  0.35297  0.23197  1.0000
  H   H131      1.0  0.91128  0.39787  0.16284  1.0000
  O  Te11      1.0  0.00447  0.38634  0.35110  1.0000
  O  Te12      1.0  0.96109  0.32509  0.39499  1.0000
  H   H132      1.0  0.87343  0.34448  0.20102  1.0000
  Mg  Mg6       1.0  0.01005  0.35105  0.43070  1.0000
  C   C205      1.0  0.47767  0.36427  0.21116  1.0000
  C   C206      1.0  0.45868  0.33737  0.26543  1.0000
  C  Sn13      1.0  0.43354  0.33496  0.31346  1.0000
  C  Sn14      1.0  0.42734  0.35999  0.30685  1.0000
  C   C207      1.0  0.44645  0.38679  0.25223  1.0000
  C   C208      1.0  0.47156  0.38895  0.20452  1.0000
  H   H133      1.0  0.49708  0.36594  0.17414  1.0000
  O  Te13      1.0  0.41482  0.30793  0.36745  1.0000
  O  Te14      1.0  0.40235  0.35819  0.35405  1.0000
  H   H134      1.0  0.48623  0.40977  0.16238  1.0000
  Mg  Mg7       1.0  0.38353  0.31653  0.41882  1.0000
  C   C209      1.0  0.63427  0.11039  0.07461  1.0000
  C   C210      1.0  0.63346  0.08618  0.16430  1.0000
  C  Sn15      1.0  0.66532  0.08932  0.29239  1.0000
  C  Sn16      1.0  0.69855  0.11724  0.33117  1.0000
  C   C211      1.0  0.69907  0.14134  0.24082  1.0000
  C   C212      1.0  0.66703  0.13795  0.11284  1.0000
  H   H135      1.0  0.69947  0.15561  0.97568  1.0000
  O  Te15      1.0  0.66403  0.06489  0.38069  1.0000
  O  Te16      1.0  0.73078  0.12101  0.45864  1.0000
  H   H136      1.0  0.66766  0.15671  0.04352  1.0000
  Mg  Mg8       1.0  0.71516  0.08110  0.54335  1.0000
  C   C213      1.0  0.89293  0.54168  0.15387  1.0000
  C   C214      1.0  0.92882  0.56739  0.23669  1.0000
  C  Sn17      1.0  0.94135  0.59681  0.35559  1.0000
  C  Sn18      1.0  0.91744  0.60047  0.39203  1.0000
  C   C215      1.0  0.88159  0.57459  0.30861  1.0000
  C   C216      1.0  0.86933  0.54527  0.18980  1.0000
  H   H137      1.0  0.88345  0.51898  0.06203  1.0000
  O  Te17      1.0  0.97729  0.62226  0.43711  1.0000
  O  Te18      1.0  0.92926  0.62960  0.51037  1.0000
  H   H138      1.0  0.84155  0.52535  0.12581  1.0000
  Mg  Mg9       1.0  0.98065  0.65722  0.58831  1.0000
  C   C217      1.0  0.59585  0.68481  0.41192  1.0000
  C   C218      1.0  0.57060  0.65358  0.28168  1.0000
  C  Sn19      1.0  0.54030  0.64723  0.11391  1.0000
  C  Sn20      1.0  0.53527  0.67266  0.07619  1.0000
  C   C219      1.0  0.56070  0.70382  0.20733  1.0000
  C   C220      1.0  0.59092  0.70990  0.37480  1.0000
  H   H139      1.0  0.61924  0.68952  0.54145  1.0000
  O  Te19      1.0  0.60531  0.66373  0.98536  1.0000
  O  Te20      1.0  0.59522  0.71482  0.90959  1.0000
  H   H140      1.0  0.61047  0.73408  0.47555  1.0000
  Mg  Mg10      1.0  0.56872  0.66805  0.77825  1.0000
  C   C221      1.0  0.35958  0.88965  0.21063  1.0000
  C   C222      1.0  0.33249  0.88356  0.25155  1.0000
  C  Sn21      1.0  0.32827  0.90843  0.28894  1.0000
  C  Sn22      1.0  0.35163  0.93994  0.28514  1.0000
  C   C223      1.0  0.37863  0.94578  0.24391  1.0000
  C   C224      1.0  0.38263  0.92072  0.20677  1.0000
  H   H141      1.0  0.36267  0.87026  0.18178  1.0000
  O  Te21      1.0  0.30107  0.90193  0.32965  1.0000
  O  Te22      1.0  0.34799  0.96524  0.32190  1.0000
  H   H142      1.0  0.40359  0.92544  0.17496  1.0000
  Mg  Mg11      1.0  0.30686  0.94436  0.37025  1.0000
  C   C225      1.0  0.08527  0.42584  0.23166  1.0000
  C   C226      1.0  0.07758  0.44947  0.21989  1.0000
  C  Sn23      1.0  0.09719  0.47748  0.17557  1.0000
  C  Sn24      1.0  0.12499  0.48185  0.14244  1.0000
  C   C227      1.0  0.13245  0.45806  0.15443  1.0000
  C   C228      1.0  0.11267  0.43012  0.19894  1.0000
  H   H143      1.0  0.06995  0.40422  0.26599  1.0000
  O  Te23      1.0  0.08917  0.50086  0.16445  1.0000
  O  Te24      1.0  0.14500  0.50961  0.09783  1.0000
  H   H144      1.0  0.11861  0.41182  0.20792  1.0000
  Mg  Mg12      1.0  0.12397  0.53455  0.09923  1.0000
  C   C229      1.0  0.32995  0.38109  0.85206  1.0000
  C   C230      1.0  0.32181  0.40443  0.83685  1.0000
  C  Sn25      1.0  0.34150  0.43251  0.79338  1.0000
  C  Sn26      1.0  0.36985  0.43726  0.76462  1.0000
  C   C231      1.0  0.37776  0.41376  0.78002  1.0000
  C   C232      1.0  0.35790  0.38575  0.82365  1.0000
  H   H145      1.0  0.31457  0.35941  0.88571  1.0000
  O  Te25      1.0  0.33302  0.45559  0.77879  1.0000
  O  Te26      1.0  0.38995  0.46510  0.72094  1.0000
  H   H146      1.0  0.36419  0.36767  0.83529  1.0000
  Mg  Mg13      1.0  0.36815  0.48955  0.71650  1.0000
  C   C233      1.0  0.60663  0.92525  0.97626  1.0000
  C   C234      1.0  0.58207  0.89374  0.84940  1.0000
  C  Sn27      1.0  0.55192  0.88658  0.67746  1.0000
  C  Sn28      1.0  0.54633  0.91150  0.63205  1.0000
  C   C235      1.0  0.57107  0.94296  0.75986  1.0000
  C   C236      1.0  0.60114  0.94984  0.93155  1.0000
  H   H147      1.0  0.53992  0.88275  0.10906  1.0000
  O  Te27      1.0  0.52764  0.85496  0.55238  1.0000
  O  Te28      1.0  0.51643  0.90502  0.46115  1.0000
  H   H148      1.0  0.53018  0.92642  0.02968  1.0000
  Mg  Mg14      1.0  0.49097  0.85814  0.33706  1.0000
  C   C237      1.0  0.04420  0.64298  0.81098  1.0000
  C   C238      1.0  0.03452  0.61125  0.75483  1.0000
  C  Sn29      1.0  0.05542  0.60531  0.70483  1.0000
  C  Sn30      1.0  0.08658  0.63169  0.71136  1.0000
  C   C239      1.0  0.09604  0.66335  0.76786  1.0000
  C   C240      1.0  0.07493  0.66901  0.81753  1.0000
  H   H149      1.0  0.02787  0.64737  0.84952  1.0000
  O  Te29      1.0  0.04537  0.57346  0.64899  1.0000
  O  Te30      1.0  0.10795  0.62644  0.66221  1.0000
  H   H150      1.0  0.08243  0.69359  0.86112  1.0000
  Mg  Mg15      1.0  0.08315  0.57868  0.59535  1.0000
  C   C241      1.0  0.62089  0.52666  0.59765  1.0000
  C   C242      1.0  0.65638  0.55301  0.67619  1.0000
  C  Sn31      1.0  0.66794  0.58276  0.78601  1.0000
  C  Sn32      1.0  0.64344  0.58613  0.81758  1.0000
  C   C243      1.0  0.60799  0.55962  0.73849  1.0000
  C   C244      1.0  0.59671  0.52995  0.62878  1.0000
  H   H151      1.0  0.61216  0.50370  0.51285  1.0000
  O  Te31      1.0  0.70349  0.60884  0.86337  1.0000
  O  Te32      1.0  0.65428  0.61559  0.92683  1.0000
  H   H152      1.0  0.56923  0.50955  0.56809  1.0000
  Mg  Mg16      1.0  0.61551  0.59623  0.00206  1.0000
  C   C245      1.0  0.89057  0.03526  0.77530  1.0000
  C   C246      1.0  0.91090  0.02743  0.73195  1.0000
  C  Sn33      1.0  0.43675  0.05031  0.69500  1.0000
  C  Sn34      1.0  0.44311  0.08160  0.70174  1.0000
  C   C247      1.0  0.42264  0.08921  0.74538  1.0000
  C   C248      1.0  0.39604  0.06612  0.78205  1.0000
  H   H153      1.0  0.87000  0.01741  0.80377  1.0000
  O  Te33      1.0  0.45680  0.04208  0.65185  1.0000
  O  Te34      1.0  0.46958  0.10494  0.66549  1.0000
  H   H154      1.0  0.38032  0.07220  0.81573  1.0000
  Mg  Mg17      1.0  0.48986  0.08217  0.61309  1.0000
  C   C249      1.0  0.88848  0.34545  0.70673  1.0000
  C   C250      1.0  0.88824  0.31986  0.77847  1.0000
  C  Sn35      1.0  0.91901  0.31945  0.85711  1.0000
  C  Sn36      1.0  0.95056  0.34518  0.86391  1.0000
  C   C251      1.0  0.95054  0.37069  0.79189  1.0000
  C   C252      1.0  0.91960  0.37085  0.71345  1.0000
  H   H155      1.0  0.86455  0.34559  0.64614  1.0000
  O  Te35      1.0  0.91829  0.29368  0.92808  1.0000
  O  Te36      1.0  0.98169  0.34538  0.94180  1.0000
  H   H156      1.0  0.91981  0.39068  0.65803  1.0000
  Mg  Mg18      1.0  0.87745  0.25703  0.02025  1.0000
  C   C253      1.0  0.47134  0.33817  0.76596  1.0000
  C   C254      1.0  0.44697  0.30703  0.76185  1.0000
  C  Sn37      1.0  0.41426  0.29896  0.74228  1.0000
  C  Sn38      1.0  0.40585  0.32256  0.72650  1.0000
  C   C255      1.0  0.43040  0.35364  0.73062  1.0000
  C   C256      1.0  0.46307  0.36145  0.75033  1.0000
  H   H157      1.0  0.49661  0.34421  0.78109  1.0000
  O  Te37      1.0  0.39022  0.26773  0.73852  1.0000
  O  Te38      1.0  0.37334  0.31514  0.70673  1.0000
  H   H158      1.0  0.48192  0.38556  0.75337  1.0000
  Mg  Mg19      1.0  0.34936  0.26928  0.70918  1.0000
  C   C257      1.0  0.62763  0.09768  0.60359  1.0000
  C   C258      1.0  0.66480  0.11334  0.70376  1.0000
  C  Sn39      1.0  0.68037  0.09892  0.82201  1.0000
  C  Sn40      1.0  0.65825  0.06824  0.83998  1.0000
  C   C259      1.0  0.62110  0.05275  0.73906  1.0000
  C   C260      1.0  0.60580  0.06741  0.62117  1.0000
  H   H159      1.0  0.61579  0.10901  0.51229  1.0000
  O  Te39      1.0  0.71754  0.11491  0.92113  1.0000
  O  Te40      1.0  0.67311  0.05327  0.95713  1.0000
  H   H160      1.0  0.57703  0.05527  0.54353  1.0000
  Mg  Mg20      1.0  0.63518  0.03684  0.06318  1.0000
  C   C261      1.0  0.87013  0.50674  0.57085  1.0000
  C   C262      1.0  0.90586  0.53302  0.65905  1.0000
  C  Sn41      1.0  0.91654  0.56271  0.76466  1.0000
  C  Sn42      1.0  0.89092  0.56608  0.78207  1.0000
  C   C263      1.0  0.85525  0.53964  0.69340  1.0000
  C   C264      1.0  0.84485  0.51005  0.58802  1.0000
  H   H161      1.0  0.86208  0.48384  0.48940  1.0000
  O  Te41      1.0  0.95234  0.58871  0.85180  1.0000
  O  Te42      1.0  0.90087  0.59548  0.88683  1.0000
  H   H162      1.0  0.81719  0.48970  0.51985  1.0000
  Mg  Mg21      1.0  0.95283  0.62387  0.97931  1.0000
  C   C265      1.0  0.50811  0.61384  0.56671  1.0000
  C   C266      1.0  0.53717  0.61115  0.66389  1.0000
  C  Sn43      1.0  0.57167  0.63893  0.77868  1.0000
  C  Sn44      1.0  0.57710  0.66995  0.79627  1.0000
  C   C267      1.0  0.54785  0.67238  0.69858  1.0000
  C   C268      1.0  0.51344  0.64443  0.58404  1.0000
  H   H163      1.0  0.48149  0.59221  0.47817  1.0000
  O  Te43      1.0  0.60040  0.63581  0.87472  1.0000
  O  Te44      1.0  0.61130  0.69811  0.91011  1.0000
  H   H164      1.0  0.49095  0.64651  0.50892  1.0000
  Mg  Mg22      1.0  0.55196  0.63348  0.01273  1.0000
  C   C269      1.0  0.31257  0.89176  0.78738  1.0000
  C   C270      1.0  0.30203  0.85978  0.72836  1.0000
  C  Sn45      1.0  0.32268  0.85328  0.67929  1.0000
  C  Sn46      1.0  0.35445  0.87932  0.68968  1.0000
  C   C271      1.0  0.36478  0.91122  0.74903  1.0000
  C   C272      1.0  0.34391  0.91745  0.79775  1.0000
  H   H165      1.0  0.29644  0.89658  0.82518  1.0000
  O  Te45      1.0  0.31176  0.82119  0.62054  1.0000
  O  Te46      1.0  0.37559  0.87351  0.64153  1.0000
  H   H166      1.0  0.35209  0.94221  0.84356  1.0000
  Mg  Mg23      1.0  0.34953  0.82562  0.56969  1.0000
  C   C273      1.0  0.08201  0.39223  0.74782  1.0000
  C   C274      1.0  0.10718  0.41364  0.69696  1.0000
  C  Sn47      1.0  0.10928  0.44189  0.66145  1.0000
  C  Sn48      1.0  0.08571  0.44877  0.67732  1.0000
  C   C275      1.0  0.06064  0.42720  0.72843  1.0000
  C   C276      1.0  0.05876  0.39900  0.76358  1.0000
  H   H167      1.0  0.08057  0.37042  0.77513  1.0000
  O  Te47      1.0  0.13458  0.46302  0.61071  1.0000
  O  Te48      1.0  0.08724  0.47683  0.64270  1.0000
  H   H168      1.0  0.03928  0.38243  0.80309  1.0000
  Mg  Mg24      1.0  0.12629  0.49813  0.57770  1.0000
