data_image0
_chemical_formula_structural       H216C276N24O24SnCSn2CSnTe4Mg2SnCSn2CSnTe4Mg2SnCSn2CSnTe4Mg2SnCSn2CSnTe4Mg2SnCSn2CSnTe4Mg2SnCSn2CSnTe4Mg2SnCSn2CSnTe4Mg2SnCSn2CSnTe4Mg2SnCSn2CSnTe4Mg2SnCSn2CSnTe4Mg2SnCSn2CSnTe4Mg2SnCSn2CSnTe4Mg2
_chemical_formula_sum              "H216 C300 N24 O24 Sn48 Te48 Mg24"
_cell_length_a       49.7814
_cell_length_b       49.3876
_cell_length_c       7.99097
_cell_angle_alpha    98.405
_cell_angle_beta     63.944
_cell_angle_gamma    120.193

_symmetry_space_group_name_H-M    'P1'
_space_group_IT_number       1

loop_
  _space_group_symop_operation_xyz
  'x, y, z'

loop_
  _atom_site_type_symbol
  _atom_site_label
  _atom_site_symmetry_multiplicity
  _atom_site_fract_x
  _atom_site_fract_y
  _atom_site_fract_z
  _atom_site_occupancy
  H   H1        1.0  0.43257  0.48932  0.28685  1.0000
  H   H2        1.0  0.51388  0.96984  0.28839  1.0000
  H   H3        1.0  0.03432  0.57082  0.29435  1.0000
  H   H4        1.0  0.55166  0.53084  0.34642  1.0000
  H   H5        1.0  0.47281  0.04980  0.27017  1.0000
  H   H6        1.0  0.95715  0.44816  0.26502  1.0000
  H   H7        1.0  0.50202  0.49022  0.37830  1.0000
  H   H8        1.0  0.51232  0.04508  0.26615  1.0000
  H   H9        1.0  0.97331  0.49690  0.15310  1.0000
  H   H10       1.0  0.48653  0.52950  0.20905  1.0000
  H   H11       1.0  0.48093  0.97518  0.19799  1.0000
  H   H12       1.0  0.02474  0.52512  0.32689  1.0000
  H   H13       1.0  0.47960  0.43785  0.31318  1.0000
  H   H14       1.0  0.56843  0.07056  0.22272  1.0000
  H   H15       1.0  0.94629  0.52529  0.17328  1.0000
  H   H16       1.0  0.51513  0.58230  0.20461  1.0000
  H   H17       1.0  0.42786  0.95103  0.19480  1.0000
  H   H18       1.0  0.05751  0.49949  0.26003  1.0000
  H   H19       1.0  0.38808  0.39048  0.22298  1.0000
  H   H20       1.0  0.61903  0.02073  0.21208  1.0000
  H   H21       1.0  0.98505  0.62171  0.30613  1.0000
  H   H22       1.0  0.61175  0.63144  0.24312  1.0000
  H   H23       1.0  0.37365  0.00075  0.26642  1.0000
  H   H24       1.0  0.01197  0.40037  0.22096  1.0000
  H   H25       1.0  0.52173  0.88259  0.26712  1.0000
  H   H26       1.0  0.47099  0.13359  0.09155  1.0000
  H   H27       1.0  0.87715  0.35719  0.19109  1.0000
  H   H28       1.0  0.52045  0.93030  0.23590  1.0000
  H   H29       1.0  0.47201  0.08370  0.06649  1.0000
  H   H30       1.0  0.92578  0.40821  0.18123  1.0000
  H   H31       1.0  0.60895  0.98528  0.35482  1.0000
  H   H32       1.0  0.37214  0.03947  0.52881  1.0000
  H   H33       1.0  0.96892  0.36147  0.30782  1.0000
  H   H34       1.0  0.61140  0.93718  0.37331  1.0000
  H   H35       1.0  0.37096  0.08993  0.55268  1.0000
  H   H36       1.0  0.92076  0.31021  0.30857  1.0000
  H   H37       1.0  0.65138  0.05872  0.28010  1.0000
  H   H38       1.0  0.94181  0.61901  0.33714  1.0000
  H   H39       1.0  0.32886  0.95398  0.36624  1.0000
  H   H40       1.0  0.61535  0.10933  0.12034  1.0000
  H   H41       1.0  0.91509  0.52888  0.11251  1.0000
  H   H42       1.0  0.40307  0.92486  0.02592  1.0000
  H   H43       1.0  0.66547  0.15943  0.11954  1.0000
  H   H44       1.0  0.86582  0.52825  0.10723  1.0000
  H   H45       1.0  0.35679  0.87505  0.98690  1.0000
  H   H46       1.0  0.70169  0.10788  0.26633  1.0000
  H   H47       1.0  0.89341  0.61840  0.32712  1.0000
  H   H48       1.0  0.28302  0.90447  0.32648  1.0000
  H   H49       1.0  0.84163  0.24076  0.26771  1.0000
  H   H50       1.0  0.75172  0.61685  0.40896  1.0000
  H   H51       1.0  0.38984  0.17476  0.48969  1.0000
  H   H52       1.0  0.14631  0.76604  0.51739  1.0000
  H   H53       1.0  0.22189  0.39621  0.36563  1.0000
  H   H54       1.0  0.60696  0.85659  0.31557  1.0000
  H   H55       1.0  0.74412  0.22427  0.15720  1.0000
  H   H56       1.0  0.79477  0.54155  0.14364  1.0000
  H   H57       1.0  0.47264  0.26613  0.00676  1.0000
  H   H58       1.0  0.26656  0.80008  0.05128  1.0000
  H   H59       1.0  0.21583  0.47576  0.09289  1.0000
  H   H60       1.0  0.53152  0.75069  0.18578  1.0000
  H   H61       1.0  0.84817  0.31358  0.13445  1.0000
  H   H62       1.0  0.69826  0.54848  0.21645  1.0000
  H   H63       1.0  0.45319  0.16190  0.06787  1.0000
  H   H64       1.0  0.15779  0.71134  0.15330  1.0000
  H   H65       1.0  0.30632  0.46552  0.08984  1.0000
  H   H66       1.0  0.54030  0.85132  0.19562  1.0000
  H   H67       1.0  0.73870  0.15108  0.27260  1.0000
  H   H68       1.0  0.85254  0.61343  0.29637  1.0000
  H   H69       1.0  0.40729  0.27753  0.42587  1.0000
  H   H70       1.0  0.25558  0.85479  0.41284  1.0000
  H   H71       1.0  0.13150  0.40605  0.35103  1.0000
  H   H72       1.0  0.59835  0.75476  0.29535  1.0000
  H   H73       1.0  0.13163  0.34041  0.58161  1.0000
  H   H74       1.0  0.66701  0.83919  0.34395  1.0000
  H   H75       1.0  0.14318  0.81148  0.60043  1.0000
  H   H76       1.0  0.82118  0.67397  0.52072  1.0000
  H   H77       1.0  0.33507  0.20548  0.79547  1.0000
  H   H78       1.0  0.81618  0.15963  0.33734  1.0000
  H   H79       1.0  0.17390  0.34927  0.41085  1.0000
  H   H80       1.0  0.65994  0.85864  0.20660  1.0000
  H   H81       1.0  0.15128  0.79795  0.76114  1.0000
  H   H82       1.0  0.79627  0.66382  0.39053  1.0000
  H   H83       1.0  0.33918  0.17664  0.63589  1.0000
  H   H84       1.0  0.84559  0.19374  0.16793  1.0000
  H   H85       1.0  0.18200  0.35896  0.11155  1.0000
  H   H86       1.0  0.63885  0.82369  0.94681  1.0000
  H   H87       1.0  0.14793  0.78338  0.21032  1.0000
  H   H88       1.0  0.79716  0.63645  0.03663  1.0000
  H   H89       1.0  0.36346  0.16463  0.25438  1.0000
  H   H90       1.0  0.82168  0.17861  0.94880  1.0000
  H   H91       1.0  0.26692  0.52456  0.06684  1.0000
  H   H92       1.0  0.47777  0.74758  0.30467  1.0000
  H   H93       1.0  0.27013  0.75536  0.95550  1.0000
  H   H94       1.0  0.74491  0.49241  0.19668  1.0000
  H   H95       1.0  0.52350  0.26238  0.86790  1.0000
  H   H96       1.0  0.74053  0.26989  0.24270  1.0000
  H   H97       1.0  0.28436  0.49518  0.35024  1.0000
  H   H98       1.0  0.50779  0.73155  0.53362  1.0000
  H   H99       1.0  0.26237  0.75755  0.25966  1.0000
  H   H100      1.0  0.78466  0.50860  0.39254  1.0000
  H   H101      1.0  0.49739  0.22182  0.22765  1.0000
  H   H102      1.0  0.75684  0.24946  0.52700  1.0000
  H   H103      1.0  0.32019  0.52393  0.39724  1.0000
  H   H104      1.0  0.47471  0.74177  0.65807  1.0000
  H   H105      1.0  0.25034  0.71689  0.28212  1.0000
  H   H106      1.0  0.74109  0.47626  0.47665  1.0000
  H   H107      1.0  0.52788  0.21062  0.20436  1.0000
  H   H108      1.0  0.76738  0.28746  0.60856  1.0000
  H   H109      1.0  0.43890  0.46674  0.82702  1.0000
  H   H110      1.0  0.51715  0.94332  0.80392  1.0000
  H   H111      1.0  0.04180  0.55059  0.77530  1.0000
  H   H112      1.0  0.56070  0.50738  0.84297  1.0000
  H   H113      1.0  0.47546  0.02331  0.79136  1.0000
  H   H114      1.0  0.96199  0.42649  0.77244  1.0000
  H   H115      1.0  0.51640  0.46442  0.79961  1.0000
  H   H116      1.0  0.51370  0.01796  0.78185  1.0000
  H   H117      1.0  0.97671  0.47378  0.67592  1.0000
  H   H118      1.0  0.48794  0.50520  0.77172  1.0000
  H   H119      1.0  0.48355  0.94892  0.69629  1.0000
  H   H120      1.0  0.02942  0.50364  0.84202  1.0000
  H   H121      1.0  0.48848  0.41190  0.73968  1.0000
  H   H122      1.0  0.56803  0.04388  0.74747  1.0000
  H   H123      1.0  0.94838  0.50085  0.70185  1.0000
  H   H124      1.0  0.51770  0.55637  0.74260  1.0000
  H   H125      1.0  0.43376  0.92790  0.64304  1.0000
  H   H126      1.0  0.05921  0.47679  0.80225  1.0000
  H   H127      1.0  0.38758  0.36816  0.76007  1.0000
  H   H128      1.0  0.62054  0.99714  0.75607  1.0000
  H   H129      1.0  0.99645  0.60115  0.72356  1.0000
  H   H130      1.0  0.61496  0.60830  0.77210  1.0000
  H   H131      1.0  0.38597  0.98244  0.68665  1.0000
  H   H132      1.0  0.01334  0.37736  0.76799  1.0000
  H   H133      1.0  0.36189  0.46621  0.65216  1.0000
  H   H134      1.0  0.13204  0.65023  0.71023  1.0000
  H   H135      1.0  0.66242  0.51954  0.77351  1.0000
  H   H136      1.0  0.41069  0.46510  0.65273  1.0000
  H   H137      1.0  0.08927  0.59899  0.66128  1.0000
  H   H138      1.0  0.61167  0.51361  0.75848  1.0000
  H   H139      1.0  0.34216  0.37499  0.97550  1.0000
  H   H140      1.0  0.01212  0.62705  0.92463  1.0000
  H   H141      1.0  0.63726  0.60770  0.91709  1.0000
  H   H142      1.0  0.29257  0.37661  0.98048  1.0000
  H   H143      1.0  0.05512  0.67847  0.97287  1.0000
  H   H144      1.0  0.68889  0.61382  0.92534  1.0000
  H   H145      1.0  0.38832  0.33072  0.95402  1.0000
  H   H146      1.0  0.65280  0.03810  0.82224  1.0000
  H   H147      1.0  0.33999  0.93661  0.84128  1.0000
  H   H148      1.0  0.48607  0.37426  0.47642  1.0000
  H   H149      1.0  0.61406  0.08265  0.63539  1.0000
  H   H150      1.0  0.40676  0.90480  0.42941  1.0000
  H   H151      1.0  0.48677  0.32345  0.44354  1.0000
  H   H152      1.0  0.66319  0.13426  0.62064  1.0000
  H   H153      1.0  0.35581  0.85795  0.40539  1.0000
  H   H154      1.0  0.38886  0.28041  0.92078  1.0000
  H   H155      1.0  0.70215  0.08895  0.79836  1.0000
  H   H156      1.0  0.28990  0.89080  0.81437  1.0000
  H   H157      1.0  0.83974  0.22281  0.78460  1.0000
  H   H158      1.0  0.76998  0.60832  0.85647  1.0000
  H   H159      1.0  0.38921  0.14810  0.98563  1.0000
  H   H160      1.0  0.14525  0.75432  0.96756  1.0000
  H   H161      1.0  0.23329  0.38913  0.89363  1.0000
  H   H162      1.0  0.61097  0.83048  0.81099  1.0000
  H   H163      1.0  0.74211  0.20630  0.67590  1.0000
  H   H164      1.0  0.80854  0.52934  0.61449  1.0000
  H   H165      1.0  0.47051  0.23959  0.50316  1.0000
  H   H166      1.0  0.26553  0.78944  0.49815  1.0000
  H   H167      1.0  0.22918  0.46821  0.60261  1.0000
  H   H168      1.0  0.53613  0.72537  0.67100  1.0000
  H   H169      1.0  0.84391  0.29640  0.68281  1.0000
  H   H170      1.0  0.71537  0.53917  0.67012  1.0000
  H   H171      1.0  0.45421  0.13665  0.56671  1.0000
  H   H172      1.0  0.15843  0.69927  0.60595  1.0000
  H   H173      1.0  0.31815  0.45891  0.63965  1.0000
  H   H174      1.0  0.54253  0.82529  0.70616  1.0000
  H   H175      1.0  0.73750  0.13321  0.79522  1.0000
  H   H176      1.0  0.86901  0.59995  0.74701  1.0000
  H   H177      1.0  0.40802  0.25203  0.93398  1.0000
  H   H178      1.0  0.25585  0.84292  0.86638  1.0000
  H   H179      1.0  0.14404  0.39995  0.89348  1.0000
  H   H180      1.0  0.60030  0.72797  0.79579  1.0000
  H   H181      1.0  0.14274  0.33258  0.09109  1.0000
  H   H182      1.0  0.67134  0.81242  0.83233  1.0000
  H   H183      1.0  0.16220  0.82463  0.21234  1.0000
  H   H184      1.0  0.84196  0.66466  0.95781  1.0000
  H   H185      1.0  0.33427  0.17847  0.29715  1.0000
  H   H186      1.0  0.81410  0.14153  0.85413  1.0000
  H   H187      1.0  0.18315  0.34005  0.90020  1.0000
  H   H188      1.0  0.66470  0.83276  0.69817  1.0000
  H   H189      1.0  0.14296  0.80215  0.05784  1.0000
  H   H190      1.0  0.82106  0.65772  0.80859  1.0000
  H   H191      1.0  0.33775  0.15096  0.12586  1.0000
  H   H192      1.0  0.84380  0.17736  0.70180  1.0000
  H   H193      1.0  0.16851  0.36987  0.61729  1.0000
  H   H194      1.0  0.63499  0.85096  0.45661  1.0000
  H   H195      1.0  0.16322  0.83861  0.74025  1.0000
  H   H196      1.0  0.77718  0.64287  0.61401  1.0000
  H   H197      1.0  0.36620  0.19441  0.75815  1.0000
  H   H198      1.0  0.82713  0.19792  0.41399  1.0000
  H   H199      1.0  0.27730  0.51484  0.55869  1.0000
  H   H200      1.0  0.48360  0.72216  0.78252  1.0000
  H   H201      1.0  0.26907  0.74389  0.42635  1.0000
  H   H202      1.0  0.76620  0.48361  0.60032  1.0000
  H   H203      1.0  0.52084  0.23792  0.36920  1.0000
  H   H204      1.0  0.73815  0.25277  0.77419  1.0000
  H   H205      1.0  0.26609  0.50409  0.86249  1.0000
  H   H206      1.0  0.50253  0.75625  0.05520  1.0000
  H   H207      1.0  0.26196  0.77042  0.80226  1.0000
  H   H208      1.0  0.76758  0.51153  0.96349  1.0000
  H   H209      1.0  0.49795  0.24892  0.73825  1.0000
  H   H210      1.0  0.76184  0.26884  0.99442  1.0000
  H   H211      1.0  0.30635  0.53094  0.87039  1.0000
  H   H212      1.0  0.46969  0.76700  0.17346  1.0000
  H   H213      1.0  0.25014  0.72965  0.81212  1.0000
  H   H214      1.0  0.72266  0.48294  0.05248  1.0000
  H   H215      1.0  0.52654  0.23447  0.69847  1.0000
  H   H216      1.0  0.76995  0.30585  0.08951  1.0000
  C   C1        1.0  0.40641  0.43971  0.26005  1.0000
  C   C2        1.0  0.56617  0.99159  0.25770  1.0000
  C   C3        1.0  0.01292  0.59956  0.30029  1.0000
  C   C4        1.0  0.58505  0.58123  0.29886  1.0000
  C   C5        1.0  0.42303  0.02814  0.27236  1.0000
  C   C6        1.0  0.98048  0.42004  0.24457  1.0000
  C   C7        1.0  0.43344  0.46754  0.27729  1.0000
  C   C8        1.0  0.53770  0.99177  0.26293  1.0000
  C   C9        1.0  0.01435  0.57159  0.27579  1.0000
  C   C10       1.0  0.55539  0.55320  0.30977  1.0000
  C   C11       1.0  0.45209  0.02801  0.25631  1.0000
  C   C12       1.0  0.97978  0.44835  0.25451  1.0000
  C   C13       1.0  0.46016  0.46725  0.29631  1.0000
  C   C14       1.0  0.53883  0.02025  0.24368  1.0000
  C   C15       1.0  0.99016  0.54458  0.23190  1.0000
  C   C16       1.0  0.53036  0.55352  0.27290  1.0000
  C   C17       1.0  0.45401  0.00012  0.22990  1.0000
  C   C18       1.0  0.00761  0.47726  0.25665  1.0000
  C   C19       1.0  0.48857  0.49511  0.32044  1.0000
  C   C20       1.0  0.51022  0.02188  0.24640  1.0000
  C   C21       1.0  0.98985  0.51455  0.21460  1.0000
  C   C22       1.0  0.50012  0.52523  0.26883  1.0000
  C   C23       1.0  0.48271  0.99819  0.22304  1.0000
  C   C24       1.0  0.00783  0.50719  0.26836  1.0000
  C   C25       1.0  0.45972  0.43850  0.29245  1.0000
  C   C26       1.0  0.56856  0.04875  0.22755  1.0000
  C   C27       1.0  0.96451  0.54625  0.21008  1.0000
  C   C28       1.0  0.53487  0.58258  0.23129  1.0000
  C   C29       1.0  0.42654  0.97265  0.21365  1.0000
  C   C30       1.0  0.03632  0.47747  0.25218  1.0000
  C   C31       1.0  0.43431  0.41077  0.26244  1.0000
  C   C32       1.0  0.59774  0.04959  0.21842  1.0000
  C   C33       1.0  0.96134  0.57349  0.24042  1.0000
  C   C34       1.0  0.56361  0.61123  0.22476  1.0000
  C   C35       1.0  0.39716  0.97207  0.22759  1.0000
  C   C36       1.0  0.03791  0.44969  0.24027  1.0000
  C   C37       1.0  0.40766  0.41165  0.24943  1.0000
  C   C38       1.0  0.59618  0.02066  0.22823  1.0000
  C   C39       1.0  0.98584  0.59985  0.28699  1.0000
  C   C40       1.0  0.58857  0.60979  0.25503  1.0000
  C   C41       1.0  0.39552  0.00004  0.26067  1.0000
  C   C42       1.0  0.00992  0.42151  0.23636  1.0000
  C   C43       1.0  0.56798  0.90661  0.31344  1.0000
  C   C44       1.0  0.41992  0.11478  0.31941  1.0000
  C   C45       1.0  0.89570  0.32958  0.24721  1.0000
  C   C46       1.0  0.54134  0.90506  0.28372  1.0000
  C   C47       1.0  0.44900  0.11297  0.18583  1.0000
  C   C48       1.0  0.89737  0.35787  0.21464  1.0000
  C   C49       1.0  0.54048  0.93227  0.26744  1.0000
  C   C50       1.0  0.44984  0.08503  0.17400  1.0000
  C   C51       1.0  0.92479  0.38688  0.21156  1.0000
  C   C52       1.0  0.56556  0.96221  0.28391  1.0000
  C   C53       1.0  0.42196  0.05785  0.29352  1.0000
  C   C54       1.0  0.95168  0.38931  0.24250  1.0000
  C   C55       1.0  0.59062  0.96317  0.32674  1.0000
  C   C56       1.0  0.39342  0.05992  0.43054  1.0000
  C   C57       1.0  0.94967  0.36099  0.27561  1.0000
  C   C58       1.0  0.59190  0.93617  0.34069  1.0000
  C   C59       1.0  0.39263  0.08797  0.44460  1.0000
  C   C60       1.0  0.92242  0.33188  0.27817  1.0000
  C   C61       1.0  0.65435  0.08048  0.24004  1.0000
  C   C62       1.0  0.92566  0.59897  0.28421  1.0000
  C   C63       1.0  0.33518  0.93663  0.28510  1.0000
  C   C64       1.0  0.62870  0.07969  0.20393  1.0000
  C   C65       1.0  0.93264  0.57379  0.22821  1.0000
  C   C66       1.0  0.36942  0.94276  0.20441  1.0000
  C   C67       1.0  0.63360  0.10878  0.15758  1.0000
  C   C68       1.0  0.91034  0.54838  0.16391  1.0000
  C   C69       1.0  0.37663  0.92004  0.09680  1.0000
  C   C70       1.0  0.66179  0.13702  0.15533  1.0000
  C   C71       1.0  0.88240  0.54778  0.16059  1.0000
  C   C72       1.0  0.35094  0.89222  0.07344  1.0000
  C   C73       1.0  0.68688  0.13765  0.19598  1.0000
  C   C74       1.0  0.87522  0.57265  0.21897  1.0000
  C   C75       1.0  0.31655  0.88544  0.16332  1.0000
  C   C76       1.0  0.68294  0.10858  0.23452  1.0000
  C   C77       1.0  0.89788  0.59861  0.27958  1.0000
  C   C78       1.0  0.30921  0.90857  0.26513  1.0000
  C   C79       1.0  0.79229  0.25878  0.16975  1.0000
  C   C80       1.0  0.75340  0.55147  0.21385  1.0000
  C   C81       1.0  0.45755  0.21865  0.08793  1.0000
  C   C82       1.0  0.21344  0.76241  0.15355  1.0000
  C   C83       1.0  0.24944  0.46321  0.12475  1.0000
  C   C84       1.0  0.54070  0.79855  0.22656  1.0000
  C   C85       1.0  0.81993  0.26304  0.20196  1.0000
  C   C86       1.0  0.74168  0.57353  0.28668  1.0000
  C   C87       1.0  0.43356  0.19266  0.22669  1.0000
  C   C88       1.0  0.17911  0.75304  0.28718  1.0000
  C   C89       1.0  0.25069  0.44018  0.20328  1.0000
  C   C90       1.0  0.56278  0.82880  0.26098  1.0000
  C   C91       1.0  0.82005  0.23644  0.24348  1.0000
  C   C92       1.0  0.76182  0.60085  0.35141  1.0000
  C   C93       1.0  0.40728  0.19493  0.38510  1.0000
  C   C94       1.0  0.17283  0.77401  0.41732  1.0000
  C   C95       1.0  0.21974  0.41299  0.30579  1.0000
  C   C96       1.0  0.59057  0.83309  0.28993  1.0000
  C   C97       1.0  0.79365  0.20618  0.25296  1.0000
  C   C98       1.0  0.79303  0.60691  0.34005  1.0000
  C   C99       1.0  0.40368  0.22145  0.40322  1.0000
  C   C100      1.0  0.19936  0.80382  0.41261  1.0000
  C   C101      1.0  0.18826  0.40825  0.32897  1.0000
  C   C102      1.0  0.59675  0.80833  0.28355  1.0000
  C   C103      1.0  0.76572  0.20195  0.22335  1.0000
  C   C104      1.0  0.80496  0.58500  0.26548  1.0000
  C   C105      1.0  0.42777  0.24749  0.26482  1.0000
  C   C106      1.0  0.23353  0.81312  0.27909  1.0000
  C   C107      1.0  0.18708  0.43134  0.25005  1.0000
  C   C108      1.0  0.57497  0.77816  0.24554  1.0000
  C   C109      1.0  0.76577  0.22866  0.18079  1.0000
  C   C110      1.0  0.78460  0.55748  0.20328  1.0000
  C   C111      1.0  0.45461  0.24563  0.10870  1.0000
  C   C112      1.0  0.24002  0.79209  0.15089  1.0000
  C   C113      1.0  0.21802  0.45869  0.14969  1.0000
  C   C114      1.0  0.54726  0.77398  0.21677  1.0000
  C   C115      1.0  0.84738  0.29448  0.19433  1.0000
  C   C116      1.0  0.71028  0.56861  0.28707  1.0000
  C   C117      1.0  0.43548  0.16387  0.20551  1.0000
  C   C118      1.0  0.15095  0.72324  0.27915  1.0000
  C   C119      1.0  0.28326  0.44513  0.18408  1.0000
  C   C120      1.0  0.55737  0.85504  0.25860  1.0000
  C   C121      1.0  0.73772  0.17074  0.23299  1.0000
  C   C122      1.0  0.83704  0.59046  0.25822  1.0000
  C   C123      1.0  0.42518  0.27593  0.28771  1.0000
  C   C124      1.0  0.26134  0.84352  0.28294  1.0000
  C   C125      1.0  0.15493  0.42739  0.26841  1.0000
  C   C126      1.0  0.58044  0.75165  0.24007  1.0000
  C   C127      1.0  0.15835  0.35922  0.51259  1.0000
  C   C128      1.0  0.64767  0.84206  0.32950  1.0000
  C   C129      1.0  0.16091  0.81777  0.66445  1.0000
  C   C130      1.0  0.80107  0.65460  0.48553  1.0000
  C   C131      1.0  0.35312  0.19834  0.69158  1.0000
  C   C132      1.0  0.82251  0.18332  0.30157  1.0000
  C   C133      1.0  0.27950  0.51354  0.95357  1.0000
  C   C134      1.0  0.48951  0.76451  0.18449  1.0000
  C   C135      1.0  0.25236  0.74993  0.89349  1.0000
  C   C136      1.0  0.74289  0.50175  0.08875  1.0000
  C   C137      1.0  0.50926  0.24220  0.80448  1.0000
  C   C138      1.0  0.76441  0.28198  0.11479  1.0000
  C   C139      1.0  0.41011  0.41794  0.79374  1.0000
  C   C140      1.0  0.56872  0.96665  0.78651  1.0000
  C   C141      1.0  0.02145  0.57916  0.75824  1.0000
  C   C142      1.0  0.59120  0.55821  0.81266  1.0000
  C   C143      1.0  0.43084  0.00611  0.74138  1.0000
  C   C144      1.0  0.98370  0.39791  0.76912  1.0000
  C   C145      1.0  0.43920  0.44465  0.80011  1.0000
  C   C146      1.0  0.54000  0.96577  0.78691  1.0000
  C   C147      1.0  0.02156  0.55078  0.75629  1.0000
  C   C148      1.0  0.56265  0.52944  0.81682  1.0000
  C   C149      1.0  0.45695  0.00353  0.74981  1.0000
  C   C150      1.0  0.98388  0.42649  0.77149  1.0000
  C   C151      1.0  0.46790  0.44305  0.78069  1.0000
  C   C152      1.0  0.54000  0.99362  0.76750  1.0000
  C   C153      1.0  0.99534  0.52248  0.73402  1.0000
  C   C154      1.0  0.53614  0.52881  0.79052  1.0000
  C   C155      1.0  0.45874  0.97553  0.71284  1.0000
  C   C156      1.0  0.01098  0.45518  0.78202  1.0000
  C   C157      1.0  0.49850  0.47007  0.79064  1.0000
  C   C158      1.0  0.51174  0.99485  0.76111  1.0000
  C   C159      1.0  0.99400  0.49218  0.73106  1.0000
  C   C160      1.0  0.50602  0.50043  0.78612  1.0000
  C   C161      1.0  0.48541  0.97196  0.72418  1.0000
  C   C162      1.0  0.01198  0.48532  0.78753  1.0000
  C   C163      1.0  0.46678  0.41378  0.75292  1.0000
  C   C164      1.0  0.56896  0.02260  0.75482  1.0000
  C   C165      1.0  0.96875  0.52300  0.71567  1.0000
  C   C166      1.0  0.53841  0.55750  0.76318  1.0000
  C   C167      1.0  0.43328  0.94998  0.66753  1.0000
  C   C168      1.0  0.03848  0.45494  0.78936  1.0000
  C   C169      1.0  0.43787  0.38662  0.74810  1.0000
  C   C170      1.0  0.59839  0.02468  0.75091  1.0000
  C   C171      1.0  0.96801  0.55108  0.71731  1.0000
  C   C172      1.0  0.56637  0.58663  0.75827  1.0000
  C   C173      1.0  0.40608  0.95164  0.66485  1.0000
  C   C174      1.0  0.03983  0.42714  0.78260  1.0000
  C   C175      1.0  0.40962  0.38890  0.77020  1.0000
  C   C176      1.0  0.59772  0.99629  0.76514  1.0000
  C   C177      1.0  0.99498  0.57881  0.73521  1.0000
  C   C178      1.0  0.59233  0.58621  0.78309  1.0000
  C   C179      1.0  0.40556  0.98006  0.69973  1.0000
  C   C180      1.0  0.01203  0.39883  0.77556  1.0000
  C   C181      1.0  0.32347  0.42064  0.81198  1.0000
  C   C182      1.0  0.09668  0.66839  0.83813  1.0000
  C   C183      1.0  0.68074  0.56812  0.83946  1.0000
  C   C184      1.0  0.35720  0.44609  0.72355  1.0000
  C   C185      1.0  0.10588  0.64533  0.75361  1.0000
  C   C186      1.0  0.65760  0.53930  0.79968  1.0000
  C   C187      1.0  0.38483  0.44555  0.72397  1.0000
  C   C188      1.0  0.08166  0.61637  0.72868  1.0000
  C   C189      1.0  0.62850  0.53587  0.79399  1.0000
  C   C190      1.0  0.38034  0.41956  0.80812  1.0000
  C   C191      1.0  0.04761  0.60940  0.78566  1.0000
  C   C192      1.0  0.62083  0.56062  0.82903  1.0000
  C   C193      1.0  0.34659  0.39467  0.90133  1.0000
  C   C194      1.0  0.03855  0.63232  0.87375  1.0000
  C   C195      1.0  0.64324  0.58868  0.87775  1.0000
  C   C196      1.0  0.31878  0.39541  0.90492  1.0000
  C   C197      1.0  0.06238  0.66104  0.90244  1.0000
  C   C198      1.0  0.67228  0.59227  0.88366  1.0000
  C   C199      1.0  0.41000  0.32918  0.84223  1.0000
  C   C200      1.0  0.65499  0.05891  0.77421  1.0000
  C   C201      1.0  0.34369  0.91966  0.74337  1.0000
  C   C202      1.0  0.43762  0.35629  0.72147  1.0000
  C   C203      1.0  0.62871  0.05575  0.73354  1.0000
  C   C204      1.0  0.37718  0.92411  0.63842  1.0000
  C   C205      1.0  0.46530  0.35390  0.57665  1.0000
  C   C206      1.0  0.63260  0.08368  0.67689  1.0000
  C   C207      1.0  0.38109  0.90148  0.51612  1.0000
  C   C208      1.0  0.46578  0.32567  0.55725  1.0000
  C   C209      1.0  0.66052  0.11298  0.66600  1.0000
  C   C210      1.0  0.35274  0.87532  0.50130  1.0000
  C   C211      1.0  0.43902  0.29899  0.68457  1.0000
  C   C212      1.0  0.68630  0.11603  0.70998  1.0000
  C   C213      1.0  0.31918  0.87030  0.61301  1.0000
  C   C214      1.0  0.41057  0.30101  0.82518  1.0000
  C   C215      1.0  0.68309  0.08803  0.76204  1.0000
  C   C216      1.0  0.31535  0.89352  0.73066  1.0000
  C   C217      1.0  0.79013  0.24084  0.69016  1.0000
  C   C218      1.0  0.76866  0.54099  0.67585  1.0000
  C   C219      1.0  0.45700  0.19278  0.58565  1.0000
  C   C220      1.0  0.21268  0.75110  0.60469  1.0000
  C   C221      1.0  0.26201  0.45605  0.64763  1.0000
  C   C222      1.0  0.54569  0.77337  0.71147  1.0000
  C   C223      1.0  0.81830  0.24535  0.71861  1.0000
  C   C224      1.0  0.75782  0.56365  0.74680  1.0000
  C   C225      1.0  0.43347  0.16686  0.72493  1.0000
  C   C226      1.0  0.17843  0.74153  0.73872  1.0000
  C   C227      1.0  0.26269  0.43333  0.73351  1.0000
  C   C228      1.0  0.56759  0.80346  0.74978  1.0000
  C   C229      1.0  0.81829  0.21852  0.75911  1.0000
  C   C230      1.0  0.77901  0.59146  0.80323  1.0000
  C   C231      1.0  0.40673  0.16851  0.88287  1.0000
  C   C232      1.0  0.17183  0.76247  0.86792  1.0000
  C   C233      1.0  0.23156  0.40597  0.83148  1.0000
  C   C234      1.0  0.59511  0.80729  0.77949  1.0000
  C   C235      1.0  0.79179  0.18831  0.76967  1.0000
  C   C236      1.0  0.81024  0.59691  0.78980  1.0000
  C   C237      1.0  0.40334  0.19523  0.90541  1.0000
  C   C238      1.0  0.19835  0.79218  0.86648  1.0000
  C   C239      1.0  0.20046  0.40147  0.85110  1.0000
  C   C240      1.0  0.60155  0.78256  0.76815  1.0000
  C   C241      1.0  0.76391  0.18379  0.73819  1.0000
  C   C242      1.0  0.82030  0.57364  0.72490  1.0000
  C   C243      1.0  0.42706  0.22135  0.76746  1.0000
  C   C244      1.0  0.23263  0.80176  0.73144  1.0000
  C   C245      1.0  0.19955  0.42467  0.77147  1.0000
  C   C246      1.0  0.57972  0.75265  0.72944  1.0000
  C   C247      1.0  0.76380  0.21051  0.69856  1.0000
  C   C248      1.0  0.79929  0.54606  0.66664  1.0000
  C   C249      1.0  0.45321  0.21928  0.60668  1.0000
  C   C250      1.0  0.23900  0.78103  0.59974  1.0000
  C   C251      1.0  0.23081  0.45145  0.66650  1.0000
  C   C252      1.0  0.55211  0.74869  0.70046  1.0000
  C   C253      1.0  0.84609  0.27679  0.71187  1.0000
  C   C254      1.0  0.72589  0.55804  0.75183  1.0000
  C   C255      1.0  0.43677  0.13880  0.70498  1.0000
  C   C256      1.0  0.15118  0.71090  0.73247  1.0000
  C   C257      1.0  0.29454  0.43788  0.72457  1.0000
  C   C258      1.0  0.56184  0.82973  0.75372  1.0000
  C   C259      1.0  0.73651  0.15212  0.74610  1.0000
  C   C260      1.0  0.85113  0.57687  0.72233  1.0000
  C   C261      1.0  0.42478  0.25002  0.79299  1.0000
  C   C262      1.0  0.26129  0.83143  0.73694  1.0000
  C   C263      1.0  0.16683  0.42031  0.79773  1.0000
  C   C264      1.0  0.58440  0.72583  0.72840  1.0000
  C   C265      1.0  0.16975  0.35035  0.01489  1.0000
  C   C266      1.0  0.65212  0.81550  0.81807  1.0000
  C   C267      1.0  0.15943  0.80511  0.12398  1.0000
  C   C268      1.0  0.82223  0.64686  0.91429  1.0000
  C   C269      1.0  0.35183  0.17116  0.18957  1.0000
  C   C270      1.0  0.81960  0.16535  0.82813  1.0000
  C   C271      1.0  0.29334  0.50513  0.46001  1.0000
  C   C272      1.0  0.49493  0.73946  0.66530  1.0000
  C   C273      1.0  0.25205  0.73763  0.35759  1.0000
  C   C274      1.0  0.76091  0.49467  0.51734  1.0000
  C   C275      1.0  0.50866  0.21695  0.30290  1.0000
  C   C276      1.0  0.76124  0.26368  0.64114  1.0000
  N   N1        1.0  0.28427  0.42683  0.27964  1.0000
  N   N2        1.0  0.57285  0.88133  0.32186  1.0000
  N   N3        1.0  0.11953  0.71230  0.40670  1.0000
  N   N4        1.0  0.69870  0.58802  0.35878  1.0000
  N   N5        1.0  0.41657  0.14177  0.34196  1.0000
  N   N6        1.0  0.86950  0.29907  0.25466  1.0000
  N   N7        1.0  0.56368  0.72573  0.17792  1.0000
  N   N8        1.0  0.29156  0.85615  0.14378  1.0000
  N   N9        1.0  0.15540  0.44855  0.18604  1.0000
  N   N10       1.0  0.44394  0.29860  0.15463  1.0000
  N   N11       1.0  0.71359  0.16744  0.19387  1.0000
  N   N12       1.0  0.84565  0.56866  0.21424  1.0000
  N   N13       1.0  0.29362  0.41766  0.81771  1.0000
  N   N14       1.0  0.57917  0.85659  0.80650  1.0000
  N   N15       1.0  0.12004  0.69826  0.86295  1.0000
  N   N16       1.0  0.71144  0.57472  0.84195  1.0000
  N   N17       1.0  0.41916  0.11718  0.84296  1.0000
  N   N18       1.0  0.87108  0.28037  0.74388  1.0000
  N   N19       1.0  0.56880  0.70035  0.65931  1.0000
  N   N20       1.0  0.29182  0.84231  0.59979  1.0000
  N   N21       1.0  0.16503  0.43919  0.71113  1.0000
  N   N22       1.0  0.44235  0.27195  0.65679  1.0000
  N   N23       1.0  0.71266  0.14689  0.69820  1.0000
  N   N24       1.0  0.85580  0.55270  0.69527  1.0000
  O   O1        1.0  0.15735  0.38162  0.42298  1.0000
  O   O2        1.0  0.62393  0.81122  0.30573  1.0000
  O   O3        1.0  0.19493  0.82656  0.52490  1.0000
  O   O4        1.0  0.81409  0.63365  0.39676  1.0000
  O   O5        1.0  0.37695  0.22394  0.54695  1.0000
  O   O6        1.0  0.79307  0.17935  0.28661  1.0000
  O   O7        1.0  0.28061  0.48958  0.02779  1.0000
  O   O8        1.0  0.51286  0.79533  0.21065  1.0000
  O   O9        1.0  0.21826  0.74049  0.03538  1.0000
  O   O10       1.0  0.73219  0.52481  0.15864  1.0000
  O   O11       1.0  0.48349  0.21551  0.94037  1.0000
  O   O12       1.0  0.79325  0.28588  0.13600  1.0000
  O   O13       1.0  0.16919  0.37498  0.94397  1.0000
  O   O14       1.0  0.62878  0.78509  0.78774  1.0000
  O   O15       1.0  0.19374  0.81402  0.98635  1.0000
  O   O16       1.0  0.83252  0.62366  0.83946  1.0000
  O   O17       1.0  0.37715  0.19794  0.05387  1.0000
  O   O18       1.0  0.79111  0.16130  0.80242  1.0000
  O   O19       1.0  0.29321  0.48235  0.55308  1.0000
  O   O20       1.0  0.51797  0.77023  0.69432  1.0000
  O   O21       1.0  0.21763  0.72868  0.49104  1.0000
  O   O22       1.0  0.74676  0.51404  0.62532  1.0000
  O   O23       1.0  0.48349  0.19028  0.43933  1.0000
  O   O24       1.0  0.79070  0.26762  0.65551  1.0000
  C  Sn1       1.0  0.65421  0.60965  0.43093  1.0000
  C   C277      1.0  0.66246  0.58573  0.40673  1.0000
  C  Sn2       1.0  0.64702  0.55891  0.32381  1.0000
  C  Sn3       1.0  0.62283  0.55594  0.26371  1.0000
  C   C278      1.0  0.61459  0.57984  0.28789  1.0000
  C  Sn4       1.0  0.63002  0.60667  0.37083  1.0000
  O  Te1       1.0  0.66996  0.63625  0.51416  1.0000
  O  Te2       1.0  0.65568  0.53531  0.30117  1.0000
  O  Te3       1.0  0.60707  0.52930  0.18044  1.0000
  O  Te4       1.0  0.62137  0.63026  0.39345  1.0000
  Mg  Mg1       1.0  0.62731  0.50355  0.18006  1.0000
  Mg  Mg2       1.0  0.64973  0.66204  0.51445  1.0000
  C  Sn5       1.0  0.91828  0.36314  0.75786  1.0000
  C   C279      1.0  0.94449  0.36715  0.79940  1.0000
  C  Sn6       1.0  0.94940  0.34180  0.80266  1.0000
  C  Sn7       1.0  0.92768  0.31182  0.76348  1.0000
  C   C280      1.0  0.90149  0.30782  0.72195  1.0000
  C  Sn8       1.0  0.89655  0.33315  0.71868  1.0000
  O  Te5       1.0  0.91383  0.38881  0.75538  1.0000
  O  Te6       1.0  0.97577  0.34639  0.84461  1.0000
  O  Te7       1.0  0.93214  0.28614  0.76600  1.0000
  O  Te8       1.0  0.87021  0.32858  0.67673  1.0000
  Mg  Mg3       1.0  0.97161  0.30418  0.83066  1.0000
  Mg  Mg4       1.0  0.87435  0.37078  0.69054  1.0000
  C  Sn9       1.0  0.46234  0.07346  0.72795  1.0000
  C   C281      1.0  0.43612  0.04281  0.80496  1.0000
  C  Sn10      1.0  0.40168  0.03516  0.88150  1.0000
  C  Sn11      1.0  0.39327  0.05864  0.88095  1.0000
  C   C282      1.0  0.41947  0.08927  0.80395  1.0000
  C  Sn12      1.0  0.45392  0.09693  0.72741  1.0000
  O  Te9       1.0  0.49659  0.08057  0.65220  1.0000
  O  Te10      1.0  0.37593  0.00436  0.95774  1.0000
  O  Te11      1.0  0.35898  0.05150  0.95680  1.0000
  O  Te12      1.0  0.47967  0.12771  0.65117  1.0000
  Mg  Mg5       1.0  0.41166  0.02240  0.04427  1.0000
  Mg  Mg6       1.0  0.52253  0.12588  0.56452  1.0000
  C  Sn13      1.0  0.53475  0.66232  0.19571  1.0000
  C   C283      1.0  0.55772  0.69243  0.21947  1.0000
  C  Sn14      1.0  0.58886  0.69863  0.21251  1.0000
  C  Sn15      1.0  0.59722  0.67423  0.18102  1.0000
  C   C284      1.0  0.57426  0.64415  0.15725  1.0000
  C  Sn16      1.0  0.54311  0.63792  0.16422  1.0000
  O  Te13      1.0  0.50376  0.65665  0.20319  1.0000
  O  Te14      1.0  0.61141  0.72891  0.23672  1.0000
  O  Te15      1.0  0.62823  0.67993  0.17356  1.0000
  O  Te16      1.0  0.52057  0.60766  0.14000  1.0000
  Mg  Mg7       1.0  0.65050  0.72501  0.21463  1.0000
  Mg  Mg8       1.0  0.48148  0.61154  0.16196  1.0000
  C  Sn17      1.0  0.60519  0.66971  0.64900  1.0000
  C   C285      1.0  0.58218  0.67405  0.61631  1.0000
  C  Sn18      1.0  0.54938  0.64889  0.65042  1.0000
  C  Sn19      1.0  0.53937  0.61877  0.71873  1.0000
  C   C286      1.0  0.56237  0.61445  0.75141  1.0000
  C  Sn20      1.0  0.59518  0.63959  0.71731  1.0000
  O  Te17      1.0  0.63785  0.69519  0.61393  1.0000
  O  Te18      1.0  0.52682  0.65380  0.61662  1.0000
  O  Te19      1.0  0.50668  0.59328  0.75379  1.0000
  O  Te20      1.0  0.61773  0.63469  0.75111  1.0000
  Mg  Mg9       1.0  0.48511  0.61175  0.68603  1.0000
  Mg  Mg10      1.0  0.65943  0.67673  0.68184  1.0000
  C  Sn21      1.0  0.40739  0.34684  0.37651  1.0000
  C   C287      1.0  0.43342  0.37711  0.29119  1.0000
  C  Sn22      1.0  0.46325  0.38155  0.13338  1.0000
  C  Sn23      1.0  0.46712  0.35518  0.05921  1.0000
  C   C288      1.0  0.44110  0.32493  0.14450  1.0000
  C  Sn24      1.0  0.41126  0.32046  0.30235  1.0000
  O  Te21      1.0  0.37779  0.34295  0.53415  1.0000
  O  Te22      1.0  0.48893  0.41205  0.05054  1.0000
  O  Te23      1.0  0.41817  0.34291  0.90145  1.0000
  O  Te24      1.0  0.38559  0.28999  0.38514  1.0000
  Mg  Mg11      1.0  0.44592  0.38907  0.83817  1.0000
  Mg  Mg12      1.0  0.35000  0.29676  0.59746  1.0000
  C  Sn25      1.0  0.59149  0.91574  0.90389  1.0000
  C   C289      1.0  0.57177  0.88570  0.86230  1.0000
  C  Sn26      1.0  0.55138  0.88117  0.77302  1.0000
  C  Sn27      1.0  0.55068  0.90721  0.72418  1.0000
  C   C290      1.0  0.57039  0.93724  0.76574  1.0000
  C  Sn28      1.0  0.59079  0.94179  0.85505  1.0000
  O  Te25      1.0  0.61169  0.91972  0.99320  1.0000
  O  Te26      1.0  0.53188  0.85090  0.73293  1.0000
  O  Te27      1.0  0.53045  0.90321  0.63481  1.0000
  O  Te28      1.0  0.61028  0.97203  0.89510  1.0000
  Mg  Mg13      1.0  0.50844  0.85745  0.60966  1.0000
  Mg  Mg14      1.0  0.71233  0.98170  0.01828  1.0000
  C  Sn29      1.0  0.92386  0.57665  0.81517  1.0000
  C   C291      1.0  0.93254  0.55283  0.76239  1.0000
  C  Sn30      1.0  0.91899  0.53002  0.65321  1.0000
  C  Sn31      1.0  0.89631  0.53103  0.59545  1.0000
  C   C292      1.0  0.88764  0.55483  0.64819  1.0000
  C  Sn32      1.0  0.90118  0.57766  0.75742  1.0000
  O  Te29      1.0  0.93772  0.59921  0.92435  1.0000
  O  Te30      1.0  0.92803  0.50644  0.60224  1.0000
  O  Te31      1.0  0.88245  0.50843  0.48619  1.0000
  O  Te32      1.0  0.89216  0.60123  0.80834  1.0000
  Mg  Mg15      1.0  0.90249  0.48101  0.45239  1.0000
  Mg  Mg16      1.0  0.91770  0.62668  0.95811  1.0000
  C  Sn33      1.0  0.05076  0.66839  0.51969  1.0000
  C   C293      1.0  0.08568  0.67761  0.44230  1.0000
  C  Sn34      1.0  0.09941  0.66303  0.29184  1.0000
  C  Sn35      1.0  0.07779  0.63874  0.21706  1.0000
  C   C294      1.0  0.04289  0.62953  0.29441  1.0000
  C  Sn36      1.0  0.02914  0.64409  0.44491  1.0000
  O  Te33      1.0  0.03760  0.68329  0.67007  1.0000
  O  Te34      1.0  0.13439  0.67265  0.21687  1.0000
  O  Te35      1.0  0.09099  0.62383  0.06657  1.0000
  O  Te36      1.0  0.99418  0.63449  0.51984  1.0000
  Mg  Mg17      1.0  0.14027  0.64521  0.01255  1.0000
  Mg  Mg18      1.0  0.98828  0.66192  0.72409  1.0000
  C  Sn37      1.0  0.10910  0.46880  0.06257  1.0000
  C   C295      1.0  0.07416  0.44868  0.17106  1.0000
  C  Sn38      1.0  0.06370  0.42795  0.31658  1.0000
  C  Sn39      1.0  0.08868  0.42733  0.35455  1.0000
  C   C296      1.0  0.12359  0.44744  0.24612  1.0000
  C  Sn40      1.0  0.13408  0.46818  0.10054  1.0000
  O  Te37      1.0  0.04039  0.47314  0.91780  1.0000
  O  Te38      1.0  0.02862  0.40805  0.42308  1.0000
  O  Te39      1.0  0.07878  0.40677  0.49946  1.0000
  O  Te40      1.0  0.09055  0.47189  0.99410  1.0000
  Mg  Mg19      1.0  0.02796  0.38426  0.60528  1.0000
  Mg  Mg20      1.0  0.09124  0.49570  0.81195  1.0000
  C  Sn41      1.0  0.37131  0.46817  0.21589  1.0000
  C   C297      1.0  0.37398  0.44662  0.29425  1.0000
  C  Sn42      1.0  0.34689  0.41572  0.35297  1.0000
  C  Sn43      1.0  0.31649  0.40615  0.33284  1.0000
  C   C298      1.0  0.31382  0.42769  0.25449  1.0000
  C  Sn44      1.0  0.34091  0.45860  0.19576  1.0000
  O  Te41      1.0  0.39871  0.49894  0.15815  1.0000
  O  Te42      1.0  0.35016  0.39461  0.43096  1.0000
  O  Te43      1.0  0.28907  0.37535  0.39067  1.0000
  O  Te44      1.0  0.33765  0.47970  0.11778  1.0000
  Mg  Mg21      1.0  0.30579  0.35525  0.48849  1.0000
  Mg  Mg22      1.0  0.38201  0.51906  0.06012  1.0000
  C  Sn45      1.0  0.11178  0.45195  0.60651  1.0000
  C   C299      1.0  0.07783  0.42886  0.71082  1.0000
  C  Sn46      1.0  0.07015  0.40844  0.84910  1.0000
  C  Sn47      1.0  0.09695  0.41116  0.88397  1.0000
  C   C300      1.0  0.13087  0.43424  0.77973  1.0000
  C  Sn48      1.0  0.13858  0.45467  0.64138  1.0000
  O  Te45      1.0  0.11886  0.47211  0.46896  1.0000
  O  Te46      1.0  0.03601  0.38554  0.95152  1.0000
  O  Te47      1.0  0.16842  0.40715  0.02165  1.0000
  O  Te48      1.0  0.17269  0.47756  0.53902  1.0000
  Mg  Mg23      1.0  0.11790  0.37978  0.12412  1.0000
  Mg  Mg24      1.0  0.16941  0.49953  0.36647  1.0000
