data_image0
_chemical_formula_structural       H120C204S24N24O24SnCSn2CSnTe4Mg2SnCSn2CSnTe4Mg2SnCSn2CSnTe4Mg2SnCSn2CSnTe4Mg2SnCSn2CSnTe4Mg2SnCSn2CSnTe4Mg2SnCSn2CSnTe4Mg2SnCSn2CSnTe4Mg2SnCSn2CSnTe4Mg2SnCSn2CSnTe4Mg2SnCSn2CSnTe4Mg2SnCSn2CSnTe4Mg2SnCSn2CSnTe4Mg2SnCSn2CSnTe4Mg2SnCSn2CSnTe4Mg2SnCSn2CSnTe4Mg2SnCSn2CSnTe4Mg2SnCSn2CSnTe4Mg2SnCSn2CSnTe4Mg2SnCSn2CSnTe4Mg2SnCSn2CSnTe4Mg2SnCSn2CSnTe4Mg2SnCSn2CSnTe4Mg2SnCSn2CSnTe4Mg2
_chemical_formula_sum              "H120 C252 S24 N24 O24 Sn96 Te96 Mg48"
_cell_length_a       48.9469
_cell_length_b       48.9397
_cell_length_c       8.29563
_cell_angle_alpha    88.7054
_cell_angle_beta     89.788
_cell_angle_gamma    119.983

_symmetry_space_group_name_H-M    'P1'
_space_group_IT_number       1

loop_
  _space_group_symop_operation_xyz
  'x, y, z'

loop_
  _atom_site_type_symbol
  _atom_site_label
  _atom_site_symmetry_multiplicity
  _atom_site_fract_x
  _atom_site_fract_y
  _atom_site_fract_z
  _atom_site_occupancy
  H   H1        1.0  0.43685  0.47125  0.33184  1.0000
  H   H2        1.0  0.52630  0.96482  0.31618  1.0000
  H   H3        1.0  0.03406  0.56148  0.32967  1.0000
  H   H4        1.0  0.56179  0.52767  0.32683  1.0000
  H   H5        1.0  0.47087  0.03470  0.31475  1.0000
  H   H6        1.0  0.96498  0.43664  0.31684  1.0000
  H   H7        1.0  0.52014  0.48524  0.26225  1.0000
  H   H8        1.0  0.51435  0.03609  0.28287  1.0000
  H   H9        1.0  0.96409  0.47888  0.26741  1.0000
  H   H10       1.0  0.47865  0.51522  0.30829  1.0000
  H   H11       1.0  0.48313  0.96410  0.26426  1.0000
  H   H12       1.0  0.03602  0.51975  0.28763  1.0000
  H   H13       1.0  0.49564  0.43162  0.22469  1.0000
  H   H14       1.0  0.56848  0.06526  0.24186  1.0000
  H   H15       1.0  0.93518  0.50408  0.23211  1.0000
  H   H16       1.0  0.50352  0.56968  0.25967  1.0000
  H   H17       1.0  0.42913  0.93547  0.23059  1.0000
  H   H18       1.0  0.06494  0.49473  0.23687  1.0000
  H   H19       1.0  0.39536  0.37127  0.27467  1.0000
  H   H20       1.0  0.62706  0.02317  0.27715  1.0000
  H   H21       1.0  0.97562  0.60375  0.29192  1.0000
  H   H22       1.0  0.60419  0.62843  0.27964  1.0000
  H   H23       1.0  0.37023  0.97679  0.28031  1.0000
  H   H24       1.0  0.02287  0.39391  0.27443  1.0000
  H   H25       1.0  0.79545  0.27477  0.13757  1.0000
  H   H26       1.0  0.72541  0.52205  0.14713  1.0000
  H   H27       1.0  0.48027  0.20559  0.13562  1.0000
  H   H28       1.0  0.20515  0.72455  0.16428  1.0000
  H   H29       1.0  0.27503  0.47903  0.14913  1.0000
  H   H30       1.0  0.52056  0.79607  0.14845  1.0000
  H   H31       1.0  0.79608  0.18426  0.41801  1.0000
  H   H32       1.0  0.81436  0.61338  0.40868  1.0000
  H   H33       1.0  0.38842  0.20326  0.40781  1.0000
  H   H34       1.0  0.19935  0.81464  0.39280  1.0000
  H   H35       1.0  0.18446  0.38521  0.41462  1.0000
  H   H36       1.0  0.61281  0.79813  0.40959  1.0000
  H   H37       1.0  0.84896  0.30876  0.31564  1.0000
  H   H38       1.0  0.69022  0.54143  0.32081  1.0000
  H   H39       1.0  0.45883  0.14925  0.29787  1.0000
  H   H40       1.0  0.14695  0.69001  0.29136  1.0000
  H   H41       1.0  0.30935  0.45765  0.30917  1.0000
  H   H42       1.0  0.54159  0.85154  0.29701  1.0000
  H   H43       1.0  0.86222  0.29749  0.14387  1.0000
  H   H44       1.0  0.70260  0.56583  0.14392  1.0000
  H   H45       1.0  0.43263  0.13773  0.13400  1.0000
  H   H46       1.0  0.13713  0.70587  0.12194  1.0000
  H   H47       1.0  0.29626  0.43227  0.14308  1.0000
  H   H48       1.0  0.56775  0.86361  0.12823  1.0000
  H   H49       1.0  0.72931  0.16172  0.41245  1.0000
  H   H50       1.0  0.83928  0.57282  0.40431  1.0000
  H   H51       1.0  0.43566  0.27063  0.41230  1.0000
  H   H52       1.0  0.26791  0.83195  0.43709  1.0000
  H   H53       1.0  0.16435  0.43338  0.42705  1.0000
  H   H54       1.0  0.56595  0.73087  0.42876  1.0000
  H   H55       1.0  0.74224  0.15027  0.24021  1.0000
  H   H56       1.0  0.84881  0.59384  0.21674  1.0000
  H   H57       1.0  0.40971  0.25936  0.24713  1.0000
  H   H58       1.0  0.25811  0.84939  0.27463  1.0000
  H   H59       1.0  0.15014  0.40749  0.26327  1.0000
  H   H60       1.0  0.59160  0.74234  0.25835  1.0000
  H   H61       1.0  0.43739  0.47089  0.82642  1.0000
  H   H62       1.0  0.52861  0.96609  0.81687  1.0000
  H   H63       1.0  0.03566  0.56403  0.81896  1.0000
  H   H64       1.0  0.56244  0.52678  0.82328  1.0000
  H   H65       1.0  0.47244  0.03487  0.81804  1.0000
  H   H66       1.0  0.96659  0.43942  0.82031  1.0000
  H   H67       1.0  0.52049  0.48372  0.76959  1.0000
  H   H68       1.0  0.51646  0.03703  0.78581  1.0000
  H   H69       1.0  0.96605  0.48140  0.75259  1.0000
  H   H70       1.0  0.47939  0.51466  0.78865  1.0000
  H   H71       1.0  0.48606  0.96509  0.76614  1.0000
  H   H72       1.0  0.03771  0.52218  0.78948  1.0000
  H   H73       1.0  0.49539  0.43001  0.72616  1.0000
  H   H74       1.0  0.57096  0.06640  0.74088  1.0000
  H   H75       1.0  0.93684  0.50640  0.72193  1.0000
  H   H76       1.0  0.50458  0.56906  0.74870  1.0000
  H   H77       1.0  0.43228  0.93567  0.73782  1.0000
  H   H78       1.0  0.06664  0.49687  0.73741  1.0000
  H   H79       1.0  0.39494  0.37070  0.77285  1.0000
  H   H80       1.0  0.62937  0.02408  0.77623  1.0000
  H   H81       1.0  0.97696  0.60608  0.77864  1.0000
  H   H82       1.0  0.60493  0.62770  0.78838  1.0000
  H   H83       1.0  0.37194  0.97538  0.78774  1.0000
  H   H84       1.0  0.02383  0.39607  0.77507  1.0000
  H   H85       1.0  0.79653  0.27684  0.64828  1.0000
  H   H86       1.0  0.72574  0.52013  0.64550  1.0000
  H   H87       1.0  0.47840  0.20377  0.64924  1.0000
  H   H88       1.0  0.20663  0.72475  0.65245  1.0000
  H   H89       1.0  0.27518  0.47881  0.64888  1.0000
  H   H90       1.0  0.51986  0.79509  0.64697  1.0000
  H   H91       1.0  0.79871  0.18561  0.91029  1.0000
  H   H92       1.0  0.81548  0.61304  0.89281  1.0000
  H   H93       1.0  0.38523  0.20027  0.91184  1.0000
  H   H94       1.0  0.20294  0.81504  0.89377  1.0000
  H   H95       1.0  0.18515  0.38647  0.92659  1.0000
  H   H96       1.0  0.61311  0.79780  0.89973  1.0000
  H   H97       1.0  0.85063  0.31040  0.82011  1.0000
  H   H98       1.0  0.69090  0.54050  0.80892  1.0000
  H   H99       1.0  0.45721  0.14796  0.81909  1.0000
  H   H100      1.0  0.14830  0.69051  0.77999  1.0000
  H   H101      1.0  0.30981  0.45748  0.81059  1.0000
  H   H102      1.0  0.54137  0.85080  0.79689  1.0000
  H   H103      1.0  0.86349  0.29957  0.64532  1.0000
  H   H104      1.0  0.70370  0.56581  0.63551  1.0000
  H   H105      1.0  0.43388  0.13723  0.64388  1.0000
  H   H106      1.0  0.13770  0.70767  0.61915  1.0000
  H   H107      1.0  0.29591  0.43190  0.64539  1.0000
  H   H108      1.0  0.56655  0.86260  0.62419  1.0000
  H   H109      1.0  0.73124  0.16394  0.91587  1.0000
  H   H110      1.0  0.83590  0.56475  0.91123  1.0000
  H   H111      1.0  0.43173  0.26815  0.91426  1.0000
  H   H112      1.0  0.27025  0.83172  0.93534  1.0000
  H   H113      1.0  0.16418  0.43302  0.92668  1.0000
  H   H114      1.0  0.56525  0.73028  0.92711  1.0000
  H   H115      1.0  0.74419  0.15171  0.74693  1.0000
  H   H116      1.0  0.85037  0.59187  0.74531  1.0000
  H   H117      1.0  0.40654  0.25644  0.74613  1.0000
  H   H118      1.0  0.26124  0.84916  0.76996  1.0000
  H   H119      1.0  0.15044  0.40744  0.76164  1.0000
  H   H120      1.0  0.59130  0.74157  0.75834  1.0000
  C   C1        1.0  0.41239  0.42099  0.30416  1.0000
  C   C2        1.0  0.57694  0.99066  0.29625  1.0000
  C   C3        1.0  0.00824  0.58629  0.30917  1.0000
  C   C4        1.0  0.58665  0.57833  0.30300  1.0000
  C   C5        1.0  0.42034  0.00918  0.29876  1.0000
  C   C6        1.0  0.99046  0.41159  0.29560  1.0000
  C   C7        1.0  0.43943  0.45088  0.30835  1.0000
  C   C8        1.0  0.54711  0.98804  0.29952  1.0000
  C   C9        1.0  0.01104  0.55919  0.31018  1.0000
  C   C10       1.0  0.55945  0.54850  0.30966  1.0000
  C   C11       1.0  0.45014  0.01171  0.29784  1.0000
  C   C12       1.0  0.98805  0.43892  0.29880  1.0000
  C   C13       1.0  0.46971  0.45518  0.28029  1.0000
  C   C14       1.0  0.54360  0.01477  0.28047  1.0000
  C   C15       1.0  0.98484  0.52923  0.28336  1.0000
  C   C16       1.0  0.52923  0.54494  0.29404  1.0000
  C   C17       1.0  0.45382  0.98534  0.27433  1.0000
  C   C18       1.0  0.01472  0.46916  0.27910  1.0000
  C   C19       1.0  0.49842  0.48594  0.28024  1.0000
  C   C20       1.0  0.51303  0.01320  0.27968  1.0000
  C   C21       1.0  0.98675  0.50044  0.27824  1.0000
  C   C22       1.0  0.50036  0.51427  0.29604  1.0000
  C   C23       1.0  0.48438  0.98690  0.27288  1.0000
  C   C24       1.0  0.01319  0.49818  0.28259  1.0000
  C   C25       1.0  0.47237  0.42852  0.24903  1.0000
  C   C26       1.0  0.57092  0.04448  0.25921  1.0000
  C   C27       1.0  0.95543  0.52700  0.25703  1.0000
  C   C28       1.0  0.52679  0.57220  0.27303  1.0000
  C   C29       1.0  0.42663  0.95601  0.25110  1.0000
  C   C30       1.0  0.04422  0.47145  0.25458  1.0000
  C   C31       1.0  0.44582  0.39821  0.24557  1.0000
  C   C32       1.0  0.60109  0.04784  0.25468  1.0000
  C   C33       1.0  0.95174  0.55364  0.25803  1.0000
  C   C34       1.0  0.55362  0.60234  0.26387  1.0000
  C   C35       1.0  0.39643  0.95262  0.25070  1.0000
  C   C36       1.0  0.04747  0.44458  0.24925  1.0000
  C   C37       1.0  0.41597  0.39480  0.27233  1.0000
  C   C38       1.0  0.60374  0.02074  0.27364  1.0000
  C   C39       1.0  0.97834  0.58307  0.28481  1.0000
  C   C40       1.0  0.58336  0.60507  0.27910  1.0000
  C   C41       1.0  0.39362  0.97940  0.27442  1.0000
  C   C42       1.0  0.02040  0.41480  0.27054  1.0000
  C   C43       1.0  0.79602  0.25527  0.19977  1.0000
  C   C44       1.0  0.74461  0.54221  0.20466  1.0000
  C   C45       1.0  0.45999  0.20461  0.19569  1.0000
  C   C46       1.0  0.20337  0.74398  0.21398  1.0000
  C   C47       1.0  0.25554  0.45834  0.20803  1.0000
  C   C48       1.0  0.54098  0.79697  0.20516  1.0000
  C   C49       1.0  0.82338  0.25923  0.27249  1.0000
  C   C50       1.0  0.74009  0.56541  0.27378  1.0000
  C   C51       1.0  0.43591  0.17655  0.26522  1.0000
  C   C52       1.0  0.17445  0.74029  0.26440  1.0000
  C   C53       1.0  0.25939  0.43407  0.27483  1.0000
  C   C54       1.0  0.56500  0.82487  0.26729  1.0000
  C   C55       1.0  0.82276  0.23340  0.34985  1.0000
  C   C56       1.0  0.76548  0.59066  0.34610  1.0000
  C   C57       1.0  0.41051  0.17677  0.33986  1.0000
  C   C58       1.0  0.17362  0.76603  0.32689  1.0000
  C   C59       1.0  0.23348  0.40814  0.34794  1.0000
  C   C60       1.0  0.59056  0.82473  0.33943  1.0000
  C   C61       1.0  0.79547  0.20378  0.35608  1.0000
  C   C62       1.0  0.79518  0.59322  0.35084  1.0000
  C   C63       1.0  0.40870  0.20426  0.34779  1.0000
  C   C64       1.0  0.20102  0.79524  0.34179  1.0000
  C   C65       1.0  0.20398  0.40601  0.35659  1.0000
  C   C66       1.0  0.59250  0.79726  0.35163  1.0000
  C   C67       1.0  0.76810  0.19983  0.28346  1.0000
  C   C68       1.0  0.79975  0.57012  0.28057  1.0000
  C   C69       1.0  0.43283  0.23232  0.27902  1.0000
  C   C70       1.0  0.22997  0.79891  0.29180  1.0000
  C   C71       1.0  0.20022  0.43046  0.29134  1.0000
  C   C72       1.0  0.56850  0.76936  0.28886  1.0000
  C   C73       1.0  0.76868  0.22572  0.20692  1.0000
  C   C74       1.0  0.77434  0.54486  0.20858  1.0000
  C   C75       1.0  0.45819  0.23214  0.20377  1.0000
  C   C76       1.0  0.23070  0.77325  0.22760  1.0000
  C   C77       1.0  0.22610  0.45630  0.21764  1.0000
  C   C78       1.0  0.54303  0.76957  0.21616  1.0000
  C   C79       1.0  0.85329  0.29040  0.26877  1.0000
  C   C80       1.0  0.70891  0.56410  0.26960  1.0000
  C   C81       1.0  0.43603  0.14609  0.25858  1.0000
  C   C82       1.0  0.14415  0.70989  0.24916  1.0000
  C   C83       1.0  0.29032  0.43486  0.26798  1.0000
  C   C84       1.0  0.56448  0.85510  0.25480  1.0000
  C   C85       1.0  0.73813  0.16875  0.28747  1.0000
  C   C86       1.0  0.83120  0.57198  0.27988  1.0000
  C   C87       1.0  0.43252  0.26263  0.28708  1.0000
  C   C88       1.0  0.26052  0.82896  0.31024  1.0000
  C   C89       1.0  0.16959  0.43024  0.30172  1.0000
  C   C90       1.0  0.56888  0.73905  0.30172  1.0000
  C   C91       1.0  0.51759  0.71421  0.15036  1.0000
  C   C92       1.0  0.28680  0.80357  0.16316  1.0000
  C   C93       1.0  0.19616  0.48187  0.14236  1.0000
  C   C94       1.0  0.48406  0.28803  0.13052  1.0000
  C   C95       1.0  0.71359  0.19596  0.13268  1.0000
  C   C96       1.0  0.80469  0.51968  0.13941  1.0000
  C   C97       1.0  0.61594  0.88027  0.40352  1.0000
  C   C98       1.0  0.11748  0.73563  0.39014  1.0000
  C   C99       1.0  0.26363  0.38299  0.42579  1.0000
  C   C100      1.0  0.38472  0.12116  0.41776  1.0000
  C   C101      1.0  0.87768  0.26343  0.42718  1.0000
  C   C102      1.0  0.73509  0.61593  0.41308  1.0000
  C   C103      1.0  0.41245  0.42056  0.80037  1.0000
  C   C104      1.0  0.57922  0.99163  0.79567  1.0000
  C   C105      1.0  0.00978  0.58876  0.79979  1.0000
  C   C106      1.0  0.58735  0.57751  0.80566  1.0000
  C   C107      1.0  0.42190  0.00850  0.80287  1.0000
  C   C108      1.0  0.99170  0.41402  0.79657  1.0000
  C   C109      1.0  0.43971  0.45034  0.80378  1.0000
  C   C110      1.0  0.54950  0.98923  0.79981  1.0000
  C   C111      1.0  0.01263  0.56168  0.79957  1.0000
  C   C112      1.0  0.56014  0.54765  0.80733  1.0000
  C   C113      1.0  0.45196  0.01166  0.80220  1.0000
  C   C114      1.0  0.98952  0.44147  0.80039  1.0000
  C   C115      1.0  0.46990  0.45425  0.77766  1.0000
  C   C116      1.0  0.54605  0.01598  0.78087  1.0000
  C   C117      1.0  0.98654  0.53168  0.77221  1.0000
  C   C118      1.0  0.53000  0.54412  0.78752  1.0000
  C   C119      1.0  0.45616  0.98558  0.77944  1.0000
  C   C120      1.0  0.01634  0.47160  0.77933  1.0000
  C   C121      1.0  0.49886  0.48488  0.77848  1.0000
  C   C122      1.0  0.51543  0.01427  0.78186  1.0000
  C   C123      1.0  0.98855  0.50294  0.76850  1.0000
  C   C124      1.0  0.50106  0.51348  0.78586  1.0000
  C   C125      1.0  0.48695  0.98771  0.77602  1.0000
  C   C126      1.0  0.01491  0.50068  0.78027  1.0000
  C   C127      1.0  0.47221  0.42729  0.74822  1.0000
  C   C128      1.0  0.57338  0.04560  0.75837  1.0000
  C   C129      1.0  0.95713  0.52938  0.74552  1.0000
  C   C130      1.0  0.52771  0.57148  0.76662  1.0000
  C   C131      1.0  0.42930  0.95594  0.75796  1.0000
  C   C132      1.0  0.04578  0.47371  0.75552  1.0000
  C   C133      1.0  0.44540  0.39716  0.74335  1.0000
  C   C134      1.0  0.60351  0.04886  0.75315  1.0000
  C   C135      1.0  0.95345  0.55602  0.74538  1.0000
  C   C136      1.0  0.55448  0.60172  0.76387  1.0000
  C   C137      1.0  0.39888  0.95196  0.75858  1.0000
  C   C138      1.0  0.04876  0.44669  0.75063  1.0000
  C   C139      1.0  0.41571  0.39414  0.76960  1.0000
  C   C140      1.0  0.60608  0.02170  0.77280  1.0000
  C   C141      1.0  0.97992  0.58553  0.77263  1.0000
  C   C142      1.0  0.58413  0.60436  0.78365  1.0000
  C   C143      1.0  0.39551  0.97842  0.78090  1.0000
  C   C144      1.0  0.02155  0.41706  0.77141  1.0000
  C   C145      1.0  0.79749  0.25713  0.70546  1.0000
  C   C146      1.0  0.74497  0.54044  0.70200  1.0000
  C   C147      1.0  0.45785  0.20255  0.70732  1.0000
  C   C148      1.0  0.20531  0.74422  0.70514  1.0000
  C   C149      1.0  0.25577  0.45835  0.70971  1.0000
  C   C150      1.0  0.54042  0.79611  0.70270  1.0000
  C   C151      1.0  0.82515  0.26100  0.77400  1.0000
  C   C152      1.0  0.74079  0.56429  0.76550  1.0000
  C   C153      1.0  0.43380  0.17436  0.77542  1.0000
  C   C154      1.0  0.17668  0.74088  0.75877  1.0000
  C   C155      1.0  0.25972  0.43435  0.77955  1.0000
  C   C156      1.0  0.56471  0.82421  0.76211  1.0000
  C   C157      1.0  0.82503  0.23495  0.84523  1.0000
  C   C158      1.0  0.76650  0.59002  0.83292  1.0000
  C   C159      1.0  0.40809  0.17418  0.84865  1.0000
  C   C160      1.0  0.17650  0.76675  0.82401  1.0000
  C   C161      1.0  0.23396  0.40885  0.85616  1.0000
  C   C162      1.0  0.59062  0.82423  0.83064  1.0000
  C   C163      1.0  0.79782  0.20528  0.85199  1.0000
  C   C164      1.0  0.79610  0.59236  0.83953  1.0000
  C   C165      1.0  0.40583  0.20150  0.85417  1.0000
  C   C166      1.0  0.20419  0.79556  0.84066  1.0000
  C   C167      1.0  0.20447  0.40676  0.86420  1.0000
  C   C168      1.0  0.59261  0.79679  0.84339  1.0000
  C   C169      1.0  0.77012  0.20145  0.78410  1.0000
  C   C170      1.0  0.80013  0.56825  0.77835  1.0000
  C   C171      1.0  0.42989  0.22973  0.78561  1.0000
  C   C172      1.0  0.23280  0.79884  0.78805  1.0000
  C   C173      1.0  0.20050  0.43069  0.79376  1.0000
  C   C174      1.0  0.56825  0.76867  0.78467  1.0000
  C   C175      1.0  0.77037  0.22741  0.71065  1.0000
  C   C176      1.0  0.77447  0.54260  0.70992  1.0000
  C   C177      1.0  0.45571  0.22988  0.71392  1.0000
  C   C178      1.0  0.23299  0.77323  0.71950  1.0000
  C   C179      1.0  0.22629  0.45625  0.71776  1.0000
  C   C180      1.0  0.54247  0.76869  0.71475  1.0000
  C   C181      1.0  0.85495  0.29222  0.77054  1.0000
  C   C182      1.0  0.70977  0.56334  0.76072  1.0000
  C   C183      1.0  0.43489  0.14442  0.76972  1.0000
  C   C184      1.0  0.14585  0.71093  0.74464  1.0000
  C   C185      1.0  0.29045  0.43477  0.77077  1.0000
  C   C186      1.0  0.56407  0.85442  0.75096  1.0000
  C   C187      1.0  0.74009  0.17043  0.79055  1.0000
  C   C188      1.0  0.83089  0.56874  0.78621  1.0000
  C   C189      1.0  0.42924  0.25997  0.78963  1.0000
  C   C190      1.0  0.26340  0.82869  0.80772  1.0000
  C   C191      1.0  0.16973  0.43019  0.80149  1.0000
  C   C192      1.0  0.56849  0.73831  0.79977  1.0000
  C   C193      1.0  0.51684  0.71300  0.65311  1.0000
  C   C194      1.0  0.28927  0.80321  0.65702  1.0000
  C   C195      1.0  0.19634  0.48162  0.63963  1.0000
  C   C196      1.0  0.48139  0.28553  0.63743  1.0000
  C   C197      1.0  0.71556  0.19724  0.63220  1.0000
  C   C198      1.0  0.80479  0.51749  0.63945  1.0000
  C   C199      1.0  0.61566  0.87947  0.89947  1.0000
  C   C200      1.0  0.12081  0.73712  0.89555  1.0000
  C   C201      1.0  0.26385  0.38319  0.93102  1.0000
  C   C202      1.0  0.38229  0.11804  0.91783  1.0000
  C   C203      1.0  0.88021  0.26500  0.91831  1.0000
  C   C204      1.0  0.73601  0.61476  0.90742  1.0000
  S   S1        1.0  0.48609  0.68471  0.07285  1.0000
  S   S2        1.0  0.31676  0.80165  0.08663  1.0000
  S   S3        1.0  0.19860  0.51371  0.05758  1.0000
  S   S4        1.0  0.51642  0.31800  0.05307  1.0000
  S   S5        1.0  0.68426  0.19854  0.05257  1.0000
  S   S6        1.0  0.80239  0.48799  0.06196  1.0000
  S   S7        1.0  0.64780  0.91010  0.47641  1.0000
  S   S8        1.0  0.08725  0.73733  0.46517  1.0000
  S   S9        1.0  0.26150  0.35132  0.51102  1.0000
  S   S10       1.0  0.35266  0.09168  0.50049  1.0000
  S   S11       1.0  0.90682  0.26102  0.51080  1.0000
  S   S12       1.0  0.73733  0.64825  0.48108  1.0000
  S   S13       1.0  0.48476  0.68327  0.58111  1.0000
  S   S14       1.0  0.31916  0.80133  0.57867  1.0000
  S   S15       1.0  0.19857  0.51319  0.55256  1.0000
  S   S16       1.0  0.51368  0.31546  0.55932  1.0000
  S   S17       1.0  0.68661  0.19956  0.54565  1.0000
  S   S18       1.0  0.80251  0.48525  0.56995  1.0000
  S   S19       1.0  0.64668  0.90858  0.98281  1.0000
  S   S20       1.0  0.09167  0.73941  0.98020  1.0000
  S   S21       1.0  0.26141  0.35108  0.01209  1.0000
  S   S22       1.0  0.34975  0.08763  0.99080  1.0000
  S   S23       1.0  0.90977  0.26244  0.99557  1.0000
  S   S24       1.0  0.73814  0.64624  0.98652  1.0000
  N   N1        1.0  0.29033  0.40957  0.36938  1.0000
  N   N2        1.0  0.58935  0.88027  0.35098  1.0000
  N   N3        1.0  0.11811  0.70914  0.34445  1.0000
  N   N4        1.0  0.70870  0.58980  0.35916  1.0000
  N   N5        1.0  0.41103  0.12082  0.36216  1.0000
  N   N6        1.0  0.87853  0.29006  0.36477  1.0000
  N   N7        1.0  0.54365  0.71378  0.20767  1.0000
  N   N8        1.0  0.28623  0.83007  0.20998  1.0000
  N   N9        1.0  0.16946  0.45541  0.19959  1.0000
  N   N10       1.0  0.45762  0.28816  0.18546  1.0000
  N   N11       1.0  0.71286  0.16923  0.19231  1.0000
  N   N12       1.0  0.83080  0.54481  0.20267  1.0000
  N   N13       1.0  0.29050  0.40942  0.87146  1.0000
  N   N14       1.0  0.58949  0.87987  0.84361  1.0000
  N   N15       1.0  0.12090  0.71033  0.84944  1.0000
  N   N16       1.0  0.70947  0.58849  0.85540  1.0000
  N   N17       1.0  0.40869  0.11802  0.86153  1.0000
  N   N18       1.0  0.88054  0.29182  0.86329  1.0000
  N   N19       1.0  0.54337  0.71286  0.70560  1.0000
  N   N20       1.0  0.28930  0.82952  0.71109  1.0000
  N   N21       1.0  0.16973  0.45546  0.69996  1.0000
  N   N22       1.0  0.45467  0.28553  0.68923  1.0000
  N   N23       1.0  0.71496  0.17060  0.69278  1.0000
  N   N24       1.0  0.83145  0.54440  0.68547  1.0000
  O   O1        1.0  0.51818  0.74275  0.15282  1.0000
  O   O2        1.0  0.25862  0.77521  0.17672  1.0000
  O   O3        1.0  0.22423  0.48157  0.15196  1.0000
  O   O4        1.0  0.48321  0.25930  0.13595  1.0000
  O   O5        1.0  0.74223  0.22376  0.13581  1.0000
  O   O6        1.0  0.77714  0.52111  0.13659  1.0000
  O   O7        1.0  0.61563  0.85184  0.39961  1.0000
  O   O8        1.0  0.14557  0.76406  0.37598  1.0000
  O   O9        1.0  0.23544  0.38298  0.41482  1.0000
  O   O10       1.0  0.38541  0.14973  0.40794  1.0000
  O   O11       1.0  0.84907  0.23556  0.42364  1.0000
  O   O12       1.0  0.76278  0.61472  0.41541  1.0000
  O   O13       1.0  0.51728  0.74149  0.65635  1.0000
  O   O14       1.0  0.26067  0.77509  0.66450  1.0000
  O   O15       1.0  0.22437  0.48121  0.64811  1.0000
  O   O16       1.0  0.48093  0.25707  0.64768  1.0000
  O   O17       1.0  0.74378  0.22534  0.64068  1.0000
  O   O18       1.0  0.77662  0.51764  0.64847  1.0000
  O   O19       1.0  0.61588  0.85143  0.88839  1.0000
  O   O20       1.0  0.14872  0.76541  0.87250  1.0000
  O   O21       1.0  0.23602  0.38406  0.92738  1.0000
  O   O22       1.0  0.38341  0.14694  0.91866  1.0000
  O   O23       1.0  0.85182  0.23698  0.91230  1.0000
  O   O24       1.0  0.76420  0.61474  0.89611  1.0000
  C  Sn1       1.0  0.32795  0.38193  0.30765  1.0000
  C   C205      1.0  0.31960  0.40129  0.39057  1.0000
  C  Sn2       1.0  0.34276  0.43123  0.43735  1.0000
  C  Sn3       1.0  0.37495  0.44205  0.40038  1.0000
  C   C206      1.0  0.38329  0.42269  0.31749  1.0000
  C  Sn4       1.0  0.36013  0.39275  0.27069  1.0000
  O  Te1       1.0  0.30440  0.35209  0.26206  1.0000
  O  Te2       1.0  0.33383  0.45016  0.52019  1.0000
  O  Te3       1.0  0.39850  0.47192  0.44606  1.0000
  O  Te4       1.0  0.36905  0.37383  0.18788  1.0000
  Mg  Mg1       1.0  0.37456  0.48898  0.55662  1.0000
  Mg  Mg2       1.0  0.32835  0.33501  0.15131  1.0000
  C  Sn5       1.0  0.56369  0.93304  0.45815  1.0000
  C   C207      1.0  0.58208  0.96070  0.36637  1.0000
  C  Sn6       1.0  0.60231  0.96152  0.24479  1.0000
  C  Sn7       1.0  0.60420  0.93411  0.21422  1.0000
  C   C208      1.0  0.58582  0.90646  0.30595  1.0000
  C  Sn8       1.0  0.56558  0.90563  0.42758  1.0000
  O  Te5       1.0  0.54362  0.93277  0.57908  1.0000
  O  Te6       1.0  0.62047  0.98945  0.15466  1.0000
  O  Te7       1.0  0.62429  0.93440  0.09318  1.0000
  O  Te8       1.0  0.54742  0.87772  0.51765  1.0000
  Mg  Mg3       1.0  0.64427  0.97808  0.00296  1.0000
  Mg  Mg4       1.0  0.52361  0.88906  0.66932  1.0000
  C  Sn9       1.0  0.06523  0.63030  0.46538  1.0000
  C   C209      1.0  0.03778  0.62114  0.37783  1.0000
  C  Sn10      1.0  0.03716  0.64086  0.25525  1.0000
  C  Sn11      1.0  0.06454  0.67034  0.21936  1.0000
  C   C210      1.0  0.09196  0.67948  0.30686  1.0000
  C  Sn12      1.0  0.09261  0.65978  0.42949  1.0000
  O  Te9       1.0  0.06532  0.61021  0.58740  1.0000
  O  Te10      1.0  0.00944  0.63119  0.16942  1.0000
  O  Te11      1.0  0.06443  0.69043  0.09723  1.0000
  O  Te12      1.0  0.12031  0.66943  0.51527  1.0000
  Mg  Mg5       1.0  0.02102  0.66678  0.01419  1.0000
  Mg  Mg6       1.0  0.10876  0.63386  0.67046  1.0000
  C  Sn13      1.0  0.65037  0.60380  0.20190  1.0000
  C   C211      1.0  0.62204  0.58149  0.27704  1.0000
  C  Sn14      1.0  0.62216  0.56335  0.40921  1.0000
  C  Sn15      1.0  0.65120  0.56762  0.46757  1.0000
  C   C212      1.0  0.67951  0.58992  0.39246  1.0000
  C  Sn16      1.0  0.67941  0.60807  0.26026  1.0000
  O  Te13      1.0  0.64969  0.62167  0.06995  1.0000
  O  Te14      1.0  0.59354  0.54119  0.48230  1.0000
  O  Te15      1.0  0.65186  0.54972  0.59963  1.0000
  O  Te16      1.0  0.70801  0.63022  0.18720  1.0000
  Mg  Mg7       1.0  0.60670  0.52253  0.65849  1.0000
  Mg  Mg8       1.0  0.69488  0.64890  0.01107  1.0000
  C  Sn17      1.0  0.38232  0.05552  0.30375  1.0000
  C   C213      1.0  0.40230  0.08301  0.38510  1.0000
  C  Sn18      1.0  0.43241  0.08942  0.42928  1.0000
  C  Sn19      1.0  0.44276  0.06791  0.39127  1.0000
  C   C214      1.0  0.42279  0.04044  0.30994  1.0000
  C  Sn20      1.0  0.39267  0.03401  0.26574  1.0000
  O  Te17      1.0  0.35232  0.04959  0.26075  1.0000
  O  Te18      1.0  0.45196  0.11705  0.51058  1.0000
  O  Te19      1.0  0.47279  0.07386  0.43435  1.0000
  O  Te20      1.0  0.37313  0.00640  0.18446  1.0000
  Mg  Mg9       1.0  0.49077  0.11468  0.54360  1.0000
  Mg  Mg10      1.0  0.33433  0.00875  0.15131  1.0000
  C  Sn21      1.0  0.93279  0.36846  0.46131  1.0000
  C   C215      1.0  0.96035  0.37674  0.37306  1.0000
  C  Sn22      1.0  0.96064  0.35659  0.25728  1.0000
  C  Sn23      1.0  0.93280  0.32758  0.22904  1.0000
  C   C216      1.0  0.90526  0.31932  0.31724  1.0000
  C  Sn24      1.0  0.90495  0.33945  0.43307  1.0000
  O  Te21      1.0  0.93304  0.38897  0.57645  1.0000
  O  Te22      1.0  0.98848  0.36537  0.17060  1.0000
  O  Te23      1.0  0.93257  0.30707  0.11379  1.0000
  O  Te24      1.0  0.87713  0.33069  0.51970  1.0000
  Mg  Mg11      1.0  0.97631  0.32950  0.02652  1.0000
  Mg  Mg12      1.0  0.88926  0.36654  0.66374  1.0000
  C  Sn25      1.0  0.42116  0.33406  0.16280  1.0000
  C   C217      1.0  0.44069  0.36172  0.24403  1.0000
  C  Sn26      1.0  0.47078  0.36853  0.29088  1.0000
  C  Sn27      1.0  0.48159  0.34726  0.25572  1.0000
  C   C218      1.0  0.46207  0.31962  0.17452  1.0000
  C  Sn28      1.0  0.43197  0.31279  0.12764  1.0000
  O  Te25      1.0  0.39116  0.32773  0.11709  1.0000
  O  Te26      1.0  0.48987  0.39633  0.37200  1.0000
  O  Te27      1.0  0.51162  0.35362  0.30151  1.0000
  O  Te28      1.0  0.41289  0.28501  0.04654  1.0000
  Mg  Mg13      1.0  0.52887  0.39452  0.40934  1.0000
  Mg  Mg14      1.0  0.37389  0.28680  0.00908  1.0000
  C  Sn29      1.0  0.63218  0.11488  0.26844  1.0000
  C   C219      1.0  0.62678  0.08632  0.20633  1.0000
  C  Sn30      1.0  0.65189  0.08332  0.14717  1.0000
  C  Sn31      1.0  0.68304  0.10940  0.15025  1.0000
  C   C220      1.0  0.68843  0.13794  0.21236  1.0000
  C  Sn32      1.0  0.66334  0.14096  0.27153  1.0000
  O  Te29      1.0  0.60673  0.11734  0.32695  1.0000
  O  Te30      1.0  0.64590  0.05454  0.08560  1.0000
  O  Te31      1.0  0.70850  0.10692  0.09167  1.0000
  O  Te32      1.0  0.66931  0.16972  0.33308  1.0000
  Mg  Mg15      1.0  0.68836  0.06283  0.01992  1.0000
  Mg  Mg16      1.0  0.62687  0.16145  0.39887  1.0000
  C  Sn33      1.0  0.87040  0.52532  0.33850  1.0000
  C   C221      1.0  0.86276  0.54570  0.25542  1.0000
  C  Sn34      1.0  0.88400  0.56800  0.14324  1.0000
  C  Sn35      1.0  0.91349  0.56996  0.11338  1.0000
  C   C222      1.0  0.92112  0.54959  0.19641  1.0000
  C  Sn36      1.0  0.89989  0.52728  0.30865  1.0000
  O  Te33      1.0  0.84880  0.50320  0.45012  1.0000
  O  Te34      1.0  0.87584  0.58812  0.06171  1.0000
  O  Te35      1.0  0.93510  0.59210  0.00166  1.0000
  O  Te36      1.0  0.90803  0.50716  0.39013  1.0000
  Mg  Mg17      1.0  0.90978  0.60878  0.92098  1.0000
  Mg  Mg18      1.0  0.87072  0.48097  0.53082  1.0000
  C  Sn37      1.0  0.56610  0.67537  0.09103  1.0000
  C   C223      1.0  0.54425  0.68149  0.16687  1.0000
  C  Sn38      1.0  0.52618  0.66274  0.29844  1.0000
  C  Sn39      1.0  0.53005  0.63736  0.35546  1.0000
  C   C224      1.0  0.55189  0.63126  0.27965  1.0000
  C  Sn40      1.0  0.56996  0.64999  0.14805  1.0000
  O  Te37      1.0  0.58052  0.68889  0.95971  1.0000
  O  Te38      1.0  0.50448  0.66932  0.37225  1.0000
  O  Te39      1.0  0.51222  0.61831  0.48689  1.0000
  O  Te40      1.0  0.59166  0.64343  0.07427  1.0000
  Mg  Mg19      1.0  0.48573  0.63667  0.54715  1.0000
  Mg  Mg20      1.0  0.60704  0.67054  0.89943  1.0000
  C  Sn41      1.0  0.36639  0.88563  0.27183  1.0000
  C   C225      1.0  0.37116  0.91425  0.20594  1.0000
  C  Sn42      1.0  0.34570  0.91687  0.14941  1.0000
  C  Sn43      1.0  0.31480  0.89032  0.15904  1.0000
  C   C226      1.0  0.31004  0.86172  0.22493  1.0000
  C  Sn44      1.0  0.33550  0.85908  0.28146  1.0000
  O  Te41      1.0  0.39220  0.88356  0.32761  1.0000
  O  Te42      1.0  0.35106  0.94573  0.08398  1.0000
  O  Te43      1.0  0.28899  0.89242  0.10319  1.0000
  O  Te44      1.0  0.33014  0.83025  0.34689  1.0000
  Mg  Mg21      1.0  0.30830  0.93679  0.02422  1.0000
  Mg  Mg22      1.0  0.37288  0.83916  0.40676  1.0000
  C  Sn45      1.0  0.12814  0.47238  0.33469  1.0000
  C   C227      1.0  0.13689  0.45337  0.25121  1.0000
  C  Sn46      1.0  0.11682  0.43239  0.13752  1.0000
  C  Sn47      1.0  0.08740  0.43037  0.10654  1.0000
  C   C228      1.0  0.07867  0.44937  0.18997  1.0000
  C  Sn48      1.0  0.09872  0.47036  0.30371  1.0000
  O  Te45      1.0  0.14858  0.49318  0.44782  1.0000
  O  Te46      1.0  0.12608  0.41363  0.05562  1.0000
  O  Te47      1.0  0.06358  0.40402  0.99331  1.0000
  O  Te48      1.0  0.08948  0.48912  0.38556  1.0000
  Mg  Mg23      1.0  0.08673  0.38340  0.91268  1.0000
  Mg  Mg24      1.0  0.12543  0.51384  0.52846  1.0000
  C  Sn49      1.0  0.34833  0.39478  0.71580  1.0000
  C   C229      1.0  0.37687  0.41726  0.78125  1.0000
  C  Sn50      1.0  0.37714  0.43565  0.90826  1.0000
  C  Sn51      1.0  0.34828  0.43147  0.97124  1.0000
  C   C230      1.0  0.31976  0.40901  0.90582  1.0000
  C  Sn52      1.0  0.31947  0.39061  0.77878  1.0000
  O  Te49      1.0  0.34862  0.37666  0.58887  1.0000
  O  Te50      1.0  0.40597  0.45797  0.97168  1.0000
  O  Te51      1.0  0.35139  0.45514  0.09827  1.0000
  O  Te52      1.0  0.29066  0.36829  0.71540  1.0000
  Mg  Mg25      1.0  0.39671  0.48248  0.14408  1.0000
  Mg  Mg26      1.0  0.30327  0.34929  0.54306  1.0000
  C  Sn53      1.0  0.55519  0.91070  0.88073  1.0000
  C   C231      1.0  0.57848  0.90561  0.81404  1.0000
  C  Sn54      1.0  0.60680  0.93102  0.75510  1.0000
  C  Sn55      1.0  0.61195  0.96217  0.76308  1.0000
  C   C232      1.0  0.58867  0.96724  0.82977  1.0000
  C  Sn56      1.0  0.56034  0.94185  0.88872  1.0000
  O  Te53      1.0  0.52706  0.88495  0.93893  1.0000
  O  Te54      1.0  0.62972  0.92534  0.68891  1.0000
  O  Te55      1.0  0.64011  0.98792  0.70481  1.0000
  O  Te56      1.0  0.53743  0.94751  0.95490  1.0000
  Mg  Mg27      1.0  0.66418  0.96815  0.62568  1.0000
  Mg  Mg28      1.0  0.50636  0.91026  0.01824  1.0000
  C  Sn57      1.0  0.06660  0.63122  0.96275  1.0000
  C   C233      1.0  0.03928  0.62318  0.87618  1.0000
  C  Sn58      1.0  0.03916  0.64388  0.75783  1.0000
  C  Sn59      1.0  0.06693  0.67322  0.72524  1.0000
  C   C234      1.0  0.09424  0.68124  0.81176  1.0000
  C  Sn60      1.0  0.09438  0.66056  0.93016  1.0000
  O  Te57      1.0  0.06957  0.61568  0.08053  1.0000
  O  Te58      1.0  0.01156  0.63533  0.67290  1.0000
  O  Te59      1.0  0.06733  0.69428  0.60735  1.0000
  O  Te60      1.0  0.12535  0.67461  0.01504  1.0000
  Mg  Mg29      1.0  0.02388  0.67197  0.52395  1.0000
  Mg  Mg30      1.0  0.11305  0.63798  0.16395  1.0000
  C  Sn61      1.0  0.65134  0.60369  0.70804  1.0000
  C   C235      1.0  0.62285  0.58080  0.77942  1.0000
  C  Sn62      1.0  0.62267  0.56160  0.90711  1.0000
  C  Sn63      1.0  0.65157  0.56537  0.96474  1.0000
  C   C236      1.0  0.68004  0.58826  0.89339  1.0000
  C  Sn64      1.0  0.68024  0.60746  0.76566  1.0000
  O  Te61      1.0  0.65097  0.62262  0.58054  1.0000
  O  Te62      1.0  0.59388  0.53887  0.97650  1.0000
  O  Te63      1.0  0.65531  0.55194  0.09234  1.0000
  O  Te64      1.0  0.70900  0.63018  0.69631  1.0000
  Mg  Mg31      1.0  0.61003  0.52432  0.14728  1.0000
  Mg  Mg32      1.0  0.69628  0.65028  0.52559  1.0000
  C  Sn65      1.0  0.39567  0.04642  0.70886  1.0000
  C   C237      1.0  0.41826  0.04059  0.77889  1.0000
  C  Sn66      1.0  0.43618  0.05855  0.90707  1.0000
  C  Sn67      1.0  0.43142  0.08283  0.96658  1.0000
  C   C238      1.0  0.40884  0.08863  0.89659  1.0000
  C  Sn68      1.0  0.39091  0.07069  0.76837  1.0000
  O  Te65      1.0  0.37802  0.02817  0.58084  1.0000
  O  Te66      1.0  0.45863  0.05230  0.97509  1.0000
  O  Te67      1.0  0.45248  0.10660  0.09471  1.0000
  O  Te68      1.0  0.36847  0.07693  0.70040  1.0000
  Mg  Mg33      1.0  0.48021  0.08908  0.14726  1.0000
  Mg  Mg34      1.0  0.35025  0.04568  0.52828  1.0000
  C  Sn69      1.0  0.94590  0.32972  0.79569  1.0000
  C   C239      1.0  0.91787  0.32120  0.88005  1.0000
  C  Sn70      1.0  0.91086  0.34427  0.92727  1.0000
  C  Sn71      1.0  0.93230  0.37652  0.88931  1.0000
  C   C240      1.0  0.96030  0.38503  0.80498  1.0000
  C  Sn72      1.0  0.96733  0.36198  0.75773  1.0000
  O  Te69      1.0  0.95242  0.30627  0.74967  1.0000
  O  Te70      1.0  0.88609  0.34070  0.01155  1.0000
  O  Te71      1.0  0.92576  0.39998  0.93541  1.0000
  O  Te72      1.0  0.99547  0.37106  0.67348  1.0000
  Mg  Mg35      1.0  0.88775  0.38134  0.04805  1.0000
  Mg  Mg36      1.0  0.99383  0.33044  0.63685  1.0000
  C  Sn73      1.0  0.43260  0.32509  0.57133  1.0000
  C   C241      1.0  0.45441  0.31835  0.64335  1.0000
  C  Sn74      1.0  0.47274  0.33630  0.77056  1.0000
  C  Sn75      1.0  0.46918  0.36150  0.82705  1.0000
  C   C242      1.0  0.44737  0.36823  0.75507  1.0000
  C  Sn76      1.0  0.42904  0.35029  0.62783  1.0000
  O  Te73      1.0  0.41453  0.30683  0.44433  1.0000
  O  Te74      1.0  0.49439  0.32912  0.84059  1.0000
  O  Te75      1.0  0.48727  0.37976  0.95416  1.0000
  O  Te76      1.0  0.40739  0.35746  0.55783  1.0000
  Mg  Mg37      1.0  0.51696  0.36631  0.01032  1.0000
  Mg  Mg38      1.0  0.38818  0.32580  0.38816  1.0000
  C  Sn77      1.0  0.63413  0.11593  0.75963  1.0000
  C   C243      1.0  0.62928  0.08723  0.70224  1.0000
  C  Sn78      1.0  0.65481  0.08427  0.64979  1.0000
  C  Sn79      1.0  0.68583  0.11053  0.65490  1.0000
  C   C244      1.0  0.69067  0.13920  0.71229  1.0000
  C  Sn80      1.0  0.66516  0.14219  0.76473  1.0000
  O  Te77      1.0  0.60827  0.11836  0.81145  1.0000
  O  Te78      1.0  0.64937  0.05534  0.59287  1.0000
  O  Te79      1.0  0.71170  0.10808  0.60301  1.0000
  O  Te80      1.0  0.67059  0.17109  0.82166  1.0000
  Mg  Mg39      1.0  0.69225  0.06375  0.53571  1.0000
  Mg  Mg40      1.0  0.62773  0.16270  0.87892  1.0000
  C  Sn81      1.0  0.88653  0.51939  0.76383  1.0000
  C   C245      1.0  0.91521  0.54289  0.69695  1.0000
  C  Sn82      1.0  0.91799  0.57082  0.63265  1.0000
  C  Sn83      1.0  0.89155  0.57536  0.63533  1.0000
  C   C246      1.0  0.86290  0.55187  0.70220  1.0000
  C  Sn84      1.0  0.86010  0.52393  0.76651  1.0000
  O  Te81      1.0  0.88429  0.49167  0.82744  1.0000
  O  Te82      1.0  0.94691  0.59396  0.56639  1.0000
  O  Te83      1.0  0.89381  0.60311  0.57164  1.0000
  O  Te84      1.0  0.83120  0.50080  0.83277  1.0000
  Mg  Mg41      1.0  0.93820  0.62769  0.49469  1.0000
  Mg  Mg42      1.0  0.83989  0.46707  0.90458  1.0000
  C  Sn85      1.0  0.51786  0.63211  0.77875  1.0000
  C   C247      1.0  0.54177  0.62746  0.71677  1.0000
  C  Sn86      1.0  0.57007  0.65309  0.65932  1.0000
  C  Sn87      1.0  0.57457  0.68403  0.66400  1.0000
  C   C248      1.0  0.55068  0.68868  0.72598  1.0000
  C  Sn88      1.0  0.52236  0.66305  0.78343  1.0000
  O  Te85      1.0  0.48976  0.60613  0.83553  1.0000
  O  Te86      1.0  0.59362  0.64785  0.59786  1.0000
  O  Te87      1.0  0.60270  0.71002  0.60715  1.0000
  O  Te88      1.0  0.49882  0.66828  0.84489  1.0000
  Mg  Mg43      1.0  0.62776  0.69082  0.53483  1.0000
  Mg  Mg44      1.0  0.46468  0.62533  0.90802  1.0000
  C  Sn89      1.0  0.32680  0.89171  0.59514  1.0000
  C   C249      1.0  0.32147  0.86324  0.66589  1.0000
  C  Sn90      1.0  0.34038  0.86315  0.79137  1.0000
  C  Sn91      1.0  0.36513  0.89213  0.84739  1.0000
  C   C250      1.0  0.37045  0.92058  0.77667  1.0000
  C  Sn92      1.0  0.35155  0.92069  0.65115  1.0000
  O  Te89      1.0  0.30761  0.89124  0.46986  1.0000
  O  Te90      1.0  0.33460  0.83438  0.86017  1.0000
  O  Te91      1.0  0.38433  0.89258  0.97277  1.0000
  O  Te92      1.0  0.35732  0.94944  0.58239  1.0000
  Mg  Mg45      1.0  0.37054  0.85281  0.02772  1.0000
  Mg  Mg46      1.0  0.32477  0.93657  0.41490  1.0000
  C  Sn93      1.0  0.12908  0.47299  0.83665  1.0000
  C   C251      1.0  0.13734  0.45375  0.75186  1.0000
  C  Sn94      1.0  0.11705  0.43318  0.63743  1.0000
  C  Sn95      1.0  0.08791  0.43183  0.60703  1.0000
  C   C252      1.0  0.07967  0.45107  0.69176  1.0000
  C  Sn96      1.0  0.09994  0.47164  0.80624  1.0000
  O  Te93      1.0  0.14972  0.49338  0.95050  1.0000
  O  Te94      1.0  0.12582  0.41417  0.55423  1.0000
  O  Te95      1.0  0.06727  0.41143  0.49307  1.0000
  O  Te96      1.0  0.09119  0.49065  0.88939  1.0000
  Mg  Mg47      1.0  0.08974  0.39024  0.41070  1.0000
  Mg  Mg48      1.0  0.13064  0.52012  0.03287  1.0000
