data_image0
_chemical_formula_structural       H168C276N24O48C2Sn2C2HTe2HMgC2Sn2C2HTe2HMgC2Sn2C2HTe2HMgC2Sn2C2HTe2HMgC2Sn2C2HTe2HMgC2Sn2C2HTe2HMgC2Sn2C2HTe2HMgC2Sn2C2HTe2HMgC2Sn2C2HTe2HMgC2Sn2C2HTe2HMgC2Sn2C2HTe2HMgC2Sn2C2HTe2HMg
_chemical_formula_sum              "H192 C324 N24 O48 Sn24 Te24 Mg12"
_cell_length_a       49.2374
_cell_length_b       49.2775
_cell_length_c       8.01286
_cell_angle_alpha    90.2704
_cell_angle_beta     90.7006
_cell_angle_gamma    119.92

_symmetry_space_group_name_H-M    'P1'
_space_group_IT_number       1

loop_
  _space_group_symop_operation_xyz
  'x, y, z'

loop_
  _atom_site_type_symbol
  _atom_site_label
  _atom_site_symmetry_multiplicity
  _atom_site_fract_x
  _atom_site_fract_y
  _atom_site_fract_z
  _atom_site_occupancy
  H   H1        1.0  0.43777  0.47441  0.31061  1.0000
  H   H2        1.0  0.52571  0.96552  0.30127  1.0000
  H   H3        1.0  0.03571  0.56100  0.30327  1.0000
  H   H4        1.0  0.56159  0.52733  0.30619  1.0000
  H   H5        1.0  0.47267  0.03658  0.29662  1.0000
  H   H6        1.0  0.96440  0.43740  0.29702  1.0000
  H   H7        1.0  0.51966  0.48584  0.25069  1.0000
  H   H8        1.0  0.51516  0.03696  0.27146  1.0000
  H   H9        1.0  0.96399  0.47948  0.25185  1.0000
  H   H10       1.0  0.47993  0.51729  0.30086  1.0000
  H   H11       1.0  0.48342  0.96525  0.26325  1.0000
  H   H12       1.0  0.03573  0.51912  0.27311  1.0000
  H   H13       1.0  0.49466  0.43180  0.23709  1.0000
  H   H14       1.0  0.56926  0.06525  0.24358  1.0000
  H   H15       1.0  0.93583  0.50579  0.23042  1.0000
  H   H16       1.0  0.50568  0.57160  0.25842  1.0000
  H   H17       1.0  0.42910  0.93663  0.24060  1.0000
  H   H18       1.0  0.06398  0.49331  0.23568  1.0000
  H   H19       1.0  0.39544  0.37425  0.30277  1.0000
  H   H20       1.0  0.62598  0.02188  0.28954  1.0000
  H   H21       1.0  0.97971  0.60544  0.29959  1.0000
  H   H22       1.0  0.60606  0.62760  0.29070  1.0000
  H   H23       1.0  0.37235  0.97981  0.29270  1.0000
  H   H24       1.0  0.02102  0.39359  0.28542  1.0000
  H   H25       1.0  0.34680  0.45932  0.50017  1.0000
  H   H26       1.0  0.11390  0.65241  0.48948  1.0000
  H   H27       1.0  0.65298  0.54061  0.48263  1.0000
  H   H28       1.0  0.45979  0.11378  0.48828  1.0000
  H   H29       1.0  0.88807  0.34706  0.48292  1.0000
  H   H30       1.0  0.39851  0.46303  0.48047  1.0000
  H   H31       1.0  0.06539  0.60098  0.46951  1.0000
  H   H32       1.0  0.60184  0.53807  0.46240  1.0000
  H   H33       1.0  0.46230  0.06515  0.46669  1.0000
  H   H34       1.0  0.93629  0.39834  0.46085  1.0000
  H   H35       1.0  0.35713  0.37856  0.18160  1.0000
  H   H36       1.0  0.02174  0.64223  0.17700  1.0000
  H   H37       1.0  0.64309  0.62174  0.16868  1.0000
  H   H38       1.0  0.37731  0.02283  0.16981  1.0000
  H   H39       1.0  0.97792  0.35553  0.16779  1.0000
  H   H40       1.0  0.30518  0.37447  0.20578  1.0000
  H   H41       1.0  0.07015  0.69387  0.20080  1.0000
  H   H42       1.0  0.69470  0.62474  0.19338  1.0000
  H   H43       1.0  0.37433  0.07135  0.19586  1.0000
  H   H44       1.0  0.92983  0.30398  0.19492  1.0000
  H   H45       1.0  0.65381  0.06033  0.09661  1.0000
  H   H46       1.0  0.61255  0.10326  0.39084  1.0000
  H   H47       1.0  0.66074  0.15492  0.36276  1.0000
  H   H48       1.0  0.70197  0.11182  0.07041  1.0000
  H   H49       1.0  0.79141  0.27146  0.12378  1.0000
  H   H50       1.0  0.72832  0.51937  0.13229  1.0000
  H   H51       1.0  0.48141  0.20979  0.13988  1.0000
  H   H52       1.0  0.20955  0.72672  0.15108  1.0000
  H   H53       1.0  0.27235  0.48046  0.14315  1.0000
  H   H54       1.0  0.51995  0.79259  0.12193  1.0000
  H   H55       1.0  0.79874  0.18755  0.42553  1.0000
  H   H56       1.0  0.81423  0.61495  0.40459  1.0000
  H   H57       1.0  0.38607  0.20143  0.39348  1.0000
  H   H58       1.0  0.20039  0.81276  0.41924  1.0000
  H   H59       1.0  0.18624  0.38593  0.40403  1.0000
  H   H60       1.0  0.61172  0.80058  0.43103  1.0000
  H   H61       1.0  0.84556  0.30904  0.30877  1.0000
  H   H62       1.0  0.69175  0.53597  0.32164  1.0000
  H   H63       1.0  0.46413  0.15653  0.32308  1.0000
  H   H64       1.0  0.15528  0.69003  0.31765  1.0000
  H   H65       1.0  0.30888  0.46279  0.31410  1.0000
  H   H66       1.0  0.53700  0.84738  0.29334  1.0000
  H   H67       1.0  0.85738  0.29750  0.12638  1.0000
  H   H68       1.0  0.70011  0.55714  0.13301  1.0000
  H   H69       1.0  0.44199  0.14356  0.13469  1.0000
  H   H70       1.0  0.14267  0.70093  0.13497  1.0000
  H   H71       1.0  0.29785  0.43865  0.13304  1.0000
  H   H72       1.0  0.56117  0.85912  0.11582  1.0000
  H   H73       1.0  0.73298  0.16222  0.42732  1.0000
  H   H74       1.0  0.84379  0.57985  0.39862  1.0000
  H   H75       1.0  0.41938  0.26501  0.38287  1.0000
  H   H76       1.0  0.26701  0.83899  0.43313  1.0000
  H   H77       1.0  0.16182  0.42825  0.42303  1.0000
  H   H78       1.0  0.56921  0.73406  0.44268  1.0000
  H   H79       1.0  0.74450  0.14992  0.24700  1.0000
  H   H80       1.0  0.85003  0.59770  0.20087  1.0000
  H   H81       1.0  0.40457  0.25424  0.17632  1.0000
  H   H82       1.0  0.25421  0.84934  0.24937  1.0000
  H   H83       1.0  0.14956  0.40443  0.24088  1.0000
  H   H84       1.0  0.59455  0.74541  0.27021  1.0000
  H   H85       1.0  0.43735  0.47225  0.80957  1.0000
  H   H86       1.0  0.52617  0.96454  0.80198  1.0000
  H   H87       1.0  0.03574  0.56177  0.80140  1.0000
  H   H88       1.0  0.56104  0.52485  0.80697  1.0000
  H   H89       1.0  0.47312  0.03559  0.79825  1.0000
  H   H90       1.0  0.96474  0.43829  0.79974  1.0000
  H   H91       1.0  0.51918  0.48314  0.76180  1.0000
  H   H92       1.0  0.51581  0.03599  0.76293  1.0000
  H   H93       1.0  0.96436  0.47992  0.75612  1.0000
  H   H94       1.0  0.47924  0.51485  0.78921  1.0000
  H   H95       1.0  0.48402  0.96427  0.76870  1.0000
  H   H96       1.0  0.03610  0.51996  0.77528  1.0000
  H   H97       1.0  0.49371  0.42900  0.73978  1.0000
  H   H98       1.0  0.56991  0.06398  0.73458  1.0000
  H   H99       1.0  0.93579  0.50567  0.73589  1.0000
  H   H100      1.0  0.50517  0.56910  0.75445  1.0000
  H   H101      1.0  0.42996  0.93565  0.74208  1.0000
  H   H102      1.0  0.06440  0.49411  0.74103  1.0000
  H   H103      1.0  0.39414  0.37200  0.79459  1.0000
  H   H104      1.0  0.62649  0.02062  0.79077  1.0000
  H   H105      1.0  0.97900  0.60545  0.79549  1.0000
  H   H106      1.0  0.60543  0.62511  0.79737  1.0000
  H   H107      1.0  0.37285  0.97847  0.79153  1.0000
  H   H108      1.0  0.02115  0.39429  0.78650  1.0000
  H   H109      1.0  0.34674  0.45807  0.99661  1.0000
  H   H110      1.0  0.53974  0.88649  0.96954  1.0000
  H   H111      1.0  0.65240  0.53794  0.98231  1.0000
  H   H112      1.0  0.45865  0.11199  0.99084  1.0000
  H   H113      1.0  0.88818  0.34756  0.98318  1.0000
  H   H114      1.0  0.39824  0.46131  0.97546  1.0000
  H   H115      1.0  0.53664  0.93479  0.95493  1.0000
  H   H116      1.0  0.60117  0.53542  0.96470  1.0000
  H   H117      1.0  0.46185  0.06368  0.96873  1.0000
  H   H118      1.0  0.93637  0.39893  0.96182  1.0000
  H   H119      1.0  0.35595  0.37663  0.67825  1.0000
  H   H120      1.0  0.62163  0.97842  0.67299  1.0000
  H   H121      1.0  0.64232  0.61960  0.67487  1.0000
  H   H122      1.0  0.37786  0.02125  0.66373  1.0000
  H   H123      1.0  0.97816  0.35645  0.66763  1.0000
  H   H124      1.0  0.30419  0.37300  0.70407  1.0000
  H   H125      1.0  0.62527  0.93037  0.69337  1.0000
  H   H126      1.0  0.69392  0.62263  0.69755  1.0000
  H   H127      1.0  0.37444  0.06964  0.68880  1.0000
  H   H128      1.0  0.93015  0.30491  0.69313  1.0000
  H   H129      1.0  0.59525  0.65478  0.61603  1.0000
  H   H130      1.0  0.50986  0.61103  0.89404  1.0000
  H   H131      1.0  0.50578  0.65898  0.86895  1.0000
  H   H132      1.0  0.59123  0.70257  0.59219  1.0000
  H   H133      1.0  0.79036  0.27194  0.64237  1.0000
  H   H134      1.0  0.72760  0.51792  0.61951  1.0000
  H   H135      1.0  0.48000  0.20751  0.63714  1.0000
  H   H136      1.0  0.20892  0.72697  0.64367  1.0000
  H   H137      1.0  0.27176  0.47916  0.63724  1.0000
  H   H138      1.0  0.51745  0.78923  0.63949  1.0000
  H   H139      1.0  0.80067  0.18693  0.91150  1.0000
  H   H140      1.0  0.81308  0.61154  0.90789  1.0000
  H   H141      1.0  0.38499  0.19932  0.89406  1.0000
  H   H142      1.0  0.20080  0.81261  0.92425  1.0000
  H   H143      1.0  0.18649  0.38635  0.91413  1.0000
  H   H144      1.0  0.61391  0.80019  0.90770  1.0000
  H   H145      1.0  0.84544  0.30914  0.81244  1.0000
  H   H146      1.0  0.69084  0.53373  0.81123  1.0000
  H   H147      1.0  0.46328  0.15485  0.82607  1.0000
  H   H148      1.0  0.15551  0.69041  0.82551  1.0000
  H   H149      1.0  0.30851  0.46221  0.82234  1.0000
  H   H150      1.0  0.53627  0.84517  0.79412  1.0000
  H   H151      1.0  0.85686  0.29793  0.62776  1.0000
  H   H152      1.0  0.69971  0.55621  0.62749  1.0000
  H   H153      1.0  0.44166  0.14182  0.63610  1.0000
  H   H154      1.0  0.14294  0.70003  0.63815  1.0000
  H   H155      1.0  0.29834  0.43928  0.63691  1.0000
  H   H156      1.0  0.55966  0.85641  0.61375  1.0000
  H   H157      1.0  0.73446  0.16091  0.92618  1.0000
  H   H158      1.0  0.84146  0.57460  0.89961  1.0000
  H   H159      1.0  0.42075  0.26385  0.88970  1.0000
  H   H160      1.0  0.26731  0.83856  0.93375  1.0000
  H   H161      1.0  0.16037  0.42551  0.92084  1.0000
  H   H162      1.0  0.57239  0.73391  0.93748  1.0000
  H   H163      1.0  0.74538  0.14973  0.73994  1.0000
  H   H164      1.0  0.84968  0.59564  0.71131  1.0000
  H   H165      1.0  0.40259  0.25221  0.69033  1.0000
  H   H166      1.0  0.25463  0.84947  0.75151  1.0000
  H   H167      1.0  0.14971  0.40373  0.73138  1.0000
  H   H168      1.0  0.59476  0.74389  0.75353  1.0000
  C   C1        1.0  0.41304  0.42410  0.30767  1.0000
  C   C2        1.0  0.57602  0.99030  0.29432  1.0000
  C   C3        1.0  0.01110  0.58673  0.30116  1.0000
  C   C4        1.0  0.58742  0.57759  0.29719  1.0000
  C   C5        1.0  0.42236  0.01156  0.29523  1.0000
  C   C6        1.0  0.98930  0.41192  0.29105  1.0000
  C   C7        1.0  0.44004  0.45361  0.30080  1.0000
  C   C8        1.0  0.54667  0.98837  0.29161  1.0000
  C   C9        1.0  0.01286  0.55928  0.29334  1.0000
  C   C10       1.0  0.55989  0.54844  0.29678  1.0000
  C   C11       1.0  0.45171  0.01362  0.28894  1.0000
  C   C12       1.0  0.98725  0.43924  0.28664  1.0000
  C   C13       1.0  0.46979  0.45687  0.27752  1.0000
  C   C14       1.0  0.54373  0.01520  0.27483  1.0000
  C   C15       1.0  0.98590  0.52975  0.27005  1.0000
  C   C16       1.0  0.53016  0.54581  0.28469  1.0000
  C   C17       1.0  0.45467  0.98681  0.27153  1.0000
  C   C18       1.0  0.01400  0.46889  0.26887  1.0000
  C   C19       1.0  0.49848  0.48718  0.27023  1.0000
  C   C20       1.0  0.51355  0.01408  0.27112  1.0000
  C   C21       1.0  0.98688  0.50065  0.26223  1.0000
  C   C22       1.0  0.50109  0.51573  0.28556  1.0000
  C   C23       1.0  0.48490  0.98806  0.26786  1.0000
  C   C24       1.0  0.01285  0.49789  0.26755  1.0000
  C   C25       1.0  0.47188  0.42958  0.25944  1.0000
  C   C26       1.0  0.57122  0.04438  0.26027  1.0000
  C   C27       1.0  0.95679  0.52839  0.25316  1.0000
  C   C28       1.0  0.52856  0.57341  0.27153  1.0000
  C   C29       1.0  0.42715  0.95751  0.25779  1.0000
  C   C30       1.0  0.04320  0.47056  0.25338  1.0000
  C   C31       1.0  0.44528  0.39968  0.26564  1.0000
  C   C32       1.0  0.60097  0.04710  0.26232  1.0000
  C   C33       1.0  0.95423  0.55547  0.26066  1.0000
  C   C34       1.0  0.55569  0.60299  0.26999  1.0000
  C   C35       1.0  0.39732  0.95459  0.26212  1.0000
  C   C36       1.0  0.04605  0.44364  0.25614  1.0000
  C   C37       1.0  0.41606  0.39730  0.29107  1.0000
  C   C38       1.0  0.60301  0.01989  0.28052  1.0000
  C   C39       1.0  0.98154  0.58443  0.28631  1.0000
  C   C40       1.0  0.58495  0.60474  0.28400  1.0000
  C   C41       1.0  0.39529  0.98183  0.28184  1.0000
  C   C42       1.0  0.01892  0.41448  0.27580  1.0000
  C   C43       1.0  0.32270  0.41644  0.35492  1.0000
  C   C44       1.0  0.09486  0.67637  0.34760  1.0000
  C   C45       1.0  0.67714  0.58296  0.33947  1.0000
  C   C46       1.0  0.41678  0.09555  0.34332  1.0000
  C   C47       1.0  0.90605  0.32234  0.34026  1.0000
  C   C48       1.0  0.34908  0.44166  0.42963  1.0000
  C   C49       1.0  0.09371  0.65009  0.42001  1.0000
  C   C50       1.0  0.65080  0.55824  0.41192  1.0000
  C   C51       1.0  0.44181  0.09394  0.41704  1.0000
  C   C52       1.0  0.90771  0.34901  0.41245  1.0000
  C   C53       1.0  0.37835  0.44389  0.41698  1.0000
  C   C54       1.0  0.06639  0.62101  0.40725  1.0000
  C   C55       1.0  0.62179  0.55669  0.39909  1.0000
  C   C56       1.0  0.44334  0.06651  0.40353  1.0000
  C   C57       1.0  0.93489  0.37801  0.39852  1.0000
  C   C58       1.0  0.38190  0.42116  0.32884  1.0000
  C   C59       1.0  0.03980  0.61761  0.32138  1.0000
  C   C60       1.0  0.61836  0.57961  0.31308  1.0000
  C   C61       1.0  0.42012  0.04025  0.31548  1.0000
  C   C62       1.0  0.96084  0.38102  0.31149  1.0000
  C   C63       1.0  0.35495  0.39587  0.25599  1.0000
  C   C64       1.0  0.04155  0.64443  0.24971  1.0000
  C   C65       1.0  0.64521  0.60427  0.24117  1.0000
  C   C66       1.0  0.39504  0.04237  0.24367  1.0000
  C   C67       1.0  0.95866  0.35378  0.24099  1.0000
  C   C68       1.0  0.32562  0.39338  0.26848  1.0000
  C   C69       1.0  0.06868  0.67355  0.26195  1.0000
  C   C70       1.0  0.67432  0.60610  0.25384  1.0000
  C   C71       1.0  0.39322  0.06960  0.25702  1.0000
  C   C72       1.0  0.93167  0.32467  0.25494  1.0000
  C   C73       1.0  0.65541  0.08082  0.15809  1.0000
  C   C74       1.0  0.62959  0.07794  0.24567  1.0000
  C   C75       1.0  0.63180  0.10511  0.31705  1.0000
  C   C76       1.0  0.65878  0.13422  0.30219  1.0000
  C   C77       1.0  0.68417  0.13656  0.21432  1.0000
  C   C78       1.0  0.68248  0.10986  0.14228  1.0000
  C   C79       1.0  0.79339  0.25338  0.19084  1.0000
  C   C80       1.0  0.74685  0.54047  0.19232  1.0000
  C   C81       1.0  0.46037  0.20755  0.19576  1.0000
  C   C82       1.0  0.20712  0.74529  0.21032  1.0000
  C   C83       1.0  0.25379  0.45964  0.20105  1.0000
  C   C84       1.0  0.54022  0.79478  0.18994  1.0000
  C   C85       1.0  0.82175  0.25947  0.26495  1.0000
  C   C86       1.0  0.74065  0.56257  0.26520  1.0000
  C   C87       1.0  0.43787  0.17937  0.26508  1.0000
  C   C88       1.0  0.17859  0.73950  0.27607  1.0000
  C   C89       1.0  0.25942  0.43669  0.26683  1.0000
  C   C90       1.0  0.56276  0.82335  0.26052  1.0000
  C   C91       1.0  0.82309  0.23540  0.34806  1.0000
  C   C92       1.0  0.76529  0.58911  0.34064  1.0000
  C   C93       1.0  0.41145  0.17786  0.33565  1.0000
  C   C94       1.0  0.17676  0.76416  0.34991  1.0000
  C   C95       1.0  0.23468  0.41028  0.33727  1.0000
  C   C96       1.0  0.58835  0.82482  0.34501  1.0000
  C   C97       1.0  0.79676  0.20567  0.35872  1.0000
  C   C98       1.0  0.79571  0.59389  0.34412  1.0000
  C   C99       1.0  0.40707  0.20371  0.33693  1.0000
  C   C100      1.0  0.20280  0.79421  0.35959  1.0000
  C   C101      1.0  0.20480  0.40672  0.34577  1.0000
  C   C102      1.0  0.59154  0.79842  0.36217  1.0000
  C   C103      1.0  0.76841  0.19963  0.28515  1.0000
  C   C104      1.0  0.80188  0.57181  0.27080  1.0000
  C   C105      1.0  0.42935  0.23175  0.26597  1.0000
  C   C106      1.0  0.23129  0.80003  0.29341  1.0000
  C   C107      1.0  0.19926  0.42982  0.28141  1.0000
  C   C108      1.0  0.56894  0.76985  0.29238  1.0000
  C   C109      1.0  0.76700  0.22366  0.20188  1.0000
  C   C110      1.0  0.77728  0.54528  0.19523  1.0000
  C   C111      1.0  0.45592  0.23338  0.19672  1.0000
  C   C112      1.0  0.23312  0.77540  0.21916  1.0000
  C   C113      1.0  0.22389  0.45604  0.20890  1.0000
  C   C114      1.0  0.54346  0.76837  0.20645  1.0000
  C   C115      1.0  0.85045  0.29120  0.25707  1.0000
  C   C116      1.0  0.70828  0.55827  0.26282  1.0000
  C   C117      1.0  0.44159  0.15099  0.26414  1.0000
  C   C118      1.0  0.15003  0.70762  0.26624  1.0000
  C   C119      1.0  0.29125  0.43982  0.26268  1.0000
  C   C120      1.0  0.55992  0.85214  0.24724  1.0000
  C   C121      1.0  0.73972  0.16801  0.29601  1.0000
  C   C122      1.0  0.83434  0.57637  0.27016  1.0000
  C   C123      1.0  0.42482  0.25960  0.25848  1.0000
  C   C124      1.0  0.25969  0.83200  0.30214  1.0000
  C   C125      1.0  0.16772  0.42721  0.29171  1.0000
  C   C126      1.0  0.57141  0.74096  0.31060  1.0000
  C   C127      1.0  0.52098  0.71308  0.14002  1.0000
  C   C128      1.0  0.28760  0.80856  0.14456  1.0000
  C   C129      1.0  0.19136  0.47870  0.13841  1.0000
  C   C130      1.0  0.47893  0.28865  0.13445  1.0000
  C   C131      1.0  0.71175  0.19086  0.13149  1.0000
  C   C132      1.0  0.81039  0.52362  0.12266  1.0000
  C   C133      1.0  0.61081  0.87993  0.41477  1.0000
  C   C134      1.0  0.12204  0.73136  0.42021  1.0000
  C   C135      1.0  0.26754  0.38870  0.41952  1.0000
  C   C136      1.0  0.38998  0.12368  0.41632  1.0000
  C   C137      1.0  0.87828  0.26789  0.41958  1.0000
  C   C138      1.0  0.73181  0.60990  0.42147  1.0000
  C   C139      1.0  0.41216  0.42194  0.80332  1.0000
  C   C140      1.0  0.57646  0.98910  0.79507  1.0000
  C   C141      1.0  0.01076  0.58714  0.79950  1.0000
  C   C142      1.0  0.58676  0.57511  0.80111  1.0000
  C   C143      1.0  0.42280  0.01035  0.79445  1.0000
  C   C144      1.0  0.98952  0.41269  0.79301  1.0000
  C   C145      1.0  0.43936  0.45132  0.79876  1.0000
  C   C146      1.0  0.54718  0.98731  0.79122  1.0000
  C   C147      1.0  0.01278  0.55982  0.79271  1.0000
  C   C148      1.0  0.55927  0.54592  0.79834  1.0000
  C   C149      1.0  0.45225  0.01257  0.78963  1.0000
  C   C150      1.0  0.98757  0.44006  0.78955  1.0000
  C   C151      1.0  0.46907  0.45437  0.77793  1.0000
  C   C152      1.0  0.54434  0.01413  0.77150  1.0000
  C   C153      1.0  0.98595  0.53015  0.77195  1.0000
  C   C154      1.0  0.52956  0.54327  0.78354  1.0000
  C   C155      1.0  0.45532  0.98583  0.77239  1.0000
  C   C156      1.0  0.01439  0.46969  0.77252  1.0000
  C   C157      1.0  0.49789  0.48459  0.77322  1.0000
  C   C158      1.0  0.51420  0.01311  0.76728  1.0000
  C   C159      1.0  0.98716  0.50121  0.76541  1.0000
  C   C160      1.0  0.50047  0.51320  0.78201  1.0000
  C   C161      1.0  0.48555  0.98712  0.76900  1.0000
  C   C162      1.0  0.01325  0.49867  0.77075  1.0000
  C   C163      1.0  0.47094  0.42696  0.75997  1.0000
  C   C164      1.0  0.57186  0.04318  0.75464  1.0000
  C   C165      1.0  0.95668  0.52843  0.75620  1.0000
  C   C166      1.0  0.52800  0.57089  0.76996  1.0000
  C   C167      1.0  0.42786  0.95646  0.75892  1.0000
  C   C168      1.0  0.04357  0.47134  0.75749  1.0000
  C   C169      1.0  0.44411  0.39718  0.76269  1.0000
  C   C170      1.0  0.60160  0.04588  0.75910  1.0000
  C   C171      1.0  0.95391  0.55538  0.76114  1.0000
  C   C172      1.0  0.55511  0.60052  0.77142  1.0000
  C   C173      1.0  0.39801  0.95344  0.76246  1.0000
  C   C174      1.0  0.04633  0.44436  0.75908  1.0000
  C   C175      1.0  0.41492  0.39501  0.78565  1.0000
  C   C176      1.0  0.60354  0.01866  0.78032  1.0000
  C   C177      1.0  0.98108  0.58455  0.78441  1.0000
  C   C178      1.0  0.58432  0.60227  0.78828  1.0000
  C   C179      1.0  0.39583  0.98059  0.78118  1.0000
  C   C180      1.0  0.01913  0.41523  0.77778  1.0000
  C   C181      1.0  0.32224  0.41522  0.85161  1.0000
  C   C182      1.0  0.58280  0.90540  0.83247  1.0000
  C   C183      1.0  0.67643  0.58062  0.84149  1.0000
  C   C184      1.0  0.41618  0.09367  0.84156  1.0000
  C   C185      1.0  0.90622  0.32297  0.83972  1.0000
  C   C186      1.0  0.34881  0.44032  0.92566  1.0000
  C   C187      1.0  0.55759  0.90657  0.90316  1.0000
  C   C188      1.0  0.65018  0.55575  0.91368  1.0000
  C   C189      1.0  0.44110  0.09221  0.91758  1.0000
  C   C190      1.0  0.90783  0.34957  0.91263  1.0000
  C   C191      1.0  0.37794  0.44226  0.91237  1.0000
  C   C192      1.0  0.55574  0.93386  0.89348  1.0000
  C   C193      1.0  0.62115  0.55419  0.90230  1.0000
  C   C194      1.0  0.44303  0.06501  0.90379  1.0000
  C   C195      1.0  0.93501  0.37863  0.89925  1.0000
  C   C196      1.0  0.38115  0.41933  0.82427  1.0000
  C   C197      1.0  0.57882  0.96046  0.81208  1.0000
  C   C198      1.0  0.61770  0.57724  0.81783  1.0000
  C   C199      1.0  0.42022  0.03883  0.81361  1.0000
  C   C200      1.0  0.96102  0.38177  0.81240  1.0000
  C   C201      1.0  0.35401  0.39412  0.75228  1.0000
  C   C202      1.0  0.60401  0.95871  0.74251  1.0000
  C   C203      1.0  0.64448  0.60207  0.74654  1.0000
  C   C204      1.0  0.39524  0.04078  0.73907  1.0000
  C   C205      1.0  0.95888  0.35462  0.74096  1.0000
  C   C206      1.0  0.32481  0.39191  0.76554  1.0000
  C   C207      1.0  0.60619  0.93167  0.75244  1.0000
  C   C208      1.0  0.67359  0.60391  0.75788  1.0000
  C   C209      1.0  0.39314  0.06786  0.75207  1.0000
  C   C210      1.0  0.93190  0.32550  0.75401  1.0000
  C   C211      1.0  0.57593  0.65569  0.67487  1.0000
  C   C212      1.0  0.55283  0.62921  0.75672  1.0000
  C   C213      1.0  0.52743  0.63078  0.82451  1.0000
  C   C214      1.0  0.52498  0.65765  0.81168  1.0000
  C   C215      1.0  0.54815  0.68370  0.72919  1.0000
  C   C216      1.0  0.57360  0.68266  0.66066  1.0000
  C   C217      1.0  0.79303  0.25360  0.70194  1.0000
  C   C218      1.0  0.74604  0.53859  0.68313  1.0000
  C   C219      1.0  0.45902  0.20526  0.69384  1.0000
  C   C220      1.0  0.20671  0.74544  0.70575  1.0000
  C   C221      1.0  0.25335  0.45868  0.69838  1.0000
  C   C222      1.0  0.53872  0.79206  0.69880  1.0000
  C   C223      1.0  0.82193  0.25961  0.76772  1.0000
  C   C224      1.0  0.73986  0.56049  0.75913  1.0000
  C   C225      1.0  0.43676  0.17723  0.76507  1.0000
  C   C226      1.0  0.17846  0.73954  0.77561  1.0000
  C   C227      1.0  0.25925  0.43621  0.76911  1.0000
  C   C228      1.0  0.56205  0.82119  0.75952  1.0000
  C   C229      1.0  0.82408  0.23519  0.84143  1.0000
  C   C230      1.0  0.76440  0.58657  0.83834  1.0000
  C   C231      1.0  0.41031  0.17564  0.83568  1.0000
  C   C232      1.0  0.17694  0.76413  0.85269  1.0000
  C   C233      1.0  0.23475  0.41032  0.84466  1.0000
  C   C234      1.0  0.58895  0.82349  0.83232  1.0000
  C   C235      1.0  0.79801  0.20524  0.85147  1.0000
  C   C236      1.0  0.79466  0.59097  0.84343  1.0000
  C   C237      1.0  0.40590  0.20149  0.83702  1.0000
  C   C238      1.0  0.20302  0.79416  0.86205  1.0000
  C   C239      1.0  0.20488  0.40676  0.85249  1.0000
  C   C240      1.0  0.59268  0.79736  0.84797  1.0000
  C   C241      1.0  0.76911  0.19923  0.78549  1.0000
  C   C242      1.0  0.80083  0.56912  0.76736  1.0000
  C   C243      1.0  0.42815  0.22950  0.76540  1.0000
  C   C244      1.0  0.23131  0.80002  0.79286  1.0000
  C   C245      1.0  0.19905  0.42929  0.78271  1.0000
  C   C246      1.0  0.56931  0.76822  0.78778  1.0000
  C   C247      1.0  0.76700  0.22360  0.71117  1.0000
  C   C248      1.0  0.77634  0.54306  0.68761  1.0000
  C   C249      1.0  0.45449  0.23101  0.69377  1.0000
  C   C250      1.0  0.23277  0.77548  0.71485  1.0000
  C   C251      1.0  0.22343  0.45507  0.70585  1.0000
  C   C252      1.0  0.54255  0.76595  0.71323  1.0000
  C   C253      1.0  0.85041  0.29148  0.75887  1.0000
  C   C254      1.0  0.70760  0.55643  0.75701  1.0000
  C   C255      1.0  0.44083  0.14910  0.76526  1.0000
  C   C256      1.0  0.15008  0.70752  0.76885  1.0000
  C   C257      1.0  0.29118  0.43953  0.76637  1.0000
  C   C258      1.0  0.55901  0.84989  0.74569  1.0000
  C   C259      1.0  0.74058  0.16741  0.79485  1.0000
  C   C260      1.0  0.83311  0.57333  0.76998  1.0000
  C   C261      1.0  0.42397  0.25757  0.76221  1.0000
  C   C262      1.0  0.25988  0.83185  0.80258  1.0000
  C   C263      1.0  0.16722  0.42605  0.78996  1.0000
  C   C264      1.0  0.57233  0.73959  0.80459  1.0000
  C   C265      1.0  0.51964  0.71027  0.65544  1.0000
  C   C266      1.0  0.28737  0.80829  0.64189  1.0000
  C   C267      1.0  0.19074  0.47762  0.63704  1.0000
  C   C268      1.0  0.47693  0.28579  0.62340  1.0000
  C   C269      1.0  0.71176  0.19065  0.64095  1.0000
  C   C270      1.0  0.80943  0.52141  0.61356  1.0000
  C   C271      1.0  0.61111  0.87858  0.90119  1.0000
  C   C272      1.0  0.12239  0.73136  0.92549  1.0000
  C   C273      1.0  0.26755  0.38859  0.92603  1.0000
  C   C274      1.0  0.38878  0.12129  0.91264  1.0000
  C   C275      1.0  0.87927  0.26822  0.91160  1.0000
  C   C276      1.0  0.73134  0.60793  0.91757  1.0000
  N   N1        1.0  0.29290  0.41530  0.35923  1.0000
  N   N2        1.0  0.58465  0.87875  0.34333  1.0000
  N   N3        1.0  0.12350  0.70607  0.35722  1.0000
  N   N4        1.0  0.70685  0.58392  0.34913  1.0000
  N   N5        1.0  0.41609  0.12443  0.35111  1.0000
  N   N6        1.0  0.87729  0.29282  0.34931  1.0000
  N   N7        1.0  0.54716  0.71443  0.21225  1.0000
  N   N8        1.0  0.28636  0.83368  0.21212  1.0000
  N   N9        1.0  0.16606  0.45219  0.20013  1.0000
  N   N10       1.0  0.45276  0.28777  0.19945  1.0000
  N   N11       1.0  0.71287  0.16611  0.20310  1.0000
  N   N12       1.0  0.83526  0.54942  0.19720  1.0000
  N   N13       1.0  0.29258  0.41434  0.85745  1.0000
  N   N14       1.0  0.58406  0.87682  0.83867  1.0000
  N   N15       1.0  0.12331  0.70629  0.85541  1.0000
  N   N16       1.0  0.70614  0.58156  0.84926  1.0000
  N   N17       1.0  0.41524  0.12238  0.85039  1.0000
  N   N18       1.0  0.87758  0.29330  0.84836  1.0000
  N   N19       1.0  0.54670  0.71212  0.71829  1.0000
  N   N20       1.0  0.28640  0.83338  0.71160  1.0000
  N   N21       1.0  0.16587  0.45191  0.70699  1.0000
  N   N22       1.0  0.45099  0.28507  0.69091  1.0000
  N   N23       1.0  0.71315  0.16569  0.70848  1.0000
  N   N24       1.0  0.83445  0.54761  0.68408  1.0000
  O   O1        1.0  0.52000  0.74081  0.13427  1.0000
  O   O2        1.0  0.26054  0.77937  0.15008  1.0000
  O   O3        1.0  0.22021  0.47990  0.14187  1.0000
  O   O4        1.0  0.47892  0.26043  0.12395  1.0000
  O   O5        1.0  0.73962  0.21941  0.12611  1.0000
  O   O6        1.0  0.78168  0.52263  0.11716  1.0000
  O   O7        1.0  0.49930  0.68993  0.07472  1.0000
  O   O8        1.0  0.31022  0.81010  0.07560  1.0000
  O   O9        1.0  0.19031  0.50055  0.07513  1.0000
  O   O10       1.0  0.50164  0.31194  0.08200  1.0000
  O   O11       1.0  0.68859  0.18942  0.06637  1.0000
  O   O12       1.0  0.81178  0.50194  0.05795  1.0000
  O   O13       1.0  0.61191  0.85228  0.41671  1.0000
  O   O14       1.0  0.14927  0.76037  0.41687  1.0000
  O   O15       1.0  0.23831  0.38631  0.40270  1.0000
  O   O16       1.0  0.38824  0.15092  0.40856  1.0000
  O   O17       1.0  0.85032  0.23953  0.42443  1.0000
  O   O18       1.0  0.76099  0.61190  0.41739  1.0000
  O   O19       1.0  0.63240  0.90280  0.48260  1.0000
  O   O20       1.0  0.09906  0.73002  0.48353  1.0000
  O   O21       1.0  0.26891  0.36766  0.49105  1.0000
  O   O22       1.0  0.36869  0.10119  0.48397  1.0000
  O   O23       1.0  0.90132  0.26898  0.48404  1.0000
  O   O24       1.0  0.73008  0.63090  0.49218  1.0000
  O   O25       1.0  0.51840  0.73787  0.65033  1.0000
  O   O26       1.0  0.25987  0.77944  0.64201  1.0000
  O   O27       1.0  0.21937  0.47836  0.63355  1.0000
  O   O28       1.0  0.47727  0.25775  0.61733  1.0000
  O   O29       1.0  0.73926  0.21950  0.64196  1.0000
  O   O30       1.0  0.78064  0.52038  0.60899  1.0000
  O   O31       1.0  0.49731  0.68670  0.59781  1.0000
  O   O32       1.0  0.31003  0.80959  0.57468  1.0000
  O   O33       1.0  0.18937  0.49930  0.57354  1.0000
  O   O34       1.0  0.49920  0.30877  0.56523  1.0000
  O   O35       1.0  0.68865  0.18930  0.57544  1.0000
  O   O36       1.0  0.81069  0.49957  0.55003  1.0000
  O   O37       1.0  0.61336  0.85162  0.89263  1.0000
  O   O38       1.0  0.14980  0.76021  0.92495  1.0000
  O   O39       1.0  0.23857  0.38692  0.91698  1.0000
  O   O40       1.0  0.38716  0.14863  0.90838  1.0000
  O   O41       1.0  0.85196  0.23920  0.90841  1.0000
  O   O42       1.0  0.76023  0.60936  0.91637  1.0000
  O   O43       1.0  0.63270  0.90162  0.96771  1.0000
  O   O44       1.0  0.09967  0.72995  0.99245  1.0000
  O   O45       1.0  0.26896  0.36765  0.99860  1.0000
  O   O46       1.0  0.36715  0.09846  0.97609  1.0000
  O   O47       1.0  0.90256  0.26979  0.97547  1.0000
  O   O48       1.0  0.72999  0.62950  0.98391  1.0000
  C   C277      1.0  0.47738  0.34766  0.80872  1.0000
  C   C278      1.0  0.45600  0.31922  0.73219  1.0000
  C  Sn1       1.0  0.42944  0.31605  0.64911  1.0000
  C  Sn2       1.0  0.42426  0.34189  0.64269  1.0000
  C   C279      1.0  0.44580  0.37025  0.71954  1.0000
  C   C280      1.0  0.47229  0.37316  0.80239  1.0000
  H   H169      1.0  0.49789  0.34992  0.87275  1.0000
  O  Te1       1.0  0.40832  0.28746  0.57337  1.0000
  O  Te2       1.0  0.39791  0.33937  0.56043  1.0000
  H   H170      1.0  0.48885  0.39519  0.86153  1.0000
  Mg  Mg1       1.0  0.37589  0.29558  0.47635  1.0000
  C   C281      1.0  0.87171  0.52262  0.30454  1.0000
  C   C282      1.0  0.86460  0.54440  0.23590  1.0000
  C  Sn3       1.0  0.88787  0.57120  0.15900  1.0000
  C  Sn4       1.0  0.91881  0.57622  0.15081  1.0000
  C   C283      1.0  0.92568  0.55428  0.21974  1.0000
  C   C284      1.0  0.90222  0.52755  0.29645  1.0000
  H   H171      1.0  0.85356  0.50193  0.36381  1.0000
  O  Te3       1.0  0.88036  0.59273  0.09112  1.0000
  O  Te4       1.0  0.94251  0.60280  0.07462  1.0000
  H   H172      1.0  0.90773  0.51068  0.34949  1.0000
  Mg  Mg2       1.0  0.92073  0.62535  0.00029  1.0000
  C   C285      1.0  0.47716  0.36485  0.32833  1.0000
  C   C286      1.0  0.45582  0.37227  0.25490  1.0000
  C  Sn5       1.0  0.43058  0.34991  0.15897  1.0000
  C  Sn6       1.0  0.42668  0.31959  0.13640  1.0000
  C   C287      1.0  0.44813  0.31239  0.21048  1.0000
  C   C288      1.0  0.47332  0.33494  0.30618  1.0000
  H   H173      1.0  0.49663  0.38229  0.40245  1.0000
  O  Te5       1.0  0.40949  0.35772  0.08645  1.0000
  O  Te6       1.0  0.40165  0.29679  0.04119  1.0000
  H   H174      1.0  0.48982  0.32918  0.36310  1.0000
  Mg  Mg3       1.0  0.38229  0.32101  0.96760  1.0000
  C   C289      1.0  0.11259  0.47556  0.32404  1.0000
  C   C290      1.0  0.08388  0.45393  0.25039  1.0000
  C  Sn7       1.0  0.08132  0.42887  0.15551  1.0000
  C  Sn8       1.0  0.10804  0.42546  0.13423  1.0000
  C   C291      1.0  0.13665  0.44721  0.20853  1.0000
  C   C292      1.0  0.13895  0.47220  0.30317  1.0000
  H   H175      1.0  0.11436  0.49488  0.39735  1.0000
  O  Te7       1.0  0.05247  0.40748  0.08273  1.0000
  O  Te8       1.0  0.10614  0.40063  0.04008  1.0000
  H   H176      1.0  0.16117  0.48894  0.36028  1.0000
  Mg  Mg4       1.0  0.06483  0.37990  0.96565  1.0000
  C   C293      1.0  0.89936  0.57825  0.62474  1.0000
  C   C294      1.0  0.86993  0.55471  0.67548  1.0000
  C  Sn9       1.0  0.86721  0.52990  0.77143  1.0000
  C  Sn10      1.0  0.89451  0.52870  0.81729  1.0000
  C   C295      1.0  0.92386  0.55237  0.76600  1.0000
  C   C296      1.0  0.92630  0.57709  0.66996  1.0000
  H   H177      1.0  0.90126  0.59738  0.55051  1.0000
  O  Te9       1.0  0.83762  0.50658  0.82102  1.0000
  O  Te10      1.0  0.89247  0.50418  0.91317  1.0000
  H   H178      1.0  0.94910  0.59531  0.63078  1.0000
  Mg  Mg5       1.0  0.84691  0.47794  0.95048  1.0000
  C   C297      1.0  0.52192  0.65187  0.32267  1.0000
  C   C298      1.0  0.54281  0.68051  0.25096  1.0000
  C  Sn11      1.0  0.56939  0.68421  0.16995  1.0000
  C  Sn12      1.0  0.57511  0.65873  0.16073  1.0000
  C   C299      1.0  0.55406  0.63017  0.23277  1.0000
  C   C300      1.0  0.52753  0.62673  0.31357  1.0000
  H   H179      1.0  0.50138  0.64920  0.38511  1.0000
  O  Te11      1.0  0.59003  0.71297  0.09904  1.0000
  O  Te12      1.0  0.60149  0.66178  0.08047  1.0000
  H   H180      1.0  0.51135  0.60455  0.36898  1.0000
  Mg  Mg6       1.0  0.62272  0.70563  0.00310  1.0000
  C   C301      1.0  0.06072  0.66901  0.73844  1.0000
  C   C302      1.0  0.08786  0.67755  0.83341  1.0000
  C  Sn13      1.0  0.09118  0.65494  0.92139  1.0000
  C  Sn14      1.0  0.06685  0.62320  0.91389  1.0000
  C   C303      1.0  0.03980  0.61489  0.81843  1.0000
  C   C304      1.0  0.03671  0.63771  0.73092  1.0000
  H   H181      1.0  0.05834  0.68666  0.67065  1.0000
  O  Te13      1.0  0.11529  0.66154  0.01572  1.0000
  O  Te14      1.0  0.06640  0.59778  0.00056  1.0000
  H   H182      1.0  0.01570  0.63109  0.65731  1.0000
  Mg  Mg7       1.0  0.10803  0.62155  0.11196  1.0000
  C   C305      1.0  0.10087  0.42080  0.63746  1.0000
  C   C306      1.0  0.13037  0.44473  0.69065  1.0000
  C  Sn15      1.0  0.13320  0.47030  0.78167  1.0000
  C  Sn16      1.0  0.10596  0.47187  0.82001  1.0000
  C   C307      1.0  0.07656  0.44780  0.76634  1.0000
  C   C308      1.0  0.07399  0.42233  0.67528  1.0000
  H   H183      1.0  0.09888  0.40109  0.56709  1.0000
  O  Te15      1.0  0.16286  0.49400  0.83378  1.0000
  O  Te16      1.0  0.10812  0.49715  0.91085  1.0000
  H   H184      1.0  0.05114  0.40380  0.63422  1.0000
  Mg  Mg8       1.0  0.15373  0.52367  0.95426  1.0000
  C   C309      1.0  0.33378  0.91426  0.14517  1.0000
  C   C310      1.0  0.36162  0.92333  0.23456  1.0000
  C  Sn17      1.0  0.36627  0.90100  0.31666  1.0000
  C  Sn18      1.0  0.34259  0.86900  0.30887  1.0000
  C   C311      1.0  0.31483  0.86016  0.21902  1.0000
  C   C312      1.0  0.31041  0.88271  0.13737  1.0000
  H   H185      1.0  0.33037  0.93170  0.08191  1.0000
  O  Te17      1.0  0.39422  0.91046  0.40546  1.0000
  O  Te18      1.0  0.34663  0.84619  0.38972  1.0000
  H   H186      1.0  0.28887  0.87567  0.06808  1.0000
  Mg  Mg9       1.0  0.38876  0.87067  0.49490  1.0000
  C   C313      1.0  0.34977  0.87103  0.81885  1.0000
  C   C314      1.0  0.32059  0.86313  0.74865  1.0000
  C  Sn19      1.0  0.31631  0.88572  0.66674  1.0000
  C  Sn20      1.0  0.34177  0.91678  0.65505  1.0000
  C   C315      1.0  0.37088  0.92445  0.72559  1.0000
  C   C316      1.0  0.37490  0.90166  0.80733  1.0000
  H   H187      1.0  0.35289  0.85340  0.88201  1.0000
  O  Te19      1.0  0.28699  0.87743  0.59736  1.0000
  O  Te20      1.0  0.33815  0.93982  0.57383  1.0000
  H   H188      1.0  0.39751  0.90778  0.86157  1.0000
  Mg  Mg10      1.0  0.29368  0.91708  0.49927  1.0000
  C   C317      1.0  0.66464  0.08484  0.64327  1.0000
  C   C318      1.0  0.63727  0.07662  0.73073  1.0000
  C  Sn21      1.0  0.63332  0.09965  0.81049  1.0000
  C  Sn22      1.0  0.65725  0.13150  0.80227  1.0000
  C   C319      1.0  0.68453  0.13948  0.71436  1.0000
  C   C320      1.0  0.68825  0.11624  0.63505  1.0000
  H   H189      1.0  0.66752  0.06686  0.58183  1.0000
  O  Te21      1.0  0.60582  0.09103  0.89738  1.0000
  O  Te22      1.0  0.65390  0.15500  0.88079  1.0000
  H   H190      1.0  0.70944  0.12261  0.56725  1.0000
  Mg  Mg11      1.0  0.61218  0.13155  0.98398  1.0000
  C   C321      1.0  0.55493  0.91331  0.42592  1.0000
  C   C322      1.0  0.57544  0.90574  0.34651  1.0000
  C  Sn23      1.0  0.59964  0.92790  0.24925  1.0000
  C  Sn24      1.0  0.60331  0.95818  0.23143  1.0000
  C   C323      1.0  0.58268  0.96553  0.31148  1.0000
  C   C324      1.0  0.55855  0.94317  0.40846  1.0000
  H   H191      1.0  0.53627  0.89601  0.50104  1.0000
  O  Te23      1.0  0.61992  0.91995  0.17073  1.0000
  O  Te24      1.0  0.62730  0.98078  0.13501  1.0000
  H   H192      1.0  0.54268  0.94904  0.47002  1.0000
  Mg  Mg12      1.0  0.64898  0.95876  0.05252  1.0000
