data_image0
_chemical_formula_structural       H120C180N24O24SnCSn2CSnTe4Mg2SnCSn2CSnTe4Mg2SnCSn2CSnTe4Mg2SnCSn2CSnTe4Mg2SnCSn2CSnTe4Mg2SnCSn2CSnTe4Mg2SnCSn2CSnTe4Mg2SnCSn2CSnTe4Mg2SnCSn2CSnTe4Mg2SnCSn2CSnTe4Mg2SnCSn2CSnTe4Mg2SnCSn2CSnTe4Mg2SnCSn2CSnTe4Mg2SnCSn2CSnTe4Mg2SnCSn2CSnTe4Mg2SnCSn2CSnTe4Mg2SnCSn2CSnTe4Mg2SnCSn2CSnTe4Mg2SnCSn2CSnTe4Mg2SnCSn2CSnTe4Mg2SnCSn2CSnTe4Mg2SnCSn2CSnTe4Mg2SnCSn2CSnTe4Mg2SnCSn2CSnTe4Mg2
_chemical_formula_sum              "H120 C228 N24 O24 Sn96 Te96 Mg48"
_cell_length_a       49.5333
_cell_length_b       49.6846
_cell_length_c       7.8538
_cell_angle_alpha    91.1046
_cell_angle_beta     114.609
_cell_angle_gamma    119.952

_symmetry_space_group_name_H-M    'P1'
_space_group_IT_number       1

loop_
  _space_group_symop_operation_xyz
  'x, y, z'

loop_
  _atom_site_type_symbol
  _atom_site_label
  _atom_site_symmetry_multiplicity
  _atom_site_fract_x
  _atom_site_fract_y
  _atom_site_fract_z
  _atom_site_occupancy
  H   H1        1.0  0.45178  0.49658  0.27667  1.0000
  H   H2        1.0  0.53003  0.97954  0.25351  1.0000
  H   H3        1.0  0.04485  0.57480  0.24890  1.0000
  H   H4        1.0  0.57123  0.54249  0.25749  1.0000
  H   H5        1.0  0.48203  0.05485  0.22853  1.0000
  H   H6        1.0  0.96858  0.45182  0.25125  1.0000
  H   H7        1.0  0.52713  0.50057  0.23764  1.0000
  H   H8        1.0  0.51665  0.04746  0.14099  1.0000
  H   H9        1.0  0.97458  0.49816  0.28800  1.0000
  H   H10       1.0  0.48762  0.53325  0.21946  1.0000
  H   H11       1.0  0.49645  0.98685  0.28563  1.0000
  H   H12       1.0  0.03552  0.52871  0.18896  1.0000
  H   H13       1.0  0.49973  0.44662  0.24084  1.0000
  H   H14       1.0  0.57329  0.07306  0.14930  1.0000
  H   H15       1.0  0.94716  0.52528  0.27347  1.0000
  H   H16       1.0  0.51333  0.58665  0.20482  1.0000
  H   H17       1.0  0.44221  0.95774  0.26434  1.0000
  H   H18       1.0  0.06356  0.50358  0.20236  1.0000
  H   H19       1.0  0.40207  0.39663  0.26712  1.0000
  H   H20       1.0  0.63025  0.02684  0.25937  1.0000
  H   H21       1.0  0.99501  0.62446  0.26623  1.0000
  H   H22       1.0  0.61934  0.64319  0.28105  1.0000
  H   H23       1.0  0.38297  0.99915  0.23782  1.0000
  H   H24       1.0  0.01919  0.40449  0.21252  1.0000
  H   H25       1.0  0.78607  0.26878  0.06980  1.0000
  H   H26       1.0  0.72822  0.53146  0.13806  1.0000
  H   H27       1.0  0.48352  0.22529  0.20163  1.0000
  H   H28       1.0  0.22806  0.74281  0.28328  1.0000
  H   H29       1.0  0.26700  0.49443  0.10699  1.0000
  H   H30       1.0  0.52490  0.80441  0.98545  1.0000
  H   H31       1.0  0.82723  0.20998  0.50153  1.0000
  H   H32       1.0  0.84518  0.63816  0.49950  1.0000
  H   H33       1.0  0.38784  0.21771  0.30707  1.0000
  H   H34       1.0  0.20987  0.83286  0.24295  1.0000
  H   H35       1.0  0.19719  0.40359  0.32342  1.0000
  H   H36       1.0  0.62418  0.81662  0.59597  1.0000
  H   H37       1.0  0.84431  0.30735  0.13686  1.0000
  H   H38       1.0  0.69898  0.55254  0.20292  1.0000
  H   H39       1.0  0.46188  0.17091  0.19471  1.0000
  H   H40       1.0  0.17407  0.70911  0.29461  1.0000
  H   H41       1.0  0.30765  0.47858  0.16587  1.0000
  H   H42       1.0  0.54775  0.86042  0.09066  1.0000
  H   H43       1.0  0.76664  0.17028  0.42706  1.0000
  H   H44       1.0  0.87445  0.61720  0.42877  1.0000
  H   H45       1.0  0.40951  0.27296  0.30805  1.0000
  H   H46       1.0  0.26415  0.86664  0.23892  1.0000
  H   H47       1.0  0.15754  0.42005  0.27248  1.0000
  H   H48       1.0  0.60255  0.76142  0.48839  1.0000
  H   H49       1.0  0.18963  0.48348  0.10270  1.0000
  H   H50       1.0  0.53033  0.73595  0.05089  1.0000
  H   H51       1.0  0.29170  0.81696  0.24614  1.0000
  H   H52       1.0  0.80646  0.53962  0.17432  1.0000
  H   H53       1.0  0.47835  0.29419  0.23062  1.0000
  H   H54       1.0  0.72126  0.19366  0.09005  1.0000
  H   H55       1.0  0.27638  0.41617  0.34503  1.0000
  H   H56       1.0  0.61765  0.88459  0.53759  1.0000
  H   H57       1.0  0.14519  0.75806  0.26773  1.0000
  H   H58       1.0  0.76682  0.62958  0.46522  1.0000
  H   H59       1.0  0.39339  0.14890  0.28113  1.0000
  H   H60       1.0  0.89140  0.28197  0.45157  1.0000
  H   H61       1.0  0.43420  0.46292  0.79241  1.0000
  H   H62       1.0  0.51646  0.94393  0.74036  1.0000
  H   H63       1.0  0.03068  0.54729  0.76567  1.0000
  H   H64       1.0  0.55148  0.50763  0.73442  1.0000
  H   H65       1.0  0.46839  0.01979  0.73282  1.0000
  H   H66       1.0  0.95334  0.42581  0.74719  1.0000
  H   H67       1.0  0.50564  0.46564  0.70723  1.0000
  H   H68       1.0  0.50221  0.01306  0.67483  1.0000
  H   H69       1.0  0.95846  0.46805  0.76375  1.0000
  H   H70       1.0  0.47656  0.50364  0.78625  1.0000
  H   H71       1.0  0.47679  0.94819  0.77304  1.0000
  H   H72       1.0  0.02003  0.49951  0.66932  1.0000
  H   H73       1.0  0.47987  0.41311  0.71457  1.0000
  H   H74       1.0  0.55753  0.04157  0.70250  1.0000
  H   H75       1.0  0.92636  0.49179  0.71285  1.0000
  H   H76       1.0  0.49953  0.55554  0.74226  1.0000
  H   H77       1.0  0.42168  0.92184  0.75857  1.0000
  H   H78       1.0  0.04743  0.47160  0.68957  1.0000
  H   H79       1.0  0.38691  0.36293  0.78564  1.0000
  H   H80       1.0  0.62027  0.00150  0.79101  1.0000
  H   H81       1.0  0.97332  0.59163  0.72105  1.0000
  H   H82       1.0  0.59393  0.60445  0.68329  1.0000
  H   H83       1.0  0.36874  0.96964  0.73757  1.0000
  H   H84       1.0  0.00292  0.37544  0.75794  1.0000
  H   H85       1.0  0.75991  0.24404  0.53635  1.0000
  H   H86       1.0  0.70107  0.49551  0.49925  1.0000
  H   H87       1.0  0.48140  0.19994  0.72352  1.0000
  H   H88       1.0  0.20746  0.71317  0.77005  1.0000
  H   H89       1.0  0.25333  0.46228  0.66578  1.0000
  H   H90       1.0  0.51518  0.77497  0.43471  1.0000
  H   H91       1.0  0.80272  0.18845  0.98975  1.0000
  H   H92       1.0  0.81779  0.60217  0.87399  1.0000
  H   H93       1.0  0.38011  0.18707  0.78876  1.0000
  H   H94       1.0  0.18851  0.80279  0.72590  1.0000
  H   H95       1.0  0.18294  0.37078  0.87588  1.0000
  H   H96       1.0  0.61134  0.78299  0.04408  1.0000
  H   H97       1.0  0.82029  0.28426  0.61102  1.0000
  H   H98       1.0  0.67130  0.51606  0.56552  1.0000
  H   H99       1.0  0.46041  0.14449  0.71495  1.0000
  H   H100      1.0  0.15289  0.67921  0.77631  1.0000
  H   H101      1.0  0.29322  0.44597  0.71715  1.0000
  H   H102      1.0  0.53876  0.83007  0.54509  1.0000
  H   H103      1.0  0.74426  0.14761  0.90784  1.0000
  H   H104      1.0  0.84764  0.58145  0.81091  1.0000
  H   H105      1.0  0.40053  0.24176  0.79663  1.0000
  H   H106      1.0  0.24277  0.83682  0.71931  1.0000
  H   H107      1.0  0.14224  0.38667  0.81912  1.0000
  H   H108      1.0  0.58680  0.72660  0.92986  1.0000
  H   H109      1.0  0.17493  0.45046  0.65034  1.0000
  H   H110      1.0  0.51774  0.70492  0.48527  1.0000
  H   H111      1.0  0.27155  0.78794  0.74116  1.0000
  H   H112      1.0  0.78034  0.50489  0.54179  1.0000
  H   H113      1.0  0.47295  0.26697  0.74375  1.0000
  H   H114      1.0  0.69612  0.17068  0.57827  1.0000
  H   H115      1.0  0.26088  0.38226  0.88540  1.0000
  H   H116      1.0  0.60837  0.85296  0.99341  1.0000
  H   H117      1.0  0.12473  0.72831  0.75857  1.0000
  H   H118      1.0  0.73896  0.59307  0.83305  1.0000
  H   H119      1.0  0.38779  0.11964  0.76051  1.0000
  H   H120      1.0  0.86671  0.26247  0.95623  1.0000
  C   C1        1.0  0.42332  0.44655  0.27437  1.0000
  C   C2        1.0  0.58016  0.00018  0.25928  1.0000
  C   C3        1.0  0.02390  0.60357  0.25615  1.0000
  C   C4        1.0  0.59876  0.59274  0.26935  1.0000
  C   C5        1.0  0.43213  0.03075  0.23505  1.0000
  C   C6        1.0  0.99090  0.42457  0.23629  1.0000
  C   C7        1.0  0.45083  0.47427  0.26660  1.0000
  C   C8        1.0  0.55062  0.00011  0.23660  1.0000
  C   C9        1.0  0.02297  0.57483  0.24943  1.0000
  C   C10       1.0  0.56923  0.56324  0.24787  1.0000
  C   C11       1.0  0.46124  0.03258  0.23294  1.0000
  C   C12       1.0  0.98959  0.45219  0.23617  1.0000
  C   C13       1.0  0.47805  0.47433  0.25032  1.0000
  C   C14       1.0  0.54761  0.02625  0.19684  1.0000
  C   C15       1.0  0.99539  0.54630  0.25339  1.0000
  C   C16       1.0  0.53826  0.56049  0.22619  1.0000
  C   C17       1.0  0.46466  0.00613  0.24016  1.0000
  C   C18       1.0  0.01563  0.48071  0.22273  1.0000
  C   C19       1.0  0.50634  0.50287  0.23706  1.0000
  C   C20       1.0  0.51838  0.02768  0.18961  1.0000
  C   C21       1.0  0.99458  0.51650  0.25577  1.0000
  C   C22       1.0  0.50874  0.53105  0.22431  1.0000
  C   C23       1.0  0.49440  0.00665  0.24042  1.0000
  C   C24       1.0  0.01582  0.51022  0.22233  1.0000
  C   C25       1.0  0.47833  0.44618  0.25161  1.0000
  C   C26       1.0  0.57495  0.05239  0.17653  1.0000
  C   C27       1.0  0.96797  0.54682  0.26318  1.0000
  C   C28       1.0  0.53683  0.58807  0.21854  1.0000
  C   C29       1.0  0.43846  0.97750  0.25185  1.0000
  C   C30       1.0  0.04339  0.48126  0.21035  1.0000
  C   C31       1.0  0.45141  0.41787  0.26125  1.0000
  C   C32       1.0  0.60561  0.05362  0.20539  1.0000
  C   C33       1.0  0.96752  0.57482  0.26673  1.0000
  C   C34       1.0  0.56597  0.61796  0.24051  1.0000
  C   C35       1.0  0.40848  0.97423  0.24939  1.0000
  C   C36       1.0  0.04572  0.45425  0.21015  1.0000
  C   C37       1.0  0.42404  0.41863  0.26967  1.0000
  C   C38       1.0  0.60770  0.02717  0.24623  1.0000
  C   C39       1.0  0.99565  0.60291  0.26445  1.0000
  C   C40       1.0  0.59693  0.62014  0.26772  1.0000
  C   C41       1.0  0.40592  0.00118  0.23959  1.0000
  C   C42       1.0  0.01886  0.42611  0.22049  1.0000
  C   C43       1.0  0.84348  0.25087  0.38884  1.0000
  C   C44       1.0  0.78934  0.61176  0.40874  1.0000
  C   C45       1.0  0.41071  0.19239  0.27460  1.0000
  C   C46       1.0  0.18824  0.78404  0.25883  1.0000
  C   C47       1.0  0.24354  0.42842  0.28829  1.0000
  C   C48       1.0  0.60040  0.84067  0.44021  1.0000
  C   C49       1.0  0.83164  0.26800  0.26775  1.0000
  C   C50       1.0  0.75567  0.58116  0.30340  1.0000
  C   C51       1.0  0.43841  0.19471  0.24569  1.0000
  C   C52       1.0  0.19337  0.75803  0.27009  1.0000
  C   C53       1.0  0.26377  0.45463  0.22728  1.0000
  C   C54       1.0  0.57180  0.83711  0.26477  1.0000
  C   C55       1.0  0.79499  0.25589  0.16423  1.0000
  C   C56       1.0  0.75384  0.55473  0.21767  1.0000
  C   C57       1.0  0.46306  0.22385  0.22865  1.0000
  C   C58       1.0  0.22377  0.76229  0.27133  1.0000
  C   C59       1.0  0.25211  0.47489  0.15715  1.0000
  C   C60       1.0  0.54640  0.80697  0.11950  1.0000
  C   C61       1.0  0.76950  0.22686  0.17242  1.0000
  C   C62       1.0  0.78420  0.55764  0.23147  1.0000
  C   C63       1.0  0.46145  0.25093  0.24085  1.0000
  C   C64       1.0  0.24885  0.79114  0.25795  1.0000
  C   C65       1.0  0.22171  0.47064  0.15168  1.0000
  C   C66       1.0  0.54812  0.78005  0.14334  1.0000
  C   C67       1.0  0.78132  0.20991  0.29641  1.0000
  C   C68       1.0  0.81787  0.58836  0.33479  1.0000
  C   C69       1.0  0.43370  0.24868  0.26935  1.0000
  C   C70       1.0  0.24378  0.81710  0.24715  1.0000
  C   C71       1.0  0.20170  0.44460  0.21421  1.0000
  C   C72       1.0  0.57699  0.78375  0.31790  1.0000
  C   C73       1.0  0.81816  0.22251  0.40412  1.0000
  C   C74       1.0  0.81968  0.61477  0.42151  1.0000
  C   C75       1.0  0.40883  0.21940  0.28483  1.0000
  C   C76       1.0  0.21366  0.81305  0.24953  1.0000
  C   C77       1.0  0.21274  0.42373  0.27923  1.0000
  C   C78       1.0  0.60254  0.81397  0.46230  1.0000
  C   C79       1.0  0.85618  0.29683  0.24037  1.0000
  C   C80       1.0  0.72344  0.57692  0.28328  1.0000
  C   C81       1.0  0.44145  0.16756  0.23078  1.0000
  C   C82       1.0  0.16783  0.72754  0.28095  1.0000
  C   C83       1.0  0.29504  0.45964  0.22832  1.0000
  C   C84       1.0  0.56864  0.86409  0.23414  1.0000
  C   C85       1.0  0.75586  0.18034  0.31462  1.0000
  C   C86       1.0  0.84987  0.59281  0.34894  1.0000
  C   C87       1.0  0.43068  0.27598  0.28027  1.0000
  C   C88       1.0  0.26953  0.84772  0.24010  1.0000
  C   C89       1.0  0.17103  0.44005  0.21893  1.0000
  C   C90       1.0  0.58048  0.75692  0.34781  1.0000
  C   C91       1.0  0.40636  0.41257  0.78565  1.0000
  C   C92       1.0  0.56897  0.97011  0.77041  1.0000
  C   C93       1.0  0.00595  0.57354  0.74601  1.0000
  C   C94       1.0  0.57646  0.55637  0.71357  1.0000
  C   C95       1.0  0.41879  0.99870  0.73811  1.0000
  C   C96       1.0  0.97486  0.39738  0.75389  1.0000
  C   C97       1.0  0.43359  0.44083  0.77872  1.0000
  C   C98       1.0  0.53755  0.96685  0.74294  1.0000
  C   C99       1.0  0.00702  0.54584  0.74871  1.0000
  C   C100      1.0  0.54976  0.52860  0.72654  1.0000
  C   C101      1.0  0.44654  0.99814  0.73426  1.0000
  C   C102      1.0  0.97417  0.42501  0.73760  1.0000
  C   C103      1.0  0.46033  0.44130  0.75410  1.0000
  C   C104      1.0  0.53335  0.99282  0.72193  1.0000
  C   C105      1.0  0.97822  0.51610  0.73256  1.0000
  C   C106      1.0  0.52169  0.52778  0.73688  1.0000
  C   C107      1.0  0.44766  0.97043  0.73947  1.0000
  C   C108      1.0  0.00039  0.45196  0.71602  1.0000
  C   C109      1.0  0.48847  0.46984  0.73991  1.0000
  C   C110      1.0  0.50275  0.99211  0.70871  1.0000
  C   C111      1.0  0.97846  0.48690  0.73387  1.0000
  C   C112      1.0  0.49403  0.49957  0.75644  1.0000
  C   C113      1.0  0.47667  0.96939  0.74053  1.0000
  C   C114      1.0  0.00040  0.48124  0.70400  1.0000
  C   C115      1.0  0.45983  0.41276  0.74079  1.0000
  C   C116      1.0  0.56085  0.02159  0.71995  1.0000
  C   C117      1.0  0.94823  0.51454  0.71909  1.0000
  C   C118      1.0  0.52060  0.55555  0.72957  1.0000
  C   C119      1.0  0.42017  0.94289  0.74962  1.0000
  C   C120      1.0  0.02752  0.45065  0.70824  1.0000
  C   C121      1.0  0.43405  0.38430  0.75571  1.0000
  C   C122      1.0  0.59249  0.02554  0.74522  1.0000
  C   C123      1.0  0.94634  0.54178  0.71643  1.0000
  C   C124      1.0  0.54665  0.58344  0.71278  1.0000
  C   C125      1.0  0.39120  0.94195  0.74752  1.0000
  C   C126      1.0  0.02956  0.42353  0.72639  1.0000
  C   C127      1.0  0.40738  0.38474  0.77616  1.0000
  C   C128      1.0  0.59651  0.99965  0.77558  1.0000
  C   C129      1.0  0.97548  0.57099  0.73133  1.0000
  C   C130      1.0  0.57449  0.58357  0.70541  1.0000
  C   C131      1.0  0.39119  0.97017  0.74223  1.0000
  C   C132      1.0  0.00291  0.39721  0.74977  1.0000
  C   C133      1.0  0.81853  0.22952  0.87914  1.0000
  C   C134      1.0  0.76184  0.57556  0.77888  1.0000
  C   C135      1.0  0.40462  0.16328  0.76025  1.0000
  C   C136      1.0  0.16777  0.75444  0.75009  1.0000
  C   C137      1.0  0.22855  0.39492  0.83394  1.0000
  C   C138      1.0  0.58985  0.80888  0.89108  1.0000
  C   C139      1.0  0.80630  0.24568  0.75009  1.0000
  C   C140      1.0  0.72824  0.54490  0.67003  1.0000
  C   C141      1.0  0.43390  0.16697  0.74297  1.0000
  C   C142      1.0  0.17314  0.72864  0.76202  1.0000
  C   C143      1.0  0.24883  0.42114  0.77351  1.0000
  C   C144      1.0  0.56192  0.80635  0.71666  1.0000
  C   C145      1.0  0.76927  0.23222  0.63857  1.0000
  C   C146      1.0  0.72663  0.51876  0.58193  1.0000
  C   C147      1.0  0.45920  0.19708  0.73727  1.0000
  C   C148      1.0  0.20344  0.73283  0.76163  1.0000
  C   C149      1.0  0.23779  0.44208  0.70964  1.0000
  C   C150      1.0  0.53613  0.77668  0.56800  1.0000
  C   C151      1.0  0.74410  0.20353  0.65233  1.0000
  C   C152      1.0  0.75727  0.52202  0.59818  1.0000
  C   C153      1.0  0.45628  0.22350  0.74645  1.0000
  C   C154      1.0  0.22871  0.76185  0.75178  1.0000
  C   C155      1.0  0.20709  0.43750  0.70184  1.0000
  C   C156      1.0  0.53692  0.74926  0.58644  1.0000
  C   C157      1.0  0.75647  0.18734  0.78043  1.0000
  C   C158      1.0  0.79082  0.55267  0.70672  1.0000
  C   C159      1.0  0.42692  0.21971  0.76317  1.0000
  C   C160      1.0  0.22335  0.78773  0.74040  1.0000
  C   C161      1.0  0.18656  0.41107  0.76052  1.0000
  C   C162      1.0  0.56463  0.75162  0.76156  1.0000
  C   C163      1.0  0.79337  0.20061  0.89054  1.0000
  C   C164      1.0  0.79237  0.57880  0.79382  1.0000
  C   C165      1.0  0.40196  0.18977  0.77173  1.0000
  C   C166      1.0  0.19291  0.78339  0.73835  1.0000
  C   C167      1.0  0.19805  0.39057  0.82786  1.0000
  C   C168      1.0  0.59059  0.78139  0.91016  1.0000
  C   C169      1.0  0.83137  0.27467  0.72556  1.0000
  C   C170      1.0  0.69590  0.54030  0.64951  1.0000
  C   C171      1.0  0.43780  0.14022  0.73176  1.0000
  C   C172      1.0  0.14746  0.69816  0.77015  1.0000
  C   C173      1.0  0.27989  0.42601  0.77142  1.0000
  C   C174      1.0  0.55930  0.83367  0.68972  1.0000
  C   C175      1.0  0.73205  0.15768  0.80237  1.0000
  C   C176      1.0  0.82313  0.55725  0.72654  1.0000
  C   C177      1.0  0.42240  0.24608  0.77159  1.0000
  C   C178      1.0  0.24879  0.81827  0.73026  1.0000
  C   C179      1.0  0.15530  0.40610  0.76048  1.0000
  C   C180      1.0  0.56597  0.72367  0.78873  1.0000
  N   N1        1.0  0.30694  0.44165  0.29597  1.0000
  N   N2        1.0  0.59010  0.89186  0.36994  1.0000
  N   N3        1.0  0.13887  0.72244  0.27537  1.0000
  N   N4        1.0  0.72347  0.60080  0.35637  1.0000
  N   N5        1.0  0.42092  0.14042  0.25661  1.0000
  N   N6        1.0  0.89037  0.30898  0.32616  1.0000
  N   N7        1.0  0.55844  0.72899  0.21337  1.0000
  N   N8        1.0  0.29786  0.85279  0.23668  1.0000
  N   N9        1.0  0.16068  0.45957  0.16635  1.0000
  N   N10       1.0  0.45229  0.30287  0.25680  1.0000
  N   N11       1.0  0.72159  0.16700  0.20232  1.0000
  N   N12       1.0  0.84936  0.56912  0.26915  1.0000
  N   N13       1.0  0.29079  0.40695  0.82728  1.0000
  N   N14       1.0  0.58003  0.86092  0.82887  1.0000
  N   N15       1.0  0.11908  0.69349  0.77072  1.0000
  N   N16       1.0  0.69615  0.56388  0.72803  1.0000
  N   N17       1.0  0.41534  0.11238  0.74307  1.0000
  N   N18       1.0  0.86579  0.28786  0.83040  1.0000
  N   N19       1.0  0.54282  0.69585  0.65271  1.0000
  N   N20       1.0  0.27745  0.82325  0.73259  1.0000
  N   N21       1.0  0.14396  0.42467  0.69809  1.0000
  N   N22       1.0  0.44344  0.27364  0.75156  1.0000
  N   N23       1.0  0.69753  0.14390  0.70378  1.0000
  N   N24       1.0  0.82291  0.53367  0.64782  1.0000
  O   O1        1.0  0.21155  0.49074  0.08622  1.0000
  O   O2        1.0  0.52273  0.75132  0.00409  1.0000
  O   O3        1.0  0.27764  0.79429  0.25868  1.0000
  O   O4        1.0  0.78140  0.53167  0.14873  1.0000
  O   O5        1.0  0.48569  0.27844  0.22431  1.0000
  O   O6        1.0  0.73452  0.21547  0.06426  1.0000
  O   O7        1.0  0.25378  0.40840  0.35551  1.0000
  O   O8        1.0  0.62521  0.86921  0.58298  1.0000
  O   O9        1.0  0.15965  0.78104  0.25952  1.0000
  O   O10       1.0  0.79211  0.63751  0.49445  1.0000
  O   O11       1.0  0.38632  0.16468  0.28862  1.0000
  O   O12       1.0  0.87846  0.26168  0.48847  1.0000
  O   O13       1.0  0.19727  0.45792  0.63805  1.0000
  O   O14       1.0  0.51167  0.72124  0.44040  1.0000
  O   O15       1.0  0.25729  0.76497  0.75032  1.0000
  O   O16       1.0  0.75485  0.49656  0.51214  1.0000
  O   O17       1.0  0.48116  0.25193  0.74145  1.0000
  O   O18       1.0  0.70885  0.19135  0.54354  1.0000
  O   O19       1.0  0.23856  0.37464  0.89806  1.0000
  O   O20       1.0  0.61546  0.83720  0.03436  1.0000
  O   O21       1.0  0.13891  0.75123  0.74793  1.0000
  O   O22       1.0  0.76440  0.60112  0.86499  1.0000
  O   O23       1.0  0.37976  0.13486  0.76601  1.0000
  O   O24       1.0  0.85367  0.24146  0.98905  1.0000
  C  Sn1       1.0  0.35305  0.42274  0.38947  1.0000
  C   C181      1.0  0.34339  0.44490  0.35008  1.0000
  C  Sn2       1.0  0.35774  0.46782  0.25958  1.0000
  C  Sn3       1.0  0.38223  0.46861  0.20725  1.0000
  C   C182      1.0  0.39188  0.44645  0.24661  1.0000
  C  Sn4       1.0  0.37755  0.42352  0.33714  1.0000
  O  Te1       1.0  0.33838  0.40002  0.48005  1.0000
  O  Te2       1.0  0.34768  0.48974  0.22175  1.0000
  O  Te3       1.0  0.39691  0.49134  0.11661  1.0000
  O  Te4       1.0  0.38759  0.40161  0.37494  1.0000
  Mg  Mg1       1.0  0.37494  0.51610  0.09552  1.0000
  Mg  Mg2       1.0  0.36033  0.37523  0.50106  1.0000
  C  Sn5       1.0  0.55291  0.91805  0.15588  1.0000
  C   C183      1.0  0.58237  0.91751  0.28283  1.0000
  C  Sn6       1.0  0.61254  0.94509  0.43590  1.0000
  C  Sn7       1.0  0.61326  0.97380  0.46274  1.0000
  C   C184      1.0  0.58380  0.97433  0.33587  1.0000
  C  Sn8       1.0  0.55363  0.94676  0.18272  1.0000
  O  Te5       1.0  0.52304  0.89020  0.00385  1.0000
  O  Te6       1.0  0.64168  0.94397  0.56089  1.0000
  O  Te7       1.0  0.64316  0.00166  0.61493  1.0000
  O  Te8       1.0  0.52450  0.94787  0.05781  1.0000
  Mg  Mg3       1.0  0.67622  0.98814  0.74666  1.0000
  Mg  Mg4       1.0  0.57992  0.95155  0.87206  1.0000
  C  Sn9       1.0  0.09794  0.65435  0.17667  1.0000
  C   C185      1.0  0.10663  0.68594  0.22238  1.0000
  C  Sn10      1.0  0.09097  0.69330  0.31151  1.0000
  C  Sn11      1.0  0.06611  0.66857  0.35600  1.0000
  C   C186      1.0  0.05744  0.63700  0.31033  1.0000
  C  Sn12      1.0  0.07309  0.62962  0.22116  1.0000
  O  Te9       1.0  0.11392  0.64754  0.08760  1.0000
  O  Te10      1.0  0.10007  0.72506  0.35574  1.0000
  O  Te11      1.0  0.05013  0.67540  0.44513  1.0000
  O  Te12      1.0  0.06400  0.59788  0.17696  1.0000
  Mg  Mg5       1.0  0.07115  0.72232  0.47690  1.0000
  Mg  Mg6       1.0  0.09291  0.60060  0.05590  1.0000
  C  Sn13      1.0  0.69159  0.62260  0.47774  1.0000
  C   C187      1.0  0.69255  0.59865  0.38923  1.0000
  C  Sn14      1.0  0.66142  0.57237  0.23176  1.0000
  C  Sn15      1.0  0.62866  0.56998  0.16117  1.0000
  C   C188      1.0  0.62771  0.59392  0.24964  1.0000
  C  Sn16      1.0  0.65882  0.62021  0.40716  1.0000
  O  Te13      1.0  0.72304  0.64866  0.63498  1.0000
  O  Te14      1.0  0.66305  0.54873  0.14570  1.0000
  O  Te15      1.0  0.59720  0.54389  0.00381  1.0000
  O  Te16      1.0  0.65721  0.64385  0.49317  1.0000
  Mg  Mg7       1.0  0.70301  0.56568  0.93530  1.0000
  Mg  Mg8       1.0  0.70722  0.67475  0.70350  1.0000
  C  Sn17      1.0  0.46268  0.09858  0.29233  1.0000
  C   C189      1.0  0.43838  0.06731  0.28701  1.0000
  C  Sn18      1.0  0.40401  0.05779  0.24477  1.0000
  C  Sn19      1.0  0.39371  0.07997  0.20694  1.0000
  C   C190      1.0  0.41800  0.11122  0.21225  1.0000
  C  Sn20      1.0  0.45238  0.12077  0.25450  1.0000
  O  Te17      1.0  0.49690  0.10758  0.33486  1.0000
  O  Te18      1.0  0.38018  0.02640  0.24035  1.0000
  O  Te19      1.0  0.35946  0.07094  0.16440  1.0000
  O  Te20      1.0  0.47620  0.15214  0.25890  1.0000
  Mg  Mg9       1.0  0.33656  0.02554  0.17538  1.0000
  Mg  Mg10      1.0  0.51982  0.15302  0.32375  1.0000
  C  Sn21      1.0  0.90526  0.36221  0.17350  1.0000
  C   C191      1.0  0.90889  0.33769  0.23986  1.0000
  C  Sn22      1.0  0.94246  0.34232  0.33232  1.0000
  C  Sn23      1.0  0.97304  0.37208  0.35915  1.0000
  C   C192      1.0  0.96941  0.39658  0.29284  1.0000
  C  Sn24      1.0  0.93585  0.39197  0.20032  1.0000
  O  Te21      1.0  0.87144  0.35706  0.08146  1.0000
  O  Te22      1.0  0.94541  0.31745  0.39735  1.0000
  O  Te23      1.0  0.00688  0.37722  0.45127  1.0000
  O  Te24      1.0  0.93288  0.41683  0.13535  1.0000
  Mg  Mg11      1.0  0.99723  0.33605  0.51437  1.0000
  Mg  Mg12      1.0  0.88109  0.39826  0.01841  1.0000
  C  Sn25      1.0  0.43299  0.35852  0.36293  1.0000
  C   C193      1.0  0.45396  0.38608  0.32034  1.0000
  C  Sn26      1.0  0.47210  0.38507  0.22631  1.0000
  C  Sn27      1.0  0.46920  0.35590  0.17363  1.0000
  C   C194      1.0  0.44823  0.32836  0.21618  1.0000
  C  Sn28      1.0  0.43008  0.32934  0.31025  1.0000
  O  Te25      1.0  0.41509  0.36008  0.45701  1.0000
  O  Te26      1.0  0.49292  0.41294  0.18533  1.0000
  O  Te27      1.0  0.48712  0.35436  0.07948  1.0000
  O  Te28      1.0  0.40927  0.30150  0.35119  1.0000
  Mg  Mg13      1.0  0.51219  0.39871  0.05494  1.0000
  Mg  Mg14      1.0  0.38998  0.31570  0.48148  1.0000
  C  Sn29      1.0  0.63452  0.10376  0.03593  1.0000
  C   C195      1.0  0.63472  0.08162  0.14278  1.0000
  C  Sn30      1.0  0.66641  0.08951  0.30604  1.0000
  C  Sn31      1.0  0.69856  0.12016  0.36379  1.0000
  C   C196      1.0  0.69835  0.14228  0.25698  1.0000
  C  Sn32      1.0  0.66668  0.13441  0.09367  1.0000
  O  Te29      1.0  0.69252  0.14319  0.87322  1.0000
  O  Te30      1.0  0.66594  0.06698  0.41051  1.0000
  O  Te31      1.0  0.73056  0.12855  0.52664  1.0000
  O  Te32      1.0  0.75711  0.20476  0.98925  1.0000
  Mg  Mg15      1.0  0.71631  0.08968  0.62170  1.0000
  Mg  Mg16      1.0  0.70675  0.18209  0.77811  1.0000
  C  Sn33      1.0  0.89337  0.54783  0.11209  1.0000
  C   C197      1.0  0.92975  0.57274  0.21271  1.0000
  C  Sn34      1.0  0.94307  0.59792  0.36910  1.0000
  C  Sn35      1.0  0.91954  0.59821  0.42621  1.0000
  C   C198      1.0  0.88318  0.57331  0.32565  1.0000
  C  Sn36      1.0  0.86984  0.54811  0.16920  1.0000
  O  Te33      1.0  0.97062  0.57073  0.95619  1.0000
  O  Te34      1.0  0.97954  0.62256  0.46741  1.0000
  O  Te35      1.0  0.93230  0.62318  0.58225  1.0000
  O  Te36      1.0  0.83339  0.52348  0.07094  1.0000
  Mg  Mg17      1.0  0.98410  0.65126  0.67053  1.0000
  Mg  Mg18      1.0  0.91879  0.54260  0.86788  1.0000
  C  Sn37      1.0  0.58740  0.67996  0.43023  1.0000
  C   C199      1.0  0.56366  0.64989  0.28771  1.0000
  C  Sn38      1.0  0.53951  0.64656  0.10031  1.0000
  C  Sn39      1.0  0.53909  0.67386  0.05435  1.0000
  C   C200      1.0  0.56283  0.70392  0.19681  1.0000
  C  Sn40      1.0  0.58699  0.70726  0.38427  1.0000
  O  Te37      1.0  0.61132  0.68272  0.61661  1.0000
  O  Te38      1.0  0.60600  0.66408  0.96030  1.0000
  O  Te39      1.0  0.60513  0.71891  0.86779  1.0000
  O  Te40      1.0  0.61047  0.73756  0.52423  1.0000
  Mg  Mg19      1.0  0.57842  0.67256  0.72702  1.0000
  Mg  Mg20      1.0  0.63807  0.72911  0.75750  1.0000
  C  Sn41      1.0  0.32464  0.91745  0.22294  1.0000
  C   C201      1.0  0.31956  0.88705  0.19721  1.0000
  C  Sn42      1.0  0.34727  0.88425  0.21543  1.0000
  C  Sn43      1.0  0.38076  0.91244  0.26042  1.0000
  C   C202      1.0  0.38583  0.94283  0.28616  1.0000
  C  Sn44      1.0  0.35813  0.94564  0.26793  1.0000
  O  Te41      1.0  0.29656  0.91968  0.20405  1.0000
  O  Te42      1.0  0.34154  0.85359  0.18899  1.0000
  O  Te43      1.0  0.40885  0.91019  0.27930  1.0000
  O  Te44      1.0  0.36384  0.97628  0.29439  1.0000
  Mg  Mg21      1.0  0.38802  0.86306  0.22991  1.0000
  Mg  Mg22      1.0  0.31740  0.96684  0.25359  1.0000
  C  Sn45      1.0  0.09913  0.47831  0.09397  1.0000
  C   C203      1.0  0.07400  0.45522  0.13945  1.0000
  C  Sn46      1.0  0.07942  0.43286  0.22686  1.0000
  C  Sn47      1.0  0.11061  0.43360  0.26984  1.0000
  C   C204      1.0  0.13572  0.45667  0.22440  1.0000
  C  Sn48      1.0  0.13033  0.47904  0.13694  1.0000
  O  Te45      1.0  0.09317  0.50043  0.00662  1.0000
  O  Te46      1.0  0.05391  0.41000  0.27090  1.0000
  O  Te47      1.0  0.11656  0.41145  0.35725  1.0000
  O  Te48      1.0  0.15582  0.50189  0.09294  1.0000
  Mg  Mg23      1.0  0.07405  0.38497  0.38944  1.0000
  Mg  Mg24      1.0  0.22569  0.57478  0.97451  1.0000
  C  Sn49      1.0  0.33728  0.38844  0.91184  1.0000
  C   C205      1.0  0.32744  0.41053  0.87606  1.0000
  C  Sn50      1.0  0.34084  0.43332  0.78246  1.0000
  C  Sn51      1.0  0.36456  0.43403  0.72326  1.0000
  C   C206      1.0  0.37438  0.41195  0.75901  1.0000
  C  Sn52      1.0  0.36100  0.38915  0.85264  1.0000
  O  Te49      1.0  0.23357  0.31803  0.00563  1.0000
  O  Te50      1.0  0.33063  0.45516  0.74835  1.0000
  O  Te51      1.0  0.37829  0.45663  0.62941  1.0000
  O  Te52      1.0  0.37119  0.36732  0.88672  1.0000
  Mg  Mg25      1.0  0.35647  0.48133  0.61551  1.0000
  Mg  Mg26      1.0  0.25538  0.29329  0.01945  1.0000
  C  Sn53      1.0  0.60881  0.94183  0.93185  1.0000
  C   C207      1.0  0.58256  0.94453  0.78680  1.0000
  C  Sn54      1.0  0.54967  0.91676  0.65020  1.0000
  C  Sn55      1.0  0.54287  0.88564  0.65882  1.0000
  C   C208      1.0  0.56911  0.88295  0.80382  1.0000
  C  Sn56      1.0  0.60201  0.91071  0.94047  1.0000
  O  Te53      1.0  0.55151  0.92208  0.06691  1.0000
  O  Te54      1.0  0.52385  0.92007  0.50649  1.0000
  O  Te55      1.0  0.51016  0.85754  0.52359  1.0000
  O  Te56      1.0  0.53784  0.85957  0.08413  1.0000
  Mg  Mg27      1.0  0.48348  0.87460  0.35541  1.0000
  Mg  Mg28      1.0  0.57821  0.90502  0.23534  1.0000
  C  Sn57      1.0  0.07408  0.61162  0.76823  1.0000
  C   C209      1.0  0.04646  0.60669  0.80060  1.0000
  C  Sn58      1.0  0.03936  0.63060  0.80033  1.0000
  C  Sn59      1.0  0.06029  0.66005  0.76689  1.0000
  C   C210      1.0  0.08788  0.66497  0.73451  1.0000
  C  Sn60      1.0  0.09500  0.64108  0.73479  1.0000
  O  Te57      1.0  0.08070  0.58739  0.76913  1.0000
  O  Te58      1.0  0.01162  0.62511  0.83311  1.0000
  O  Te59      1.0  0.05365  0.68429  0.76602  1.0000
  O  Te60      1.0  0.12272  0.64655  0.70200  1.0000
  Mg  Mg29      1.0  0.01295  0.66545  0.81773  1.0000
  Mg  Mg30      1.0  0.12141  0.60622  0.71725  1.0000
  C  Sn61      1.0  0.66737  0.58622  0.86960  1.0000
  C   C211      1.0  0.66693  0.56203  0.77240  1.0000
  C  Sn62      1.0  0.63467  0.53527  0.62343  1.0000
  C  Sn63      1.0  0.60217  0.53265  0.57039  1.0000
  C   C212      1.0  0.60262  0.55684  0.66754  1.0000
  C  Sn64      1.0  0.63487  0.58360  0.81656  1.0000
  O  Te61      1.0  0.60994  0.56492  0.01808  1.0000
  O  Te62      1.0  0.63490  0.51138  0.52842  1.0000
  O  Te63      1.0  0.56960  0.50608  0.42178  1.0000
  O  Te64      1.0  0.63465  0.60748  0.91152  1.0000
  Mg  Mg31      1.0  0.58373  0.47985  0.33554  1.0000
  Mg  Mg32      1.0  0.59582  0.59119  0.10434  1.0000
  C  Sn65      1.0  0.39799  0.05511  0.82588  1.0000
  C   C213      1.0  0.41950  0.08338  0.79047  1.0000
  C  Sn66      1.0  0.43938  0.08370  0.70526  1.0000
  C  Sn67      1.0  0.43771  0.05516  0.65426  1.0000
  C   C214      1.0  0.91700  0.02690  0.68963  1.0000
  C  Sn68      1.0  0.89711  0.02657  0.77488  1.0000
  O  Te65      1.0  0.37835  0.05535  0.91121  1.0000
  O  Te66      1.0  0.46070  0.11226  0.67134  1.0000
  O  Te67      1.0  0.45738  0.05494  0.56888  1.0000
  O  Te68      1.0  0.87580  0.99803  0.80876  1.0000
  Mg  Mg33      1.0  0.48249  0.09981  0.55171  1.0000
  Mg  Mg34      1.0  0.85398  0.01044  0.92829  1.0000
  C  Sn69      1.0  0.90867  0.36457  0.75379  1.0000
  C   C215      1.0  0.94287  0.37221  0.80646  1.0000
  C  Sn70      1.0  0.95116  0.34924  0.84909  1.0000
  C  Sn71      1.0  0.92471  0.31797  0.83875  1.0000
  C   C216      1.0  0.89053  0.31033  0.78607  1.0000
  C  Sn72      1.0  0.88222  0.33329  0.74344  1.0000
  O  Te69      1.0  0.90098  0.38791  0.71178  1.0000
  O  Te70      1.0  0.98554  0.35746  0.90148  1.0000
  O  Te71      1.0  0.93243  0.29462  0.88082  1.0000
  O  Te72      1.0  0.84786  0.32509  0.69105  1.0000
  Mg  Mg35      1.0  0.98307  0.31736  0.94513  1.0000
  Mg  Mg36      1.0  0.85029  0.36516  0.64727  1.0000
  C  Sn73      1.0  0.46387  0.34986  0.71028  1.0000
  C   C217      1.0  0.43650  0.35258  0.69967  1.0000
  C  Sn74      1.0  0.40963  0.32845  0.73029  1.0000
  C  Sn75      1.0  0.41013  0.30103  0.77252  1.0000
  C   C218      1.0  0.43749  0.29831  0.78314  1.0000
  C  Sn76      1.0  0.46438  0.32244  0.75251  1.0000
  O  Te73      1.0  0.49046  0.37428  0.67918  1.0000
  O  Te74      1.0  0.38253  0.33170  0.71885  1.0000
  O  Te75      1.0  0.38351  0.27660  0.80362  1.0000
  O  Te76      1.0  0.49146  0.31919  0.76396  1.0000
  Mg  Mg37      1.0  0.35228  0.29202  0.77261  1.0000
  Mg  Mg38      1.0  0.52174  0.35886  0.71034  1.0000
  C  Sn77      1.0  0.67754  0.08387  0.79173  1.0000
  C   C219      1.0  0.67338  0.10596  0.69479  1.0000
  C  Sn78      1.0  0.64200  0.10513  0.62922  1.0000
  C  Sn79      1.0  0.61421  0.08175  0.66130  1.0000
  C   C220      1.0  0.61837  0.05969  0.75821  1.0000
  C  Sn80      1.0  0.64974  0.06050  0.82381  1.0000
  O  Te77      1.0  0.70914  0.08515  0.85602  1.0000
  O  Te78      1.0  0.63846  0.12745  0.53262  1.0000
  O  Te79      1.0  0.58259  0.08049  0.59691  1.0000
  O  Te80      1.0  0.15409  0.03820  0.92039  1.0000
  Mg  Mg39      1.0  0.59039  0.11603  0.47267  1.0000
  Mg  Mg40      1.0  0.70136  0.04961  0.98048  1.0000
  C  Sn81      1.0  0.85615  0.50529  0.61400  1.0000
  C   C221      1.0  0.85524  0.52992  0.69506  1.0000
  C  Sn82      1.0  0.88461  0.56211  0.76645  1.0000
  C  Sn83      1.0  0.91553  0.56985  0.75650  1.0000
  C   C222      1.0  0.91642  0.54523  0.67544  1.0000
  C  Sn84      1.0  0.88706  0.51303  0.60405  1.0000
  O  Te81      1.0  0.82648  0.47328  0.54352  1.0000
  O  Te82      1.0  0.88308  0.58631  0.84691  1.0000
  O  Te83      1.0  0.94521  0.60189  0.82707  1.0000
  O  Te84      1.0  0.88858  0.48884  0.52360  1.0000
  Mg  Mg41      1.0  0.93027  0.62630  0.92338  1.0000
  Mg  Mg42      1.0  0.84140  0.44884  0.44700  1.0000
  C  Sn85      1.0  0.51273  0.61494  0.52629  1.0000
  C   C223      1.0  0.54166  0.61283  0.64078  1.0000
  C  Sn86      1.0  0.57332  0.63968  0.79237  1.0000
  C  Sn87      1.0  0.57612  0.66925  0.83042  1.0000
  C   C224      1.0  0.54720  0.67134  0.71600  1.0000
  C  Sn88      1.0  0.51553  0.64450  0.56435  1.0000
  O  Te85      1.0  0.48133  0.58779  0.37551  1.0000
  O  Te86      1.0  0.60189  0.63700  0.90480  1.0000
  O  Te87      1.0  0.60755  0.69641  0.98135  1.0000
  O  Te88      1.0  0.48697  0.64718  0.45199  1.0000
  Mg  Mg43      1.0  0.54908  0.63289  0.09392  1.0000
  Mg  Mg44      1.0  0.44978  0.60347  0.26290  1.0000
  C  Sn89      1.0  0.33477  0.90776  0.83926  1.0000
  C   C225      1.0  0.36136  0.91199  0.79888  1.0000
  C  Sn90      1.0  0.35747  0.88538  0.70174  1.0000
  C  Sn91      1.0  0.32634  0.85388  0.64363  1.0000
  C   C226      1.0  0.29977  0.84966  0.68397  1.0000
  C  Sn92      1.0  0.30364  0.87626  0.78114  1.0000
  O  Te89      1.0  0.33923  0.93471  0.93652  1.0000
  O  Te90      1.0  0.38441  0.89022  0.66306  1.0000
  O  Te91      1.0  0.32190  0.82693  0.54630  1.0000
  O  Te92      1.0  0.27672  0.87144  0.81980  1.0000
  Mg  Mg45      1.0  0.36603  0.84589  0.52670  1.0000
  Mg  Mg46      1.0  0.29507  0.91575  0.95605  1.0000
  C  Sn93      1.0  0.11197  0.45446  0.72700  1.0000
  C   C227      1.0  0.11912  0.43048  0.75012  1.0000
  C  Sn94      1.0  0.09311  0.39940  0.73685  1.0000
  C  Sn95      1.0  0.05924  0.39211  0.69956  1.0000
  C   C228      1.0  0.05211  0.41608  0.67643  1.0000
  C  Sn96      1.0  0.07810  0.44717  0.68971  1.0000
  O  Te93      1.0  0.13837  0.48537  0.74085  1.0000
  O  Te94      1.0  0.10088  0.37583  0.76055  1.0000
  O  Te95      1.0  0.03283  0.36117  0.68573  1.0000
  O  Te96      1.0  0.07034  0.47073  0.66599  1.0000
  Mg  Mg47      1.0  0.05617  0.33729  0.72869  1.0000
  Mg  Mg48      1.0  0.11503  0.50927  0.69773  1.0000
