data_image0
_chemical_formula_structural       H120C204N24O48SnCSn2CSnTe4Mg2SnCSn2CSnTe4Mg2SnCSn2CSnTe4Mg2SnCSn2CSnTe4Mg2SnCSn2CSnTe4Mg2SnCSn2CSnTe4Mg2SnCSn2CSnTe4Mg2SnCSn2CSnTe4Mg2SnCSn2CSnTe4Mg2SnCSn2CSnTe4Mg2SnCSn2CSnTe4Mg2SnCSn2CSnTe4Mg2SnCSn2CSnTe4Mg2SnCSn2CSnTe4Mg2SnCSn2CSnTe4Mg2SnCSn2CSnTe4Mg2SnCSn2CSnTe4Mg2SnCSn2CSnTe4Mg2SnCSn2CSnTe4Mg2SnCSn2CSnTe4Mg2SnCSn2CSnTe4Mg2SnCSn2CSnTe4Mg2SnCSn2CSnTe4Mg2SnCSn2CSnTe4Mg2
_chemical_formula_sum              "H120 C252 N24 O48 Sn96 Te96 Mg48"
_cell_length_a       49.2374
_cell_length_b       49.2775
_cell_length_c       8.01286
_cell_angle_alpha    90.2704
_cell_angle_beta     90.7006
_cell_angle_gamma    119.92

_symmetry_space_group_name_H-M    'P1'
_space_group_IT_number       1

loop_
  _space_group_symop_operation_xyz
  'x, y, z'

loop_
  _atom_site_type_symbol
  _atom_site_label
  _atom_site_symmetry_multiplicity
  _atom_site_fract_x
  _atom_site_fract_y
  _atom_site_fract_z
  _atom_site_occupancy
  H   H1        1.0  0.43777  0.47441  0.31061  1.0000
  H   H2        1.0  0.52571  0.96552  0.30127  1.0000
  H   H3        1.0  0.03571  0.56100  0.30327  1.0000
  H   H4        1.0  0.56159  0.52733  0.30619  1.0000
  H   H5        1.0  0.47267  0.03658  0.29662  1.0000
  H   H6        1.0  0.96440  0.43740  0.29702  1.0000
  H   H7        1.0  0.51966  0.48584  0.25069  1.0000
  H   H8        1.0  0.51516  0.03696  0.27146  1.0000
  H   H9        1.0  0.96399  0.47948  0.25185  1.0000
  H   H10       1.0  0.47993  0.51729  0.30086  1.0000
  H   H11       1.0  0.48342  0.96525  0.26325  1.0000
  H   H12       1.0  0.03573  0.51912  0.27311  1.0000
  H   H13       1.0  0.49466  0.43180  0.23709  1.0000
  H   H14       1.0  0.56926  0.06525  0.24358  1.0000
  H   H15       1.0  0.93583  0.50579  0.23042  1.0000
  H   H16       1.0  0.50568  0.57160  0.25842  1.0000
  H   H17       1.0  0.42910  0.93663  0.24060  1.0000
  H   H18       1.0  0.06398  0.49331  0.23568  1.0000
  H   H19       1.0  0.39544  0.37425  0.30277  1.0000
  H   H20       1.0  0.62598  0.02188  0.28954  1.0000
  H   H21       1.0  0.97971  0.60544  0.29959  1.0000
  H   H22       1.0  0.60606  0.62760  0.29070  1.0000
  H   H23       1.0  0.37235  0.97981  0.29270  1.0000
  H   H24       1.0  0.02102  0.39359  0.28542  1.0000
  H   H25       1.0  0.79141  0.27146  0.12378  1.0000
  H   H26       1.0  0.72832  0.51937  0.13229  1.0000
  H   H27       1.0  0.48141  0.20979  0.13988  1.0000
  H   H28       1.0  0.20955  0.72672  0.15108  1.0000
  H   H29       1.0  0.27235  0.48046  0.14315  1.0000
  H   H30       1.0  0.51995  0.79259  0.12193  1.0000
  H   H31       1.0  0.79874  0.18755  0.42553  1.0000
  H   H32       1.0  0.81423  0.61495  0.40459  1.0000
  H   H33       1.0  0.38607  0.20143  0.39348  1.0000
  H   H34       1.0  0.20039  0.81276  0.41924  1.0000
  H   H35       1.0  0.18624  0.38593  0.40403  1.0000
  H   H36       1.0  0.61172  0.80058  0.43103  1.0000
  H   H37       1.0  0.84556  0.30904  0.30877  1.0000
  H   H38       1.0  0.69175  0.53597  0.32164  1.0000
  H   H39       1.0  0.46413  0.15653  0.32308  1.0000
  H   H40       1.0  0.15528  0.69003  0.31765  1.0000
  H   H41       1.0  0.30888  0.46279  0.31410  1.0000
  H   H42       1.0  0.53700  0.84738  0.29334  1.0000
  H   H43       1.0  0.85738  0.29750  0.12638  1.0000
  H   H44       1.0  0.70011  0.55714  0.13301  1.0000
  H   H45       1.0  0.44199  0.14356  0.13469  1.0000
  H   H46       1.0  0.14267  0.70093  0.13497  1.0000
  H   H47       1.0  0.29785  0.43865  0.13304  1.0000
  H   H48       1.0  0.56117  0.85912  0.11582  1.0000
  H   H49       1.0  0.73298  0.16222  0.42732  1.0000
  H   H50       1.0  0.84379  0.57985  0.39862  1.0000
  H   H51       1.0  0.41938  0.26501  0.38287  1.0000
  H   H52       1.0  0.26701  0.83899  0.43313  1.0000
  H   H53       1.0  0.16182  0.42825  0.42303  1.0000
  H   H54       1.0  0.56921  0.73406  0.44268  1.0000
  H   H55       1.0  0.74450  0.14992  0.24700  1.0000
  H   H56       1.0  0.85003  0.59770  0.20087  1.0000
  H   H57       1.0  0.40457  0.25424  0.17632  1.0000
  H   H58       1.0  0.25421  0.84934  0.24937  1.0000
  H   H59       1.0  0.14956  0.40443  0.24088  1.0000
  H   H60       1.0  0.59455  0.74541  0.27021  1.0000
  H   H61       1.0  0.43735  0.47225  0.80957  1.0000
  H   H62       1.0  0.52617  0.96454  0.80198  1.0000
  H   H63       1.0  0.03574  0.56177  0.80140  1.0000
  H   H64       1.0  0.56104  0.52485  0.80697  1.0000
  H   H65       1.0  0.47312  0.03559  0.79825  1.0000
  H   H66       1.0  0.96474  0.43829  0.79974  1.0000
  H   H67       1.0  0.51918  0.48314  0.76180  1.0000
  H   H68       1.0  0.51581  0.03599  0.76293  1.0000
  H   H69       1.0  0.96436  0.47992  0.75612  1.0000
  H   H70       1.0  0.47924  0.51485  0.78921  1.0000
  H   H71       1.0  0.48402  0.96427  0.76870  1.0000
  H   H72       1.0  0.03610  0.51996  0.77528  1.0000
  H   H73       1.0  0.49371  0.42900  0.73978  1.0000
  H   H74       1.0  0.56991  0.06398  0.73458  1.0000
  H   H75       1.0  0.93579  0.50567  0.73589  1.0000
  H   H76       1.0  0.50517  0.56910  0.75445  1.0000
  H   H77       1.0  0.42996  0.93565  0.74208  1.0000
  H   H78       1.0  0.06440  0.49411  0.74103  1.0000
  H   H79       1.0  0.39414  0.37200  0.79459  1.0000
  H   H80       1.0  0.62649  0.02062  0.79077  1.0000
  H   H81       1.0  0.97900  0.60545  0.79549  1.0000
  H   H82       1.0  0.60543  0.62511  0.79737  1.0000
  H   H83       1.0  0.37285  0.97847  0.79153  1.0000
  H   H84       1.0  0.02115  0.39429  0.78650  1.0000
  H   H85       1.0  0.79036  0.27194  0.64237  1.0000
  H   H86       1.0  0.72760  0.51792  0.61951  1.0000
  H   H87       1.0  0.48000  0.20751  0.63714  1.0000
  H   H88       1.0  0.20892  0.72697  0.64367  1.0000
  H   H89       1.0  0.27176  0.47916  0.63724  1.0000
  H   H90       1.0  0.51745  0.78923  0.63949  1.0000
  H   H91       1.0  0.80067  0.18693  0.91150  1.0000
  H   H92       1.0  0.81308  0.61154  0.90789  1.0000
  H   H93       1.0  0.38499  0.19932  0.89406  1.0000
  H   H94       1.0  0.20080  0.81261  0.92425  1.0000
  H   H95       1.0  0.18649  0.38635  0.91413  1.0000
  H   H96       1.0  0.61391  0.80019  0.90770  1.0000
  H   H97       1.0  0.84544  0.30914  0.81244  1.0000
  H   H98       1.0  0.69084  0.53373  0.81123  1.0000
  H   H99       1.0  0.46328  0.15485  0.82607  1.0000
  H   H100      1.0  0.15551  0.69041  0.82551  1.0000
  H   H101      1.0  0.30851  0.46221  0.82234  1.0000
  H   H102      1.0  0.53627  0.84517  0.79412  1.0000
  H   H103      1.0  0.85686  0.29793  0.62776  1.0000
  H   H104      1.0  0.69971  0.55621  0.62749  1.0000
  H   H105      1.0  0.44166  0.14182  0.63610  1.0000
  H   H106      1.0  0.14294  0.70003  0.63815  1.0000
  H   H107      1.0  0.29834  0.43928  0.63691  1.0000
  H   H108      1.0  0.55966  0.85641  0.61375  1.0000
  H   H109      1.0  0.73446  0.16091  0.92618  1.0000
  H   H110      1.0  0.84146  0.57460  0.89961  1.0000
  H   H111      1.0  0.42075  0.26385  0.88970  1.0000
  H   H112      1.0  0.26731  0.83856  0.93375  1.0000
  H   H113      1.0  0.16037  0.42551  0.92084  1.0000
  H   H114      1.0  0.57239  0.73391  0.93748  1.0000
  H   H115      1.0  0.74538  0.14973  0.73994  1.0000
  H   H116      1.0  0.84968  0.59564  0.71131  1.0000
  H   H117      1.0  0.40259  0.25221  0.69033  1.0000
  H   H118      1.0  0.25463  0.84947  0.75151  1.0000
  H   H119      1.0  0.14971  0.40373  0.73138  1.0000
  H   H120      1.0  0.59476  0.74389  0.75353  1.0000
  C   C1        1.0  0.41304  0.42410  0.30767  1.0000
  C   C2        1.0  0.57602  0.99030  0.29432  1.0000
  C   C3        1.0  0.01110  0.58673  0.30116  1.0000
  C   C4        1.0  0.58742  0.57759  0.29719  1.0000
  C   C5        1.0  0.42236  0.01156  0.29523  1.0000
  C   C6        1.0  0.98930  0.41192  0.29105  1.0000
  C   C7        1.0  0.44004  0.45361  0.30080  1.0000
  C   C8        1.0  0.54667  0.98837  0.29161  1.0000
  C   C9        1.0  0.01286  0.55928  0.29334  1.0000
  C   C10       1.0  0.55989  0.54844  0.29678  1.0000
  C   C11       1.0  0.45171  0.01362  0.28894  1.0000
  C   C12       1.0  0.98725  0.43924  0.28664  1.0000
  C   C13       1.0  0.46979  0.45687  0.27752  1.0000
  C   C14       1.0  0.54373  0.01520  0.27483  1.0000
  C   C15       1.0  0.98590  0.52975  0.27005  1.0000
  C   C16       1.0  0.53016  0.54581  0.28469  1.0000
  C   C17       1.0  0.45467  0.98681  0.27153  1.0000
  C   C18       1.0  0.01400  0.46889  0.26887  1.0000
  C   C19       1.0  0.49848  0.48718  0.27023  1.0000
  C   C20       1.0  0.51355  0.01408  0.27112  1.0000
  C   C21       1.0  0.98688  0.50065  0.26223  1.0000
  C   C22       1.0  0.50109  0.51573  0.28556  1.0000
  C   C23       1.0  0.48490  0.98806  0.26786  1.0000
  C   C24       1.0  0.01285  0.49789  0.26755  1.0000
  C   C25       1.0  0.47188  0.42958  0.25944  1.0000
  C   C26       1.0  0.57122  0.04438  0.26027  1.0000
  C   C27       1.0  0.95679  0.52839  0.25316  1.0000
  C   C28       1.0  0.52856  0.57341  0.27153  1.0000
  C   C29       1.0  0.42715  0.95751  0.25779  1.0000
  C   C30       1.0  0.04320  0.47056  0.25338  1.0000
  C   C31       1.0  0.44528  0.39968  0.26564  1.0000
  C   C32       1.0  0.60097  0.04710  0.26232  1.0000
  C   C33       1.0  0.95423  0.55547  0.26066  1.0000
  C   C34       1.0  0.55569  0.60299  0.26999  1.0000
  C   C35       1.0  0.39732  0.95459  0.26212  1.0000
  C   C36       1.0  0.04605  0.44364  0.25614  1.0000
  C   C37       1.0  0.41606  0.39730  0.29107  1.0000
  C   C38       1.0  0.60301  0.01989  0.28052  1.0000
  C   C39       1.0  0.98154  0.58443  0.28631  1.0000
  C   C40       1.0  0.58495  0.60474  0.28400  1.0000
  C   C41       1.0  0.39529  0.98183  0.28184  1.0000
  C   C42       1.0  0.01892  0.41448  0.27580  1.0000
  C   C43       1.0  0.79339  0.25338  0.19084  1.0000
  C   C44       1.0  0.74685  0.54047  0.19232  1.0000
  C   C45       1.0  0.46037  0.20755  0.19576  1.0000
  C   C46       1.0  0.20712  0.74529  0.21032  1.0000
  C   C47       1.0  0.25379  0.45964  0.20105  1.0000
  C   C48       1.0  0.54022  0.79478  0.18994  1.0000
  C   C49       1.0  0.82175  0.25947  0.26495  1.0000
  C   C50       1.0  0.74065  0.56257  0.26520  1.0000
  C   C51       1.0  0.43787  0.17937  0.26508  1.0000
  C   C52       1.0  0.17859  0.73950  0.27607  1.0000
  C   C53       1.0  0.25942  0.43669  0.26683  1.0000
  C   C54       1.0  0.56276  0.82335  0.26052  1.0000
  C   C55       1.0  0.82309  0.23540  0.34806  1.0000
  C   C56       1.0  0.76529  0.58911  0.34064  1.0000
  C   C57       1.0  0.41145  0.17786  0.33565  1.0000
  C   C58       1.0  0.17676  0.76416  0.34991  1.0000
  C   C59       1.0  0.23468  0.41028  0.33727  1.0000
  C   C60       1.0  0.58835  0.82482  0.34501  1.0000
  C   C61       1.0  0.79676  0.20567  0.35872  1.0000
  C   C62       1.0  0.79571  0.59389  0.34412  1.0000
  C   C63       1.0  0.40707  0.20371  0.33693  1.0000
  C   C64       1.0  0.20280  0.79421  0.35959  1.0000
  C   C65       1.0  0.20480  0.40672  0.34577  1.0000
  C   C66       1.0  0.59154  0.79842  0.36217  1.0000
  C   C67       1.0  0.76841  0.19963  0.28515  1.0000
  C   C68       1.0  0.80188  0.57181  0.27080  1.0000
  C   C69       1.0  0.42935  0.23175  0.26597  1.0000
  C   C70       1.0  0.23129  0.80003  0.29341  1.0000
  C   C71       1.0  0.19926  0.42982  0.28141  1.0000
  C   C72       1.0  0.56894  0.76985  0.29238  1.0000
  C   C73       1.0  0.76700  0.22366  0.20188  1.0000
  C   C74       1.0  0.77728  0.54528  0.19523  1.0000
  C   C75       1.0  0.45592  0.23338  0.19672  1.0000
  C   C76       1.0  0.23312  0.77540  0.21916  1.0000
  C   C77       1.0  0.22389  0.45604  0.20890  1.0000
  C   C78       1.0  0.54346  0.76837  0.20645  1.0000
  C   C79       1.0  0.85045  0.29120  0.25707  1.0000
  C   C80       1.0  0.70828  0.55827  0.26282  1.0000
  C   C81       1.0  0.44159  0.15099  0.26414  1.0000
  C   C82       1.0  0.15003  0.70762  0.26624  1.0000
  C   C83       1.0  0.29125  0.43982  0.26268  1.0000
  C   C84       1.0  0.55992  0.85214  0.24724  1.0000
  C   C85       1.0  0.73972  0.16801  0.29601  1.0000
  C   C86       1.0  0.83434  0.57637  0.27016  1.0000
  C   C87       1.0  0.42482  0.25960  0.25848  1.0000
  C   C88       1.0  0.25969  0.83200  0.30214  1.0000
  C   C89       1.0  0.16772  0.42721  0.29171  1.0000
  C   C90       1.0  0.57141  0.74096  0.31060  1.0000
  C   C91       1.0  0.52098  0.71308  0.14002  1.0000
  C   C92       1.0  0.28760  0.80856  0.14456  1.0000
  C   C93       1.0  0.19136  0.47870  0.13841  1.0000
  C   C94       1.0  0.47893  0.28865  0.13445  1.0000
  C   C95       1.0  0.71175  0.19086  0.13149  1.0000
  C   C96       1.0  0.81039  0.52362  0.12266  1.0000
  C   C97       1.0  0.61081  0.87993  0.41477  1.0000
  C   C98       1.0  0.12204  0.73136  0.42021  1.0000
  C   C99       1.0  0.26754  0.38870  0.41952  1.0000
  C   C100      1.0  0.38998  0.12368  0.41632  1.0000
  C   C101      1.0  0.87828  0.26789  0.41958  1.0000
  C   C102      1.0  0.73181  0.60990  0.42147  1.0000
  C   C103      1.0  0.41216  0.42194  0.80332  1.0000
  C   C104      1.0  0.57646  0.98910  0.79507  1.0000
  C   C105      1.0  0.01076  0.58714  0.79950  1.0000
  C   C106      1.0  0.58676  0.57511  0.80111  1.0000
  C   C107      1.0  0.42280  0.01035  0.79445  1.0000
  C   C108      1.0  0.98952  0.41269  0.79301  1.0000
  C   C109      1.0  0.43936  0.45132  0.79876  1.0000
  C   C110      1.0  0.54718  0.98731  0.79122  1.0000
  C   C111      1.0  0.01278  0.55982  0.79271  1.0000
  C   C112      1.0  0.55927  0.54592  0.79834  1.0000
  C   C113      1.0  0.45225  0.01257  0.78963  1.0000
  C   C114      1.0  0.98757  0.44006  0.78955  1.0000
  C   C115      1.0  0.46907  0.45437  0.77793  1.0000
  C   C116      1.0  0.54434  0.01413  0.77150  1.0000
  C   C117      1.0  0.98595  0.53015  0.77195  1.0000
  C   C118      1.0  0.52956  0.54327  0.78354  1.0000
  C   C119      1.0  0.45532  0.98583  0.77239  1.0000
  C   C120      1.0  0.01439  0.46969  0.77252  1.0000
  C   C121      1.0  0.49789  0.48459  0.77322  1.0000
  C   C122      1.0  0.51420  0.01311  0.76728  1.0000
  C   C123      1.0  0.98716  0.50121  0.76541  1.0000
  C   C124      1.0  0.50047  0.51320  0.78201  1.0000
  C   C125      1.0  0.48555  0.98712  0.76900  1.0000
  C   C126      1.0  0.01325  0.49867  0.77075  1.0000
  C   C127      1.0  0.47094  0.42696  0.75997  1.0000
  C   C128      1.0  0.57186  0.04318  0.75464  1.0000
  C   C129      1.0  0.95668  0.52843  0.75620  1.0000
  C   C130      1.0  0.52800  0.57089  0.76996  1.0000
  C   C131      1.0  0.42786  0.95646  0.75892  1.0000
  C   C132      1.0  0.04357  0.47134  0.75749  1.0000
  C   C133      1.0  0.44411  0.39718  0.76269  1.0000
  C   C134      1.0  0.60160  0.04588  0.75910  1.0000
  C   C135      1.0  0.95391  0.55538  0.76114  1.0000
  C   C136      1.0  0.55511  0.60052  0.77142  1.0000
  C   C137      1.0  0.39801  0.95344  0.76246  1.0000
  C   C138      1.0  0.04633  0.44436  0.75908  1.0000
  C   C139      1.0  0.41492  0.39501  0.78565  1.0000
  C   C140      1.0  0.60354  0.01866  0.78032  1.0000
  C   C141      1.0  0.98108  0.58455  0.78441  1.0000
  C   C142      1.0  0.58432  0.60227  0.78828  1.0000
  C   C143      1.0  0.39583  0.98059  0.78118  1.0000
  C   C144      1.0  0.01913  0.41523  0.77778  1.0000
  C   C145      1.0  0.79303  0.25360  0.70194  1.0000
  C   C146      1.0  0.74604  0.53859  0.68313  1.0000
  C   C147      1.0  0.45902  0.20526  0.69384  1.0000
  C   C148      1.0  0.20671  0.74544  0.70575  1.0000
  C   C149      1.0  0.25335  0.45868  0.69838  1.0000
  C   C150      1.0  0.53872  0.79206  0.69880  1.0000
  C   C151      1.0  0.82193  0.25961  0.76772  1.0000
  C   C152      1.0  0.73986  0.56049  0.75913  1.0000
  C   C153      1.0  0.43676  0.17723  0.76507  1.0000
  C   C154      1.0  0.17846  0.73954  0.77561  1.0000
  C   C155      1.0  0.25925  0.43621  0.76911  1.0000
  C   C156      1.0  0.56205  0.82119  0.75952  1.0000
  C   C157      1.0  0.82408  0.23519  0.84143  1.0000
  C   C158      1.0  0.76440  0.58657  0.83834  1.0000
  C   C159      1.0  0.41031  0.17564  0.83568  1.0000
  C   C160      1.0  0.17694  0.76413  0.85269  1.0000
  C   C161      1.0  0.23475  0.41032  0.84466  1.0000
  C   C162      1.0  0.58895  0.82349  0.83232  1.0000
  C   C163      1.0  0.79801  0.20524  0.85147  1.0000
  C   C164      1.0  0.79466  0.59097  0.84343  1.0000
  C   C165      1.0  0.40590  0.20149  0.83702  1.0000
  C   C166      1.0  0.20302  0.79416  0.86205  1.0000
  C   C167      1.0  0.20488  0.40676  0.85249  1.0000
  C   C168      1.0  0.59268  0.79736  0.84797  1.0000
  C   C169      1.0  0.76911  0.19923  0.78549  1.0000
  C   C170      1.0  0.80083  0.56912  0.76736  1.0000
  C   C171      1.0  0.42815  0.22950  0.76540  1.0000
  C   C172      1.0  0.23131  0.80002  0.79286  1.0000
  C   C173      1.0  0.19905  0.42929  0.78271  1.0000
  C   C174      1.0  0.56931  0.76822  0.78778  1.0000
  C   C175      1.0  0.76700  0.22360  0.71117  1.0000
  C   C176      1.0  0.77634  0.54306  0.68761  1.0000
  C   C177      1.0  0.45449  0.23101  0.69377  1.0000
  C   C178      1.0  0.23277  0.77548  0.71485  1.0000
  C   C179      1.0  0.22343  0.45507  0.70585  1.0000
  C   C180      1.0  0.54255  0.76595  0.71323  1.0000
  C   C181      1.0  0.85041  0.29148  0.75887  1.0000
  C   C182      1.0  0.70760  0.55643  0.75701  1.0000
  C   C183      1.0  0.44083  0.14910  0.76526  1.0000
  C   C184      1.0  0.15008  0.70752  0.76885  1.0000
  C   C185      1.0  0.29118  0.43953  0.76637  1.0000
  C   C186      1.0  0.55901  0.84989  0.74569  1.0000
  C   C187      1.0  0.74058  0.16741  0.79485  1.0000
  C   C188      1.0  0.83311  0.57333  0.76998  1.0000
  C   C189      1.0  0.42397  0.25757  0.76221  1.0000
  C   C190      1.0  0.25988  0.83185  0.80258  1.0000
  C   C191      1.0  0.16722  0.42605  0.78996  1.0000
  C   C192      1.0  0.57233  0.73959  0.80459  1.0000
  C   C193      1.0  0.51964  0.71027  0.65544  1.0000
  C   C194      1.0  0.28737  0.80829  0.64189  1.0000
  C   C195      1.0  0.19074  0.47762  0.63704  1.0000
  C   C196      1.0  0.47693  0.28579  0.62340  1.0000
  C   C197      1.0  0.71176  0.19065  0.64095  1.0000
  C   C198      1.0  0.80943  0.52141  0.61356  1.0000
  C   C199      1.0  0.61111  0.87858  0.90119  1.0000
  C   C200      1.0  0.12239  0.73136  0.92549  1.0000
  C   C201      1.0  0.26755  0.38859  0.92603  1.0000
  C   C202      1.0  0.38878  0.12129  0.91264  1.0000
  C   C203      1.0  0.87927  0.26822  0.91160  1.0000
  C   C204      1.0  0.73134  0.60793  0.91757  1.0000
  N   N1        1.0  0.29290  0.41530  0.35923  1.0000
  N   N2        1.0  0.58465  0.87875  0.34333  1.0000
  N   N3        1.0  0.12350  0.70607  0.35722  1.0000
  N   N4        1.0  0.70685  0.58392  0.34913  1.0000
  N   N5        1.0  0.41609  0.12443  0.35111  1.0000
  N   N6        1.0  0.87729  0.29282  0.34931  1.0000
  N   N7        1.0  0.54716  0.71443  0.21225  1.0000
  N   N8        1.0  0.28636  0.83368  0.21212  1.0000
  N   N9        1.0  0.16606  0.45219  0.20013  1.0000
  N   N10       1.0  0.45276  0.28777  0.19945  1.0000
  N   N11       1.0  0.71287  0.16611  0.20310  1.0000
  N   N12       1.0  0.83526  0.54942  0.19720  1.0000
  N   N13       1.0  0.29258  0.41434  0.85745  1.0000
  N   N14       1.0  0.58406  0.87682  0.83867  1.0000
  N   N15       1.0  0.12331  0.70629  0.85541  1.0000
  N   N16       1.0  0.70614  0.58156  0.84926  1.0000
  N   N17       1.0  0.41524  0.12238  0.85039  1.0000
  N   N18       1.0  0.87758  0.29330  0.84836  1.0000
  N   N19       1.0  0.54670  0.71212  0.71829  1.0000
  N   N20       1.0  0.28640  0.83338  0.71160  1.0000
  N   N21       1.0  0.16587  0.45191  0.70699  1.0000
  N   N22       1.0  0.45099  0.28507  0.69091  1.0000
  N   N23       1.0  0.71315  0.16569  0.70848  1.0000
  N   N24       1.0  0.83445  0.54761  0.68408  1.0000
  O   O1        1.0  0.52000  0.74081  0.13427  1.0000
  O   O2        1.0  0.26054  0.77937  0.15008  1.0000
  O   O3        1.0  0.22021  0.47990  0.14187  1.0000
  O   O4        1.0  0.47892  0.26043  0.12395  1.0000
  O   O5        1.0  0.73962  0.21941  0.12611  1.0000
  O   O6        1.0  0.78168  0.52263  0.11716  1.0000
  O   O7        1.0  0.49930  0.68993  0.07472  1.0000
  O   O8        1.0  0.31022  0.81010  0.07560  1.0000
  O   O9        1.0  0.19031  0.50055  0.07513  1.0000
  O   O10       1.0  0.50164  0.31194  0.08200  1.0000
  O   O11       1.0  0.68859  0.18942  0.06637  1.0000
  O   O12       1.0  0.81178  0.50194  0.05795  1.0000
  O   O13       1.0  0.61191  0.85228  0.41671  1.0000
  O   O14       1.0  0.14927  0.76037  0.41687  1.0000
  O   O15       1.0  0.23831  0.38631  0.40270  1.0000
  O   O16       1.0  0.38824  0.15092  0.40856  1.0000
  O   O17       1.0  0.85032  0.23953  0.42443  1.0000
  O   O18       1.0  0.76099  0.61190  0.41739  1.0000
  O   O19       1.0  0.63240  0.90280  0.48260  1.0000
  O   O20       1.0  0.09906  0.73002  0.48353  1.0000
  O   O21       1.0  0.26891  0.36766  0.49105  1.0000
  O   O22       1.0  0.36869  0.10119  0.48397  1.0000
  O   O23       1.0  0.90132  0.26898  0.48404  1.0000
  O   O24       1.0  0.73008  0.63090  0.49218  1.0000
  O   O25       1.0  0.51840  0.73787  0.65033  1.0000
  O   O26       1.0  0.25987  0.77944  0.64201  1.0000
  O   O27       1.0  0.21937  0.47836  0.63355  1.0000
  O   O28       1.0  0.47727  0.25775  0.61733  1.0000
  O   O29       1.0  0.73926  0.21950  0.64196  1.0000
  O   O30       1.0  0.78064  0.52038  0.60899  1.0000
  O   O31       1.0  0.49731  0.68670  0.59781  1.0000
  O   O32       1.0  0.31003  0.80959  0.57468  1.0000
  O   O33       1.0  0.18937  0.49930  0.57354  1.0000
  O   O34       1.0  0.49920  0.30877  0.56523  1.0000
  O   O35       1.0  0.68865  0.18930  0.57544  1.0000
  O   O36       1.0  0.81069  0.49957  0.55003  1.0000
  O   O37       1.0  0.61336  0.85162  0.89263  1.0000
  O   O38       1.0  0.14980  0.76021  0.92495  1.0000
  O   O39       1.0  0.23857  0.38692  0.91698  1.0000
  O   O40       1.0  0.38716  0.14863  0.90838  1.0000
  O   O41       1.0  0.85196  0.23920  0.90841  1.0000
  O   O42       1.0  0.76023  0.60936  0.91637  1.0000
  O   O43       1.0  0.63270  0.90162  0.96771  1.0000
  O   O44       1.0  0.09967  0.72995  0.99245  1.0000
  O   O45       1.0  0.26896  0.36765  0.99860  1.0000
  O   O46       1.0  0.36715  0.09846  0.97609  1.0000
  O   O47       1.0  0.90256  0.26979  0.97547  1.0000
  O   O48       1.0  0.72999  0.62950  0.98391  1.0000
  C  Sn1       1.0  0.35793  0.44912  0.39197  1.0000
  C   C205      1.0  0.32912  0.42589  0.32664  1.0000
  C  Sn2       1.0  0.32544  0.39731  0.27114  1.0000
  C  Sn3       1.0  0.35108  0.39182  0.28124  1.0000
  C   C206      1.0  0.37986  0.41504  0.34657  1.0000
  C  Sn4       1.0  0.38357  0.44363  0.40208  1.0000
  O  Te1       1.0  0.36109  0.47752  0.44673  1.0000
  O  Te2       1.0  0.29641  0.37445  0.20626  1.0000
  O  Te3       1.0  0.34790  0.36340  0.22642  1.0000
  O  Te4       1.0  0.41258  0.46648  0.46695  1.0000
  Mg  Mg1       1.0  0.30372  0.33955  0.14787  1.0000
  Mg  Mg2       1.0  0.40528  0.50138  0.52545  1.0000
  C  Sn5       1.0  0.61255  0.94310  0.27915  1.0000
  C   C207      1.0  0.59243  0.91530  0.36045  1.0000
  C  Sn6       1.0  0.56277  0.90915  0.40917  1.0000
  C  Sn7       1.0  0.55299  0.93125  0.37584  1.0000
  C   C208      1.0  0.57310  0.95904  0.29457  1.0000
  C  Sn8       1.0  0.60277  0.96520  0.24583  1.0000
  O  Te5       1.0  0.64210  0.94875  0.23156  1.0000
  O  Te6       1.0  0.54308  0.88120  0.49032  1.0000
  O  Te7       1.0  0.52342  0.92558  0.42352  1.0000
  O  Te8       1.0  0.62245  0.99314  0.16469  1.0000
  Mg  Mg3       1.0  0.50503  0.88414  0.53060  1.0000
  Mg  Mg4       1.0  0.66050  0.99021  0.12429  1.0000
  C  Sn9       1.0  0.05870  0.67021  0.29479  1.0000
  C   C209      1.0  0.08704  0.67755  0.37400  1.0000
  C  Sn10      1.0  0.09331  0.65383  0.41882  1.0000
  C  Sn11      1.0  0.07079  0.62211  0.38365  1.0000
  C   C210      1.0  0.04247  0.61478  0.30446  1.0000
  C  Sn12      1.0  0.03618  0.63848  0.25962  1.0000
  O  Te9       1.0  0.05293  0.69430  0.25110  1.0000
  O  Te10      1.0  0.12180  0.66175  0.49795  1.0000
  O  Te11      1.0  0.07658  0.59801  0.42742  1.0000
  O  Te12      1.0  0.00771  0.63058  0.18051  1.0000
  Mg  Mg5       1.0  0.11881  0.62061  0.53297  1.0000
  Mg  Mg6       1.0  0.01068  0.67170  0.14536  1.0000
  C  Sn13      1.0  0.67103  0.61288  0.28648  1.0000
  C   C211      1.0  0.67834  0.59212  0.36626  1.0000
  C  Sn14      1.0  0.65457  0.56240  0.41138  1.0000
  C  Sn15      1.0  0.62282  0.55322  0.37593  1.0000
  C   C212      1.0  0.61552  0.57397  0.29618  1.0000
  C  Sn16      1.0  0.63928  0.60370  0.25104  1.0000
  O  Te13      1.0  0.69517  0.64248  0.24250  1.0000
  O  Te14      1.0  0.66246  0.54205  0.49108  1.0000
  O  Te15      1.0  0.59867  0.52359  0.42000  1.0000
  O  Te16      1.0  0.63140  0.62404  0.17136  1.0000
  Mg  Mg7       1.0  0.62125  0.50421  0.52631  1.0000
  Mg  Mg8       1.0  0.67260  0.66188  0.13600  1.0000
  C  Sn17      1.0  0.38658  0.05954  0.28920  1.0000
  C   C213      1.0  0.40767  0.08758  0.37030  1.0000
  C  Sn18      1.0  0.43762  0.09351  0.41625  1.0000
  C  Sn19      1.0  0.44669  0.07097  0.38031  1.0000
  C   C214      1.0  0.42561  0.04296  0.29923  1.0000
  C  Sn20      1.0  0.39565  0.03700  0.25326  1.0000
  O  Te17      1.0  0.35676  0.05410  0.24440  1.0000
  O  Te18      1.0  0.45829  0.12171  0.49727  1.0000
  O  Te19      1.0  0.47654  0.07643  0.42519  1.0000
  O  Te20      1.0  0.37498  0.00883  0.17226  1.0000
  Mg  Mg9       1.0  0.49635  0.11833  0.53323  1.0000
  Mg  Mg10      1.0  0.33693  0.01218  0.13618  1.0000
  C  Sn21      1.0  0.94192  0.32826  0.28733  1.0000
  C   C215      1.0  0.91419  0.32129  0.36772  1.0000
  C  Sn22      1.0  0.90815  0.34520  0.41210  1.0000
  C  Sn23      1.0  0.93028  0.37673  0.37528  1.0000
  C   C216      1.0  0.95798  0.38368  0.29491  1.0000
  C  Sn24      1.0  0.96405  0.35979  0.25050  1.0000
  O  Te21      1.0  0.94747  0.30398  0.24410  1.0000
  O  Te22      1.0  0.88026  0.33766  0.49244  1.0000
  O  Te23      1.0  0.92470  0.40101  0.41858  1.0000
  O  Te24      1.0  0.99191  0.36732  0.17019  1.0000
  Mg  Mg11      1.0  0.88333  0.37893  0.52622  1.0000
  Mg  Mg12      1.0  0.98886  0.32606  0.13628  1.0000
  C  Sn25      1.0  0.48061  0.36799  0.27603  1.0000
  C   C217      1.0  0.45720  0.37369  0.21553  1.0000
  C  Sn26      1.0  0.42837  0.34891  0.16045  1.0000
  C  Sn27      1.0  0.42281  0.31779  0.16605  1.0000
  C   C218      1.0  0.44621  0.31210  0.22654  1.0000
  C  Sn28      1.0  0.47505  0.33687  0.28162  1.0000
  O  Te25      1.0  0.50926  0.39312  0.33045  1.0000
  O  Te26      1.0  0.40533  0.35519  0.10044  1.0000
  O  Te27      1.0  0.39413  0.29266  0.11155  1.0000
  O  Te28      1.0  0.49808  0.33060  0.34163  1.0000
  Mg  Mg13      1.0  0.37011  0.31312  0.04052  1.0000
  Mg  Mg14      1.0  0.53329  0.37266  0.40167  1.0000
  C  Sn29      1.0  0.67409  0.10441  0.09675  1.0000
  C   C219      1.0  0.68072  0.13318  0.16628  1.0000
  C  Sn30      1.0  0.66234  0.13442  0.29428  1.0000
  C  Sn31      1.0  0.63682  0.10632  0.35413  1.0000
  C   C220      1.0  0.63021  0.07757  0.28464  1.0000
  C  Sn32      1.0  0.64857  0.07631  0.15660  1.0000
  O  Te29      1.0  0.69593  0.10607  0.96890  1.0000
  O  Te30      1.0  0.66942  0.16346  0.36178  1.0000
  O  Te31      1.0  0.61814  0.10702  0.48208  1.0000
  O  Te32      1.0  0.64151  0.04729  0.08913  1.0000
  Mg  Mg15      1.0  0.63713  0.15225  0.53391  1.0000
  Mg  Mg16      1.0  0.67695  0.06081  0.91707  1.0000
  C  Sn33      1.0  0.89699  0.57279  0.09667  1.0000
  C   C221      1.0  0.86821  0.55042  0.16090  1.0000
  C  Sn34      1.0  0.86696  0.53000  0.28479  1.0000
  C  Sn35      1.0  0.89507  0.53199  0.34584  1.0000
  C   C222      1.0  0.92383  0.55435  0.28164  1.0000
  C  Sn36      1.0  0.92510  0.57478  0.15772  1.0000
  O  Te33      1.0  0.90084  0.59531  0.97286  1.0000
  O  Te34      1.0  0.83791  0.50782  0.34704  1.0000
  O  Te35      1.0  0.89436  0.51179  0.46975  1.0000
  O  Te36      1.0  0.95413  0.59695  0.09551  1.0000
  Mg  Mg17      1.0  0.84911  0.48555  0.51504  1.0000
  Mg  Mg18      1.0  0.94612  0.62159  0.92757  1.0000
  C  Sn37      1.0  0.52069  0.63464  0.28481  1.0000
  C   C223      1.0  0.54417  0.62922  0.22576  1.0000
  C  Sn38      1.0  0.57263  0.65412  0.17314  1.0000
  C  Sn39      1.0  0.57774  0.68509  0.17979  1.0000
  C   C224      1.0  0.55427  0.69051  0.23884  1.0000
  C  Sn40      1.0  0.52580  0.66562  0.29146  1.0000
  O  Te37      1.0  0.49241  0.60940  0.33678  1.0000
  O  Te38      1.0  0.59576  0.64811  0.11454  1.0000
  O  Te39      1.0  0.60605  0.71034  0.12776  1.0000
  O  Te40      1.0  0.50269  0.67162  0.35007  1.0000
  Mg  Mg19      1.0  0.63035  0.69026  0.05788  1.0000
  Mg  Mg20      1.0  0.46809  0.62949  0.40683  1.0000
  C  Sn41      1.0  0.36661  0.88799  0.27696  1.0000
  C   C225      1.0  0.37112  0.91655  0.21771  1.0000
  C  Sn42      1.0  0.34550  0.91961  0.16774  1.0000
  C  Sn43      1.0  0.31473  0.89357  0.17729  1.0000
  C   C226      1.0  0.31024  0.86503  0.23653  1.0000
  C  Sn44      1.0  0.33584  0.86196  0.28651  1.0000
  O  Te41      1.0  0.39256  0.88547  0.32625  1.0000
  O  Te42      1.0  0.35060  0.94840  0.10888  1.0000
  O  Te43      1.0  0.28878  0.89612  0.12793  1.0000
  O  Te44      1.0  0.33076  0.83319  0.34536  1.0000
  Mg  Mg21      1.0  0.30773  0.94019  0.05653  1.0000
  Mg  Mg22      1.0  0.37360  0.84138  0.39783  1.0000
  C  Sn45      1.0  0.10405  0.42812  0.09249  1.0000
  C   C227      1.0  0.13278  0.45087  0.16108  1.0000
  C  Sn46      1.0  0.13381  0.47087  0.28824  1.0000
  C  Sn47      1.0  0.10554  0.46805  0.34819  1.0000
  C   C228      1.0  0.07683  0.44530  0.27963  1.0000
  C  Sn48      1.0  0.07578  0.42530  0.15244  1.0000
  O  Te45      1.0  0.10673  0.41071  0.96547  1.0000
  O  Te46      1.0  0.16281  0.49345  0.35482  1.0000
  O  Te47      1.0  0.10604  0.48782  0.47531  1.0000
  O  Te48      1.0  0.04680  0.40273  0.08590  1.0000
  Mg  Mg23      1.0  0.15130  0.51487  0.52604  1.0000
  Mg  Mg24      1.0  0.06144  0.38363  0.91474  1.0000
  C  Sn49      1.0  0.34846  0.39683  0.70663  1.0000
  C   C229      1.0  0.37722  0.41935  0.77600  1.0000
  C  Sn50      1.0  0.37836  0.43932  0.90357  1.0000
  C  Sn51      1.0  0.35016  0.43673  0.96314  1.0000
  C   C230      1.0  0.32142  0.41422  0.89380  1.0000
  C  Sn52      1.0  0.32026  0.39423  0.76619  1.0000
  O  Te49      1.0  0.34788  0.37710  0.57920  1.0000
  O  Te50      1.0  0.40740  0.46166  0.97092  1.0000
  O  Te51      1.0  0.34761  0.45414  0.09066  1.0000
  O  Te52      1.0  0.29125  0.37191  0.69887  1.0000
  Mg  Mg25      1.0  0.39288  0.48081  0.14244  1.0000
  Mg  Mg26      1.0  0.30258  0.35039  0.52742  1.0000
  C  Sn53      1.0  0.55025  0.90826  0.86463  1.0000
  C   C231      1.0  0.57337  0.90264  0.80199  1.0000
  C  Sn54      1.0  0.60219  0.92753  0.75336  1.0000
  C  Sn55      1.0  0.60802  0.95869  0.76773  1.0000
  C   C232      1.0  0.58491  0.96430  0.83037  1.0000
  C  Sn56      1.0  0.55608  0.93943  0.87901  1.0000
  O  Te53      1.0  0.52161  0.88302  0.91250  1.0000
  O  Te54      1.0  0.62495  0.92132  0.69104  1.0000
  O  Te55      1.0  0.63669  0.98394  0.71980  1.0000
  O  Te56      1.0  0.53333  0.94562  0.94132  1.0000
  Mg  Mg27      1.0  0.66026  0.96354  0.64237  1.0000
  Mg  Mg28      1.0  0.49802  0.90342  0.99010  1.0000
  C  Sn57      1.0  0.05854  0.67067  0.79090  1.0000
  C   C233      1.0  0.08664  0.67796  0.87274  1.0000
  C  Sn58      1.0  0.09263  0.65419  0.92040  1.0000
  C  Sn59      1.0  0.07007  0.62247  0.88544  1.0000
  C   C234      1.0  0.04199  0.61519  0.80364  1.0000
  C  Sn60      1.0  0.03598  0.63895  0.75595  1.0000
  O  Te57      1.0  0.05304  0.69482  0.74440  1.0000
  O  Te58      1.0  0.11773  0.65971  0.00212  1.0000
  O  Te59      1.0  0.07559  0.59832  0.93204  1.0000
  O  Te60      1.0  0.00775  0.63110  0.67426  1.0000
  Mg  Mg29      1.0  0.11441  0.61851  0.04046  1.0000
  Mg  Mg30      1.0  0.01104  0.67228  0.63579  1.0000
  C  Sn61      1.0  0.64966  0.59921  0.70018  1.0000
  C   C235      1.0  0.62123  0.57702  0.76864  1.0000
  C  Sn62      1.0  0.62065  0.55710  0.89376  1.0000
  C  Sn63      1.0  0.64907  0.55942  0.95175  1.0000
  C   C236      1.0  0.67748  0.58160  0.88333  1.0000
  C  Sn64      1.0  0.67808  0.60152  0.75817  1.0000
  O  Te61      1.0  0.64969  0.61888  0.57522  1.0000
  O  Te62      1.0  0.59194  0.53510  0.96024  1.0000
  O  Te63      1.0  0.64586  0.53738  0.07681  1.0000
  O  Te64      1.0  0.70677  0.62352  0.69173  1.0000
  Mg  Mg31      1.0  0.60088  0.51120  0.12827  1.0000
  Mg  Mg32      1.0  0.69471  0.64510  0.52376  1.0000
  C  Sn65      1.0  0.44858  0.09070  0.88023  1.0000
  C   C237      1.0  0.42562  0.09654  0.81405  1.0000
  C  Sn66      1.0  0.39701  0.07184  0.75591  1.0000
  C  Sn67      1.0  0.39121  0.04065  0.76418  1.0000
  C   C238      1.0  0.41416  0.03483  0.83035  1.0000
  C  Sn68      1.0  0.44279  0.05952  0.88850  1.0000
  O  Te65      1.0  0.47702  0.11576  0.93763  1.0000
  O  Te66      1.0  0.37442  0.07826  0.69022  1.0000
  O  Te67      1.0  0.36275  0.01560  0.70670  1.0000
  O  Te68      1.0  0.46537  0.05311  0.95418  1.0000
  Mg  Mg33      1.0  0.33935  0.03624  0.62802  1.0000
  Mg  Mg34      1.0  0.49728  0.09276  0.01649  1.0000
  C  Sn69      1.0  0.94213  0.32906  0.78651  1.0000
  C   C239      1.0  0.91435  0.32198  0.86667  1.0000
  C  Sn70      1.0  0.90826  0.34583  0.91176  1.0000
  C  Sn71      1.0  0.93038  0.37741  0.87589  1.0000
  C   C240      1.0  0.95814  0.38447  0.79575  1.0000
  C  Sn72      1.0  0.96426  0.36064  0.75064  1.0000
  O  Te69      1.0  0.94774  0.30485  0.74256  1.0000
  O  Te70      1.0  0.88032  0.33817  0.99185  1.0000
  O  Te71      1.0  0.92476  0.40162  0.91992  1.0000
  O  Te72      1.0  0.99217  0.36828  0.67058  1.0000
  Mg  Mg35      1.0  0.88017  0.37705  0.02686  1.0000
  Mg  Mg36      1.0  0.98918  0.32708  0.63543  1.0000
  C  Sn73      1.0  0.42810  0.32399  0.58708  1.0000
  C   C241      1.0  0.45032  0.31731  0.65550  1.0000
  C  Sn74      1.0  0.47018  0.33573  0.78582  1.0000
  C  Sn75      1.0  0.46777  0.36136  0.84916  1.0000
  C   C242      1.0  0.44555  0.36802  0.78077  1.0000
  C  Sn76      1.0  0.42568  0.34962  0.65042  1.0000
  O  Te73      1.0  0.40848  0.30526  0.45686  1.0000
  O  Te74      1.0  0.49222  0.32860  0.85216  1.0000
  O  Te75      1.0  0.48740  0.38009  0.97948  1.0000
  O  Te76      1.0  0.40365  0.35673  0.58411  1.0000
  Mg  Mg37      1.0  0.51051  0.35865  0.02849  1.0000
  Mg  Mg38      1.0  0.38218  0.32435  0.40785  1.0000
  C  Sn77      1.0  0.65516  0.12654  0.84965  1.0000
  C   C243      1.0  0.68284  0.13395  0.76743  1.0000
  C  Sn78      1.0  0.68365  0.11275  0.65414  1.0000
  C  Sn79      1.0  0.65620  0.08352  0.62226  1.0000
  C   C244      1.0  0.62854  0.07613  0.70442  1.0000
  C  Sn80      1.0  0.62771  0.09732  0.81777  1.0000
  O  Te77      1.0  0.65489  0.14810  0.96241  1.0000
  O  Te78      1.0  0.71160  0.12068  0.57351  1.0000
  O  Te79      1.0  0.65649  0.06196  0.50940  1.0000
  O  Te80      1.0  0.59978  0.08940  0.89835  1.0000
  Mg  Mg39      1.0  0.70020  0.08351  0.43060  1.0000
  Mg  Mg40      1.0  0.60799  0.12421  0.04120  1.0000
  C  Sn81      1.0  0.91628  0.58247  0.68154  1.0000
  C   C245      1.0  0.92342  0.56200  0.76594  1.0000
  C  Sn82      1.0  0.89960  0.53222  0.80988  1.0000
  C  Sn83      1.0  0.86797  0.52269  0.76851  1.0000
  C   C246      1.0  0.86084  0.54316  0.68415  1.0000
  C  Sn84      1.0  0.88466  0.57295  0.64018  1.0000
  O  Te81      1.0  0.94048  0.61214  0.63884  1.0000
  O  Te82      1.0  0.90732  0.51218  0.89426  1.0000
  O  Te83      1.0  0.84377  0.49301  0.81130  1.0000
  O  Te84      1.0  0.87695  0.59299  0.55582  1.0000
  Mg  Mg41      1.0  0.86610  0.47411  0.92550  1.0000
  Mg  Mg42      1.0  0.91815  0.63105  0.52444  1.0000
  C  Sn85      1.0  0.58238  0.66575  0.70892  1.0000
  C   C247      1.0  0.56149  0.63752  0.78424  1.0000
  C  Sn86      1.0  0.53129  0.63102  0.82367  1.0000
  C  Sn87      1.0  0.52175  0.65319  0.78696  1.0000
  C   C248      1.0  0.54263  0.68140  0.71166  1.0000
  C  Sn88      1.0  0.57284  0.68792  0.67221  1.0000
  O  Te85      1.0  0.61246  0.67176  0.67059  1.0000
  O  Te86      1.0  0.51082  0.60264  0.89899  1.0000
  O  Te87      1.0  0.49164  0.64716  0.82537  1.0000
  O  Te88      1.0  0.59329  0.71628  0.59692  1.0000
  Mg  Mg43      1.0  0.47227  0.60520  0.92721  1.0000
  Mg  Mg44      1.0  0.63185  0.71373  0.56857  1.0000
  C  Sn89      1.0  0.36673  0.88683  0.78000  1.0000
  C   C249      1.0  0.37174  0.91545  0.71885  1.0000
  C  Sn90      1.0  0.34645  0.91886  0.66653  1.0000
  C  Sn91      1.0  0.31550  0.89313  0.67561  1.0000
  C   C250      1.0  0.31050  0.86453  0.73675  1.0000
  C  Sn92      1.0  0.33578  0.86109  0.78908  1.0000
  O  Te89      1.0  0.39236  0.88395  0.83163  1.0000
  O  Te90      1.0  0.35205  0.94771  0.60580  1.0000
  O  Te91      1.0  0.28986  0.89603  0.62391  1.0000
  O  Te92      1.0  0.33019  0.83227  0.84981  1.0000
  Mg  Mg45      1.0  0.30947  0.94003  0.55057  1.0000
  Mg  Mg46      1.0  0.37276  0.83992  0.90515  1.0000
  C  Sn93      1.0  0.11309  0.47942  0.77419  1.0000
  C   C251      1.0  0.08403  0.45584  0.71348  1.0000
  C  Sn94      1.0  0.08018  0.42702  0.66127  1.0000
  C  Sn95      1.0  0.10590  0.42165  0.67000  1.0000
  C   C252      1.0  0.13494  0.44522  0.73070  1.0000
  C  Sn96      1.0  0.13881  0.47405  0.78292  1.0000
  O  Te93      1.0  0.11640  0.50804  0.82571  1.0000
  O  Te94      1.0  0.05090  0.40381  0.60099  1.0000
  O  Te95      1.0  0.10256  0.39299  0.61841  1.0000
  O  Te96      1.0  0.16806  0.49725  0.84319  1.0000
  Mg  Mg47      1.0  0.05807  0.36870  0.54572  1.0000
  Mg  Mg48      1.0  0.16092  0.53236  0.89857  1.0000
