data_image0
_chemical_formula_structural       H168C204N24O24SnCSn2CSnTe4Mg2SnCSn2CSnTe4Mg2SnCSn2CSnTe4Mg2SnCSn2CSnTe4Mg2SnCSn2CSnTe4Mg2SnCSn2CSnTe4Mg2SnCSn2CSnTe4Mg2SnCSn2CSnTe4Mg2SnCSn2CSnTe4Mg2SnCSn2CSnTe4Mg2SnCSn2CSnTe4Mg2SnCSn2CSnTe4Mg2SnCSn2CSnTe4Mg2SnCSn2CSnTe4Mg2SnCSn2CSnTe4Mg2SnCSn2CSnTe4Mg2SnCSn2CSnTe4Mg2SnCSn2CSnTe4Mg2SnCSn2CSnTe4Mg2SnCSn2CSnTe4Mg2SnCSn2CSnTe4Mg2SnCSn2CSnTe4Mg2SnCSn2CSnTe4Mg2SnCSn2CSnTe4Mg2
_chemical_formula_sum              "H168 C252 N24 O24 Sn96 Te96 Mg48"
_cell_length_a       49.7814
_cell_length_b       49.3876
_cell_length_c       7.99097
_cell_angle_alpha    98.405
_cell_angle_beta     63.944
_cell_angle_gamma    120.193

_symmetry_space_group_name_H-M    'P1'
_space_group_IT_number       1

loop_
  _space_group_symop_operation_xyz
  'x, y, z'

loop_
  _atom_site_type_symbol
  _atom_site_label
  _atom_site_symmetry_multiplicity
  _atom_site_fract_x
  _atom_site_fract_y
  _atom_site_fract_z
  _atom_site_occupancy
  H   H1        1.0  0.43257  0.48932  0.28685  1.0000
  H   H2        1.0  0.51388  0.96984  0.28839  1.0000
  H   H3        1.0  0.03432  0.57082  0.29435  1.0000
  H   H4        1.0  0.55166  0.53084  0.34642  1.0000
  H   H5        1.0  0.47281  0.04980  0.27017  1.0000
  H   H6        1.0  0.95715  0.44816  0.26502  1.0000
  H   H7        1.0  0.50202  0.49022  0.37830  1.0000
  H   H8        1.0  0.51232  0.04508  0.26615  1.0000
  H   H9        1.0  0.97331  0.49690  0.15310  1.0000
  H   H10       1.0  0.48653  0.52950  0.20905  1.0000
  H   H11       1.0  0.48093  0.97518  0.19799  1.0000
  H   H12       1.0  0.02474  0.52512  0.32689  1.0000
  H   H13       1.0  0.47960  0.43785  0.31318  1.0000
  H   H14       1.0  0.56843  0.07056  0.22272  1.0000
  H   H15       1.0  0.94629  0.52529  0.17328  1.0000
  H   H16       1.0  0.51513  0.58230  0.20461  1.0000
  H   H17       1.0  0.42786  0.95103  0.19480  1.0000
  H   H18       1.0  0.05751  0.49949  0.26003  1.0000
  H   H19       1.0  0.38808  0.39048  0.22298  1.0000
  H   H20       1.0  0.61903  0.02073  0.21208  1.0000
  H   H21       1.0  0.98505  0.62171  0.30613  1.0000
  H   H22       1.0  0.61175  0.63144  0.24312  1.0000
  H   H23       1.0  0.37365  0.00075  0.26642  1.0000
  H   H24       1.0  0.01197  0.40037  0.22096  1.0000
  H   H25       1.0  0.84163  0.24076  0.26771  1.0000
  H   H26       1.0  0.75172  0.61685  0.40896  1.0000
  H   H27       1.0  0.38984  0.17476  0.48969  1.0000
  H   H28       1.0  0.14631  0.76604  0.51739  1.0000
  H   H29       1.0  0.22189  0.39621  0.36563  1.0000
  H   H30       1.0  0.60696  0.85659  0.31557  1.0000
  H   H31       1.0  0.74412  0.22427  0.15720  1.0000
  H   H32       1.0  0.79477  0.54155  0.14364  1.0000
  H   H33       1.0  0.47264  0.26613  0.00676  1.0000
  H   H34       1.0  0.26656  0.80008  0.05128  1.0000
  H   H35       1.0  0.21583  0.47576  0.09289  1.0000
  H   H36       1.0  0.53152  0.75069  0.18578  1.0000
  H   H37       1.0  0.84817  0.31358  0.13445  1.0000
  H   H38       1.0  0.69826  0.54848  0.21645  1.0000
  H   H39       1.0  0.45319  0.16190  0.06787  1.0000
  H   H40       1.0  0.15779  0.71134  0.15330  1.0000
  H   H41       1.0  0.30632  0.46552  0.08984  1.0000
  H   H42       1.0  0.54030  0.85132  0.19562  1.0000
  H   H43       1.0  0.73870  0.15108  0.27260  1.0000
  H   H44       1.0  0.85254  0.61343  0.29637  1.0000
  H   H45       1.0  0.40729  0.27753  0.42587  1.0000
  H   H46       1.0  0.25558  0.85479  0.41284  1.0000
  H   H47       1.0  0.13150  0.40605  0.35103  1.0000
  H   H48       1.0  0.59835  0.75476  0.29535  1.0000
  H   H49       1.0  0.13163  0.34041  0.58161  1.0000
  H   H50       1.0  0.66701  0.83919  0.34395  1.0000
  H   H51       1.0  0.14318  0.81148  0.60043  1.0000
  H   H52       1.0  0.82118  0.67397  0.52072  1.0000
  H   H53       1.0  0.33507  0.20548  0.79547  1.0000
  H   H54       1.0  0.81618  0.15963  0.33734  1.0000
  H   H55       1.0  0.17390  0.34927  0.41085  1.0000
  H   H56       1.0  0.65994  0.85864  0.20660  1.0000
  H   H57       1.0  0.15128  0.79795  0.76114  1.0000
  H   H58       1.0  0.79627  0.66382  0.39053  1.0000
  H   H59       1.0  0.33918  0.17664  0.63589  1.0000
  H   H60       1.0  0.84559  0.19374  0.16793  1.0000
  H   H61       1.0  0.18200  0.35896  0.11155  1.0000
  H   H62       1.0  0.63885  0.82369  0.94681  1.0000
  H   H63       1.0  0.14793  0.78338  0.21032  1.0000
  H   H64       1.0  0.79716  0.63645  0.03663  1.0000
  H   H65       1.0  0.36346  0.16463  0.25438  1.0000
  H   H66       1.0  0.82168  0.17861  0.94880  1.0000
  H   H67       1.0  0.26692  0.52456  0.06684  1.0000
  H   H68       1.0  0.47777  0.74758  0.30467  1.0000
  H   H69       1.0  0.27013  0.75536  0.95550  1.0000
  H   H70       1.0  0.74491  0.49241  0.19668  1.0000
  H   H71       1.0  0.52350  0.26238  0.86790  1.0000
  H   H72       1.0  0.74053  0.26989  0.24270  1.0000
  H   H73       1.0  0.28436  0.49518  0.35024  1.0000
  H   H74       1.0  0.50779  0.73155  0.53362  1.0000
  H   H75       1.0  0.26237  0.75755  0.25966  1.0000
  H   H76       1.0  0.78466  0.50860  0.39254  1.0000
  H   H77       1.0  0.49739  0.22182  0.22765  1.0000
  H   H78       1.0  0.75684  0.24946  0.52700  1.0000
  H   H79       1.0  0.32019  0.52393  0.39724  1.0000
  H   H80       1.0  0.47471  0.74177  0.65807  1.0000
  H   H81       1.0  0.25034  0.71689  0.28212  1.0000
  H   H82       1.0  0.74109  0.47626  0.47665  1.0000
  H   H83       1.0  0.52788  0.21062  0.20436  1.0000
  H   H84       1.0  0.76738  0.28746  0.60856  1.0000
  H   H85       1.0  0.43890  0.46674  0.82702  1.0000
  H   H86       1.0  0.51715  0.94332  0.80392  1.0000
  H   H87       1.0  0.04180  0.55059  0.77530  1.0000
  H   H88       1.0  0.56070  0.50738  0.84297  1.0000
  H   H89       1.0  0.47546  0.02331  0.79136  1.0000
  H   H90       1.0  0.96199  0.42649  0.77244  1.0000
  H   H91       1.0  0.51640  0.46442  0.79961  1.0000
  H   H92       1.0  0.51370  0.01796  0.78185  1.0000
  H   H93       1.0  0.97671  0.47378  0.67592  1.0000
  H   H94       1.0  0.48794  0.50520  0.77172  1.0000
  H   H95       1.0  0.48355  0.94892  0.69629  1.0000
  H   H96       1.0  0.02942  0.50364  0.84202  1.0000
  H   H97       1.0  0.48848  0.41190  0.73968  1.0000
  H   H98       1.0  0.56803  0.04388  0.74747  1.0000
  H   H99       1.0  0.94838  0.50085  0.70185  1.0000
  H   H100      1.0  0.51770  0.55637  0.74260  1.0000
  H   H101      1.0  0.43376  0.92790  0.64304  1.0000
  H   H102      1.0  0.05921  0.47679  0.80225  1.0000
  H   H103      1.0  0.38758  0.36816  0.76007  1.0000
  H   H104      1.0  0.62054  0.99714  0.75607  1.0000
  H   H105      1.0  0.99645  0.60115  0.72356  1.0000
  H   H106      1.0  0.61496  0.60830  0.77210  1.0000
  H   H107      1.0  0.38597  0.98244  0.68665  1.0000
  H   H108      1.0  0.01334  0.37736  0.76799  1.0000
  H   H109      1.0  0.83974  0.22281  0.78460  1.0000
  H   H110      1.0  0.76998  0.60832  0.85647  1.0000
  H   H111      1.0  0.38921  0.14810  0.98563  1.0000
  H   H112      1.0  0.14525  0.75432  0.96756  1.0000
  H   H113      1.0  0.23329  0.38913  0.89363  1.0000
  H   H114      1.0  0.61097  0.83048  0.81099  1.0000
  H   H115      1.0  0.74211  0.20630  0.67590  1.0000
  H   H116      1.0  0.80854  0.52934  0.61449  1.0000
  H   H117      1.0  0.47051  0.23959  0.50316  1.0000
  H   H118      1.0  0.26553  0.78944  0.49815  1.0000
  H   H119      1.0  0.22918  0.46821  0.60261  1.0000
  H   H120      1.0  0.53613  0.72537  0.67100  1.0000
  H   H121      1.0  0.84391  0.29640  0.68281  1.0000
  H   H122      1.0  0.71537  0.53917  0.67012  1.0000
  H   H123      1.0  0.45421  0.13665  0.56671  1.0000
  H   H124      1.0  0.15843  0.69927  0.60595  1.0000
  H   H125      1.0  0.31815  0.45891  0.63965  1.0000
  H   H126      1.0  0.54253  0.82529  0.70616  1.0000
  H   H127      1.0  0.73750  0.13321  0.79522  1.0000
  H   H128      1.0  0.86901  0.59995  0.74701  1.0000
  H   H129      1.0  0.40802  0.25203  0.93398  1.0000
  H   H130      1.0  0.25585  0.84292  0.86638  1.0000
  H   H131      1.0  0.14404  0.39995  0.89348  1.0000
  H   H132      1.0  0.60030  0.72797  0.79579  1.0000
  H   H133      1.0  0.14274  0.33258  0.09109  1.0000
  H   H134      1.0  0.67134  0.81242  0.83233  1.0000
  H   H135      1.0  0.16220  0.82463  0.21234  1.0000
  H   H136      1.0  0.84196  0.66466  0.95781  1.0000
  H   H137      1.0  0.33427  0.17847  0.29715  1.0000
  H   H138      1.0  0.81410  0.14153  0.85413  1.0000
  H   H139      1.0  0.18315  0.34005  0.90020  1.0000
  H   H140      1.0  0.66470  0.83276  0.69817  1.0000
  H   H141      1.0  0.14296  0.80215  0.05784  1.0000
  H   H142      1.0  0.82106  0.65772  0.80859  1.0000
  H   H143      1.0  0.33775  0.15096  0.12586  1.0000
  H   H144      1.0  0.84380  0.17736  0.70180  1.0000
  H   H145      1.0  0.16851  0.36987  0.61729  1.0000
  H   H146      1.0  0.63499  0.85096  0.45661  1.0000
  H   H147      1.0  0.16322  0.83861  0.74025  1.0000
  H   H148      1.0  0.77718  0.64287  0.61401  1.0000
  H   H149      1.0  0.36620  0.19441  0.75815  1.0000
  H   H150      1.0  0.82713  0.19792  0.41399  1.0000
  H   H151      1.0  0.27730  0.51484  0.55869  1.0000
  H   H152      1.0  0.48360  0.72216  0.78252  1.0000
  H   H153      1.0  0.26907  0.74389  0.42635  1.0000
  H   H154      1.0  0.76620  0.48361  0.60032  1.0000
  H   H155      1.0  0.52084  0.23792  0.36920  1.0000
  H   H156      1.0  0.73815  0.25277  0.77419  1.0000
  H   H157      1.0  0.26609  0.50409  0.86249  1.0000
  H   H158      1.0  0.50253  0.75625  0.05520  1.0000
  H   H159      1.0  0.26196  0.77042  0.80226  1.0000
  H   H160      1.0  0.76758  0.51153  0.96349  1.0000
  H   H161      1.0  0.49795  0.24892  0.73825  1.0000
  H   H162      1.0  0.76184  0.26884  0.99442  1.0000
  H   H163      1.0  0.30635  0.53094  0.87039  1.0000
  H   H164      1.0  0.46969  0.76700  0.17346  1.0000
  H   H165      1.0  0.25014  0.72965  0.81212  1.0000
  H   H166      1.0  0.72266  0.48294  0.05248  1.0000
  H   H167      1.0  0.52654  0.23447  0.69847  1.0000
  H   H168      1.0  0.76995  0.30585  0.08951  1.0000
  C   C1        1.0  0.40641  0.43971  0.26005  1.0000
  C   C2        1.0  0.56617  0.99159  0.25770  1.0000
  C   C3        1.0  0.01292  0.59956  0.30029  1.0000
  C   C4        1.0  0.58505  0.58123  0.29886  1.0000
  C   C5        1.0  0.42303  0.02814  0.27236  1.0000
  C   C6        1.0  0.98048  0.42004  0.24457  1.0000
  C   C7        1.0  0.43344  0.46754  0.27729  1.0000
  C   C8        1.0  0.53770  0.99177  0.26293  1.0000
  C   C9        1.0  0.01435  0.57159  0.27579  1.0000
  C   C10       1.0  0.55539  0.55320  0.30977  1.0000
  C   C11       1.0  0.45209  0.02801  0.25631  1.0000
  C   C12       1.0  0.97978  0.44835  0.25451  1.0000
  C   C13       1.0  0.46016  0.46725  0.29631  1.0000
  C   C14       1.0  0.53883  0.02025  0.24368  1.0000
  C   C15       1.0  0.99016  0.54458  0.23190  1.0000
  C   C16       1.0  0.53036  0.55352  0.27290  1.0000
  C   C17       1.0  0.45401  0.00012  0.22990  1.0000
  C   C18       1.0  0.00761  0.47726  0.25665  1.0000
  C   C19       1.0  0.48857  0.49511  0.32044  1.0000
  C   C20       1.0  0.51022  0.02188  0.24640  1.0000
  C   C21       1.0  0.98985  0.51455  0.21460  1.0000
  C   C22       1.0  0.50012  0.52523  0.26883  1.0000
  C   C23       1.0  0.48271  0.99819  0.22304  1.0000
  C   C24       1.0  0.00783  0.50719  0.26836  1.0000
  C   C25       1.0  0.45972  0.43850  0.29245  1.0000
  C   C26       1.0  0.56856  0.04875  0.22755  1.0000
  C   C27       1.0  0.96451  0.54625  0.21008  1.0000
  C   C28       1.0  0.53487  0.58258  0.23129  1.0000
  C   C29       1.0  0.42654  0.97265  0.21365  1.0000
  C   C30       1.0  0.03632  0.47747  0.25218  1.0000
  C   C31       1.0  0.43431  0.41077  0.26244  1.0000
  C   C32       1.0  0.59774  0.04959  0.21842  1.0000
  C   C33       1.0  0.96134  0.57349  0.24042  1.0000
  C   C34       1.0  0.56361  0.61123  0.22476  1.0000
  C   C35       1.0  0.39716  0.97207  0.22759  1.0000
  C   C36       1.0  0.03791  0.44969  0.24027  1.0000
  C   C37       1.0  0.40766  0.41165  0.24943  1.0000
  C   C38       1.0  0.59618  0.02066  0.22823  1.0000
  C   C39       1.0  0.98584  0.59985  0.28699  1.0000
  C   C40       1.0  0.58857  0.60979  0.25503  1.0000
  C   C41       1.0  0.39552  0.00004  0.26067  1.0000
  C   C42       1.0  0.00992  0.42151  0.23636  1.0000
  C   C43       1.0  0.79229  0.25878  0.16975  1.0000
  C   C44       1.0  0.75340  0.55147  0.21385  1.0000
  C   C45       1.0  0.45755  0.21865  0.08793  1.0000
  C   C46       1.0  0.21344  0.76241  0.15355  1.0000
  C   C47       1.0  0.24944  0.46321  0.12475  1.0000
  C   C48       1.0  0.54070  0.79855  0.22656  1.0000
  C   C49       1.0  0.81993  0.26304  0.20196  1.0000
  C   C50       1.0  0.74168  0.57353  0.28668  1.0000
  C   C51       1.0  0.43356  0.19266  0.22669  1.0000
  C   C52       1.0  0.17911  0.75304  0.28718  1.0000
  C   C53       1.0  0.25069  0.44018  0.20328  1.0000
  C   C54       1.0  0.56278  0.82880  0.26098  1.0000
  C   C55       1.0  0.82005  0.23644  0.24348  1.0000
  C   C56       1.0  0.76182  0.60085  0.35141  1.0000
  C   C57       1.0  0.40728  0.19493  0.38510  1.0000
  C   C58       1.0  0.17283  0.77401  0.41732  1.0000
  C   C59       1.0  0.21974  0.41299  0.30579  1.0000
  C   C60       1.0  0.59057  0.83309  0.28993  1.0000
  C   C61       1.0  0.79365  0.20618  0.25296  1.0000
  C   C62       1.0  0.79303  0.60691  0.34005  1.0000
  C   C63       1.0  0.40368  0.22145  0.40322  1.0000
  C   C64       1.0  0.19936  0.80382  0.41261  1.0000
  C   C65       1.0  0.18826  0.40825  0.32897  1.0000
  C   C66       1.0  0.59675  0.80833  0.28355  1.0000
  C   C67       1.0  0.76572  0.20195  0.22335  1.0000
  C   C68       1.0  0.80496  0.58500  0.26548  1.0000
  C   C69       1.0  0.42777  0.24749  0.26482  1.0000
  C   C70       1.0  0.23353  0.81312  0.27909  1.0000
  C   C71       1.0  0.18708  0.43134  0.25005  1.0000
  C   C72       1.0  0.57497  0.77816  0.24554  1.0000
  C   C73       1.0  0.76577  0.22866  0.18079  1.0000
  C   C74       1.0  0.78460  0.55748  0.20328  1.0000
  C   C75       1.0  0.45461  0.24563  0.10870  1.0000
  C   C76       1.0  0.24002  0.79209  0.15089  1.0000
  C   C77       1.0  0.21802  0.45869  0.14969  1.0000
  C   C78       1.0  0.54726  0.77398  0.21677  1.0000
  C   C79       1.0  0.84738  0.29448  0.19433  1.0000
  C   C80       1.0  0.71028  0.56861  0.28707  1.0000
  C   C81       1.0  0.43548  0.16387  0.20551  1.0000
  C   C82       1.0  0.15095  0.72324  0.27915  1.0000
  C   C83       1.0  0.28326  0.44513  0.18408  1.0000
  C   C84       1.0  0.55737  0.85504  0.25860  1.0000
  C   C85       1.0  0.73772  0.17074  0.23299  1.0000
  C   C86       1.0  0.83704  0.59046  0.25822  1.0000
  C   C87       1.0  0.42518  0.27593  0.28771  1.0000
  C   C88       1.0  0.26134  0.84352  0.28294  1.0000
  C   C89       1.0  0.15493  0.42739  0.26841  1.0000
  C   C90       1.0  0.58044  0.75165  0.24007  1.0000
  C   C91       1.0  0.15835  0.35922  0.51259  1.0000
  C   C92       1.0  0.64767  0.84206  0.32950  1.0000
  C   C93       1.0  0.16091  0.81777  0.66445  1.0000
  C   C94       1.0  0.80107  0.65460  0.48553  1.0000
  C   C95       1.0  0.35312  0.19834  0.69158  1.0000
  C   C96       1.0  0.82251  0.18332  0.30157  1.0000
  C   C97       1.0  0.27950  0.51354  0.95357  1.0000
  C   C98       1.0  0.48951  0.76451  0.18449  1.0000
  C   C99       1.0  0.25236  0.74993  0.89349  1.0000
  C   C100      1.0  0.74289  0.50175  0.08875  1.0000
  C   C101      1.0  0.50926  0.24220  0.80448  1.0000
  C   C102      1.0  0.76441  0.28198  0.11479  1.0000
  C   C103      1.0  0.41011  0.41794  0.79374  1.0000
  C   C104      1.0  0.56872  0.96665  0.78651  1.0000
  C   C105      1.0  0.02145  0.57916  0.75824  1.0000
  C   C106      1.0  0.59120  0.55821  0.81266  1.0000
  C   C107      1.0  0.43084  0.00611  0.74138  1.0000
  C   C108      1.0  0.98370  0.39791  0.76912  1.0000
  C   C109      1.0  0.43920  0.44465  0.80011  1.0000
  C   C110      1.0  0.54000  0.96577  0.78691  1.0000
  C   C111      1.0  0.02156  0.55078  0.75629  1.0000
  C   C112      1.0  0.56265  0.52944  0.81682  1.0000
  C   C113      1.0  0.45695  0.00353  0.74981  1.0000
  C   C114      1.0  0.98388  0.42649  0.77149  1.0000
  C   C115      1.0  0.46790  0.44305  0.78069  1.0000
  C   C116      1.0  0.54000  0.99362  0.76750  1.0000
  C   C117      1.0  0.99534  0.52248  0.73402  1.0000
  C   C118      1.0  0.53614  0.52881  0.79052  1.0000
  C   C119      1.0  0.45874  0.97553  0.71284  1.0000
  C   C120      1.0  0.01098  0.45518  0.78202  1.0000
  C   C121      1.0  0.49850  0.47007  0.79064  1.0000
  C   C122      1.0  0.51174  0.99485  0.76111  1.0000
  C   C123      1.0  0.99400  0.49218  0.73106  1.0000
  C   C124      1.0  0.50602  0.50043  0.78612  1.0000
  C   C125      1.0  0.48541  0.97196  0.72418  1.0000
  C   C126      1.0  0.01198  0.48532  0.78753  1.0000
  C   C127      1.0  0.46678  0.41378  0.75292  1.0000
  C   C128      1.0  0.56896  0.02260  0.75482  1.0000
  C   C129      1.0  0.96875  0.52300  0.71567  1.0000
  C   C130      1.0  0.53841  0.55750  0.76318  1.0000
  C   C131      1.0  0.43328  0.94998  0.66753  1.0000
  C   C132      1.0  0.03848  0.45494  0.78936  1.0000
  C   C133      1.0  0.43787  0.38662  0.74810  1.0000
  C   C134      1.0  0.59839  0.02468  0.75091  1.0000
  C   C135      1.0  0.96801  0.55108  0.71731  1.0000
  C   C136      1.0  0.56637  0.58663  0.75827  1.0000
  C   C137      1.0  0.40608  0.95164  0.66485  1.0000
  C   C138      1.0  0.03983  0.42714  0.78260  1.0000
  C   C139      1.0  0.40962  0.38890  0.77020  1.0000
  C   C140      1.0  0.59772  0.99629  0.76514  1.0000
  C   C141      1.0  0.99498  0.57881  0.73521  1.0000
  C   C142      1.0  0.59233  0.58621  0.78309  1.0000
  C   C143      1.0  0.40556  0.98006  0.69973  1.0000
  C   C144      1.0  0.01203  0.39883  0.77556  1.0000
  C   C145      1.0  0.79013  0.24084  0.69016  1.0000
  C   C146      1.0  0.76866  0.54099  0.67585  1.0000
  C   C147      1.0  0.45700  0.19278  0.58565  1.0000
  C   C148      1.0  0.21268  0.75110  0.60469  1.0000
  C   C149      1.0  0.26201  0.45605  0.64763  1.0000
  C   C150      1.0  0.54569  0.77337  0.71147  1.0000
  C   C151      1.0  0.81830  0.24535  0.71861  1.0000
  C   C152      1.0  0.75782  0.56365  0.74680  1.0000
  C   C153      1.0  0.43347  0.16686  0.72493  1.0000
  C   C154      1.0  0.17843  0.74153  0.73872  1.0000
  C   C155      1.0  0.26269  0.43333  0.73351  1.0000
  C   C156      1.0  0.56759  0.80346  0.74978  1.0000
  C   C157      1.0  0.81829  0.21852  0.75911  1.0000
  C   C158      1.0  0.77901  0.59146  0.80323  1.0000
  C   C159      1.0  0.40673  0.16851  0.88287  1.0000
  C   C160      1.0  0.17183  0.76247  0.86792  1.0000
  C   C161      1.0  0.23156  0.40597  0.83148  1.0000
  C   C162      1.0  0.59511  0.80729  0.77949  1.0000
  C   C163      1.0  0.79179  0.18831  0.76967  1.0000
  C   C164      1.0  0.81024  0.59691  0.78980  1.0000
  C   C165      1.0  0.40334  0.19523  0.90541  1.0000
  C   C166      1.0  0.19835  0.79218  0.86648  1.0000
  C   C167      1.0  0.20046  0.40147  0.85110  1.0000
  C   C168      1.0  0.60155  0.78256  0.76815  1.0000
  C   C169      1.0  0.76391  0.18379  0.73819  1.0000
  C   C170      1.0  0.82030  0.57364  0.72490  1.0000
  C   C171      1.0  0.42706  0.22135  0.76746  1.0000
  C   C172      1.0  0.23263  0.80176  0.73144  1.0000
  C   C173      1.0  0.19955  0.42467  0.77147  1.0000
  C   C174      1.0  0.57972  0.75265  0.72944  1.0000
  C   C175      1.0  0.76380  0.21051  0.69856  1.0000
  C   C176      1.0  0.79929  0.54606  0.66664  1.0000
  C   C177      1.0  0.45321  0.21928  0.60668  1.0000
  C   C178      1.0  0.23900  0.78103  0.59974  1.0000
  C   C179      1.0  0.23081  0.45145  0.66650  1.0000
  C   C180      1.0  0.55211  0.74869  0.70046  1.0000
  C   C181      1.0  0.84609  0.27679  0.71187  1.0000
  C   C182      1.0  0.72589  0.55804  0.75183  1.0000
  C   C183      1.0  0.43677  0.13880  0.70498  1.0000
  C   C184      1.0  0.15118  0.71090  0.73247  1.0000
  C   C185      1.0  0.29454  0.43788  0.72457  1.0000
  C   C186      1.0  0.56184  0.82973  0.75372  1.0000
  C   C187      1.0  0.73651  0.15212  0.74610  1.0000
  C   C188      1.0  0.85113  0.57687  0.72233  1.0000
  C   C189      1.0  0.42478  0.25002  0.79299  1.0000
  C   C190      1.0  0.26129  0.83143  0.73694  1.0000
  C   C191      1.0  0.16683  0.42031  0.79773  1.0000
  C   C192      1.0  0.58440  0.72583  0.72840  1.0000
  C   C193      1.0  0.16975  0.35035  0.01489  1.0000
  C   C194      1.0  0.65212  0.81550  0.81807  1.0000
  C   C195      1.0  0.15943  0.80511  0.12398  1.0000
  C   C196      1.0  0.82223  0.64686  0.91429  1.0000
  C   C197      1.0  0.35183  0.17116  0.18957  1.0000
  C   C198      1.0  0.81960  0.16535  0.82813  1.0000
  C   C199      1.0  0.29334  0.50513  0.46001  1.0000
  C   C200      1.0  0.49493  0.73946  0.66530  1.0000
  C   C201      1.0  0.25205  0.73763  0.35759  1.0000
  C   C202      1.0  0.76091  0.49467  0.51734  1.0000
  C   C203      1.0  0.50866  0.21695  0.30290  1.0000
  C   C204      1.0  0.76124  0.26368  0.64114  1.0000
  N   N1        1.0  0.28427  0.42683  0.27964  1.0000
  N   N2        1.0  0.57285  0.88133  0.32186  1.0000
  N   N3        1.0  0.11953  0.71230  0.40670  1.0000
  N   N4        1.0  0.69870  0.58802  0.35878  1.0000
  N   N5        1.0  0.41657  0.14177  0.34196  1.0000
  N   N6        1.0  0.86950  0.29907  0.25466  1.0000
  N   N7        1.0  0.56368  0.72573  0.17792  1.0000
  N   N8        1.0  0.29156  0.85615  0.14378  1.0000
  N   N9        1.0  0.15540  0.44855  0.18604  1.0000
  N   N10       1.0  0.44394  0.29860  0.15463  1.0000
  N   N11       1.0  0.71359  0.16744  0.19387  1.0000
  N   N12       1.0  0.84565  0.56866  0.21424  1.0000
  N   N13       1.0  0.29362  0.41766  0.81771  1.0000
  N   N14       1.0  0.57917  0.85659  0.80650  1.0000
  N   N15       1.0  0.12004  0.69826  0.86295  1.0000
  N   N16       1.0  0.71144  0.57472  0.84195  1.0000
  N   N17       1.0  0.41916  0.11718  0.84296  1.0000
  N   N18       1.0  0.87108  0.28037  0.74388  1.0000
  N   N19       1.0  0.56880  0.70035  0.65931  1.0000
  N   N20       1.0  0.29182  0.84231  0.59979  1.0000
  N   N21       1.0  0.16503  0.43919  0.71113  1.0000
  N   N22       1.0  0.44235  0.27195  0.65679  1.0000
  N   N23       1.0  0.71266  0.14689  0.69820  1.0000
  N   N24       1.0  0.85580  0.55270  0.69527  1.0000
  O   O1        1.0  0.15735  0.38162  0.42298  1.0000
  O   O2        1.0  0.62393  0.81122  0.30573  1.0000
  O   O3        1.0  0.19493  0.82656  0.52490  1.0000
  O   O4        1.0  0.81409  0.63365  0.39676  1.0000
  O   O5        1.0  0.37695  0.22394  0.54695  1.0000
  O   O6        1.0  0.79307  0.17935  0.28661  1.0000
  O   O7        1.0  0.28061  0.48958  0.02779  1.0000
  O   O8        1.0  0.51286  0.79533  0.21065  1.0000
  O   O9        1.0  0.21826  0.74049  0.03538  1.0000
  O   O10       1.0  0.73219  0.52481  0.15864  1.0000
  O   O11       1.0  0.48349  0.21551  0.94037  1.0000
  O   O12       1.0  0.79325  0.28588  0.13600  1.0000
  O   O13       1.0  0.16919  0.37498  0.94397  1.0000
  O   O14       1.0  0.62878  0.78509  0.78774  1.0000
  O   O15       1.0  0.19374  0.81402  0.98635  1.0000
  O   O16       1.0  0.83252  0.62366  0.83946  1.0000
  O   O17       1.0  0.37715  0.19794  0.05387  1.0000
  O   O18       1.0  0.79111  0.16130  0.80242  1.0000
  O   O19       1.0  0.29321  0.48235  0.55308  1.0000
  O   O20       1.0  0.51797  0.77023  0.69432  1.0000
  O   O21       1.0  0.21763  0.72868  0.49104  1.0000
  O   O22       1.0  0.74676  0.51404  0.62532  1.0000
  O   O23       1.0  0.48349  0.19028  0.43933  1.0000
  O   O24       1.0  0.79070  0.26762  0.65551  1.0000
  C  Sn1       1.0  0.37131  0.46817  0.21589  1.0000
  C   C205      1.0  0.37398  0.44662  0.29425  1.0000
  C  Sn2       1.0  0.34689  0.41572  0.35297  1.0000
  C  Sn3       1.0  0.31649  0.40615  0.33284  1.0000
  C   C206      1.0  0.31382  0.42769  0.25449  1.0000
  C  Sn4       1.0  0.34091  0.45860  0.19576  1.0000
  O  Te1       1.0  0.39871  0.49894  0.15815  1.0000
  O  Te2       1.0  0.35016  0.39461  0.43096  1.0000
  O  Te3       1.0  0.28907  0.37535  0.39067  1.0000
  O  Te4       1.0  0.33765  0.47970  0.11778  1.0000
  Mg  Mg1       1.0  0.30579  0.35525  0.48849  1.0000
  Mg  Mg2       1.0  0.38201  0.51906  0.06012  1.0000
  C  Sn5       1.0  0.59899  0.96007  0.27558  1.0000
  C   C207      1.0  0.57471  0.96287  0.24695  1.0000
  C  Sn6       1.0  0.54353  0.93625  0.26745  1.0000
  C  Sn7       1.0  0.53646  0.90621  0.31772  1.0000
  C   C208      1.0  0.56073  0.90342  0.34635  1.0000
  C  Sn8       1.0  0.59193  0.93002  0.32585  1.0000
  O  Te5       1.0  0.62999  0.98699  0.25433  1.0000
  O  Te6       1.0  0.51966  0.93964  0.23804  1.0000
  O  Te7       1.0  0.50544  0.87927  0.33895  1.0000
  O  Te8       1.0  0.61578  0.92665  0.35527  1.0000
  Mg  Mg3       1.0  0.48111  0.89597  0.28392  1.0000
  Mg  Mg4       1.0  0.65434  0.97031  0.30952  1.0000
  C  Sn9       1.0  0.05076  0.66839  0.51969  1.0000
  C   C209      1.0  0.08568  0.67761  0.44230  1.0000
  C  Sn10      1.0  0.09941  0.66303  0.29184  1.0000
  C  Sn11      1.0  0.07779  0.63874  0.21706  1.0000
  C   C210      1.0  0.04289  0.62953  0.29441  1.0000
  C  Sn12      1.0  0.02914  0.64409  0.44491  1.0000
  O  Te9       1.0  0.03760  0.68329  0.67007  1.0000
  O  Te10      1.0  0.13439  0.67265  0.21687  1.0000
  O  Te11      1.0  0.09099  0.62383  0.06657  1.0000
  O  Te12      1.0  0.99418  0.63449  0.51984  1.0000
  Mg  Mg5       1.0  0.14027  0.64521  0.01255  1.0000
  Mg  Mg6       1.0  0.98828  0.66192  0.72409  1.0000
  C  Sn13      1.0  0.65421  0.60965  0.43093  1.0000
  C   C211      1.0  0.66246  0.58573  0.40673  1.0000
  C  Sn14      1.0  0.64702  0.55891  0.32381  1.0000
  C  Sn15      1.0  0.62283  0.55594  0.26371  1.0000
  C   C212      1.0  0.61459  0.57984  0.28789  1.0000
  C  Sn16      1.0  0.63002  0.60667  0.37083  1.0000
  O  Te13      1.0  0.66996  0.63625  0.51416  1.0000
  O  Te14      1.0  0.65568  0.53531  0.30117  1.0000
  O  Te15      1.0  0.60707  0.52930  0.18044  1.0000
  O  Te16      1.0  0.62137  0.63026  0.39345  1.0000
  Mg  Mg7       1.0  0.62731  0.50355  0.18006  1.0000
  Mg  Mg8       1.0  0.64973  0.66204  0.51445  1.0000
  C  Sn17      1.0  0.38660  0.06222  0.40772  1.0000
  C   C213      1.0  0.41307  0.05634  0.28436  1.0000
  C  Sn18      1.0  0.44607  0.08126  0.18463  1.0000
  C  Sn19      1.0  0.45274  0.11273  0.20878  1.0000
  C   C214      1.0  0.42628  0.11860  0.33209  1.0000
  C  Sn20      1.0  0.39328  0.09368  0.43186  1.0000
  O  Te17      1.0  0.35381  0.03694  0.50598  1.0000
  O  Te18      1.0  0.47211  0.07479  0.06206  1.0000
  O  Te19      1.0  0.48556  0.13801  0.11038  1.0000
  O  Te20      1.0  0.36724  0.10014  0.55439  1.0000
  Mg  Mg9       1.0  0.43396  0.10101  0.95979  1.0000
  Mg  Mg10      1.0  0.32681  0.05776  0.65680  1.0000
  C  Sn21      1.0  0.90750  0.36481  0.15524  1.0000
  C   C215      1.0  0.90066  0.33481  0.19579  1.0000
  C  Sn22      1.0  0.91825  0.33110  0.27907  1.0000
  C  Sn23      1.0  0.94318  0.35795  0.32285  1.0000
  C   C216      1.0  0.95001  0.38793  0.28233  1.0000
  C  Sn24      1.0  0.93244  0.39166  0.19902  1.0000
  O  Te21      1.0  0.88961  0.36796  0.07197  1.0000
  O  Te22      1.0  0.91097  0.30086  0.31822  1.0000
  O  Te23      1.0  0.96107  0.35478  0.40618  1.0000
  O  Te24      1.0  0.93970  0.42188  0.15990  1.0000
  Mg  Mg11      1.0  0.94210  0.30870  0.43242  1.0000
  Mg  Mg12      1.0  0.90857  0.41406  0.04580  1.0000
  C  Sn25      1.0  0.47354  0.36253  0.13343  1.0000
  C   C217      1.0  0.44686  0.33190  0.20757  1.0000
  C  Sn26      1.0  0.41264  0.32509  0.28957  1.0000
  C  Sn27      1.0  0.40493  0.34940  0.29754  1.0000
  C   C218      1.0  0.43161  0.38000  0.22341  1.0000
  C  Sn28      1.0  0.46583  0.38683  0.14141  1.0000
  O  Te25      1.0  0.50756  0.36880  0.05210  1.0000
  O  Te26      1.0  0.38641  0.29430  0.36280  1.0000
  O  Te27      1.0  0.37088  0.34310  0.37896  1.0000
  O  Te28      1.0  0.49206  0.41761  0.06818  1.0000
  Mg  Mg13      1.0  0.34413  0.29747  0.45935  1.0000
  Mg  Mg14      1.0  0.45576  0.39827  0.97152  1.0000
  C  Sn29      1.0  0.65616  0.08594  0.29657  1.0000
  C   C219      1.0  0.62930  0.08133  0.25926  1.0000
  C  Sn30      1.0  0.63273  0.10547  0.16582  1.0000
  C  Sn31      1.0  0.66366  0.13482  0.10836  1.0000
  C   C220      1.0  0.69050  0.13942  0.14564  1.0000
  C  Sn32      1.0  0.68709  0.11529  0.23911  1.0000
  O  Te29      1.0  0.65217  0.06148  0.39016  1.0000
  O  Te30      1.0  0.60552  0.10031  0.13016  1.0000
  O  Te31      1.0  0.66764  0.15929  0.01471  1.0000
  O  Te32      1.0  0.71429  0.12044  0.27475  1.0000
  Mg  Mg15      1.0  0.54471  0.12467  0.99829  1.0000
  Mg  Mg16      1.0  0.69655  0.07990  0.40651  1.0000
  C  Sn33      1.0  0.90975  0.55061  0.10555  1.0000
  C   C221      1.0  0.93370  0.57347  0.16828  1.0000
  C  Sn34      1.0  0.92717  0.59613  0.27757  1.0000
  C  Sn35      1.0  0.89605  0.59592  0.32527  1.0000
  C   C222      1.0  0.87212  0.57306  0.26258  1.0000
  C  Sn36      1.0  0.87863  0.55039  0.15324  1.0000
  O  Te33      1.0  0.83823  0.51200  0.99645  1.0000
  O  Te34      1.0  0.95150  0.61876  0.33859  1.0000
  O  Te35      1.0  0.88900  0.61837  0.43445  1.0000
  O  Te36      1.0  0.85432  0.52777  0.09226  1.0000
  Mg  Mg17      1.0  0.93013  0.64437  0.48406  1.0000
  Mg  Mg18      1.0  0.79707  0.48596  0.94688  1.0000
  C  Sn37      1.0  0.58783  0.67616  0.27468  1.0000
  C   C223      1.0  0.56545  0.64620  0.24575  1.0000
  C  Sn38      1.0  0.54518  0.64261  0.15775  1.0000
  C  Sn39      1.0  0.54734  0.66954  0.09730  1.0000
  C   C224      1.0  0.56972  0.69948  0.12621  1.0000
  C  Sn40      1.0  0.58999  0.70309  0.21422  1.0000
  O  Te37      1.0  0.60786  0.67919  0.36294  1.0000
  O  Te38      1.0  0.52298  0.61241  0.13044  1.0000
  O  Te39      1.0  0.52729  0.66648  0.00899  1.0000
  O  Te40      1.0  0.61218  0.73327  0.24151  1.0000
  Mg  Mg19      1.0  0.50096  0.62042  0.00341  1.0000
  Mg  Mg20      1.0  0.63423  0.72529  0.36843  1.0000
  C  Sn41      1.0  0.37446  0.91761  0.03816  1.0000
  C   C225      1.0  0.37149  0.94205  0.14272  1.0000
  C  Sn42      1.0  0.33933  0.93746  0.27525  1.0000
  C  Sn43      1.0  0.30952  0.90782  0.30396  1.0000
  C   C226      1.0  0.31251  0.88340  0.19946  1.0000
  C  Sn44      1.0  0.34466  0.88797  0.06687  1.0000
  O  Te41      1.0  0.32828  0.90654  0.90643  1.0000
  O  Te42      1.0  0.33700  0.96225  0.37805  1.0000
  O  Te43      1.0  0.27710  0.90272  0.43582  1.0000
  O  Te44      1.0  0.26841  0.84701  0.96413  1.0000
  Mg  Mg21      1.0  0.28714  0.94374  0.54136  1.0000
  Mg  Mg22      1.0  0.31825  0.86549  0.80087  1.0000
  C  Sn45      1.0  0.08386  0.41622  0.28127  1.0000
  C   C227      1.0  0.11882  0.43757  0.18309  1.0000
  C  Sn46      1.0  0.12947  0.46740  0.11407  1.0000
  C  Sn47      1.0  0.10465  0.47608  0.14387  1.0000
  C   C228      1.0  0.06971  0.45474  0.24202  1.0000
  C  Sn48      1.0  0.05904  0.42490  0.31108  1.0000
  O  Te45      1.0  0.07380  0.38652  0.34903  1.0000
  O  Te46      1.0  0.16456  0.48834  0.01628  1.0000
  O  Te47      1.0  0.11473  0.50581  0.07601  1.0000
  O  Te48      1.0  0.02397  0.40398  0.40883  1.0000
  Mg  Mg23      1.0  0.08692  0.50990  0.95139  1.0000
  Mg  Mg24      1.0  0.02299  0.36623  0.47386  1.0000
  C  Sn49      1.0  0.36576  0.44368  0.66844  1.0000
  C   C229      1.0  0.33086  0.42136  0.75522  1.0000
  C  Sn50      1.0  0.31912  0.39839  0.89159  1.0000
  C  Sn51      1.0  0.34274  0.39772  0.94240  1.0000
  C   C230      1.0  0.37762  0.42003  0.85567  1.0000
  C  Sn52      1.0  0.38939  0.44301  0.71925  1.0000
  O  Te49      1.0  0.37693  0.46643  0.53247  1.0000
  O  Te50      1.0  0.28411  0.37632  0.97634  1.0000
  O  Te51      1.0  0.41013  0.39112  0.07848  1.0000
  O  Te52      1.0  0.42437  0.46507  0.63455  1.0000
  Mg  Mg25      1.0  0.35996  0.36614  0.15393  1.0000
  Mg  Mg26      1.0  0.42713  0.49145  0.45703  1.0000
  C  Sn53      1.0  0.60335  0.93558  0.79042  1.0000
  C   C231      1.0  0.57918  0.93871  0.76260  1.0000
  C  Sn54      1.0  0.54881  0.91210  0.77155  1.0000
  C  Sn55      1.0  0.54246  0.88173  0.80923  1.0000
  C   C232      1.0  0.56662  0.87861  0.83706  1.0000
  C  Sn56      1.0  0.59700  0.90521  0.82810  1.0000
  O  Te53      1.0  0.63352  0.96251  0.78084  1.0000
  O  Te54      1.0  0.52504  0.91582  0.74318  1.0000
  O  Te55      1.0  0.51226  0.85479  0.81879  1.0000
  O  Te56      1.0  0.62076  0.90150  0.85647  1.0000
  Mg  Mg27      1.0  0.48773  0.87200  0.77032  1.0000
  Mg  Mg28      1.0  0.65806  0.94530  0.82947  1.0000
  C  Sn57      1.0  0.08594  0.61818  0.77900  1.0000
  C   C233      1.0  0.05153  0.60781  0.82458  1.0000
  C  Sn58      1.0  0.03939  0.62918  0.86771  1.0000
  C  Sn59      1.0  0.06211  0.66161  0.86513  1.0000
  C   C234      1.0  0.09650  0.67197  0.81954  1.0000
  C  Sn60      1.0  0.10866  0.65061  0.77641  1.0000
  O  Te57      1.0  0.09752  0.59640  0.73634  1.0000
  O  Te58      1.0  0.00488  0.61825  0.91292  1.0000
  O  Te59      1.0  0.05050  0.68339  0.90784  1.0000
  O  Te60      1.0  0.14315  0.66152  0.73120  1.0000
  Mg  Mg29      1.0  0.00129  0.65705  0.96063  1.0000
  Mg  Mg30      1.0  0.14677  0.62275  0.68337  1.0000
  C  Sn61      1.0  0.66114  0.59020  0.94084  1.0000
  C   C235      1.0  0.67330  0.56883  0.89872  1.0000
  C  Sn62      1.0  0.66053  0.54288  0.80314  1.0000
  C  Sn63      1.0  0.63508  0.53819  0.74841  1.0000
  C   C236      1.0  0.62294  0.55955  0.79049  1.0000
  C  Sn64      1.0  0.63570  0.58551  0.88610  1.0000
  O  Te61      1.0  0.75287  0.63216  0.03649  1.0000
  O  Te62      1.0  0.67307  0.52183  0.76266  1.0000
  O  Te63      1.0  0.62195  0.51238  0.65269  1.0000
  O  Te64      1.0  0.62317  0.60655  0.92655  1.0000
  Mg  Mg31      1.0  0.64717  0.49029  0.62960  1.0000
  Mg  Mg32      1.0  0.72765  0.65430  0.05952  1.0000
  C  Sn65      1.0  0.45643  0.08593  0.64893  1.0000
  C   C237      1.0  0.42746  0.08918  0.75812  1.0000
  C  Sn66      1.0  0.39849  0.06534  0.89558  1.0000
  C  Sn67      1.0  0.39847  0.03768  0.92460  1.0000
  C   C238      1.0  0.42742  0.03444  0.81548  1.0000
  C  Sn68      1.0  0.45641  0.05826  0.67795  1.0000
  O  Te65      1.0  0.48511  0.11006  0.51231  1.0000
  O  Te66      1.0  0.44842  0.08532  0.00296  1.0000
  O  Te67      1.0  0.44834  0.02972  0.06135  1.0000
  O  Te68      1.0  0.48505  0.05449  0.57064  1.0000
  Mg  Mg33      1.0  0.41554  0.04586  0.17199  1.0000
  Mg  Mg34      1.0  0.51795  0.09393  0.40164  1.0000
  C  Sn69      1.0  0.91828  0.36314  0.75786  1.0000
  C   C239      1.0  0.94449  0.36715  0.79940  1.0000
  C  Sn70      1.0  0.94940  0.34180  0.80266  1.0000
  C  Sn71      1.0  0.92768  0.31182  0.76348  1.0000
  C   C240      1.0  0.90149  0.30782  0.72195  1.0000
  C  Sn72      1.0  0.89655  0.33315  0.71868  1.0000
  O  Te69      1.0  0.91383  0.38881  0.75538  1.0000
  O  Te70      1.0  0.97577  0.34639  0.84461  1.0000
  O  Te71      1.0  0.93214  0.28614  0.76600  1.0000
  O  Te72      1.0  0.87021  0.32858  0.67673  1.0000
  Mg  Mg35      1.0  0.97161  0.30418  0.83066  1.0000
  Mg  Mg36      1.0  0.87435  0.37078  0.69054  1.0000
  C  Sn73      1.0  0.40344  0.30348  0.80611  1.0000
  C   C241      1.0  0.42915  0.29728  0.67489  1.0000
  C  Sn74      1.0  0.46197  0.32199  0.57018  1.0000
  C  Sn75      1.0  0.46926  0.35357  0.59725  1.0000
  C   C242      1.0  0.44356  0.35976  0.72842  1.0000
  C  Sn76      1.0  0.41073  0.33506  0.83318  1.0000
  O  Te73      1.0  0.37081  0.27841  0.90924  1.0000
  O  Te74      1.0  0.48725  0.31520  0.43978  1.0000
  O  Te75      1.0  0.50192  0.37864  0.49398  1.0000
  O  Te76      1.0  0.38546  0.34183  0.96353  1.0000
  Mg  Mg37      1.0  0.52777  0.35741  0.33316  1.0000
  Mg  Mg38      1.0  0.42353  0.31583  0.07029  1.0000
  C  Sn77      1.0  0.64307  0.09014  0.61703  1.0000
  C   C243      1.0  0.63521  0.06049  0.67230  1.0000
  C  Sn78      1.0  0.65147  0.05777  0.76855  1.0000
  C  Sn79      1.0  0.67608  0.08525  0.81055  1.0000
  C   C244      1.0  0.68393  0.11487  0.75533  1.0000
  C  Sn80      1.0  0.66769  0.11762  0.65903  1.0000
  O  Te77      1.0  0.62650  0.09231  0.52095  1.0000
  O  Te78      1.0  0.64319  0.02787  0.82230  1.0000
  O  Te79      1.0  0.69265  0.08306  0.90671  1.0000
  O  Te80      1.0  0.67595  0.14750  0.60532  1.0000
  Mg  Mg39      1.0  0.67267  0.03711  0.95042  1.0000
  Mg  Mg40      1.0  0.64647  0.13829  0.47729  1.0000
  C  Sn81      1.0  0.88839  0.52177  0.69138  1.0000
  C   C245      1.0  0.88012  0.54587  0.74057  1.0000
  C  Sn82      1.0  0.90412  0.57583  0.75895  1.0000
  C  Sn83      1.0  0.93708  0.58185  0.72739  1.0000
  C   C246      1.0  0.94533  0.55777  0.67820  1.0000
  C  Sn84      1.0  0.92134  0.52779  0.65982  1.0000
  O  Te81      1.0  0.86399  0.49200  0.67379  1.0000
  O  Te82      1.0  0.89526  0.59954  0.80832  1.0000
  O  Te83      1.0  0.96148  0.61166  0.74503  1.0000
  O  Te84      1.0  0.93019  0.50410  0.61045  1.0000
  Mg  Mg41      1.0  0.93729  0.63624  0.81495  1.0000
  Mg  Mg42      1.0  0.88820  0.46739  0.60370  1.0000
  C  Sn85      1.0  0.60519  0.66971  0.64900  1.0000
  C   C247      1.0  0.58218  0.67405  0.61631  1.0000
  C  Sn86      1.0  0.54938  0.64889  0.65042  1.0000
  C  Sn87      1.0  0.53937  0.61877  0.71873  1.0000
  C   C248      1.0  0.56237  0.61445  0.75141  1.0000
  C  Sn88      1.0  0.59518  0.63959  0.71731  1.0000
  O  Te85      1.0  0.63785  0.69519  0.61393  1.0000
  O  Te86      1.0  0.52682  0.65380  0.61662  1.0000
  O  Te87      1.0  0.50668  0.59328  0.75379  1.0000
  O  Te88      1.0  0.61773  0.63469  0.75111  1.0000
  Mg  Mg43      1.0  0.48511  0.61175  0.68603  1.0000
  Mg  Mg44      1.0  0.65943  0.67673  0.68184  1.0000
  C  Sn89      1.0  0.37764  0.90005  0.46263  1.0000
  C   C249      1.0  0.37824  0.92417  0.57927  1.0000
  C  Sn90      1.0  0.34803  0.92055  0.73067  1.0000
  C  Sn91      1.0  0.31658  0.89222  0.76633  1.0000
  C   C250      1.0  0.31599  0.86812  0.64977  1.0000
  C  Sn92      1.0  0.34619  0.87172  0.49830  1.0000
  O  Te89      1.0  0.40815  0.90418  0.31208  1.0000
  O  Te90      1.0  0.34927  0.94501  0.84527  1.0000
  O  Te91      1.0  0.28606  0.88811  0.91703  1.0000
  O  Te92      1.0  0.34496  0.84729  0.38376  1.0000
  Mg  Mg45      1.0  0.37947  0.94437  0.03311  1.0000
  Mg  Mg46      1.0  0.39332  0.86407  0.19595  1.0000
  C  Sn93      1.0  0.09329  0.40057  0.80899  1.0000
  C   C251      1.0  0.12715  0.42449  0.71249  1.0000
  C  Sn94      1.0  0.13391  0.45339  0.65295  1.0000
  C  Sn95      1.0  0.10625  0.45849  0.69075  1.0000
  C   C252      1.0  0.07242  0.43458  0.78721  1.0000
  C  Sn96      1.0  0.06563  0.40567  0.84678  1.0000
  O  Te93      1.0  0.08714  0.37187  0.86720  1.0000
  O  Te94      1.0  0.16797  0.47695  0.55666  1.0000
  O  Te95      1.0  0.11243  0.48722  0.63243  1.0000
  O  Te96      1.0  0.03160  0.38212  0.94304  1.0000
  Mg  Mg47      1.0  0.16323  0.51203  0.50612  1.0000
  Mg  Mg48      1.0  0.03630  0.34704  0.99373  1.0000
