data_image0
_chemical_formula_structural       H168C276S24N24O24C2Sn2C2HTe2HMgC2Sn2C2HTe2HMgC2Sn2C2HTe2HMgC2Sn2C2HTe2HMgC2Sn2C2HTe2HMgC2Sn2C2HTe2HMgC2Sn2C2HTe2HMgC2Sn2C2HTe2HMgC2Sn2C2HTe2HMgC2Sn2C2HTe2HMgC2Sn2C2HTe2HMgC2Sn2C2HTe2HMg
_chemical_formula_sum              "H192 C324 S24 N24 O24 Sn24 Te24 Mg12"
_cell_length_a       48.9469
_cell_length_b       48.9397
_cell_length_c       8.29563
_cell_angle_alpha    88.7054
_cell_angle_beta     89.788
_cell_angle_gamma    119.983

_symmetry_space_group_name_H-M    'P1'
_space_group_IT_number       1

loop_
  _space_group_symop_operation_xyz
  'x, y, z'

loop_
  _atom_site_type_symbol
  _atom_site_label
  _atom_site_symmetry_multiplicity
  _atom_site_fract_x
  _atom_site_fract_y
  _atom_site_fract_z
  _atom_site_occupancy
  H   H1        1.0  0.43685  0.47125  0.33184  1.0000
  H   H2        1.0  0.52630  0.96482  0.31618  1.0000
  H   H3        1.0  0.03406  0.56148  0.32967  1.0000
  H   H4        1.0  0.56179  0.52767  0.32683  1.0000
  H   H5        1.0  0.47087  0.03470  0.31475  1.0000
  H   H6        1.0  0.96498  0.43664  0.31684  1.0000
  H   H7        1.0  0.52014  0.48524  0.26225  1.0000
  H   H8        1.0  0.51435  0.03609  0.28287  1.0000
  H   H9        1.0  0.96409  0.47888  0.26741  1.0000
  H   H10       1.0  0.47865  0.51522  0.30829  1.0000
  H   H11       1.0  0.48313  0.96410  0.26426  1.0000
  H   H12       1.0  0.03602  0.51975  0.28763  1.0000
  H   H13       1.0  0.49564  0.43162  0.22469  1.0000
  H   H14       1.0  0.56848  0.06526  0.24186  1.0000
  H   H15       1.0  0.93518  0.50408  0.23211  1.0000
  H   H16       1.0  0.50352  0.56968  0.25967  1.0000
  H   H17       1.0  0.42913  0.93547  0.23059  1.0000
  H   H18       1.0  0.06494  0.49473  0.23687  1.0000
  H   H19       1.0  0.39536  0.37127  0.27467  1.0000
  H   H20       1.0  0.62706  0.02317  0.27715  1.0000
  H   H21       1.0  0.97562  0.60375  0.29192  1.0000
  H   H22       1.0  0.60419  0.62843  0.27964  1.0000
  H   H23       1.0  0.37023  0.97679  0.28031  1.0000
  H   H24       1.0  0.02287  0.39391  0.27443  1.0000
  H   H25       1.0  0.34361  0.45242  0.50844  1.0000
  H   H26       1.0  0.54600  0.88931  0.49837  1.0000
  H   H27       1.0  0.10887  0.65651  0.49843  1.0000
  H   H28       1.0  0.88907  0.34359  0.50058  1.0000
  H   H29       1.0  0.39607  0.45739  0.48231  1.0000
  H   H30       1.0  0.54031  0.93656  0.47608  1.0000
  H   H31       1.0  0.06182  0.60341  0.48541  1.0000
  H   H32       1.0  0.93712  0.39565  0.47336  1.0000
  H   H33       1.0  0.35668  0.37563  0.18566  1.0000
  H   H34       1.0  0.62150  0.98087  0.15725  1.0000
  H   H35       1.0  0.01791  0.64097  0.17177  1.0000
  H   H36       1.0  0.97938  0.35588  0.17123  1.0000
  H   H37       1.0  0.30411  0.37014  0.21686  1.0000
  H   H38       1.0  0.62759  0.93378  0.18383  1.0000
  H   H39       1.0  0.06477  0.69409  0.18768  1.0000
  H   H40       1.0  0.93184  0.30342  0.20660  1.0000
  H   H41       1.0  0.65471  0.06368  0.08179  1.0000
  H   H42       1.0  0.61157  0.10289  0.38088  1.0000
  H   H43       1.0  0.65954  0.15558  0.35101  1.0000
  H   H44       1.0  0.70257  0.11624  0.05304  1.0000
  H   H45       1.0  0.79545  0.27477  0.13757  1.0000
  H   H46       1.0  0.72541  0.52205  0.14713  1.0000
  H   H47       1.0  0.48027  0.20559  0.13562  1.0000
  H   H48       1.0  0.20515  0.72455  0.16428  1.0000
  H   H49       1.0  0.27503  0.47903  0.14913  1.0000
  H   H50       1.0  0.52056  0.79607  0.14845  1.0000
  H   H51       1.0  0.79608  0.18426  0.41801  1.0000
  H   H52       1.0  0.81436  0.61338  0.40868  1.0000
  H   H53       1.0  0.38842  0.20326  0.40781  1.0000
  H   H54       1.0  0.19935  0.81464  0.39280  1.0000
  H   H55       1.0  0.18446  0.38521  0.41462  1.0000
  H   H56       1.0  0.61281  0.79813  0.40959  1.0000
  H   H57       1.0  0.84896  0.30876  0.31564  1.0000
  H   H58       1.0  0.69022  0.54143  0.32081  1.0000
  H   H59       1.0  0.45883  0.14925  0.29787  1.0000
  H   H60       1.0  0.14695  0.69001  0.29136  1.0000
  H   H61       1.0  0.30935  0.45765  0.30917  1.0000
  H   H62       1.0  0.54159  0.85154  0.29701  1.0000
  H   H63       1.0  0.86222  0.29749  0.14387  1.0000
  H   H64       1.0  0.70260  0.56583  0.14392  1.0000
  H   H65       1.0  0.43263  0.13773  0.13400  1.0000
  H   H66       1.0  0.13713  0.70587  0.12194  1.0000
  H   H67       1.0  0.29626  0.43227  0.14308  1.0000
  H   H68       1.0  0.56775  0.86361  0.12823  1.0000
  H   H69       1.0  0.72931  0.16172  0.41245  1.0000
  H   H70       1.0  0.83928  0.57282  0.40431  1.0000
  H   H71       1.0  0.43566  0.27063  0.41230  1.0000
  H   H72       1.0  0.26791  0.83195  0.43709  1.0000
  H   H73       1.0  0.16435  0.43338  0.42705  1.0000
  H   H74       1.0  0.56595  0.73087  0.42876  1.0000
  H   H75       1.0  0.74224  0.15027  0.24021  1.0000
  H   H76       1.0  0.84881  0.59384  0.21674  1.0000
  H   H77       1.0  0.40971  0.25936  0.24713  1.0000
  H   H78       1.0  0.25811  0.84939  0.27463  1.0000
  H   H79       1.0  0.15014  0.40749  0.26327  1.0000
  H   H80       1.0  0.59160  0.74234  0.25835  1.0000
  H   H81       1.0  0.43739  0.47089  0.82642  1.0000
  H   H82       1.0  0.52861  0.96609  0.81687  1.0000
  H   H83       1.0  0.03566  0.56403  0.81896  1.0000
  H   H84       1.0  0.56244  0.52678  0.82328  1.0000
  H   H85       1.0  0.47244  0.03487  0.81804  1.0000
  H   H86       1.0  0.96659  0.43942  0.82031  1.0000
  H   H87       1.0  0.52049  0.48372  0.76959  1.0000
  H   H88       1.0  0.51646  0.03703  0.78581  1.0000
  H   H89       1.0  0.96605  0.48140  0.75259  1.0000
  H   H90       1.0  0.47939  0.51466  0.78865  1.0000
  H   H91       1.0  0.48606  0.96509  0.76614  1.0000
  H   H92       1.0  0.03771  0.52218  0.78948  1.0000
  H   H93       1.0  0.49539  0.43001  0.72616  1.0000
  H   H94       1.0  0.57096  0.06640  0.74088  1.0000
  H   H95       1.0  0.93684  0.50640  0.72193  1.0000
  H   H96       1.0  0.50458  0.56906  0.74870  1.0000
  H   H97       1.0  0.43228  0.93567  0.73782  1.0000
  H   H98       1.0  0.06664  0.49687  0.73741  1.0000
  H   H99       1.0  0.39494  0.37070  0.77285  1.0000
  H   H100      1.0  0.62937  0.02408  0.77623  1.0000
  H   H101      1.0  0.97696  0.60608  0.77864  1.0000
  H   H102      1.0  0.60493  0.62770  0.78838  1.0000
  H   H103      1.0  0.37194  0.97538  0.78774  1.0000
  H   H104      1.0  0.02383  0.39607  0.77507  1.0000
  H   H105      1.0  0.34397  0.45218  0.00706  1.0000
  H   H106      1.0  0.11031  0.65630  0.99714  1.0000
  H   H107      1.0  0.65583  0.54443  0.00102  1.0000
  H   H108      1.0  0.89031  0.34496  0.00000  1.0000
  H   H109      1.0  0.39642  0.45719  0.97844  1.0000
  H   H110      1.0  0.06252  0.60399  0.97752  1.0000
  H   H111      1.0  0.60332  0.53945  0.98008  1.0000
  H   H112      1.0  0.93770  0.39753  0.97120  1.0000
  H   H113      1.0  0.35658  0.37548  0.68132  1.0000
  H   H114      1.0  0.02044  0.64497  0.67377  1.0000
  H   H115      1.0  0.64303  0.62324  0.67485  1.0000
  H   H116      1.0  0.98137  0.35877  0.67211  1.0000
  H   H117      1.0  0.30400  0.36983  0.71608  1.0000
  H   H118      1.0  0.06771  0.69733  0.69887  1.0000
  H   H119      1.0  0.69568  0.62865  0.70001  1.0000
  H   H120      1.0  0.93418  0.30597  0.70556  1.0000
  H   H121      1.0  0.65810  0.06467  0.58767  1.0000
  H   H122      1.0  0.93784  0.59362  0.56412  1.0000
  H   H123      1.0  0.06393  0.40812  0.58604  1.0000
  H   H124      1.0  0.61304  0.10418  0.87022  1.0000
  H   H125      1.0  0.89829  0.51103  0.87739  1.0000
  H   H126      1.0  0.10404  0.49131  0.87161  1.0000
  H   H127      1.0  0.66079  0.15692  0.84111  1.0000
  H   H128      1.0  0.84536  0.50537  0.84952  1.0000
  H   H129      1.0  0.15644  0.49560  0.84784  1.0000
  H   H130      1.0  0.70591  0.11717  0.56199  1.0000
  H   H131      1.0  0.88491  0.58783  0.53586  1.0000
  H   H132      1.0  0.11617  0.41203  0.56574  1.0000
  H   H133      1.0  0.79653  0.27684  0.64828  1.0000
  H   H134      1.0  0.72574  0.52013  0.64550  1.0000
  H   H135      1.0  0.47840  0.20377  0.64924  1.0000
  H   H136      1.0  0.20663  0.72475  0.65245  1.0000
  H   H137      1.0  0.27518  0.47881  0.64888  1.0000
  H   H138      1.0  0.51986  0.79509  0.64697  1.0000
  H   H139      1.0  0.79871  0.18561  0.91029  1.0000
  H   H140      1.0  0.81548  0.61304  0.89281  1.0000
  H   H141      1.0  0.38523  0.20027  0.91184  1.0000
  H   H142      1.0  0.20294  0.81504  0.89377  1.0000
  H   H143      1.0  0.18515  0.38647  0.92659  1.0000
  H   H144      1.0  0.61311  0.79780  0.89973  1.0000
  H   H145      1.0  0.85063  0.31040  0.82011  1.0000
  H   H146      1.0  0.69090  0.54050  0.80892  1.0000
  H   H147      1.0  0.45721  0.14796  0.81909  1.0000
  H   H148      1.0  0.14830  0.69051  0.77999  1.0000
  H   H149      1.0  0.30981  0.45748  0.81059  1.0000
  H   H150      1.0  0.54137  0.85080  0.79689  1.0000
  H   H151      1.0  0.86349  0.29957  0.64532  1.0000
  H   H152      1.0  0.70370  0.56581  0.63551  1.0000
  H   H153      1.0  0.43388  0.13723  0.64388  1.0000
  H   H154      1.0  0.13770  0.70767  0.61915  1.0000
  H   H155      1.0  0.29591  0.43190  0.64539  1.0000
  H   H156      1.0  0.56655  0.86260  0.62419  1.0000
  H   H157      1.0  0.73124  0.16394  0.91587  1.0000
  H   H158      1.0  0.83590  0.56475  0.91123  1.0000
  H   H159      1.0  0.43173  0.26815  0.91426  1.0000
  H   H160      1.0  0.27025  0.83172  0.93534  1.0000
  H   H161      1.0  0.16418  0.43302  0.92668  1.0000
  H   H162      1.0  0.56525  0.73028  0.92711  1.0000
  H   H163      1.0  0.74419  0.15171  0.74693  1.0000
  H   H164      1.0  0.85037  0.59187  0.74531  1.0000
  H   H165      1.0  0.40654  0.25644  0.74613  1.0000
  H   H166      1.0  0.26124  0.84916  0.76996  1.0000
  H   H167      1.0  0.15044  0.40744  0.76164  1.0000
  H   H168      1.0  0.59130  0.74157  0.75834  1.0000
  C   C1        1.0  0.41239  0.42099  0.30416  1.0000
  C   C2        1.0  0.57694  0.99066  0.29625  1.0000
  C   C3        1.0  0.00824  0.58629  0.30917  1.0000
  C   C4        1.0  0.58665  0.57833  0.30300  1.0000
  C   C5        1.0  0.42034  0.00918  0.29876  1.0000
  C   C6        1.0  0.99046  0.41159  0.29560  1.0000
  C   C7        1.0  0.43943  0.45088  0.30835  1.0000
  C   C8        1.0  0.54711  0.98804  0.29952  1.0000
  C   C9        1.0  0.01104  0.55919  0.31018  1.0000
  C   C10       1.0  0.55945  0.54850  0.30966  1.0000
  C   C11       1.0  0.45014  0.01171  0.29784  1.0000
  C   C12       1.0  0.98805  0.43892  0.29880  1.0000
  C   C13       1.0  0.46971  0.45518  0.28029  1.0000
  C   C14       1.0  0.54360  0.01477  0.28047  1.0000
  C   C15       1.0  0.98484  0.52923  0.28336  1.0000
  C   C16       1.0  0.52923  0.54494  0.29404  1.0000
  C   C17       1.0  0.45382  0.98534  0.27433  1.0000
  C   C18       1.0  0.01472  0.46916  0.27910  1.0000
  C   C19       1.0  0.49842  0.48594  0.28024  1.0000
  C   C20       1.0  0.51303  0.01320  0.27968  1.0000
  C   C21       1.0  0.98675  0.50044  0.27824  1.0000
  C   C22       1.0  0.50036  0.51427  0.29604  1.0000
  C   C23       1.0  0.48438  0.98690  0.27288  1.0000
  C   C24       1.0  0.01319  0.49818  0.28259  1.0000
  C   C25       1.0  0.47237  0.42852  0.24903  1.0000
  C   C26       1.0  0.57092  0.04448  0.25921  1.0000
  C   C27       1.0  0.95543  0.52700  0.25703  1.0000
  C   C28       1.0  0.52679  0.57220  0.27303  1.0000
  C   C29       1.0  0.42663  0.95601  0.25110  1.0000
  C   C30       1.0  0.04422  0.47145  0.25458  1.0000
  C   C31       1.0  0.44582  0.39821  0.24557  1.0000
  C   C32       1.0  0.60109  0.04784  0.25468  1.0000
  C   C33       1.0  0.95174  0.55364  0.25803  1.0000
  C   C34       1.0  0.55362  0.60234  0.26387  1.0000
  C   C35       1.0  0.39643  0.95262  0.25070  1.0000
  C   C36       1.0  0.04747  0.44458  0.24925  1.0000
  C   C37       1.0  0.41597  0.39480  0.27233  1.0000
  C   C38       1.0  0.60374  0.02074  0.27364  1.0000
  C   C39       1.0  0.97834  0.58307  0.28481  1.0000
  C   C40       1.0  0.58336  0.60507  0.27910  1.0000
  C   C41       1.0  0.39362  0.97940  0.27442  1.0000
  C   C42       1.0  0.02040  0.41480  0.27054  1.0000
  C   C43       1.0  0.32037  0.41064  0.36552  1.0000
  C   C44       1.0  0.58775  0.90897  0.34558  1.0000
  C   C45       1.0  0.08953  0.67876  0.34557  1.0000
  C   C46       1.0  0.90765  0.31996  0.35754  1.0000
  C   C47       1.0  0.34644  0.43555  0.43750  1.0000
  C   C48       1.0  0.56269  0.90946  0.42410  1.0000
  C   C49       1.0  0.08890  0.65307  0.42652  1.0000
  C   C50       1.0  0.90893  0.34615  0.42906  1.0000
  C   C51       1.0  0.37623  0.43854  0.42096  1.0000
  C   C52       1.0  0.55925  0.93606  0.40970  1.0000
  C   C53       1.0  0.06238  0.62299  0.41774  1.0000
  C   C54       1.0  0.93602  0.37578  0.41144  1.0000
  C   C55       1.0  0.38069  0.41706  0.33091  1.0000
  C   C56       1.0  0.58057  0.96252  0.31565  1.0000
  C   C57       1.0  0.03610  0.61800  0.32770  1.0000
  C   C58       1.0  0.96214  0.38002  0.31996  1.0000
  C   C59       1.0  0.35398  0.39201  0.26132  1.0000
  C   C60       1.0  0.60550  0.96137  0.23700  1.0000
  C   C61       1.0  0.03729  0.64430  0.24808  1.0000
  C   C62       1.0  0.96023  0.35328  0.24891  1.0000
  C   C63       1.0  0.32420  0.38870  0.27820  1.0000
  C   C64       1.0  0.60915  0.93501  0.25130  1.0000
  C   C65       1.0  0.06357  0.67431  0.25627  1.0000
  C   C66       1.0  0.93350  0.32360  0.26781  1.0000
  C   C67       1.0  0.65572  0.08358  0.14291  1.0000
  C   C68       1.0  0.62949  0.07932  0.23320  1.0000
  C   C69       1.0  0.63108  0.10584  0.30502  1.0000
  C   C70       1.0  0.65789  0.13552  0.28867  1.0000
  C   C71       1.0  0.68379  0.13931  0.19875  1.0000
  C   C72       1.0  0.68267  0.11333  0.12548  1.0000
  C   C73       1.0  0.79602  0.25527  0.19977  1.0000
  C   C74       1.0  0.74461  0.54221  0.20466  1.0000
  C   C75       1.0  0.45999  0.20461  0.19569  1.0000
  C   C76       1.0  0.20337  0.74398  0.21398  1.0000
  C   C77       1.0  0.25554  0.45834  0.20803  1.0000
  C   C78       1.0  0.54098  0.79697  0.20516  1.0000
  C   C79       1.0  0.82338  0.25923  0.27249  1.0000
  C   C80       1.0  0.74009  0.56541  0.27378  1.0000
  C   C81       1.0  0.43591  0.17655  0.26522  1.0000
  C   C82       1.0  0.17445  0.74029  0.26440  1.0000
  C   C83       1.0  0.25939  0.43407  0.27483  1.0000
  C   C84       1.0  0.56500  0.82487  0.26729  1.0000
  C   C85       1.0  0.82276  0.23340  0.34985  1.0000
  C   C86       1.0  0.76548  0.59066  0.34610  1.0000
  C   C87       1.0  0.41051  0.17677  0.33986  1.0000
  C   C88       1.0  0.17362  0.76603  0.32689  1.0000
  C   C89       1.0  0.23348  0.40814  0.34794  1.0000
  C   C90       1.0  0.59056  0.82473  0.33943  1.0000
  C   C91       1.0  0.79547  0.20378  0.35608  1.0000
  C   C92       1.0  0.79518  0.59322  0.35084  1.0000
  C   C93       1.0  0.40870  0.20426  0.34779  1.0000
  C   C94       1.0  0.20102  0.79524  0.34179  1.0000
  C   C95       1.0  0.20398  0.40601  0.35659  1.0000
  C   C96       1.0  0.59250  0.79726  0.35163  1.0000
  C   C97       1.0  0.76810  0.19983  0.28346  1.0000
  C   C98       1.0  0.79975  0.57012  0.28057  1.0000
  C   C99       1.0  0.43283  0.23232  0.27902  1.0000
  C   C100      1.0  0.22997  0.79891  0.29180  1.0000
  C   C101      1.0  0.20022  0.43046  0.29134  1.0000
  C   C102      1.0  0.56850  0.76936  0.28886  1.0000
  C   C103      1.0  0.76868  0.22572  0.20692  1.0000
  C   C104      1.0  0.77434  0.54486  0.20858  1.0000
  C   C105      1.0  0.45819  0.23214  0.20377  1.0000
  C   C106      1.0  0.23070  0.77325  0.22760  1.0000
  C   C107      1.0  0.22610  0.45630  0.21764  1.0000
  C   C108      1.0  0.54303  0.76957  0.21616  1.0000
  C   C109      1.0  0.85329  0.29040  0.26877  1.0000
  C   C110      1.0  0.70891  0.56410  0.26960  1.0000
  C   C111      1.0  0.43603  0.14609  0.25858  1.0000
  C   C112      1.0  0.14415  0.70989  0.24916  1.0000
  C   C113      1.0  0.29032  0.43486  0.26798  1.0000
  C   C114      1.0  0.56448  0.85510  0.25480  1.0000
  C   C115      1.0  0.73813  0.16875  0.28747  1.0000
  C   C116      1.0  0.83120  0.57198  0.27988  1.0000
  C   C117      1.0  0.43252  0.26263  0.28708  1.0000
  C   C118      1.0  0.26052  0.82896  0.31024  1.0000
  C   C119      1.0  0.16959  0.43024  0.30172  1.0000
  C   C120      1.0  0.56888  0.73905  0.30172  1.0000
  C   C121      1.0  0.51759  0.71421  0.15036  1.0000
  C   C122      1.0  0.28680  0.80357  0.16316  1.0000
  C   C123      1.0  0.19616  0.48187  0.14236  1.0000
  C   C124      1.0  0.48406  0.28803  0.13052  1.0000
  C   C125      1.0  0.71359  0.19596  0.13268  1.0000
  C   C126      1.0  0.80469  0.51968  0.13941  1.0000
  C   C127      1.0  0.61594  0.88027  0.40352  1.0000
  C   C128      1.0  0.11748  0.73563  0.39014  1.0000
  C   C129      1.0  0.26363  0.38299  0.42579  1.0000
  C   C130      1.0  0.38472  0.12116  0.41776  1.0000
  C   C131      1.0  0.87768  0.26343  0.42718  1.0000
  C   C132      1.0  0.73509  0.61593  0.41308  1.0000
  C   C133      1.0  0.41245  0.42056  0.80037  1.0000
  C   C134      1.0  0.57922  0.99163  0.79567  1.0000
  C   C135      1.0  0.00978  0.58876  0.79979  1.0000
  C   C136      1.0  0.58735  0.57751  0.80566  1.0000
  C   C137      1.0  0.42190  0.00850  0.80287  1.0000
  C   C138      1.0  0.99170  0.41402  0.79657  1.0000
  C   C139      1.0  0.43971  0.45034  0.80378  1.0000
  C   C140      1.0  0.54950  0.98923  0.79981  1.0000
  C   C141      1.0  0.01263  0.56168  0.79957  1.0000
  C   C142      1.0  0.56014  0.54765  0.80733  1.0000
  C   C143      1.0  0.45196  0.01166  0.80220  1.0000
  C   C144      1.0  0.98952  0.44147  0.80039  1.0000
  C   C145      1.0  0.46990  0.45425  0.77766  1.0000
  C   C146      1.0  0.54605  0.01598  0.78087  1.0000
  C   C147      1.0  0.98654  0.53168  0.77221  1.0000
  C   C148      1.0  0.53000  0.54412  0.78752  1.0000
  C   C149      1.0  0.45616  0.98558  0.77944  1.0000
  C   C150      1.0  0.01634  0.47160  0.77933  1.0000
  C   C151      1.0  0.49886  0.48488  0.77848  1.0000
  C   C152      1.0  0.51543  0.01427  0.78186  1.0000
  C   C153      1.0  0.98855  0.50294  0.76850  1.0000
  C   C154      1.0  0.50106  0.51348  0.78586  1.0000
  C   C155      1.0  0.48695  0.98771  0.77602  1.0000
  C   C156      1.0  0.01491  0.50068  0.78027  1.0000
  C   C157      1.0  0.47221  0.42729  0.74822  1.0000
  C   C158      1.0  0.57338  0.04560  0.75837  1.0000
  C   C159      1.0  0.95713  0.52938  0.74552  1.0000
  C   C160      1.0  0.52771  0.57148  0.76662  1.0000
  C   C161      1.0  0.42930  0.95594  0.75796  1.0000
  C   C162      1.0  0.04578  0.47371  0.75552  1.0000
  C   C163      1.0  0.44540  0.39716  0.74335  1.0000
  C   C164      1.0  0.60351  0.04886  0.75315  1.0000
  C   C165      1.0  0.95345  0.55602  0.74538  1.0000
  C   C166      1.0  0.55448  0.60172  0.76387  1.0000
  C   C167      1.0  0.39888  0.95196  0.75858  1.0000
  C   C168      1.0  0.04876  0.44669  0.75063  1.0000
  C   C169      1.0  0.41571  0.39414  0.76960  1.0000
  C   C170      1.0  0.60608  0.02170  0.77280  1.0000
  C   C171      1.0  0.97992  0.58553  0.77263  1.0000
  C   C172      1.0  0.58413  0.60436  0.78365  1.0000
  C   C173      1.0  0.39551  0.97842  0.78090  1.0000
  C   C174      1.0  0.02155  0.41706  0.77141  1.0000
  C   C175      1.0  0.32047  0.41032  0.86509  1.0000
  C   C176      1.0  0.09187  0.68030  0.85052  1.0000
  C   C177      1.0  0.67932  0.58724  0.85345  1.0000
  C   C178      1.0  0.90945  0.32192  0.85642  1.0000
  C   C179      1.0  0.34670  0.43526  0.93598  1.0000
  C   C180      1.0  0.09055  0.65387  0.92657  1.0000
  C   C181      1.0  0.65311  0.56180  0.92951  1.0000
  C   C182      1.0  0.91029  0.34791  0.92806  1.0000
  C   C183      1.0  0.37648  0.43829  0.91791  1.0000
  C   C184      1.0  0.06361  0.62419  0.91386  1.0000
  C   C185      1.0  0.62329  0.55881  0.91617  1.0000
  C   C186      1.0  0.93706  0.37778  0.91029  1.0000
  C   C187      1.0  0.38081  0.41679  0.82729  1.0000
  C   C188      1.0  0.03766  0.62026  0.82388  1.0000
  C   C189      1.0  0.61896  0.58096  0.82600  1.0000
  C   C190      1.0  0.96344  0.38240  0.81988  1.0000
  C   C191      1.0  0.35398  0.39178  0.75815  1.0000
  C   C192      1.0  0.03948  0.64732  0.75005  1.0000
  C   C193      1.0  0.64573  0.60643  0.75131  1.0000
  C   C194      1.0  0.96199  0.35585  0.74899  1.0000
  C   C195      1.0  0.32417  0.38840  0.77688  1.0000
  C   C196      1.0  0.06610  0.67695  0.76315  1.0000
  C   C197      1.0  0.67552  0.60966  0.76469  1.0000
  C   C198      1.0  0.93548  0.32599  0.76678  1.0000
  C   C199      1.0  0.65860  0.08463  0.64548  1.0000
  C   C200      1.0  0.91774  0.57440  0.62813  1.0000
  C   C201      1.0  0.08398  0.42710  0.64563  1.0000
  C   C202      1.0  0.63185  0.08038  0.73078  1.0000
  C   C203      1.0  0.92197  0.55263  0.72222  1.0000
  C   C204      1.0  0.08005  0.44947  0.73013  1.0000
  C   C205      1.0  0.63291  0.10704  0.79777  1.0000
  C   C206      1.0  0.89533  0.52741  0.79878  1.0000
  C   C207      1.0  0.10676  0.47449  0.79968  1.0000
  C   C208      1.0  0.65961  0.13679  0.78184  1.0000
  C   C209      1.0  0.86552  0.52403  0.78355  1.0000
  C   C210      1.0  0.13630  0.47708  0.78678  1.0000
  C   C211      1.0  0.68606  0.14054  0.69753  1.0000
  C   C212      1.0  0.86167  0.54581  0.68932  1.0000
  C   C213      1.0  0.13977  0.45456  0.70301  1.0000
  C   C214      1.0  0.68553  0.11442  0.62925  1.0000
  C   C215      1.0  0.88779  0.57099  0.61132  1.0000
  C   C216      1.0  0.11358  0.42952  0.63246  1.0000
  C   C217      1.0  0.79749  0.25713  0.70546  1.0000
  C   C218      1.0  0.74497  0.54044  0.70200  1.0000
  C   C219      1.0  0.45785  0.20255  0.70732  1.0000
  C   C220      1.0  0.20531  0.74422  0.70514  1.0000
  C   C221      1.0  0.25577  0.45835  0.70971  1.0000
  C   C222      1.0  0.54042  0.79611  0.70270  1.0000
  C   C223      1.0  0.82515  0.26100  0.77400  1.0000
  C   C224      1.0  0.74079  0.56429  0.76550  1.0000
  C   C225      1.0  0.43380  0.17436  0.77542  1.0000
  C   C226      1.0  0.17668  0.74088  0.75877  1.0000
  C   C227      1.0  0.25972  0.43435  0.77955  1.0000
  C   C228      1.0  0.56471  0.82421  0.76211  1.0000
  C   C229      1.0  0.82503  0.23495  0.84523  1.0000
  C   C230      1.0  0.76650  0.59002  0.83292  1.0000
  C   C231      1.0  0.40809  0.17418  0.84865  1.0000
  C   C232      1.0  0.17650  0.76675  0.82401  1.0000
  C   C233      1.0  0.23396  0.40885  0.85616  1.0000
  C   C234      1.0  0.59062  0.82423  0.83064  1.0000
  C   C235      1.0  0.79782  0.20528  0.85199  1.0000
  C   C236      1.0  0.79610  0.59236  0.83953  1.0000
  C   C237      1.0  0.40583  0.20150  0.85417  1.0000
  C   C238      1.0  0.20419  0.79556  0.84066  1.0000
  C   C239      1.0  0.20447  0.40676  0.86420  1.0000
  C   C240      1.0  0.59261  0.79679  0.84339  1.0000
  C   C241      1.0  0.77012  0.20145  0.78410  1.0000
  C   C242      1.0  0.80013  0.56825  0.77835  1.0000
  C   C243      1.0  0.42989  0.22973  0.78561  1.0000
  C   C244      1.0  0.23280  0.79884  0.78805  1.0000
  C   C245      1.0  0.20050  0.43069  0.79376  1.0000
  C   C246      1.0  0.56825  0.76867  0.78467  1.0000
  C   C247      1.0  0.77037  0.22741  0.71065  1.0000
  C   C248      1.0  0.77447  0.54260  0.70992  1.0000
  C   C249      1.0  0.45571  0.22988  0.71392  1.0000
  C   C250      1.0  0.23299  0.77323  0.71950  1.0000
  C   C251      1.0  0.22629  0.45625  0.71776  1.0000
  C   C252      1.0  0.54247  0.76869  0.71475  1.0000
  C   C253      1.0  0.85495  0.29222  0.77054  1.0000
  C   C254      1.0  0.70977  0.56334  0.76072  1.0000
  C   C255      1.0  0.43489  0.14442  0.76972  1.0000
  C   C256      1.0  0.14585  0.71093  0.74464  1.0000
  C   C257      1.0  0.29045  0.43477  0.77077  1.0000
  C   C258      1.0  0.56407  0.85442  0.75096  1.0000
  C   C259      1.0  0.74009  0.17043  0.79055  1.0000
  C   C260      1.0  0.83089  0.56874  0.78621  1.0000
  C   C261      1.0  0.42924  0.25997  0.78963  1.0000
  C   C262      1.0  0.26340  0.82869  0.80772  1.0000
  C   C263      1.0  0.16973  0.43019  0.80149  1.0000
  C   C264      1.0  0.56849  0.73831  0.79977  1.0000
  C   C265      1.0  0.51684  0.71300  0.65311  1.0000
  C   C266      1.0  0.28927  0.80321  0.65702  1.0000
  C   C267      1.0  0.19634  0.48162  0.63963  1.0000
  C   C268      1.0  0.48139  0.28553  0.63743  1.0000
  C   C269      1.0  0.71556  0.19724  0.63220  1.0000
  C   C270      1.0  0.80479  0.51749  0.63945  1.0000
  C   C271      1.0  0.61566  0.87947  0.89947  1.0000
  C   C272      1.0  0.12081  0.73712  0.89555  1.0000
  C   C273      1.0  0.26385  0.38319  0.93102  1.0000
  C   C274      1.0  0.38229  0.11804  0.91783  1.0000
  C   C275      1.0  0.88021  0.26500  0.91831  1.0000
  C   C276      1.0  0.73601  0.61476  0.90742  1.0000
  S   S1        1.0  0.48609  0.68471  0.07285  1.0000
  S   S2        1.0  0.31676  0.80165  0.08663  1.0000
  S   S3        1.0  0.19860  0.51371  0.05758  1.0000
  S   S4        1.0  0.51642  0.31800  0.05307  1.0000
  S   S5        1.0  0.68426  0.19854  0.05257  1.0000
  S   S6        1.0  0.80239  0.48799  0.06196  1.0000
  S   S7        1.0  0.64780  0.91010  0.47641  1.0000
  S   S8        1.0  0.08725  0.73733  0.46517  1.0000
  S   S9        1.0  0.26150  0.35132  0.51102  1.0000
  S   S10       1.0  0.35266  0.09168  0.50049  1.0000
  S   S11       1.0  0.90682  0.26102  0.51080  1.0000
  S   S12       1.0  0.73733  0.64825  0.48108  1.0000
  S   S13       1.0  0.48476  0.68327  0.58111  1.0000
  S   S14       1.0  0.31916  0.80133  0.57867  1.0000
  S   S15       1.0  0.19857  0.51319  0.55256  1.0000
  S   S16       1.0  0.51368  0.31546  0.55932  1.0000
  S   S17       1.0  0.68661  0.19956  0.54565  1.0000
  S   S18       1.0  0.80251  0.48525  0.56995  1.0000
  S   S19       1.0  0.64668  0.90858  0.98281  1.0000
  S   S20       1.0  0.09167  0.73941  0.98020  1.0000
  S   S21       1.0  0.26141  0.35108  0.01209  1.0000
  S   S22       1.0  0.34975  0.08763  0.99080  1.0000
  S   S23       1.0  0.90977  0.26244  0.99557  1.0000
  S   S24       1.0  0.73814  0.64624  0.98652  1.0000
  N   N1        1.0  0.29033  0.40957  0.36938  1.0000
  N   N2        1.0  0.58935  0.88027  0.35098  1.0000
  N   N3        1.0  0.11811  0.70914  0.34445  1.0000
  N   N4        1.0  0.70870  0.58980  0.35916  1.0000
  N   N5        1.0  0.41103  0.12082  0.36216  1.0000
  N   N6        1.0  0.87853  0.29006  0.36477  1.0000
  N   N7        1.0  0.54365  0.71378  0.20767  1.0000
  N   N8        1.0  0.28623  0.83007  0.20998  1.0000
  N   N9        1.0  0.16946  0.45541  0.19959  1.0000
  N   N10       1.0  0.45762  0.28816  0.18546  1.0000
  N   N11       1.0  0.71286  0.16923  0.19231  1.0000
  N   N12       1.0  0.83080  0.54481  0.20267  1.0000
  N   N13       1.0  0.29050  0.40942  0.87146  1.0000
  N   N14       1.0  0.58949  0.87987  0.84361  1.0000
  N   N15       1.0  0.12090  0.71033  0.84944  1.0000
  N   N16       1.0  0.70947  0.58849  0.85540  1.0000
  N   N17       1.0  0.40869  0.11802  0.86153  1.0000
  N   N18       1.0  0.88054  0.29182  0.86329  1.0000
  N   N19       1.0  0.54337  0.71286  0.70560  1.0000
  N   N20       1.0  0.28930  0.82952  0.71109  1.0000
  N   N21       1.0  0.16973  0.45546  0.69996  1.0000
  N   N22       1.0  0.45467  0.28553  0.68923  1.0000
  N   N23       1.0  0.71496  0.17060  0.69278  1.0000
  N   N24       1.0  0.83145  0.54440  0.68547  1.0000
  O   O1        1.0  0.51818  0.74275  0.15282  1.0000
  O   O2        1.0  0.25862  0.77521  0.17672  1.0000
  O   O3        1.0  0.22423  0.48157  0.15196  1.0000
  O   O4        1.0  0.48321  0.25930  0.13595  1.0000
  O   O5        1.0  0.74223  0.22376  0.13581  1.0000
  O   O6        1.0  0.77714  0.52111  0.13659  1.0000
  O   O7        1.0  0.61563  0.85184  0.39961  1.0000
  O   O8        1.0  0.14557  0.76406  0.37598  1.0000
  O   O9        1.0  0.23544  0.38298  0.41482  1.0000
  O   O10       1.0  0.38541  0.14973  0.40794  1.0000
  O   O11       1.0  0.84907  0.23556  0.42364  1.0000
  O   O12       1.0  0.76278  0.61472  0.41541  1.0000
  O   O13       1.0  0.51728  0.74149  0.65635  1.0000
  O   O14       1.0  0.26067  0.77509  0.66450  1.0000
  O   O15       1.0  0.22437  0.48121  0.64811  1.0000
  O   O16       1.0  0.48093  0.25707  0.64768  1.0000
  O   O17       1.0  0.74378  0.22534  0.64068  1.0000
  O   O18       1.0  0.77662  0.51764  0.64847  1.0000
  O   O19       1.0  0.61588  0.85143  0.88839  1.0000
  O   O20       1.0  0.14872  0.76541  0.87250  1.0000
  O   O21       1.0  0.23602  0.38406  0.92738  1.0000
  O   O22       1.0  0.38341  0.14694  0.91866  1.0000
  O   O23       1.0  0.85182  0.23698  0.91230  1.0000
  O   O24       1.0  0.76420  0.61474  0.89611  1.0000
  C   C277      1.0  0.35238  0.86853  0.81251  1.0000
  C   C278      1.0  0.32347  0.85986  0.74092  1.0000
  C  Sn1       1.0  0.31900  0.88237  0.65701  1.0000
  C  Sn2       1.0  0.34400  0.91411  0.64472  1.0000
  C   C279      1.0  0.37284  0.92254  0.71666  1.0000
  C   C280      1.0  0.37704  0.89983  0.80038  1.0000
  H   H169      1.0  0.35564  0.85096  0.87721  1.0000
  O  Te1       1.0  0.28996  0.87331  0.58625  1.0000
  O  Te2       1.0  0.34018  0.93708  0.56151  1.0000
  H   H170      1.0  0.39944  0.90654  0.85571  1.0000
  Mg  Mg1       1.0  0.29623  0.91317  0.48564  1.0000
  C   C281      1.0  0.10468  0.42393  0.12544  1.0000
  C   C282      1.0  0.13371  0.44807  0.17771  1.0000
  C  Sn3       1.0  0.13521  0.47269  0.26656  1.0000
  C  Sn4       1.0  0.10708  0.47306  0.30362  1.0000
  C   C283      1.0  0.07815  0.44878  0.25087  1.0000
  C   C284      1.0  0.07693  0.42427  0.16199  1.0000
  H   H171      1.0  0.10373  0.40495  0.05675  1.0000
  O  Te3       1.0  0.16441  0.49663  0.31779  1.0000
  O  Te4       1.0  0.10789  0.49737  0.39228  1.0000
  H   H172      1.0  0.05444  0.40557  0.12163  1.0000
  Mg  Mg2       1.0  0.15336  0.52467  0.43522  1.0000
  C   C285      1.0  0.38650  0.05627  0.74601  1.0000
  C   C286      1.0  0.40301  0.08246  0.84252  1.0000
  C  Sn5       1.0  0.42881  0.08609  0.93079  1.0000
  C  Sn6       1.0  0.43821  0.06302  0.92199  1.0000
  C   C287      1.0  0.42155  0.03692  0.82500  1.0000
  C   C288      1.0  0.39576  0.03352  0.73722  1.0000
  H   H173      1.0  0.36655  0.05365  0.67802  1.0000
  O  Te5       1.0  0.44843  0.11791  0.02666  1.0000
  O  Te6       1.0  0.46731  0.07159  0.00891  1.0000
  H   H174      1.0  0.38299  0.01325  0.66243  1.0000
  Mg  Mg3       1.0  0.48191  0.11157  0.12263  1.0000
  C   C289      1.0  0.89622  0.57646  0.13176  1.0000
  C   C290      1.0  0.86658  0.55189  0.18194  1.0000
  C  Sn7       1.0  0.86393  0.52597  0.26992  1.0000
  C  Sn8       1.0  0.89150  0.52469  0.30824  1.0000
  C   C291      1.0  0.92105  0.54940  0.25758  1.0000
  C   C292      1.0  0.92343  0.57522  0.16955  1.0000
  H   H175      1.0  0.89807  0.59645  0.06373  1.0000
  O  Te7       1.0  0.83414  0.50162  0.31906  1.0000
  O  Te8       1.0  0.88953  0.49907  0.39608  1.0000
  H   H176      1.0  0.94638  0.59425  0.13081  1.0000
  Mg  Mg4       1.0  0.84362  0.47168  0.43608  1.0000
  C   C293      1.0  0.61255  0.95822  0.73279  1.0000
  C   C294      1.0  0.58834  0.96304  0.78845  1.0000
  C  Sn9       1.0  0.56362  0.93979  0.88309  1.0000
  C  Sn10      1.0  0.56319  0.91122  0.92257  1.0000
  C   C295      1.0  0.58753  0.90663  0.86639  1.0000
  C   C296      1.0  0.61215  0.93005  0.77173  1.0000
  H   H177      1.0  0.63161  0.97635  0.65962  1.0000
  O  Te9       1.0  0.53961  0.94499  0.93765  1.0000
  O  Te10      1.0  0.54215  0.89312  0.01701  1.0000
  H   H178      1.0  0.63090  0.92632  0.72874  1.0000
  Mg  Mg5       1.0  0.51480  0.91124  0.06273  1.0000
  C   C297      1.0  0.44049  0.08530  0.44222  1.0000
  C   C298      1.0  0.41954  0.09315  0.36930  1.0000
  C  Sn11      1.0  0.39516  0.07133  0.27466  1.0000
  C  Sn12      1.0  0.39174  0.04111  0.25288  1.0000
  C   C299      1.0  0.41281  0.03348  0.32643  1.0000
  C   C300      1.0  0.43713  0.05549  0.42084  1.0000
  H   H179      1.0  0.45930  0.10232  0.51534  1.0000
  O  Te11      1.0  0.37444  0.07956  0.20263  1.0000
  O  Te12      1.0  0.36757  0.01885  0.15896  1.0000
  H   H180      1.0  0.45334  0.04940  0.47737  1.0000
  Mg  Mg6       1.0  0.34527  0.04116  0.08560  1.0000
  C   C301      1.0  0.34931  0.86939  0.30962  1.0000
  C   C302      1.0  0.32033  0.86065  0.23865  1.0000
  C  Sn13      1.0  0.31590  0.88300  0.15286  1.0000
  C  Sn14      1.0  0.34100  0.91466  0.13803  1.0000
  C   C303      1.0  0.36991  0.92316  0.20938  1.0000
  C   C304      1.0  0.37408  0.90061  0.29499  1.0000
  H   H181      1.0  0.35254  0.85194  0.37579  1.0000
  O  Te13      1.0  0.28679  0.87387  0.08275  1.0000
  O  Te14      1.0  0.33723  0.93747  0.05291  1.0000
  H   H182      1.0  0.39653  0.90738  0.34984  1.0000
  Mg  Mg7       1.0  0.28976  0.90799  0.97886  1.0000
  C   C305      1.0  0.51876  0.64913  0.81409  1.0000
  C   C306      1.0  0.53929  0.67839  0.74034  1.0000
  C  Sn15      1.0  0.56620  0.68302  0.65698  1.0000
  C  Sn16      1.0  0.57260  0.65784  0.64746  1.0000
  C   C307      1.0  0.55190  0.62864  0.72156  1.0000
  C   C308      1.0  0.52504  0.62427  0.80471  1.0000
  H   H183      1.0  0.49797  0.64574  0.87835  1.0000
  O  Te15      1.0  0.58648  0.71241  0.58404  1.0000
  O  Te16      1.0  0.59932  0.66182  0.56487  1.0000
  H   H184      1.0  0.50914  0.60161  0.86171  1.0000
  Mg  Mg8       1.0  0.61985  0.70625  0.48530  1.0000
  C   C309      1.0  0.42530  0.33698  0.11233  1.0000
  C   C310      1.0  0.44253  0.36344  0.20614  1.0000
  C  Sn17      1.0  0.46859  0.36700  0.29171  1.0000
  C  Sn18      1.0  0.47752  0.34358  0.28292  1.0000
  C   C311      1.0  0.46015  0.31721  0.18863  1.0000
  C   C312      1.0  0.43410  0.31388  0.10354  1.0000
  H   H185      1.0  0.40516  0.33442  0.04641  1.0000
  O  Te17      1.0  0.48553  0.39358  0.38492  1.0000
  O  Te18      1.0  0.50347  0.34655  0.36717  1.0000
  H   H186      1.0  0.42078  0.29340  0.03083  1.0000
  Mg  Mg9       1.0  0.51909  0.38700  0.47783  1.0000
  C   C313      1.0  0.47963  0.34838  0.79164  1.0000
  C   C314      1.0  0.45935  0.32007  0.71740  1.0000
  C  Sn19      1.0  0.43343  0.31694  0.63195  1.0000
  C  Sn20      1.0  0.42779  0.34267  0.62081  1.0000
  C   C315      1.0  0.44824  0.37090  0.69542  1.0000
  C   C316      1.0  0.47409  0.37378  0.78066  1.0000
  H   H187      1.0  0.49965  0.35061  0.85753  1.0000
  O  Te19      1.0  0.41339  0.28849  0.55855  1.0000
  O  Te20      1.0  0.40208  0.34019  0.53611  1.0000
  H   H188      1.0  0.48981  0.39570  0.83804  1.0000
  Mg  Mg10      1.0  0.38149  0.29660  0.45671  1.0000
  C   C317      1.0  0.64422  0.55987  0.44844  1.0000
  C   C318      1.0  0.67238  0.58065  0.36688  1.0000
  C  Sn21      1.0  0.67388  0.60425  0.26295  1.0000
  C  Sn22      1.0  0.64664  0.60704  0.24053  1.0000
  C   C319      1.0  0.61859  0.58615  0.32277  1.0000
  C   C320      1.0  0.61735  0.56262  0.42645  1.0000
  H   H189      1.0  0.64326  0.54168  0.52873  1.0000
  O  Te21      1.0  0.70220  0.62480  0.18236  1.0000
  O  Te22      1.0  0.64749  0.63041  0.13741  1.0000
  H   H190      1.0  0.59554  0.54655  0.48966  1.0000
  Mg  Mg11      1.0  0.69157  0.65279  0.05451  1.0000
  C   C321      1.0  0.52203  0.63678  0.33572  1.0000
  C   C322      1.0  0.54278  0.62959  0.25626  1.0000
  C  Sn23      1.0  0.56645  0.65200  0.15354  1.0000
  C  Sn24      1.0  0.56935  0.68216  0.13021  1.0000
  C   C323      1.0  0.54848  0.68913  0.21035  1.0000
  C   C324      1.0  0.52488  0.66652  0.31283  1.0000
  H   H191      1.0  0.50377  0.61930  0.41508  1.0000
  O  Te23      1.0  0.58698  0.64443  0.07504  1.0000
  O  Te24      1.0  0.59280  0.70500  0.02826  1.0000
  H   H192      1.0  0.50883  0.67210  0.37442  1.0000
  Mg  Mg12      1.0  0.61172  0.67795  0.94815  1.0000
