data_image0
_chemical_formula_structural       H72C120N12SnCSn2CSnTe4Mg2SnCSn2CSnTe4Mg2SnCSn2CSnTe4Mg2SnCSn2CSnTe4Mg2SnCSn2CSnTe4Mg2SnCSn2CSnTe4Mg2SnCSn2CSnTe4Mg2SnCSn2CSnTe4Mg2SnCSn2CSnTe4Mg2SnCSn2CSnTe4Mg2SnCSn2CSnTe4Mg2SnCSn2CSnTe4Mg2
_chemical_formula_sum              "H72 C144 N12 Sn48 Te48 Mg24"
_cell_length_a       25.9975
_cell_length_b       26.0445
_cell_length_c       10.3677
_cell_angle_alpha    90.4322
_cell_angle_beta     90.1029
_cell_angle_gamma    120.218

_symmetry_space_group_name_H-M    'P1'
_space_group_IT_number       1

loop_
  _space_group_symop_operation_xyz
  'x, y, z'

loop_
  _atom_site_type_symbol
  _atom_site_label
  _atom_site_symmetry_multiplicity
  _atom_site_fract_x
  _atom_site_fract_y
  _atom_site_fract_z
  _atom_site_occupancy
  H   H1        1.0  0.03294  0.89409  0.14530  1.0000
  H   H2        1.0  0.86883  0.96986  0.15887  1.0000
  H   H3        1.0  0.96822  0.10319  0.15936  1.0000
  H   H4        1.0  0.89530  0.86425  0.14626  1.0000
  H   H5        1.0  0.09346  0.84455  0.14621  1.0000
  H   H6        1.0  0.75840  0.90775  0.17570  1.0000
  H   H7        1.0  0.90956  0.15480  0.17072  1.0000
  H   H8        1.0  0.84562  0.75378  0.14667  1.0000
  H   H9        1.0  0.75031  0.81179  0.31276  1.0000
  H   H10       1.0  0.23996  0.17888  0.30628  1.0000
  H   H11       1.0  0.85981  0.87277  0.30793  1.0000
  H   H12       1.0  0.13027  0.11804  0.30537  1.0000
  H   H13       1.0  0.19567  0.85673  0.39697  1.0000
  H   H14       1.0  0.13319  0.33543  0.39342  1.0000
  H   H15       1.0  0.65610  0.78896  0.40043  1.0000
  H   H16       1.0  0.80223  0.14224  0.39618  1.0000
  H   H17       1.0  0.85376  0.65709  0.37337  1.0000
  H   H18       1.0  0.33582  0.20206  0.39249  1.0000
  H   H19       1.0  0.61746  0.39191  0.06317  1.0000
  H   H20       1.0  0.61602  0.22661  0.09417  1.0000
  H   H21       1.0  0.78234  0.39220  0.10319  1.0000
  H   H22       1.0  0.38702  0.61240  0.09120  1.0000
  H   H23       1.0  0.39417  0.78116  0.08320  1.0000
  H   H24       1.0  0.22545  0.61880  0.05957  1.0000
  H   H25       1.0  0.42194  0.16424  0.23092  1.0000
  H   H26       1.0  0.84665  0.26237  0.25137  1.0000
  H   H27       1.0  0.58536  0.85305  0.22654  1.0000
  H   H28       1.0  0.15823  0.74224  0.21127  1.0000
  H   H29       1.0  0.53310  0.21736  0.23648  1.0000
  H   H30       1.0  0.79342  0.31952  0.25910  1.0000
  H   H31       1.0  0.47436  0.80053  0.22469  1.0000
  H   H32       1.0  0.20986  0.68338  0.21142  1.0000
  H   H33       1.0  0.78094  0.46093  0.40578  1.0000
  H   H34       1.0  0.46041  0.66543  0.44673  1.0000
  H   H35       1.0  0.83808  0.57048  0.39538  1.0000
  H   H36       1.0  0.56991  0.71668  0.44057  1.0000
  H   H37       1.0  0.85779  0.96548  0.65034  1.0000
  H   H38       1.0  0.13643  0.02869  0.64556  1.0000
  H   H39       1.0  0.74773  0.90234  0.65938  1.0000
  H   H40       1.0  0.24682  0.09122  0.65040  1.0000
  H   H41       1.0  0.18177  0.93827  0.80214  1.0000
  H   H42       1.0  0.75377  0.82596  0.81039  1.0000
  H   H43       1.0  0.82906  0.07677  0.80433  1.0000
  H   H44       1.0  0.93658  0.75895  0.79707  1.0000
  H   H45       1.0  0.12354  0.98948  0.80552  1.0000
  H   H46       1.0  0.86351  0.88579  0.79817  1.0000
  H   H47       1.0  0.88566  0.02376  0.79731  1.0000
  H   H48       1.0  0.98780  0.86891  0.80077  1.0000
  H   H49       1.0  0.19968  0.86115  0.88150  1.0000
  H   H50       1.0  0.14588  0.34109  0.87261  1.0000
  H   H51       1.0  0.66207  0.79997  0.91053  1.0000
  H   H52       1.0  0.81094  0.15091  0.89734  1.0000
  H   H53       1.0  0.86338  0.66377  0.88167  1.0000
  H   H54       1.0  0.34195  0.20046  0.88497  1.0000
  H   H55       1.0  0.61038  0.38559  0.58126  1.0000
  H   H56       1.0  0.60797  0.21918  0.58807  1.0000
  H   H57       1.0  0.77483  0.38404  0.57334  1.0000
  H   H58       1.0  0.38148  0.60662  0.58329  1.0000
  H   H59       1.0  0.38476  0.77332  0.59303  1.0000
  H   H60       1.0  0.21737  0.60909  0.59375  1.0000
  H   H61       1.0  0.74732  0.58114  0.73223  1.0000
  H   H62       1.0  0.57960  0.84467  0.71875  1.0000
  H   H63       1.0  0.68781  0.47029  0.73980  1.0000
  H   H64       1.0  0.46887  0.79347  0.72319  1.0000
  H   H65       1.0  0.53801  0.32109  0.91082  1.0000
  H   H66       1.0  0.68322  0.21526  0.94048  1.0000
  H   H67       1.0  0.47056  0.66857  0.96694  1.0000
  H   H68       1.0  0.33541  0.80375  0.93596  1.0000
  H   H69       1.0  0.42863  0.26949  0.90612  1.0000
  H   H70       1.0  0.73497  0.15790  0.93411  1.0000
  H   H71       1.0  0.58017  0.72006  0.96982  1.0000
  H   H72       1.0  0.28369  0.86189  0.93530  1.0000
  C   C1        1.0  0.86701  0.92372  0.47875  1.0000
  C   C2        1.0  0.12530  0.06884  0.47526  1.0000
  C   C3        1.0  0.06616  0.90440  0.07127  1.0000
  C   C4        1.0  0.84313  0.93771  0.08369  1.0000
  C   C5        1.0  0.93752  0.09763  0.08221  1.0000
  C   C6        1.0  0.90449  0.84110  0.07032  1.0000
  C   C7        1.0  0.09973  0.87653  0.07219  1.0000
  C   C8        1.0  0.78167  0.90337  0.09308  1.0000
  C   C9        1.0  0.90498  0.12645  0.08878  1.0000
  C   C10       1.0  0.87647  0.77960  0.07080  1.0000
  C   C11       1.0  0.74130  0.85246  0.48733  1.0000
  C   C12       1.0  0.25108  0.13943  0.47943  1.0000
  C   C13       1.0  0.77381  0.84496  0.38806  1.0000
  C   C14       1.0  0.21747  0.14643  0.38193  1.0000
  C   C15       1.0  0.83558  0.87967  0.38481  1.0000
  C   C16       1.0  0.15563  0.11191  0.38082  1.0000
  C   C17       1.0  0.17108  0.85281  0.48615  1.0000
  C   C18       1.0  0.13905  0.31527  0.48105  1.0000
  C   C19       1.0  0.67640  0.81645  0.48737  1.0000
  C   C20       1.0  0.82516  0.14409  0.48690  1.0000
  C   C21       1.0  0.85220  0.67703  0.46612  1.0000
  C   C22       1.0  0.31594  0.17526  0.47925  1.0000
  C   C23       1.0  0.05914  0.03163  0.47437  1.0000
  C   C24       1.0  0.96096  0.02376  0.47591  1.0000
  C   C25       1.0  0.96840  0.93352  0.47411  1.0000
  C   C26       1.0  0.93315  0.96095  0.47560  1.0000
  C   C27       1.0  0.03132  0.96885  0.47424  1.0000
  C   C28       1.0  0.02392  0.05904  0.47479  1.0000
  C   C29       1.0  0.41729  0.21227  0.06815  1.0000
  C   C30       1.0  0.79633  0.20762  0.09006  1.0000
  C   C31       1.0  0.59075  0.79197  0.09499  1.0000
  C   C32       1.0  0.21555  0.80412  0.06963  1.0000
  C   C33       1.0  0.44800  0.19833  0.16070  1.0000
  C   C34       1.0  0.81128  0.25298  0.18258  1.0000
  C   C35       1.0  0.55956  0.81288  0.16909  1.0000
  C   C36       1.0  0.19639  0.75439  0.14960  1.0000
  C   C37       1.0  0.50993  0.22772  0.16278  1.0000
  C   C38       1.0  0.78159  0.28505  0.18607  1.0000
  C   C39       1.0  0.49760  0.78361  0.16683  1.0000
  C   C40       1.0  0.22520  0.72161  0.14872  1.0000
  C   C41       1.0  0.54341  0.27294  0.07418  1.0000
  C   C42       1.0  0.73504  0.27207  0.09886  1.0000
  C   C43       1.0  0.46430  0.73134  0.09323  1.0000
  C   C44       1.0  0.27555  0.73861  0.07125  1.0000
  C   C45       1.0  0.77341  0.48720  0.47738  1.0000
  C   C46       1.0  0.48648  0.70469  0.50680  1.0000
  C   C47       1.0  0.80535  0.54895  0.47109  1.0000
  C   C48       1.0  0.54834  0.73392  0.50280  1.0000
  C   C49       1.0  0.60916  0.30555  0.08006  1.0000
  C   C50       1.0  0.70295  0.30562  0.09798  1.0000
  C   C51       1.0  0.70361  0.39967  0.08321  1.0000
  C   C52       1.0  0.39856  0.70050  0.08715  1.0000
  C   C53       1.0  0.30640  0.70394  0.07242  1.0000
  C   C54       1.0  0.30242  0.60815  0.07386  1.0000
  C   C55       1.0  0.64125  0.36778  0.07464  1.0000
  C   C56       1.0  0.64051  0.27495  0.09152  1.0000
  C   C57       1.0  0.73399  0.36804  0.09616  1.0000
  C   C58       1.0  0.36470  0.63817  0.08476  1.0000
  C   C59       1.0  0.36871  0.73282  0.08096  1.0000
  C   C60       1.0  0.27375  0.64155  0.06749  1.0000
  C   C61       1.0  0.07420  0.94590  0.97580  1.0000
  C   C62       1.0  0.87384  0.93180  0.97836  1.0000
  C   C63       1.0  0.93151  0.06035  0.97751  1.0000
  C   C64       1.0  0.94499  0.87442  0.97297  1.0000
  C   C65       1.0  0.83418  0.93147  0.57704  1.0000
  C   C66       1.0  0.15927  0.06192  0.57202  1.0000
  C   C67       1.0  0.77265  0.89644  0.58227  1.0000
  C   C68       1.0  0.22081  0.09650  0.57493  1.0000
  C   C69       1.0  0.14222  0.88854  0.97559  1.0000
  C   C70       1.0  0.74836  0.86199  0.99496  1.0000
  C   C71       1.0  0.86546  0.11960  0.98820  1.0000
  C   C72       1.0  0.88753  0.74896  0.97225  1.0000
  C   C73       1.0  0.14982  0.92920  0.87880  1.0000
  C   C74       1.0  0.77890  0.85667  0.88849  1.0000
  C   C75       1.0  0.85908  0.08216  0.88335  1.0000
  C   C76       1.0  0.92787  0.78197  0.87453  1.0000
  C   C77       1.0  0.11679  0.95780  0.88025  1.0000
  C   C78       1.0  0.84068  0.89060  0.88101  1.0000
  C   C79       1.0  0.89107  0.05242  0.87910  1.0000
  C   C80       1.0  0.95638  0.84373  0.87598  1.0000
  C   C81       1.0  0.17775  0.85942  0.97339  1.0000
  C   C82       1.0  0.14723  0.32209  0.96615  1.0000
  C   C83       1.0  0.68346  0.82595  0.99882  1.0000
  C   C84       1.0  0.83218  0.15108  0.98950  1.0000
  C   C85       1.0  0.85767  0.68420  0.96977  1.0000
  C   C86       1.0  0.32280  0.17793  0.97665  1.0000
  C   C87       1.0  0.06580  0.03824  0.97357  1.0000
  C   C88       1.0  0.96797  0.03090  0.97318  1.0000
  C   C89       1.0  0.97480  0.94045  0.97334  1.0000
  C   C90       1.0  0.93998  0.96825  0.97348  1.0000
  C   C91       1.0  0.03776  0.97540  0.97446  1.0000
  C   C92       1.0  0.03084  0.06590  0.97246  1.0000
  C   C93       1.0  0.79542  0.58347  0.56226  1.0000
  C   C94       1.0  0.58280  0.78552  0.57831  1.0000
  C   C95       1.0  0.75323  0.55410  0.65984  1.0000
  C   C96       1.0  0.55283  0.80570  0.65856  1.0000
  C   C97       1.0  0.72021  0.49231  0.66367  1.0000
  C   C98       1.0  0.49095  0.77703  0.66020  1.0000
  C   C99       1.0  0.73005  0.45786  0.57286  1.0000
  C   C100      1.0  0.45649  0.72571  0.58466  1.0000
  C   C101      1.0  0.51276  0.28719  0.98214  1.0000
  C   C102      1.0  0.71883  0.22539  0.00928  1.0000
  C   C103      1.0  0.49556  0.70896  0.02434  1.0000
  C   C104      1.0  0.29636  0.79001  0.99591  1.0000
  C   C105      1.0  0.45086  0.25746  0.97875  1.0000
  C   C106      1.0  0.74874  0.19369  0.00449  1.0000
  C   C107      1.0  0.55749  0.73848  0.02467  1.0000
  C   C108      1.0  0.26692  0.82232  0.99431  1.0000
  C   C109      1.0  0.60159  0.29860  0.58409  1.0000
  C   C110      1.0  0.69520  0.29779  0.58336  1.0000
  C   C111      1.0  0.69639  0.39218  0.57824  1.0000
  C   C112      1.0  0.39075  0.69373  0.58832  1.0000
  C   C113      1.0  0.29733  0.69505  0.59338  1.0000
  C   C114      1.0  0.29558  0.60024  0.58904  1.0000
  C   C115      1.0  0.63402  0.36100  0.58164  1.0000
  C   C116      1.0  0.63271  0.26753  0.58590  1.0000
  C   C117      1.0  0.72647  0.36012  0.57833  1.0000
  C   C118      1.0  0.35804  0.63138  0.58686  1.0000
  C   C119      1.0  0.35980  0.72498  0.59232  1.0000
  C   C120      1.0  0.26578  0.63265  0.59268  1.0000
  N   N1        1.0  0.18159  0.83223  0.07354  1.0000
  N   N2        1.0  0.17498  0.35428  0.06608  1.0000
  N   N3        1.0  0.65324  0.82617  0.09773  1.0000
  N   N4        1.0  0.82935  0.17834  0.09190  1.0000
  N   N5        1.0  0.82547  0.65326  0.06559  1.0000
  N   N6        1.0  0.35480  0.17979  0.07428  1.0000
  N   N7        1.0  0.17084  0.82206  0.58396  1.0000
  N   N8        1.0  0.17111  0.34654  0.57817  1.0000
  N   N9        1.0  0.64530  0.81895  0.58191  1.0000
  N   N10       1.0  0.82368  0.17307  0.58746  1.0000
  N   N11       1.0  0.82493  0.64585  0.56616  1.0000
  N   N12       1.0  0.34727  0.17360  0.57452  1.0000
  C  Sn1       1.0  0.09205  0.17866  0.10068  1.0000
  C   C121      1.0  0.05496  0.13833  0.00625  1.0000
  C  Sn2       1.0  0.05528  0.16241  0.88268  1.0000
  C  Sn3       1.0  0.09043  0.22357  0.85283  1.0000
  C   C122      1.0  0.12750  0.26387  0.94721  1.0000
  C  Sn4       1.0  0.12720  0.23983  0.07082  1.0000
  O  Te1       1.0  0.09401  0.15810  0.22357  1.0000
  O  Te2       1.0  0.01785  0.12125  0.78990  1.0000
  O  Te3       1.0  0.08844  0.24411  0.72982  1.0000
  O  Te4       1.0  0.16461  0.28095  0.16356  1.0000
  Mg  Mg1       1.0  0.03061  0.17090  0.63628  1.0000
  Mg  Mg2       1.0  0.15191  0.23135  0.31718  1.0000
  C  Sn5       1.0  0.28889  0.48910  0.62755  1.0000
  C   C123      1.0  0.27406  0.52808  0.56877  1.0000
  C  Sn6       1.0  0.21669  0.50725  0.52021  1.0000
  C  Sn7       1.0  0.17321  0.44620  0.53068  1.0000
  C   C124      1.0  0.18805  0.40726  0.58945  1.0000
  C  Sn8       1.0  0.24542  0.42805  0.63802  1.0000
  O  Te5       1.0  0.34652  0.51090  0.67542  1.0000
  O  Te6       1.0  0.20292  0.54707  0.46180  1.0000
  O  Te7       1.0  0.11555  0.42443  0.48274  1.0000
  O  Te8       1.0  0.25919  0.38827  0.69641  1.0000
  Mg  Mg3       1.0  0.11831  0.49606  0.41144  1.0000
  Mg  Mg4       1.0  0.34377  0.43924  0.74686  1.0000
  C  Sn9       1.0  0.45701  0.25477  0.46144  1.0000
  C   C125      1.0  0.41634  0.20697  0.53572  1.0000
  C  Sn10      1.0  0.43524  0.19082  0.64651  1.0000
  C  Sn11      1.0  0.49606  0.22314  0.68391  1.0000
  C   C126      1.0  0.53668  0.27091  0.60967  1.0000
  C  Sn12      1.0  0.51782  0.28709  0.49884  1.0000
  O  Te9       1.0  0.43712  0.27013  0.35105  1.0000
  O  Te10      1.0  0.39376  0.14285  0.71919  1.0000
  O  Te11      1.0  0.51592  0.20773  0.79440  1.0000
  O  Te12      1.0  0.55926  0.33502  0.42620  1.0000
  Mg  Mg5       1.0  0.44249  0.13904  0.86171  1.0000
  Mg  Mg6       1.0  0.51058  0.33889  0.28371  1.0000
  C  Sn13      1.0  0.07332  0.86349  0.56993  1.0000
  C   C127      1.0  0.11759  0.86973  0.48450  1.0000
  C  Sn14      1.0  0.14218  0.91663  0.39728  1.0000
  C  Sn15      1.0  0.12213  0.95819  0.39545  1.0000
  C   C128      1.0  0.07789  0.95194  0.48086  1.0000
  C  Sn16      1.0  0.05327  0.90505  0.56811  1.0000
  O  Te13      1.0  0.04937  0.81626  0.65631  1.0000
  O  Te14      1.0  0.18637  0.92194  0.31277  1.0000
  O  Te15      1.0  0.64191  0.00544  0.30898  1.0000
  O  Te16      1.0  0.00912  0.89974  0.65259  1.0000
  Mg  Mg7       1.0  0.20529  0.99381  0.21302  1.0000
  Mg  Mg8       1.0  0.99019  0.82790  0.75242  1.0000
  C  Sn17      1.0  0.21116  0.15755  0.89145  1.0000
  C   C129      1.0  0.25057  0.15567  0.98052  1.0000
  C  Sn18      1.0  0.22788  0.10400  0.06652  1.0000
  C  Sn19      1.0  0.16752  0.05772  0.06340  1.0000
  C   C130      1.0  0.13113  0.06411  0.97436  1.0000
  C  Sn20      1.0  0.15079  0.11127  0.88833  1.0000
  O  Te17      1.0  0.23183  0.20513  0.80637  1.0000
  O  Te18      1.0  0.26812  0.10311  0.15472  1.0000
  O  Te19      1.0  0.14687  0.01012  0.14858  1.0000
  O  Te20      1.0  0.11060  0.11217  0.80016  1.0000
  Mg  Mg9       1.0  0.21868  0.02882  0.25087  1.0000
  Mg  Mg10      1.0  0.15999  0.18642  0.70392  1.0000
  C  Sn21      1.0  0.04739  0.20306  0.39701  1.0000
  C   C131      1.0  0.09071  0.24306  0.48318  1.0000
  C  Sn22      1.0  0.12092  0.22438  0.56438  1.0000
  C  Sn23      1.0  0.10760  0.16447  0.55929  1.0000
  C   C132      1.0  0.06431  0.12451  0.47315  1.0000
  C  Sn24      1.0  0.03406  0.14316  0.39192  1.0000
  O  Te21      1.0  0.01773  0.22272  0.31673  1.0000
  O  Te22      1.0  0.16404  0.26517  0.64975  1.0000
  O  Te23      1.0  0.13729  0.14484  0.63967  1.0000
  O  Te24      1.0  0.99098  0.10240  0.30657  1.0000
  Mg  Mg11      1.0  0.19236  0.21710  0.73956  1.0000
  Mg  Mg12      1.0  0.96265  0.15042  0.21668  1.0000
  C  Sn25      1.0  0.80722  0.51014  0.02491  1.0000
  C   C133      1.0  0.75526  0.47304  0.09276  1.0000
  C  Sn26      1.0  0.71985  0.49498  0.14108  1.0000
  C  Sn27      1.0  0.73671  0.55525  0.12111  1.0000
  C   C134      1.0  0.78864  0.59231  0.05328  1.0000
  C  Sn28      1.0  0.82408  0.57041  0.00494  1.0000
  O  Te25      1.0  0.84492  0.49176  0.97746  1.0000
  O  Te26      1.0  0.66811  0.45704  0.20864  1.0000
  O  Te27      1.0  0.70194  0.57811  0.16863  1.0000
  O  Te28      1.0  0.87877  0.61282  0.93739  1.0000
  Mg  Mg13      1.0  0.63550  0.50897  0.25447  1.0000
  Mg  Mg14      1.0  0.91140  0.56093  0.89147  1.0000
  C  Sn29      1.0  0.93288  0.82400  0.34599  1.0000
  C   C135      1.0  0.92926  0.86054  0.44061  1.0000
  C  Sn30      1.0  0.90455  0.83749  0.56078  1.0000
  C  Sn31      1.0  0.88305  0.77666  0.58698  1.0000
  C   C136      1.0  0.88669  0.74017  0.49241  1.0000
  C  Sn32      1.0  0.91138  0.76318  0.37219  1.0000
  O  Te29      1.0  0.95776  0.84800  0.22654  1.0000
  O  Te30      1.0  0.90139  0.87488  0.65383  1.0000
  O  Te31      1.0  0.85816  0.75269  0.70655  1.0000
  O  Te32      1.0  0.91456  0.72582  0.27919  1.0000
  Mg  Mg15      1.0  0.86373  0.82145  0.80195  1.0000
  Mg  Mg16      1.0  0.95223  0.77922  0.13107  1.0000
  C  Sn33      1.0  0.73858  0.19480  0.47390  1.0000
  C   C137      1.0  0.78857  0.20625  0.54687  1.0000
  C  Sn34      1.0  0.80685  0.24585  0.65137  1.0000
  C  Sn35      1.0  0.77447  0.27457  0.68369  1.0000
  C   C138      1.0  0.72450  0.26311  0.61076  1.0000
  C  Sn36      1.0  0.70620  0.22352  0.50622  1.0000
  O  Te33      1.0  0.72111  0.15505  0.36984  1.0000
  O  Te34      1.0  0.85698  0.25660  0.72286  1.0000
  O  Te35      1.0  0.79198  0.31435  0.78785  1.0000
  O  Te36      1.0  0.65609  0.21276  0.43477  1.0000
  Mg  Mg17      1.0  0.86318  0.31440  0.85596  1.0000
  Mg  Mg18      1.0  0.64983  0.15495  0.30170  1.0000
  C  Sn37      1.0  0.84111  0.05040  0.40164  1.0000
  C   C139      1.0  0.84715  0.09465  0.48781  1.0000
  C  Sn38      1.0  0.89690  0.12319  0.56892  1.0000
  C  Sn39      1.0  0.94156  0.10720  0.56373  1.0000
  C   C140      1.0  0.93551  0.06297  0.47759  1.0000
  C  Sn40      1.0  0.88577  0.03440  0.39646  1.0000
  O  Te37      1.0  0.79100  0.02246  0.32146  1.0000
  O  Te38      1.0  0.90195  0.16729  0.65430  1.0000
  O  Te39      1.0  0.99169  0.13518  0.64402  1.0000
  O  Te40      1.0  0.38492  0.99034  0.31111  1.0000
  Mg  Mg19      1.0  0.97844  0.19251  0.74396  1.0000
  Mg  Mg20      1.0  0.30847  0.96511  0.22136  1.0000
  C  Sn41      1.0  0.29236  0.79893  0.53368  1.0000
  C   C141      1.0  0.27802  0.74836  0.60572  1.0000
  C  Sn42      1.0  0.22193  0.71563  0.66189  1.0000
  C  Sn43      1.0  0.17927  0.73380  0.64564  1.0000
  C   C142      1.0  0.19361  0.78433  0.57361  1.0000
  C  Sn44      1.0  0.24969  0.81710  0.51743  1.0000
  O  Te41      1.0  0.34870  0.83097  0.47839  1.0000
  O  Te42      1.0  0.20864  0.66525  0.73353  1.0000
  O  Te43      1.0  0.12289  0.70171  0.70101  1.0000
  O  Te44      1.0  0.26299  0.86745  0.44581  1.0000
  Mg  Mg21      1.0  0.12585  0.63625  0.78993  1.0000
  Mg  Mg22      1.0  0.34575  0.89645  0.38931  1.0000
  C  Sn45      1.0  0.20595  0.46284  0.94444  1.0000
  C   C143      1.0  0.20927  0.41883  0.02431  1.0000
  C  Sn46      1.0  0.24115  0.43874  0.14009  1.0000
  C  Sn47      1.0  0.26725  0.49938  0.17687  1.0000
  C   C144      1.0  0.26093  0.53884  0.09704  1.0000
  C  Sn48      1.0  0.23205  0.52348  0.98122  1.0000
  O  Te45      1.0  0.17388  0.44196  0.82913  1.0000
  O  Te46      1.0  0.24686  0.39841  0.21832  1.0000
  O  Te47      1.0  0.29934  0.52023  0.29229  1.0000
  O  Te48      1.0  0.22632  0.56377  0.90303  1.0000
  Mg  Mg23      1.0  0.29473  0.44820  0.36622  1.0000
  Mg  Mg24      1.0  0.17844  0.51403  0.75515  1.0000
