data_image0
_chemical_formula_structural       H24C48N12SnCSn2CSnTe4Mg2SnCSn2CSnTe4Mg2SnCSn2CSnTe4Mg2SnCSn2CSnTe4Mg2SnCSn2CSnTe4Mg2SnCSn2CSnTe4Mg2SnCSn2CSnTe4Mg2SnCSn2CSnTe4Mg2SnCSn2CSnTe4Mg2SnCSn2CSnTe4Mg2SnCSn2CSnTe4Mg2SnCSn2CSnTe4Mg2SnCSn2CSnTe4Mg2SnCSn2CSnTe4Mg2SnCSn2CSnTe4Mg2SnCSn2CSnTe4Mg2SnCSn2CSnTe4Mg2SnCSn2CSnTe4Mg2SnCSn2CSnTe4Mg2SnCSn2CSnTe4Mg2SnCSn2CSnTe4Mg2SnCSn2CSnTe4Mg2SnCSn2CSnTe4Mg2SnCSn2CSnTe4Mg2
_chemical_formula_sum              "H24 C96 N12 Sn96 Te96 Mg48"
_cell_length_a       25.9975
_cell_length_b       26.0445
_cell_length_c       10.3677
_cell_angle_alpha    90.4322
_cell_angle_beta     90.1029
_cell_angle_gamma    120.218

_symmetry_space_group_name_H-M    'P1'
_space_group_IT_number       1

loop_
  _space_group_symop_operation_xyz
  'x, y, z'

loop_
  _atom_site_type_symbol
  _atom_site_label
  _atom_site_symmetry_multiplicity
  _atom_site_fract_x
  _atom_site_fract_y
  _atom_site_fract_z
  _atom_site_occupancy
  H   H1        1.0  0.19567  0.85673  0.39697  1.0000
  H   H2        1.0  0.13319  0.33543  0.39342  1.0000
  H   H3        1.0  0.65610  0.78896  0.40043  1.0000
  H   H4        1.0  0.80223  0.14224  0.39618  1.0000
  H   H5        1.0  0.85376  0.65709  0.37337  1.0000
  H   H6        1.0  0.33582  0.20206  0.39249  1.0000
  H   H7        1.0  0.61746  0.39191  0.06317  1.0000
  H   H8        1.0  0.61602  0.22661  0.09417  1.0000
  H   H9        1.0  0.78234  0.39220  0.10319  1.0000
  H   H10       1.0  0.38702  0.61240  0.09120  1.0000
  H   H11       1.0  0.39417  0.78116  0.08320  1.0000
  H   H12       1.0  0.22545  0.61880  0.05957  1.0000
  H   H13       1.0  0.19968  0.86115  0.88150  1.0000
  H   H14       1.0  0.14588  0.34109  0.87261  1.0000
  H   H15       1.0  0.66207  0.79997  0.91053  1.0000
  H   H16       1.0  0.81094  0.15091  0.89734  1.0000
  H   H17       1.0  0.86338  0.66377  0.88167  1.0000
  H   H18       1.0  0.34195  0.20046  0.88497  1.0000
  H   H19       1.0  0.61038  0.38559  0.58126  1.0000
  H   H20       1.0  0.60797  0.21918  0.58807  1.0000
  H   H21       1.0  0.77483  0.38404  0.57334  1.0000
  H   H22       1.0  0.38148  0.60662  0.58329  1.0000
  H   H23       1.0  0.38476  0.77332  0.59303  1.0000
  H   H24       1.0  0.21737  0.60909  0.59375  1.0000
  C   C1        1.0  0.17108  0.85281  0.48615  1.0000
  C   C2        1.0  0.13905  0.31527  0.48105  1.0000
  C   C3        1.0  0.67640  0.81645  0.48737  1.0000
  C   C4        1.0  0.82516  0.14409  0.48690  1.0000
  C   C5        1.0  0.85220  0.67703  0.46612  1.0000
  C   C6        1.0  0.31594  0.17526  0.47925  1.0000
  C   C7        1.0  0.05914  0.03163  0.47437  1.0000
  C   C8        1.0  0.96096  0.02376  0.47591  1.0000
  C   C9        1.0  0.96840  0.93352  0.47411  1.0000
  C   C10       1.0  0.93315  0.96095  0.47560  1.0000
  C   C11       1.0  0.03132  0.96885  0.47424  1.0000
  C   C12       1.0  0.02392  0.05904  0.47479  1.0000
  C   C13       1.0  0.60916  0.30555  0.08006  1.0000
  C   C14       1.0  0.70295  0.30562  0.09798  1.0000
  C   C15       1.0  0.70361  0.39967  0.08321  1.0000
  C   C16       1.0  0.39856  0.70050  0.08715  1.0000
  C   C17       1.0  0.30640  0.70394  0.07242  1.0000
  C   C18       1.0  0.30242  0.60815  0.07386  1.0000
  C   C19       1.0  0.64125  0.36778  0.07464  1.0000
  C   C20       1.0  0.64051  0.27495  0.09152  1.0000
  C   C21       1.0  0.73399  0.36804  0.09616  1.0000
  C   C22       1.0  0.36470  0.63817  0.08476  1.0000
  C   C23       1.0  0.36871  0.73282  0.08096  1.0000
  C   C24       1.0  0.27375  0.64155  0.06749  1.0000
  C   C25       1.0  0.17775  0.85942  0.97339  1.0000
  C   C26       1.0  0.14723  0.32209  0.96615  1.0000
  C   C27       1.0  0.68346  0.82595  0.99882  1.0000
  C   C28       1.0  0.83218  0.15108  0.98950  1.0000
  C   C29       1.0  0.85767  0.68420  0.96977  1.0000
  C   C30       1.0  0.32280  0.17793  0.97665  1.0000
  C   C31       1.0  0.06580  0.03824  0.97357  1.0000
  C   C32       1.0  0.96797  0.03090  0.97318  1.0000
  C   C33       1.0  0.97480  0.94045  0.97334  1.0000
  C   C34       1.0  0.93998  0.96825  0.97348  1.0000
  C   C35       1.0  0.03776  0.97540  0.97446  1.0000
  C   C36       1.0  0.03084  0.06590  0.97246  1.0000
  C   C37       1.0  0.60159  0.29860  0.58409  1.0000
  C   C38       1.0  0.69520  0.29779  0.58336  1.0000
  C   C39       1.0  0.69639  0.39218  0.57824  1.0000
  C   C40       1.0  0.39075  0.69373  0.58832  1.0000
  C   C41       1.0  0.29733  0.69505  0.59338  1.0000
  C   C42       1.0  0.29558  0.60024  0.58904  1.0000
  C   C43       1.0  0.63402  0.36100  0.58164  1.0000
  C   C44       1.0  0.63271  0.26753  0.58590  1.0000
  C   C45       1.0  0.72647  0.36012  0.57833  1.0000
  C   C46       1.0  0.35804  0.63138  0.58686  1.0000
  C   C47       1.0  0.35980  0.72498  0.59232  1.0000
  C   C48       1.0  0.26578  0.63265  0.59268  1.0000
  N   N1        1.0  0.18159  0.83223  0.07354  1.0000
  N   N2        1.0  0.17498  0.35428  0.06608  1.0000
  N   N3        1.0  0.65324  0.82617  0.09773  1.0000
  N   N4        1.0  0.82935  0.17834  0.09190  1.0000
  N   N5        1.0  0.82547  0.65326  0.06559  1.0000
  N   N6        1.0  0.35480  0.17979  0.07428  1.0000
  N   N7        1.0  0.17084  0.82206  0.58396  1.0000
  N   N8        1.0  0.17111  0.34654  0.57817  1.0000
  N   N9        1.0  0.64530  0.81895  0.58191  1.0000
  N   N10       1.0  0.82368  0.17307  0.58746  1.0000
  N   N11       1.0  0.82493  0.64585  0.56616  1.0000
  N   N12       1.0  0.34727  0.17360  0.57452  1.0000
  C  Sn1       1.0  0.15763  0.95060  0.89380  1.0000
  C   C49       1.0  0.15364  0.90704  0.97780  1.0000
  C  Sn2       1.0  0.10172  0.87301  0.05923  1.0000
  C  Sn3       1.0  0.05580  0.88730  0.05660  1.0000
  C   C50       1.0  0.06279  0.93533  0.97263  1.0000
  C  Sn4       1.0  0.11171  0.96488  0.89117  1.0000
  O  Te1       1.0  0.20695  0.97954  0.81323  1.0000
  O  Te2       1.0  0.09873  0.82964  0.14241  1.0000
  O  Te3       1.0  0.00646  0.85831  0.13726  1.0000
  O  Te4       1.0  0.61051  0.00822  0.80801  1.0000
  Mg  Mg1       1.0  0.02260  0.80254  0.23360  1.0000
  Mg  Mg2       1.0  0.68660  0.03533  0.71674  1.0000
  C  Sn5       1.0  0.13620  0.21583  0.06327  1.0000
  C   C51       1.0  0.13333  0.25622  0.97178  1.0000
  C  Sn6       1.0  0.08672  0.23155  0.88198  1.0000
  C  Sn7       1.0  0.04507  0.16971  0.88371  1.0000
  C   C52       1.0  0.05093  0.13386  0.97517  1.0000
  C  Sn8       1.0  0.09455  0.15399  0.06500  1.0000
  O  Te5       1.0  0.18315  0.24145  0.15213  1.0000
  O  Te6       1.0  0.08179  0.26833  0.79141  1.0000
  O  Te7       1.0  0.99810  0.14411  0.79475  1.0000
  O  Te8       1.0  0.09948  0.11725  0.15554  1.0000
  Mg  Mg3       1.0  0.01020  0.21259  0.69033  1.0000
  Mg  Mg4       1.0  0.17103  0.17294  0.25671  1.0000
  C  Sn9       1.0  0.79307  0.92524  0.08049  1.0000
  C   C53       1.0  0.75676  0.88553  0.99497  1.0000
  C  Sn10      1.0  0.77812  0.86195  0.90197  1.0000
  C  Sn11      1.0  0.84005  0.88298  0.89434  1.0000
  C   C54       1.0  0.87930  0.92716  0.97983  1.0000
  C  Sn12      1.0  0.85499  0.94626  0.07286  1.0000
  O  Te9       1.0  0.77073  0.94817  0.17270  1.0000
  O  Te10      1.0  0.73797  0.81779  0.81750  1.0000
  O  Te11      1.0  0.86237  0.86001  0.80203  1.0000
  O  Te12      1.0  0.89510  0.99039  0.15730  1.0000
  Mg  Mg5       1.0  0.78999  0.80046  0.70859  1.0000
  Mg  Mg6       1.0  0.33893  0.00773  0.26629  1.0000
  C  Sn13      1.0  0.89599  0.07096  0.85336  1.0000
  C   C55       1.0  0.93514  0.07111  0.94611  1.0000
  C  Sn14      1.0  0.93323  0.08769  0.07095  1.0000
  C  Sn15      1.0  0.89433  0.10903  0.10382  1.0000
  C   C56       1.0  0.85521  0.10886  0.01111  1.0000
  C  Sn16      1.0  0.85709  0.09230  0.88623  1.0000
  O  Te13      1.0  0.89567  0.04968  0.72915  1.0000
  O  Te14      1.0  0.97277  0.08741  0.16201  1.0000
  O  Te15      1.0  0.89468  0.13032  0.22815  1.0000
  O  Te16      1.0  0.81757  0.09256  0.79521  1.0000
  Mg  Mg7       1.0  0.95653  0.12089  0.31842  1.0000
  Mg  Mg8       1.0  0.83375  0.05907  0.63879  1.0000
  C  Sn17      1.0  0.91024  0.82898  0.09924  1.0000
  C   C57       1.0  0.94942  0.86833  0.00785  1.0000
  C  Sn18      1.0  0.95771  0.85199  0.88692  1.0000
  C  Sn19      1.0  0.92309  0.79054  0.85666  1.0000
  C   C58       1.0  0.88393  0.75123  0.94801  1.0000
  C  Sn20      1.0  0.87563  0.76753  0.06898  1.0000
  O  Te17      1.0  0.90566  0.85080  0.21953  1.0000
  O  Te18      1.0  0.99720  0.89218  0.79716  1.0000
  O  Te19      1.0  0.92771  0.76874  0.73626  1.0000
  O  Te20      1.0  0.83616  0.72737  0.15870  1.0000
  Mg  Mg9       1.0  0.98767  0.84097  0.64635  1.0000
  Mg  Mg10      1.0  0.84563  0.77854  0.30950  1.0000
  C  Sn21      1.0  0.21480  0.08130  0.06610  1.0000
  C   C59       1.0  0.25511  0.12919  0.97877  1.0000
  C  Sn22      1.0  0.23192  0.15315  0.89179  1.0000
  C  Sn23      1.0  0.17015  0.13337  0.89215  1.0000
  C   C60       1.0  0.13287  0.09001  0.97945  1.0000
  C  Sn24      1.0  0.15303  0.06151  0.06646  1.0000
  O  Te21      1.0  0.23894  0.05796  0.15220  1.0000
  O  Te22      1.0  0.27012  0.19647  0.80537  1.0000
  O  Te23      1.0  0.14603  0.15675  0.80595  1.0000
  O  Te24      1.0  0.11487  0.01823  0.15285  1.0000
  Mg  Mg11      1.0  0.21610  0.21480  0.70687  1.0000
  Mg  Mg12      1.0  0.67305  0.99989  0.25143  1.0000
  C  Sn25      1.0  0.07332  0.86349  0.56993  1.0000
  C   C61       1.0  0.11759  0.86973  0.48450  1.0000
  C  Sn26      1.0  0.14218  0.91663  0.39728  1.0000
  C  Sn27      1.0  0.12213  0.95819  0.39545  1.0000
  C   C62       1.0  0.07789  0.95194  0.48086  1.0000
  C  Sn28      1.0  0.05327  0.90505  0.56811  1.0000
  O  Te25      1.0  0.04937  0.81626  0.65631  1.0000
  O  Te26      1.0  0.18637  0.92194  0.31277  1.0000
  O  Te27      1.0  0.64191  0.00544  0.30898  1.0000
  O  Te28      1.0  0.00912  0.89974  0.65259  1.0000
  Mg  Mg13      1.0  0.20529  0.99381  0.21302  1.0000
  Mg  Mg14      1.0  0.99019  0.82790  0.75242  1.0000
  C  Sn29      1.0  0.05801  0.16919  0.35241  1.0000
  C   C63       1.0  0.06394  0.13250  0.44159  1.0000
  C  Sn30      1.0  0.09032  0.15498  0.56192  1.0000
  C  Sn31      1.0  0.11118  0.21539  0.59383  1.0000
  C   C64       1.0  0.10524  0.25204  0.50470  1.0000
  C  Sn32      1.0  0.07887  0.22960  0.38432  1.0000
  O  Te29      1.0  0.03149  0.14577  0.23269  1.0000
  O  Te30      1.0  0.09578  0.11744  0.64946  1.0000
  O  Te31      1.0  0.13772  0.23879  0.71366  1.0000
  O  Te32      1.0  0.07340  0.26710  0.29683  1.0000
  Mg  Mg15      1.0  0.13505  0.17004  0.80032  1.0000
  Mg  Mg16      1.0  0.03411  0.21454  0.14596  1.0000
  C  Sn33      1.0  0.82274  0.91397  0.60729  1.0000
  C   C65       1.0  0.86142  0.91388  0.51397  1.0000
  C  Sn34      1.0  0.83937  0.88538  0.39520  1.0000
  C  Sn35      1.0  0.77737  0.85639  0.36910  1.0000
  C   C66       1.0  0.73873  0.85650  0.46237  1.0000
  C  Sn36      1.0  0.76074  0.88498  0.58119  1.0000
  O  Te33      1.0  0.84576  0.94274  0.72536  1.0000
  O  Te34      1.0  0.87891  0.88587  0.30345  1.0000
  O  Te35      1.0  0.75437  0.82761  0.25092  1.0000
  O  Te36      1.0  0.72124  0.88451  0.67290  1.0000
  Mg  Mg17      1.0  0.82609  0.84055  0.15695  1.0000
  Mg  Mg18      1.0  0.77402  0.92984  0.81939  1.0000
  C  Sn37      1.0  0.84111  0.05040  0.40164  1.0000
  C   C67       1.0  0.84715  0.09465  0.48781  1.0000
  C  Sn38      1.0  0.89690  0.12319  0.56892  1.0000
  C  Sn39      1.0  0.94156  0.10720  0.56373  1.0000
  C   C68       1.0  0.93551  0.06297  0.47759  1.0000
  C  Sn40      1.0  0.88577  0.03440  0.39646  1.0000
  O  Te37      1.0  0.79100  0.02246  0.32146  1.0000
  O  Te38      1.0  0.90195  0.16729  0.65430  1.0000
  O  Te39      1.0  0.99169  0.13518  0.64402  1.0000
  O  Te40      1.0  0.38492  0.99034  0.31111  1.0000
  Mg  Mg19      1.0  0.97844  0.19251  0.74396  1.0000
  Mg  Mg20      1.0  0.30847  0.96511  0.22136  1.0000
  C  Sn41      1.0  0.86134  0.78385  0.55710  1.0000
  C   C69       1.0  0.86915  0.74753  0.46889  1.0000
  C  Sn42      1.0  0.91759  0.77181  0.38509  1.0000
  C  Sn43      1.0  0.95912  0.83368  0.38960  1.0000
  C   C70       1.0  0.95131  0.86996  0.47777  1.0000
  C  Sn44      1.0  0.90287  0.84571  0.56160  1.0000
  O  Te41      1.0  0.81259  0.75862  0.63996  1.0000
  O  Te42      1.0  0.92445  0.73461  0.29772  1.0000
  O  Te43      1.0  0.00790  0.85889  0.30663  1.0000
  O  Te44      1.0  0.89601  0.88288  0.64895  1.0000
  Mg  Mg21      1.0  0.99806  0.78991  0.20469  1.0000
  Mg  Mg22      1.0  0.82244  0.82762  0.74206  1.0000
  C  Sn45      1.0  0.17126  0.07968  0.60209  1.0000
  C   C71       1.0  0.13144  0.07928  0.51081  1.0000
  C  Sn46      1.0  0.15193  0.10660  0.39161  1.0000
  C  Sn47      1.0  0.21351  0.13486  0.36300  1.0000
  C   C72       1.0  0.25330  0.13524  0.45423  1.0000
  C  Sn48      1.0  0.23284  0.10794  0.57347  1.0000
  O  Te45      1.0  0.14978  0.05210  0.72063  1.0000
  O  Te46      1.0  0.11127  0.10564  0.30193  1.0000
  O  Te47      1.0  0.23497  0.16245  0.24434  1.0000
  O  Te48      1.0  0.27346  0.10888  0.66311  1.0000
  Mg  Mg23      1.0  0.16215  0.14929  0.15382  1.0000
  Mg  Mg24      1.0  0.22263  0.06522  0.81122  1.0000
  C  Sn49      1.0  0.49646  0.20674  0.14506  1.0000
  C   C73       1.0  0.53640  0.25294  0.06631  1.0000
  C  Sn50      1.0  0.51999  0.28873  0.99090  1.0000
  C  Sn51      1.0  0.45941  0.27355  0.99434  1.0000
  C   C74       1.0  0.41652  0.22288  0.07307  1.0000
  C  Sn52      1.0  0.43588  0.19156  0.14849  1.0000
  O  Te49      1.0  0.51683  0.17607  0.21964  1.0000
  O  Te50      1.0  0.56075  0.33474  0.91290  1.0000
  O  Te51      1.0  0.43906  0.30427  0.91967  1.0000
  O  Te52      1.0  0.39516  0.14559  0.22648  1.0000
  Mg  Mg25      1.0  0.51157  0.36344  0.82892  1.0000
  Mg  Mg26      1.0  0.44429  0.11687  0.31054  1.0000
  C  Sn53      1.0  0.80224  0.29251  0.16711  1.0000
  C   C75       1.0  0.75429  0.28453  0.09102  1.0000
  C  Sn54      1.0  0.72156  0.23253  0.01813  1.0000
  C  Sn55      1.0  0.73706  0.18755  0.02143  1.0000
  C   C76       1.0  0.78499  0.19554  0.09750  1.0000
  C  Sn56      1.0  0.81775  0.24753  0.17040  1.0000
  O  Te53      1.0  0.83434  0.34485  0.23919  1.0000
  O  Te54      1.0  0.67680  0.23007  0.94276  1.0000
  O  Te55      1.0  0.70791  0.13969  0.94925  1.0000
  O  Te56      1.0  0.86546  0.25450  0.24576  1.0000
  Mg  Mg27      1.0  0.64661  0.15089  0.86158  1.0000
  Mg  Mg28      1.0  0.89566  0.33365  0.32702  1.0000
  C  Sn57      1.0  0.74694  0.54797  0.17763  1.0000
  C   C77       1.0  0.79767  0.58497  0.10609  1.0000
  C  Sn58      1.0  0.81558  0.56166  0.00541  1.0000
  C  Sn59      1.0  0.78505  0.50460  0.97554  1.0000
  C   C78       1.0  0.73136  0.46313  0.04704  1.0000
  C  Sn60      1.0  0.71343  0.48640  0.14776  1.0000
  O  Te57      1.0  0.72987  0.57222  0.27787  1.0000
  O  Te58      1.0  0.86945  0.60404  0.93528  1.0000
  O  Te59      1.0  0.80217  0.48036  0.87521  1.0000
  O  Te60      1.0  0.66257  0.44856  0.21785  1.0000
  Mg  Mg29      1.0  0.87471  0.54998  0.80761  1.0000
  Mg  Mg30      1.0  0.65725  0.50258  0.34549  1.0000
  C  Sn61      1.0  0.51122  0.80255  0.14215  1.0000
  C   C79       1.0  0.47161  0.74956  0.07856  1.0000
  C  Sn62      1.0  0.49125  0.71225  0.03002  1.0000
  C  Sn63      1.0  0.55175  0.72822  0.04543  1.0000
  C   C80       1.0  0.59132  0.78117  0.10901  1.0000
  C  Sn64      1.0  0.57172  0.81852  0.15756  1.0000
  O  Te61      1.0  0.49061  0.83917  0.18990  1.0000
  O  Te62      1.0  0.45381  0.66402  0.96676  1.0000
  O  Te63      1.0  0.57533  0.69605  0.99761  1.0000
  O  Te64      1.0  0.61211  0.87122  0.22080  1.0000
  Mg  Mg31      1.0  0.50323  0.62884  0.91865  1.0000
  Mg  Mg32      1.0  0.56273  0.90642  0.26901  1.0000
  C  Sn65      1.0  0.26527  0.80782  0.95891  1.0000
  C   C81       1.0  0.21308  0.79370  0.03176  1.0000
  C  Sn66      1.0  0.19540  0.75605  0.13804  1.0000
  C  Sn67      1.0  0.22759  0.72744  0.17227  1.0000
  C   C82       1.0  0.27676  0.73708  0.09946  1.0000
  C  Sn68      1.0  0.29746  0.77922  0.99314  1.0000
  O  Te65      1.0  0.28215  0.84565  0.85306  1.0000
  O  Te66      1.0  0.14605  0.74710  0.20937  1.0000
  O  Te67      1.0  0.21067  0.68960  0.27822  1.0000
  O  Te68      1.0  0.34678  0.78818  0.92184  1.0000
  Mg  Mg33      1.0  0.14045  0.69157  0.34535  1.0000
  Mg  Mg34      1.0  0.35244  0.84372  0.78590  1.0000
  C  Sn69      1.0  0.24715  0.46054  0.18624  1.0000
  C   C83       1.0  0.20122  0.42336  0.10159  1.0000
  C  Sn70      1.0  0.19430  0.45048  0.98845  1.0000
  C  Sn71      1.0  0.23108  0.51152  0.95926  1.0000
  C   C84       1.0  0.27399  0.54416  0.04386  1.0000
  C  Sn72      1.0  0.28393  0.52159  0.15704  1.0000
  O  Te69      1.0  0.25626  0.43698  0.29878  1.0000
  O  Te70      1.0  0.14809  0.41244  0.90535  1.0000
  O  Te71      1.0  0.22194  0.53507  0.84660  1.0000
  O  Te72      1.0  0.33011  0.55958  0.24011  1.0000
  Mg  Mg35      1.0  0.15336  0.46548  0.76385  1.0000
  Mg  Mg36      1.0  0.32490  0.50659  0.38158  1.0000
  C  Sn73      1.0  0.48795  0.19752  0.63869  1.0000
  C   C85       1.0  0.52867  0.24727  0.56932  1.0000
  C  Sn74      1.0  0.51026  0.28266  0.50673  1.0000
  C  Sn75      1.0  0.44990  0.26804  0.51369  1.0000
  C   C86       1.0  0.40923  0.21832  0.58304  1.0000
  C  Sn76      1.0  0.42759  0.18290  0.64565  1.0000
  O  Te73      1.0  0.50734  0.16278  0.70052  1.0000
  O  Te74      1.0  0.55178  0.33217  0.43792  1.0000
  O  Te75      1.0  0.43054  0.30283  0.45178  1.0000
  O  Te76      1.0  0.38612  0.13342  0.71444  1.0000
  Mg  Mg37      1.0  0.50382  0.36577  0.37007  1.0000
  Mg  Mg38      1.0  0.43403  0.09981  0.78238  1.0000
  C  Sn77      1.0  0.70028  0.19307  0.53448  1.0000
  C   C87       1.0  0.71554  0.24625  0.59881  1.0000
  C  Sn78      1.0  0.77233  0.28104  0.65228  1.0000
  C  Sn79      1.0  0.81478  0.26229  0.64115  1.0000
  C   C88       1.0  0.79952  0.20914  0.57683  1.0000
  C  Sn80      1.0  0.74273  0.17432  0.52335  1.0000
  O  Te77      1.0  0.64324  0.15900  0.48177  1.0000
  O  Te78      1.0  0.78654  0.33403  0.71618  1.0000
  O  Te79      1.0  0.87186  0.29641  0.69393  1.0000
  O  Te80      1.0  0.72851  0.12137  0.45946  1.0000
  Mg  Mg39      1.0  0.87004  0.36510  0.77181  1.0000
  Mg  Mg40      1.0  0.64505  0.09028  0.40374  1.0000
  C  Sn81      1.0  0.79509  0.50032  0.49138  1.0000
  C   C89       1.0  0.75078  0.46462  0.57889  1.0000
  C  Sn82      1.0  0.72405  0.48868  0.65623  1.0000
  C  Sn83      1.0  0.74195  0.54969  0.64584  1.0000
  C   C90       1.0  0.78623  0.58536  0.55835  1.0000
  C  Sn84      1.0  0.81299  0.56134  0.48098  1.0000
  O  Te81      1.0  0.82120  0.47533  0.41502  1.0000
  O  Te82      1.0  0.67986  0.45211  0.74304  1.0000
  O  Te83      1.0  0.71580  0.57467  0.72229  1.0000
  O  Te84      1.0  0.85715  0.59787  0.39420  1.0000
  Mg  Mg41      1.0  0.65755  0.50677  0.82610  1.0000
  Mg  Mg42      1.0  0.87947  0.54325  0.31106  1.0000
  C  Sn85      1.0  0.53506  0.73518  0.46814  1.0000
  C   C91       1.0  0.57582  0.78509  0.53930  1.0000
  C  Sn86      1.0  0.55720  0.80393  0.64686  1.0000
  C  Sn87      1.0  0.49659  0.77220  0.68415  1.0000
  C   C92       1.0  0.45587  0.72232  0.61303  1.0000
  C  Sn88      1.0  0.47444  0.70345  0.50543  1.0000
  O  Te85      1.0  0.55465  0.71714  0.36095  1.0000
  O  Te86      1.0  0.59877  0.85397  0.71646  1.0000
  O  Te87      1.0  0.47702  0.79029  0.79144  1.0000
  O  Te88      1.0  0.43291  0.65344  0.43587  1.0000
  Mg  Mg43      1.0  0.55047  0.86110  0.85526  1.0000
  Mg  Mg44      1.0  0.48117  0.64626  0.29709  1.0000
  C  Sn89      1.0  0.29236  0.79893  0.53368  1.0000
  C   C93       1.0  0.27802  0.74836  0.60572  1.0000
  C  Sn90      1.0  0.22193  0.71563  0.66189  1.0000
  C  Sn91      1.0  0.17927  0.73380  0.64564  1.0000
  C   C94       1.0  0.19361  0.78433  0.57361  1.0000
  C  Sn92      1.0  0.24969  0.81710  0.51743  1.0000
  O  Te89      1.0  0.34870  0.83097  0.47839  1.0000
  O  Te90      1.0  0.20864  0.66525  0.73353  1.0000
  O  Te91      1.0  0.12289  0.70171  0.70101  1.0000
  O  Te92      1.0  0.26299  0.86745  0.44581  1.0000
  Mg  Mg45      1.0  0.12585  0.63625  0.78993  1.0000
  Mg  Mg46      1.0  0.34575  0.89645  0.38931  1.0000
  C  Sn93      1.0  0.28889  0.48910  0.62755  1.0000
  C   C95       1.0  0.27406  0.52808  0.56877  1.0000
  C  Sn94      1.0  0.21669  0.50725  0.52021  1.0000
  C  Sn95      1.0  0.17321  0.44620  0.53068  1.0000
  C   C96       1.0  0.18805  0.40726  0.58945  1.0000
  C  Sn96      1.0  0.24542  0.42805  0.63802  1.0000
  O  Te93      1.0  0.34652  0.51090  0.67542  1.0000
  O  Te94      1.0  0.20292  0.54707  0.46180  1.0000
  O  Te95      1.0  0.11555  0.42443  0.48274  1.0000
  O  Te96      1.0  0.25919  0.38827  0.69641  1.0000
  Mg  Mg47      1.0  0.11831  0.49606  0.41144  1.0000
  Mg  Mg48      1.0  0.34377  0.43924  0.74686  1.0000
