data_image0
_chemical_formula_structural       H72C120N12C2Sn2C2HTe2HMgC2Sn2C2HTe2HMgC2Sn2C2HTe2HMgC2Sn2C2HTe2HMgC2Sn2C2HTe2HMgC2Sn2C2HTe2HMgC2Sn2C2HTe2HMgC2Sn2C2HTe2HMgC2Sn2C2HTe2HMgC2Sn2C2HTe2HMgC2Sn2C2HTe2HMgC2Sn2C2HTe2HMg
_chemical_formula_sum              "H96 C168 N12 Sn24 Te24 Mg12"
_cell_length_a       25.9975
_cell_length_b       26.0445
_cell_length_c       10.3677
_cell_angle_alpha    90.4322
_cell_angle_beta     90.1029
_cell_angle_gamma    120.218

_symmetry_space_group_name_H-M    'P1'
_space_group_IT_number       1

loop_
  _space_group_symop_operation_xyz
  'x, y, z'

loop_
  _atom_site_type_symbol
  _atom_site_label
  _atom_site_symmetry_multiplicity
  _atom_site_fract_x
  _atom_site_fract_y
  _atom_site_fract_z
  _atom_site_occupancy
  H   H1        1.0  0.86883  0.96986  0.15887  1.0000
  H   H2        1.0  0.14188  0.03815  0.15274  1.0000
  H   H3        1.0  0.75840  0.90775  0.17570  1.0000
  H   H4        1.0  0.25240  0.09843  0.15663  1.0000
  H   H5        1.0  0.05890  0.23962  0.30703  1.0000
  H   H6        1.0  0.75031  0.81179  0.31276  1.0000
  H   H7        1.0  0.23996  0.17888  0.30628  1.0000
  H   H8        1.0  0.00927  0.13003  0.30590  1.0000
  H   H9        1.0  0.85981  0.87277  0.30793  1.0000
  H   H10       1.0  0.13027  0.11804  0.30537  1.0000
  H   H11       1.0  0.19567  0.85673  0.39697  1.0000
  H   H12       1.0  0.13319  0.33543  0.39342  1.0000
  H   H13       1.0  0.65610  0.78896  0.40043  1.0000
  H   H14       1.0  0.80223  0.14224  0.39618  1.0000
  H   H15       1.0  0.85376  0.65709  0.37337  1.0000
  H   H16       1.0  0.33582  0.20206  0.39249  1.0000
  H   H17       1.0  0.61746  0.39191  0.06317  1.0000
  H   H18       1.0  0.61602  0.22661  0.09417  1.0000
  H   H19       1.0  0.78234  0.39220  0.10319  1.0000
  H   H20       1.0  0.38702  0.61240  0.09120  1.0000
  H   H21       1.0  0.39417  0.78116  0.08320  1.0000
  H   H22       1.0  0.22545  0.61880  0.05957  1.0000
  H   H23       1.0  0.42194  0.16424  0.23092  1.0000
  H   H24       1.0  0.84665  0.26237  0.25137  1.0000
  H   H25       1.0  0.73175  0.58615  0.19612  1.0000
  H   H26       1.0  0.58536  0.85305  0.22654  1.0000
  H   H27       1.0  0.25901  0.42161  0.22109  1.0000
  H   H28       1.0  0.53310  0.21736  0.23648  1.0000
  H   H29       1.0  0.79342  0.31952  0.25910  1.0000
  H   H30       1.0  0.67609  0.47553  0.20479  1.0000
  H   H31       1.0  0.47436  0.80053  0.22469  1.0000
  H   H32       1.0  0.31671  0.53245  0.22784  1.0000
  H   H33       1.0  0.53170  0.32369  0.43719  1.0000
  H   H34       1.0  0.78094  0.46093  0.40578  1.0000
  H   H35       1.0  0.42234  0.27310  0.43005  1.0000
  H   H36       1.0  0.83808  0.57048  0.39538  1.0000
  H   H37       1.0  0.10559  0.13611  0.64709  1.0000
  H   H38       1.0  0.85779  0.96548  0.65034  1.0000
  H   H39       1.0  0.13643  0.02869  0.64556  1.0000
  H   H40       1.0  0.15494  0.24635  0.65088  1.0000
  H   H41       1.0  0.74773  0.90234  0.65938  1.0000
  H   H42       1.0  0.24682  0.09122  0.65040  1.0000
  H   H43       1.0  0.75377  0.82596  0.81039  1.0000
  H   H44       1.0  0.24827  0.18037  0.80099  1.0000
  H   H45       1.0  0.86351  0.88579  0.79817  1.0000
  H   H46       1.0  0.13836  0.12149  0.79956  1.0000
  H   H47       1.0  0.19968  0.86115  0.88150  1.0000
  H   H48       1.0  0.14588  0.34109  0.87261  1.0000
  H   H49       1.0  0.66207  0.79997  0.91053  1.0000
  H   H50       1.0  0.81094  0.15091  0.89734  1.0000
  H   H51       1.0  0.86338  0.66377  0.88167  1.0000
  H   H52       1.0  0.34195  0.20046  0.88497  1.0000
  H   H53       1.0  0.61038  0.38559  0.58126  1.0000
  H   H54       1.0  0.60797  0.21918  0.58807  1.0000
  H   H55       1.0  0.77483  0.38404  0.57334  1.0000
  H   H56       1.0  0.38148  0.60662  0.58329  1.0000
  H   H57       1.0  0.38476  0.77332  0.59303  1.0000
  H   H58       1.0  0.21737  0.60909  0.59375  1.0000
  H   H59       1.0  0.41281  0.15156  0.72065  1.0000
  H   H60       1.0  0.74732  0.58114  0.73223  1.0000
  H   H61       1.0  0.52373  0.20280  0.72787  1.0000
  H   H62       1.0  0.68781  0.47029  0.73980  1.0000
  H   H63       1.0  0.53801  0.32109  0.91082  1.0000
  H   H64       1.0  0.68322  0.21526  0.94048  1.0000
  H   H65       1.0  0.80332  0.47118  0.94641  1.0000
  H   H66       1.0  0.47056  0.66857  0.96694  1.0000
  H   H67       1.0  0.21028  0.53630  0.91357  1.0000
  H   H68       1.0  0.42863  0.26949  0.90612  1.0000
  H   H69       1.0  0.73497  0.15790  0.93411  1.0000
  H   H70       1.0  0.85745  0.58083  0.93522  1.0000
  H   H71       1.0  0.58017  0.72006  0.96982  1.0000
  H   H72       1.0  0.15389  0.42667  0.90613  1.0000
  C   C1        1.0  0.05338  0.12507  0.47661  1.0000
  C   C2        1.0  0.86701  0.92372  0.47875  1.0000
  C   C3        1.0  0.12530  0.06884  0.47526  1.0000
  C   C4        1.0  0.84313  0.93771  0.08369  1.0000
  C   C5        1.0  0.16528  0.06957  0.07615  1.0000
  C   C6        1.0  0.78167  0.90337  0.09308  1.0000
  C   C7        1.0  0.22697  0.10321  0.07898  1.0000
  C   C8        1.0  0.10982  0.25056  0.48082  1.0000
  C   C9        1.0  0.74130  0.85246  0.48733  1.0000
  C   C10       1.0  0.25108  0.13943  0.47943  1.0000
  C   C11       1.0  0.06876  0.21712  0.38287  1.0000
  C   C12       1.0  0.77381  0.84496  0.38806  1.0000
  C   C13       1.0  0.21747  0.14643  0.38193  1.0000
  C   C14       1.0  0.04092  0.15542  0.38180  1.0000
  C   C15       1.0  0.83558  0.87967  0.38481  1.0000
  C   C16       1.0  0.15563  0.11191  0.38082  1.0000
  C   C17       1.0  0.17108  0.85281  0.48615  1.0000
  C   C18       1.0  0.13905  0.31527  0.48105  1.0000
  C   C19       1.0  0.67640  0.81645  0.48737  1.0000
  C   C20       1.0  0.82516  0.14409  0.48690  1.0000
  C   C21       1.0  0.85220  0.67703  0.46612  1.0000
  C   C22       1.0  0.31594  0.17526  0.47925  1.0000
  C   C23       1.0  0.05914  0.03163  0.47437  1.0000
  C   C24       1.0  0.96096  0.02376  0.47591  1.0000
  C   C25       1.0  0.96840  0.93352  0.47411  1.0000
  C   C26       1.0  0.93315  0.96095  0.47560  1.0000
  C   C27       1.0  0.03132  0.96885  0.47424  1.0000
  C   C28       1.0  0.02392  0.05904  0.47479  1.0000
  C   C29       1.0  0.41729  0.21227  0.06815  1.0000
  C   C30       1.0  0.79633  0.20762  0.09006  1.0000
  C   C31       1.0  0.79750  0.59108  0.06371  1.0000
  C   C32       1.0  0.59075  0.79197  0.09499  1.0000
  C   C33       1.0  0.20393  0.41651  0.06159  1.0000
  C   C34       1.0  0.44800  0.19833  0.16070  1.0000
  C   C35       1.0  0.81128  0.25298  0.18258  1.0000
  C   C36       1.0  0.74631  0.56029  0.14026  1.0000
  C   C37       1.0  0.55956  0.81288  0.16909  1.0000
  C   C38       1.0  0.24973  0.44750  0.15289  1.0000
  C   C39       1.0  0.50993  0.22772  0.16278  1.0000
  C   C40       1.0  0.78159  0.28505  0.18607  1.0000
  C   C41       1.0  0.71552  0.49853  0.14492  1.0000
  C   C42       1.0  0.49760  0.78361  0.16683  1.0000
  C   C43       1.0  0.28181  0.50930  0.15584  1.0000
  C   C44       1.0  0.54341  0.27294  0.07418  1.0000
  C   C45       1.0  0.73504  0.27207  0.09886  1.0000
  C   C46       1.0  0.73591  0.46530  0.07671  1.0000
  C   C47       1.0  0.46430  0.73134  0.09323  1.0000
  C   C48       1.0  0.26817  0.54245  0.07003  1.0000
  C   C49       1.0  0.50577  0.28612  0.50005  1.0000
  C   C50       1.0  0.77341  0.48720  0.47738  1.0000
  C   C51       1.0  0.44397  0.25708  0.49506  1.0000
  C   C52       1.0  0.80535  0.54895  0.47109  1.0000
  C   C53       1.0  0.60916  0.30555  0.08006  1.0000
  C   C54       1.0  0.70295  0.30562  0.09798  1.0000
  C   C55       1.0  0.70361  0.39967  0.08321  1.0000
  C   C56       1.0  0.39856  0.70050  0.08715  1.0000
  C   C57       1.0  0.30640  0.70394  0.07242  1.0000
  C   C58       1.0  0.30242  0.60815  0.07386  1.0000
  C   C59       1.0  0.64125  0.36778  0.07464  1.0000
  C   C60       1.0  0.64051  0.27495  0.09152  1.0000
  C   C61       1.0  0.73399  0.36804  0.09616  1.0000
  C   C62       1.0  0.36470  0.63817  0.08476  1.0000
  C   C63       1.0  0.36871  0.73282  0.08096  1.0000
  C   C64       1.0  0.27375  0.64155  0.06749  1.0000
  C   C65       1.0  0.87384  0.93180  0.97836  1.0000
  C   C66       1.0  0.13202  0.07529  0.97575  1.0000
  C   C67       1.0  0.09505  0.15886  0.57339  1.0000
  C   C68       1.0  0.83418  0.93147  0.57704  1.0000
  C   C69       1.0  0.15927  0.06192  0.57202  1.0000
  C   C70       1.0  0.12274  0.22033  0.57597  1.0000
  C   C71       1.0  0.77265  0.89644  0.58227  1.0000
  C   C72       1.0  0.22081  0.09650  0.57493  1.0000
  C   C73       1.0  0.74836  0.86199  0.99496  1.0000
  C   C74       1.0  0.25791  0.14366  0.97965  1.0000
  C   C75       1.0  0.77890  0.85667  0.88849  1.0000
  C   C76       1.0  0.22495  0.14968  0.87916  1.0000
  C   C77       1.0  0.84068  0.89060  0.88101  1.0000
  C   C78       1.0  0.16304  0.11637  0.87815  1.0000
  C   C79       1.0  0.17775  0.85942  0.97339  1.0000
  C   C80       1.0  0.14723  0.32209  0.96615  1.0000
  C   C81       1.0  0.68346  0.82595  0.99882  1.0000
  C   C82       1.0  0.83218  0.15108  0.98950  1.0000
  C   C83       1.0  0.85767  0.68420  0.96977  1.0000
  C   C84       1.0  0.32280  0.17793  0.97665  1.0000
  C   C85       1.0  0.06580  0.03824  0.97357  1.0000
  C   C86       1.0  0.96797  0.03090  0.97318  1.0000
  C   C87       1.0  0.97480  0.94045  0.97334  1.0000
  C   C88       1.0  0.93998  0.96825  0.97348  1.0000
  C   C89       1.0  0.03776  0.97540  0.97446  1.0000
  C   C90       1.0  0.03084  0.06590  0.97246  1.0000
  C   C91       1.0  0.40970  0.20713  0.57292  1.0000
  C   C92       1.0  0.79542  0.58347  0.56226  1.0000
  C   C93       1.0  0.43966  0.18880  0.65767  1.0000
  C   C94       1.0  0.75323  0.55410  0.65984  1.0000
  C   C95       1.0  0.50156  0.21746  0.66085  1.0000
  C   C96       1.0  0.72021  0.49231  0.66367  1.0000
  C   C97       1.0  0.53583  0.26673  0.58185  1.0000
  C   C98       1.0  0.73005  0.45786  0.57286  1.0000
  C   C99       1.0  0.51276  0.28719  0.98214  1.0000
  C   C100      1.0  0.71883  0.22539  0.00928  1.0000
  C   C101      1.0  0.78763  0.49624  0.00177  1.0000
  C   C102      1.0  0.49556  0.70896  0.02434  1.0000
  C   C103      1.0  0.22121  0.51139  0.98121  1.0000
  C   C104      1.0  0.45086  0.25746  0.97875  1.0000
  C   C105      1.0  0.74874  0.19369  0.00449  1.0000
  C   C106      1.0  0.81778  0.55797  0.99430  1.0000
  C   C107      1.0  0.55749  0.73848  0.02467  1.0000
  C   C108      1.0  0.18976  0.44954  0.97615  1.0000
  C   C109      1.0  0.60159  0.29860  0.58409  1.0000
  C   C110      1.0  0.69520  0.29779  0.58336  1.0000
  C   C111      1.0  0.69639  0.39218  0.57824  1.0000
  C   C112      1.0  0.39075  0.69373  0.58832  1.0000
  C   C113      1.0  0.29733  0.69505  0.59338  1.0000
  C   C114      1.0  0.29558  0.60024  0.58904  1.0000
  C   C115      1.0  0.63402  0.36100  0.58164  1.0000
  C   C116      1.0  0.63271  0.26753  0.58590  1.0000
  C   C117      1.0  0.72647  0.36012  0.57833  1.0000
  C   C118      1.0  0.35804  0.63138  0.58686  1.0000
  C   C119      1.0  0.35980  0.72498  0.59232  1.0000
  C   C120      1.0  0.26578  0.63265  0.59268  1.0000
  N   N1        1.0  0.18159  0.83223  0.07354  1.0000
  N   N2        1.0  0.17498  0.35428  0.06608  1.0000
  N   N3        1.0  0.65324  0.82617  0.09773  1.0000
  N   N4        1.0  0.82935  0.17834  0.09190  1.0000
  N   N5        1.0  0.82547  0.65326  0.06559  1.0000
  N   N6        1.0  0.35480  0.17979  0.07428  1.0000
  N   N7        1.0  0.17084  0.82206  0.58396  1.0000
  N   N8        1.0  0.17111  0.34654  0.57817  1.0000
  N   N9        1.0  0.64530  0.81895  0.58191  1.0000
  N   N10       1.0  0.82368  0.17307  0.58746  1.0000
  N   N11       1.0  0.82493  0.64585  0.56616  1.0000
  N   N12       1.0  0.34727  0.17360  0.57452  1.0000
  C   C121      1.0  0.87896  0.05446  0.86498  1.0000
  C   C122      1.0  0.92281  0.05865  0.94973  1.0000
  C  Sn1       1.0  0.93361  0.08870  0.06203  1.0000
  C  Sn2       1.0  0.90284  0.11956  0.08978  1.0000
  C   C123      1.0  0.85902  0.11505  0.00443  1.0000
  C   C124      1.0  0.84858  0.08487  0.89230  1.0000
  H   H73       1.0  0.86854  0.02761  0.77826  1.0000
  O  Te1       1.0  0.97755  0.09241  0.14563  1.0000
  O  Te2       1.0  0.91572  0.15439  0.20136  1.0000
  H   H74       1.0  0.81460  0.08161  0.82675  1.0000
  Mg  Mg1       1.0  0.97923  0.14552  0.28540  1.0000
  C   C125      1.0  0.50019  0.70644  0.49091  1.0000
  C   C126      1.0  0.46325  0.71741  0.57009  1.0000
  C  Sn3       1.0  0.48771  0.76618  0.65451  1.0000
  C  Sn4       1.0  0.55033  0.80461  0.65952  1.0000
  C   C127      1.0  0.58689  0.79328  0.57984  1.0000
  C   C128      1.0  0.56195  0.74434  0.49574  1.0000
  H   H75       1.0  0.48089  0.66860  0.42578  1.0000
  O  Te3       1.0  0.45017  0.77647  0.73299  1.0000
  O  Te4       1.0  0.57595  0.85369  0.74298  1.0000
  H   H76       1.0  0.59056  0.73589  0.43439  1.0000
  Mg  Mg2       1.0  0.50623  0.84912  0.83086  1.0000
  C   C129      1.0  0.93179  0.10678  0.59258  1.0000
  C   C130      1.0  0.92635  0.06216  0.50830  1.0000
  C  Sn5       1.0  0.88639  0.04387  0.40460  1.0000
  C  Sn6       1.0  0.85130  0.07084  0.38515  1.0000
  C   C131      1.0  0.85710  0.11548  0.46996  1.0000
  C   C132      1.0  0.89721  0.13343  0.57344  1.0000
  H   H77       1.0  0.96284  0.12069  0.67260  1.0000
  O  Te5       1.0  0.38570  0.99921  0.32134  1.0000
  O  Te6       1.0  0.81103  0.05343  0.28227  1.0000
  H   H78       1.0  0.90144  0.16800  0.63863  1.0000
  Mg  Mg3       1.0  0.32456  0.99072  0.19508  1.0000
  C   C133      1.0  0.06877  0.89265  0.08506  1.0000
  C   C134      1.0  0.07272  0.93711  0.00399  1.0000
  C  Sn7       1.0  0.11493  0.96079  0.89996  1.0000
  C  Sn8       1.0  0.15080  0.93490  0.87689  1.0000
  C   C135      1.0  0.14649  0.89042  0.95850  1.0000
  C   C136      1.0  0.10412  0.86707  0.06235  1.0000
  H   H79       1.0  0.03828  0.87804  0.16537  1.0000
  O  Te7       1.0  0.61412  0.00527  0.81994  1.0000
  O  Te8       1.0  0.19036  0.95322  0.77358  1.0000
  H   H80       1.0  0.10104  0.83262  0.12505  1.0000
  Mg  Mg4       1.0  0.67478  0.01526  0.69166  1.0000
  C   C137      1.0  0.12254  0.94839  0.36746  1.0000
  C   C138      1.0  0.07693  0.94160  0.44934  1.0000
  C  Sn9       1.0  0.06238  0.90544  0.55774  1.0000
  C  Sn10      1.0  0.09418  0.87560  0.58444  1.0000
  C   C139      1.0  0.13977  0.88273  0.50198  1.0000
  C   C140      1.0  0.15395  0.91900  0.39375  1.0000
  H   H81       1.0  0.13354  0.97649  0.28376  1.0000
  O  Te9       1.0  0.01667  0.89912  0.63851  1.0000
  O  Te10      1.0  0.08058  0.83921  0.69214  1.0000
  H   H82       1.0  0.18930  0.92428  0.33042  1.0000
  Mg  Mg5       1.0  0.01460  0.84466  0.77338  1.0000
  C   C141      1.0  0.17858  0.45541  0.50104  1.0000
  C   C142      1.0  0.19351  0.41559  0.55504  1.0000
  C  Sn11      1.0  0.24432  0.43646  0.63246  1.0000
  C  Sn12      1.0  0.28078  0.49836  0.65613  1.0000
  C   C143      1.0  0.26543  0.53784  0.60174  1.0000
  C   C144      1.0  0.21450  0.51648  0.52437  1.0000
  H   H83       1.0  0.13915  0.43889  0.44124  1.0000
  O  Te11      1.0  0.25860  0.39606  0.68561  1.0000
  O  Te12      1.0  0.33181  0.52042  0.73318  1.0000
  H   H84       1.0  0.20293  0.54732  0.48265  1.0000
  Mg  Mg6       1.0  0.33266  0.44773  0.78404  1.0000
  C   C145      1.0  0.19633  0.74056  0.15952  1.0000
  C   C146      1.0  0.21233  0.79405  0.09789  1.0000
  C  Sn13      1.0  0.26107  0.81939  0.01490  1.0000
  C  Sn14      1.0  0.29729  0.79503  0.99338  1.0000
  C   C147      1.0  0.27791  0.73701  0.05543  1.0000
  C   C148      1.0  0.22907  0.71206  0.13831  1.0000
  H   H85       1.0  0.15852  0.72124  0.22359  1.0000
  O  Te13      1.0  0.27945  0.87736  0.95414  1.0000
  O  Te14      1.0  0.34619  0.81937  0.91088  1.0000
  H   H86       1.0  0.21667  0.67063  0.18595  1.0000
  Mg  Mg7       1.0  0.34969  0.89299  0.85039  1.0000
  C   C149      1.0  0.26876  0.80940  0.49768  1.0000
  C   C150      1.0  0.21578  0.79745  0.55751  1.0000
  C  Sn15      1.0  0.18774  0.75025  0.64340  1.0000
  C  Sn16      1.0  0.21331  0.71445  0.66970  1.0000
  C   C151      1.0  0.26635  0.72681  0.60942  1.0000
  C   C152      1.0  0.29403  0.77413  0.52361  1.0000
  H   H87       1.0  0.29020  0.84603  0.43134  1.0000
  O  Te15      1.0  0.13482  0.73891  0.70230  1.0000
  O  Te16      1.0  0.18623  0.66702  0.75517  1.0000
  H   H88       1.0  0.33507  0.78340  0.47736  1.0000
  Mg  Mg8       1.0  0.11464  0.66925  0.81150  1.0000
  C   C153      1.0  0.89284  0.82672  0.08441  1.0000
  C   C154      1.0  0.93668  0.86725  0.00181  1.0000
  C  Sn17      1.0  0.95798  0.85156  0.89599  1.0000
  C  Sn18      1.0  0.93182  0.78961  0.87267  1.0000
  C   C155      1.0  0.88796  0.74942  0.95582  1.0000
  C   C156      1.0  0.86700  0.76561  0.06144  1.0000
  H   H89       1.0  0.87890  0.84272  0.16609  1.0000
  O  Te17      1.0  0.00186  0.89267  0.81447  1.0000
  O  Te18      1.0  0.94928  0.76822  0.76760  1.0000
  H   H90       1.0  0.83302  0.73421  0.12533  1.0000
  Mg  Mg9       1.0  0.01074  0.84174  0.68405  1.0000
  C   C157      1.0  0.87449  0.78579  0.58810  1.0000
  C   C158      1.0  0.87683  0.74825  0.49420  1.0000
  C  Sn19      1.0  0.91422  0.77205  0.38787  1.0000
  C  Sn20      1.0  0.94989  0.83460  0.37561  1.0000
  C   C159      1.0  0.94726  0.87178  0.47012  1.0000
  C   C160      1.0  0.90967  0.84749  0.57610  1.0000
  H   H91       1.0  0.84543  0.76700  0.67014  1.0000
  O  Te19      1.0  0.91600  0.73391  0.29492  1.0000
  O  Te20      1.0  0.98767  0.85957  0.27034  1.0000
  H   H92       1.0  0.90790  0.87656  0.64883  1.0000
  Mg  Mg10      1.0  0.97451  0.78919  0.16895  1.0000
  C   C161      1.0  0.80926  0.26654  0.67042  1.0000
  C   C162      1.0  0.79400  0.21249  0.61019  1.0000
  C  Sn21      1.0  0.74434  0.18475  0.52860  1.0000
  C  Sn22      1.0  0.70941  0.21175  0.50707  1.0000
  C   C163      1.0  0.72508  0.26586  0.56771  1.0000
  C   C164      1.0  0.77485  0.29321  0.64920  1.0000
  H   H93       1.0  0.84778  0.28773  0.73342  1.0000
  O  Te21      1.0  0.72971  0.13075  0.46923  1.0000
  O  Te22      1.0  0.65957  0.18501  0.42595  1.0000
  H   H94       1.0  0.78667  0.33508  0.69575  1.0000
  Mg  Mg11      1.0  0.65766  0.11157  0.36705  1.0000
  C   C165      1.0  0.12243  0.21406  0.09227  1.0000
  C   C166      1.0  0.12514  0.25564  0.99588  1.0000
  C  Sn23      1.0  0.09002  0.23132  0.88531  1.0000
  C  Sn24      1.0  0.05457  0.16871  0.87126  1.0000
  C   C167      1.0  0.05513  0.13200  0.96828  1.0000
  C   C168      1.0  0.08746  0.15230  0.07851  1.0000
  H   H95       1.0  0.14973  0.23325  0.17759  1.0000
  O  Te23      1.0  0.09028  0.26901  0.78992  1.0000
  O  Te24      1.0  0.01905  0.14322  0.76175  1.0000
  H   H96       1.0  0.08764  0.12358  0.15316  1.0000
  Mg  Mg12      1.0  0.03445  0.21311  0.65833  1.0000
