data_image0
_chemical_formula_structural       H24C48N12C2Sn2C2HTe2HMgC2Sn2C2HTe2HMgC2Sn2C2HTe2HMgC2Sn2C2HTe2HMgC2Sn2C2HTe2HMgC2Sn2C2HTe2HMgC2Sn2C2HTe2HMgC2Sn2C2HTe2HMgC2Sn2C2HTe2HMgC2Sn2C2HTe2HMgC2Sn2C2HTe2HMgC2Sn2C2HTe2HMgC2Sn2C2HTe2HMgC2Sn2C2HTe2HMgC2Sn2C2HTe2HMgC2Sn2C2HTe2HMgC2Sn2C2HTe2HMgC2Sn2C2HTe2HMgC2Sn2C2HTe2HMgC2Sn2C2HTe2HMgC2Sn2C2HTe2HMgC2Sn2C2HTe2HMgC2Sn2C2HTe2HMgC2Sn2C2HTe2HMg
_chemical_formula_sum              "H72 C144 N12 Sn48 Te48 Mg24"
_cell_length_a       25.9975
_cell_length_b       26.0445
_cell_length_c       10.3677
_cell_angle_alpha    90.4322
_cell_angle_beta     90.1029
_cell_angle_gamma    120.218

_symmetry_space_group_name_H-M    'P1'
_space_group_IT_number       1

loop_
  _space_group_symop_operation_xyz
  'x, y, z'

loop_
  _atom_site_type_symbol
  _atom_site_label
  _atom_site_symmetry_multiplicity
  _atom_site_fract_x
  _atom_site_fract_y
  _atom_site_fract_z
  _atom_site_occupancy
  H   H1        1.0  0.19567  0.85673  0.39697  1.0000
  H   H2        1.0  0.13319  0.33543  0.39342  1.0000
  H   H3        1.0  0.65610  0.78896  0.40043  1.0000
  H   H4        1.0  0.80223  0.14224  0.39618  1.0000
  H   H5        1.0  0.85376  0.65709  0.37337  1.0000
  H   H6        1.0  0.33582  0.20206  0.39249  1.0000
  H   H7        1.0  0.61746  0.39191  0.06317  1.0000
  H   H8        1.0  0.61602  0.22661  0.09417  1.0000
  H   H9        1.0  0.78234  0.39220  0.10319  1.0000
  H   H10       1.0  0.38702  0.61240  0.09120  1.0000
  H   H11       1.0  0.39417  0.78116  0.08320  1.0000
  H   H12       1.0  0.22545  0.61880  0.05957  1.0000
  H   H13       1.0  0.19968  0.86115  0.88150  1.0000
  H   H14       1.0  0.14588  0.34109  0.87261  1.0000
  H   H15       1.0  0.66207  0.79997  0.91053  1.0000
  H   H16       1.0  0.81094  0.15091  0.89734  1.0000
  H   H17       1.0  0.86338  0.66377  0.88167  1.0000
  H   H18       1.0  0.34195  0.20046  0.88497  1.0000
  H   H19       1.0  0.61038  0.38559  0.58126  1.0000
  H   H20       1.0  0.60797  0.21918  0.58807  1.0000
  H   H21       1.0  0.77483  0.38404  0.57334  1.0000
  H   H22       1.0  0.38148  0.60662  0.58329  1.0000
  H   H23       1.0  0.38476  0.77332  0.59303  1.0000
  H   H24       1.0  0.21737  0.60909  0.59375  1.0000
  C   C1        1.0  0.17108  0.85281  0.48615  1.0000
  C   C2        1.0  0.13905  0.31527  0.48105  1.0000
  C   C3        1.0  0.67640  0.81645  0.48737  1.0000
  C   C4        1.0  0.82516  0.14409  0.48690  1.0000
  C   C5        1.0  0.85220  0.67703  0.46612  1.0000
  C   C6        1.0  0.31594  0.17526  0.47925  1.0000
  C   C7        1.0  0.05914  0.03163  0.47437  1.0000
  C   C8        1.0  0.96096  0.02376  0.47591  1.0000
  C   C9        1.0  0.96840  0.93352  0.47411  1.0000
  C   C10       1.0  0.93315  0.96095  0.47560  1.0000
  C   C11       1.0  0.03132  0.96885  0.47424  1.0000
  C   C12       1.0  0.02392  0.05904  0.47479  1.0000
  C   C13       1.0  0.60916  0.30555  0.08006  1.0000
  C   C14       1.0  0.70295  0.30562  0.09798  1.0000
  C   C15       1.0  0.70361  0.39967  0.08321  1.0000
  C   C16       1.0  0.39856  0.70050  0.08715  1.0000
  C   C17       1.0  0.30640  0.70394  0.07242  1.0000
  C   C18       1.0  0.30242  0.60815  0.07386  1.0000
  C   C19       1.0  0.64125  0.36778  0.07464  1.0000
  C   C20       1.0  0.64051  0.27495  0.09152  1.0000
  C   C21       1.0  0.73399  0.36804  0.09616  1.0000
  C   C22       1.0  0.36470  0.63817  0.08476  1.0000
  C   C23       1.0  0.36871  0.73282  0.08096  1.0000
  C   C24       1.0  0.27375  0.64155  0.06749  1.0000
  C   C25       1.0  0.17775  0.85942  0.97339  1.0000
  C   C26       1.0  0.14723  0.32209  0.96615  1.0000
  C   C27       1.0  0.68346  0.82595  0.99882  1.0000
  C   C28       1.0  0.83218  0.15108  0.98950  1.0000
  C   C29       1.0  0.85767  0.68420  0.96977  1.0000
  C   C30       1.0  0.32280  0.17793  0.97665  1.0000
  C   C31       1.0  0.06580  0.03824  0.97357  1.0000
  C   C32       1.0  0.96797  0.03090  0.97318  1.0000
  C   C33       1.0  0.97480  0.94045  0.97334  1.0000
  C   C34       1.0  0.93998  0.96825  0.97348  1.0000
  C   C35       1.0  0.03776  0.97540  0.97446  1.0000
  C   C36       1.0  0.03084  0.06590  0.97246  1.0000
  C   C37       1.0  0.60159  0.29860  0.58409  1.0000
  C   C38       1.0  0.69520  0.29779  0.58336  1.0000
  C   C39       1.0  0.69639  0.39218  0.57824  1.0000
  C   C40       1.0  0.39075  0.69373  0.58832  1.0000
  C   C41       1.0  0.29733  0.69505  0.59338  1.0000
  C   C42       1.0  0.29558  0.60024  0.58904  1.0000
  C   C43       1.0  0.63402  0.36100  0.58164  1.0000
  C   C44       1.0  0.63271  0.26753  0.58590  1.0000
  C   C45       1.0  0.72647  0.36012  0.57833  1.0000
  C   C46       1.0  0.35804  0.63138  0.58686  1.0000
  C   C47       1.0  0.35980  0.72498  0.59232  1.0000
  C   C48       1.0  0.26578  0.63265  0.59268  1.0000
  N   N1        1.0  0.18159  0.83223  0.07354  1.0000
  N   N2        1.0  0.17498  0.35428  0.06608  1.0000
  N   N3        1.0  0.65324  0.82617  0.09773  1.0000
  N   N4        1.0  0.82935  0.17834  0.09190  1.0000
  N   N5        1.0  0.82547  0.65326  0.06559  1.0000
  N   N6        1.0  0.35480  0.17979  0.07428  1.0000
  N   N7        1.0  0.17084  0.82206  0.58396  1.0000
  N   N8        1.0  0.17111  0.34654  0.57817  1.0000
  N   N9        1.0  0.64530  0.81895  0.58191  1.0000
  N   N10       1.0  0.82368  0.17307  0.58746  1.0000
  N   N11       1.0  0.82493  0.64585  0.56616  1.0000
  N   N12       1.0  0.34727  0.17360  0.57452  1.0000
  C   C49       1.0  0.08897  0.87966  0.08954  1.0000
  C   C50       1.0  0.13302  0.88729  0.99858  1.0000
  C  Sn1       1.0  0.14834  0.92577  0.89411  1.0000
  C  Sn2       1.0  0.12200  0.96174  0.88074  1.0000
  C   C51       1.0  0.08100  0.95832  0.97231  1.0000
  C   C52       1.0  0.06299  0.91515  0.07645  1.0000
  H   H25       1.0  0.07737  0.84977  0.17016  1.0000
  O  Te1       1.0  0.18943  0.92832  0.80409  1.0000
  O  Te2       1.0  0.13653  0.00060  0.77729  1.0000
  H   H26       1.0  0.03123  0.91277  0.14691  1.0000
  Mg  Mg1       1.0  0.19486  0.98819  0.67973  1.0000
  C   C53       1.0  0.06989  0.20876  0.85134  1.0000
  C   C54       1.0  0.10577  0.24990  0.94585  1.0000
  C  Sn3       1.0  0.11815  0.22633  0.05746  1.0000
  C  Sn4       1.0  0.09717  0.16492  0.07449  1.0000
  C   C55       1.0  0.06432  0.12863  0.97932  1.0000
  C   C56       1.0  0.04919  0.14818  0.86803  1.0000
  H   H27       1.0  0.05821  0.22389  0.76519  1.0000
  O  Te3       1.0  0.15402  0.26802  0.15095  1.0000
  O  Te4       1.0  0.11187  0.14465  0.18509  1.0000
  H   H28       1.0  0.02144  0.11633  0.79483  1.0000
  Mg  Mg2       1.0  0.16193  0.21862  0.28506  1.0000
  C   C57       1.0  0.82647  0.87805  0.86761  1.0000
  C   C58       1.0  0.86656  0.92328  0.95021  1.0000
  C  Sn5       1.0  0.84344  0.93231  0.06319  1.0000
  C  Sn6       1.0  0.78200  0.89988  0.09379  1.0000
  C   C59       1.0  0.74225  0.85469  0.01057  1.0000
  C   C60       1.0  0.76587  0.84603  0.89776  1.0000
  H   H29       1.0  0.84243  0.86784  0.78036  1.0000
  O  Te5       1.0  0.88409  0.97765  0.14461  1.0000
  O  Te6       1.0  0.76067  0.91247  0.20610  1.0000
  H   H30       1.0  0.73482  0.81098  0.83387  1.0000
  Mg  Mg3       1.0  0.83346  0.97828  0.28643  1.0000
  C   C61       1.0  0.91510  0.12231  0.10567  1.0000
  C   C62       1.0  0.87682  0.12398  0.01318  1.0000
  C  Sn7       1.0  0.86659  0.09453  0.90007  1.0000
  C  Sn8       1.0  0.89222  0.05827  0.87948  1.0000
  C   C63       1.0  0.93044  0.05687  0.97265  1.0000
  C   C64       1.0  0.94039  0.08653  0.08546  1.0000
  H   H31       1.0  0.92509  0.14871  0.19300  1.0000
  O  Te7       1.0  0.82827  0.09674  0.80863  1.0000
  O  Te8       1.0  0.87976  0.02388  0.76732  1.0000
  H   H32       1.0  0.97000  0.08520  0.15710  1.0000
  Mg  Mg4       1.0  0.82490  0.04186  0.67122  1.0000
  C   C65       1.0  0.93751  0.79623  0.85727  1.0000
  C   C66       1.0  0.89929  0.75604  0.94871  1.0000
  C  Sn9       1.0  0.87856  0.77177  0.05543  1.0000
  C  Sn10      1.0  0.89954  0.83340  0.07061  1.0000
  C   C67       1.0  0.94071  0.87774  0.97855  1.0000
  C   C68       1.0  0.95820  0.85702  0.87215  1.0000
  H   H33       1.0  0.95101  0.78020  0.77491  1.0000
  O  Te9       1.0  0.84037  0.73102  0.14590  1.0000
  O  Te10      1.0  0.88249  0.85482  0.17633  1.0000
  H   H34       1.0  0.98776  0.88814  0.80132  1.0000
  Mg  Mg5       1.0  0.82978  0.78184  0.27363  1.0000
  C   C69       1.0  0.17694  0.12881  0.86399  1.0000
  C   C70       1.0  0.13880  0.08387  0.94750  1.0000
  C  Sn11      1.0  0.15865  0.06559  0.05545  1.0000
  C  Sn12      1.0  0.22086  0.09749  0.08001  1.0000
  C   C71       1.0  0.26163  0.14690  0.99593  1.0000
  C   C72       1.0  0.23830  0.16030  0.88817  1.0000
  H   H35       1.0  0.15890  0.13921  0.78065  1.0000
  O  Te11      1.0  0.11992  0.02055  0.13786  1.0000
  O  Te12      1.0  0.24487  0.08465  0.18721  1.0000
  H   H36       1.0  0.26784  0.19513  0.82358  1.0000
  Mg  Mg6       1.0  0.17396  0.01940  0.27125  1.0000
  C   C73       1.0  0.06441  0.88995  0.59352  1.0000
  C   C74       1.0  0.06743  0.93221  0.50685  1.0000
  C  Sn13      1.0  0.10558  0.94873  0.40111  1.0000
  C  Sn14      1.0  0.14130  0.92237  0.38203  1.0000
  C   C75       1.0  0.13792  0.88011  0.46924  1.0000
  C   C76       1.0  0.09961  0.86392  0.57475  1.0000
  H   H37       1.0  0.03475  0.87740  0.67512  1.0000
  O  Te13      1.0  0.10806  0.99103  0.31547  1.0000
  O  Te14      1.0  0.17979  0.93805  0.27713  1.0000
  H   H38       1.0  0.09725  0.83117  0.64179  1.0000
  Mg  Mg7       1.0  0.16744  0.99780  0.18706  1.0000
  C   C77       1.0  0.04180  0.16914  0.36834  1.0000
  C   C78       1.0  0.05148  0.13186  0.44844  1.0000
  C  Sn15      1.0  0.09091  0.15550  0.55283  1.0000
  C  Sn16      1.0  0.12114  0.21763  0.57726  1.0000
  C   C79       1.0  0.11111  0.25454  0.49661  1.0000
  C   C80       1.0  0.07157  0.23042  0.39240  1.0000
  H   H39       1.0  0.01118  0.15047  0.28775  1.0000
  O  Te15      1.0  0.10008  0.11763  0.63186  1.0000
  O  Te16      1.0  0.16077  0.24243  0.68095  1.0000
  H   H40       1.0  0.06406  0.25929  0.33045  1.0000
  Mg  Mg8       1.0  0.15843  0.17254  0.76117  1.0000
  C   C81       1.0  0.81986  0.92855  0.59195  1.0000
  C   C82       1.0  0.85994  0.92522  0.50751  1.0000
  C  Sn17      1.0  0.83907  0.88483  0.40432  1.0000
  C  Sn18      1.0  0.77690  0.84713  0.38555  1.0000
  C   C83       1.0  0.73716  0.85083  0.47051  1.0000
  C   C84       1.0  0.75852  0.89140  0.57347  1.0000
  H   H41       1.0  0.83638  0.95995  0.67157  1.0000
  O  Te17      1.0  0.87974  0.88207  0.32089  1.0000
  O  Te18      1.0  0.75483  0.80637  0.28318  1.0000
  H   H42       1.0  0.72747  0.89399  0.63879  1.0000
  Mg  Mg9       1.0  0.82794  0.81926  0.19552  1.0000
  C   C85       1.0  0.91237  0.12053  0.59876  1.0000
  C   C86       1.0  0.87079  0.11825  0.50984  1.0000
  C  Sn19      1.0  0.85376  0.07969  0.40359  1.0000
  C  Sn20      1.0  0.87888  0.04277  0.38632  1.0000
  C   C87       1.0  0.92042  0.04536  0.47587  1.0000
  C   C88       1.0  0.93716  0.08412  0.58182  1.0000
  H   H43       1.0  0.92531  0.15050  0.68077  1.0000
  O  Te19      1.0  0.81217  0.07798  0.31565  1.0000
  O  Te20      1.0  0.86263  0.00381  0.28101  1.0000
  H   H44       1.0  0.96933  0.08585  0.65069  1.0000
  Mg  Mg10      1.0  0.80425  0.01759  0.18750  1.0000
  C   C89       1.0  0.94915  0.82359  0.36006  1.0000
  C   C90       1.0  0.94169  0.86086  0.44612  1.0000
  C  Sn21      1.0  0.90381  0.83704  0.55170  1.0000
  C  Sn22      1.0  0.87290  0.77473  0.57126  1.0000
  C   C91       1.0  0.88070  0.73783  0.48467  1.0000
  C   C92       1.0  0.91869  0.76213  0.37931  1.0000
  H   H45       1.0  0.97857  0.84239  0.27858  1.0000
  O  Te21      1.0  0.89686  0.87491  0.63672  1.0000
  O  Te22      1.0  0.83479  0.74975  0.67602  1.0000
  H   H46       1.0  0.92449  0.73327  0.31274  1.0000
  Mg  Mg11      1.0  0.83997  0.81971  0.76517  1.0000
  C   C93       1.0  0.16937  0.12481  0.36730  1.0000
  C   C94       1.0  0.13202  0.07788  0.44759  1.0000
  C  Sn23      1.0  0.15569  0.06276  0.55195  1.0000
  C  Sn24      1.0  0.21791  0.09532  0.57615  1.0000
  C   C95       1.0  0.25489  0.14221  0.49531  1.0000
  C   C96       1.0  0.23074  0.15695  0.39113  1.0000
  H   H47       1.0  0.15069  0.13624  0.28673  1.0000
  O  Te23      1.0  0.11774  0.01575  0.63117  1.0000
  O  Te24      1.0  0.24273  0.08116  0.67980  1.0000
  H   H48       1.0  0.25966  0.19331  0.32903  1.0000
  Mg  Mg12      1.0  0.17272  0.01337  0.76034  1.0000
  C   C97       1.0  0.46185  0.19927  0.17403  1.0000
  C   C98       1.0  0.42411  0.20978  0.09660  1.0000
  C  Sn25      1.0  0.45054  0.25672  0.99928  1.0000
  C  Sn26      1.0  0.51295  0.28915  0.97931  1.0000
  C   C99       1.0  0.54734  0.27378  0.05723  1.0000
  C   C100      1.0  0.52341  0.23123  0.15437  1.0000
  H   H49       1.0  0.44333  0.16633  0.24915  1.0000
  O  Te25      1.0  0.41220  0.26667  0.92282  1.0000
  O  Te26      1.0  0.53757  0.33180  0.88269  1.0000
  H   H50       1.0  0.55264  0.22308  0.21425  1.0000
  Mg  Mg13      1.0  0.46702  0.32941  0.80354  1.0000
  C   C101      1.0  0.72452  0.21881  0.99195  1.0000
  C   C102      1.0  0.72780  0.25804  0.07994  1.0000
  C  Sn27      1.0  0.77162  0.27825  0.17605  1.0000
  C  Sn28      1.0  0.80980  0.25416  0.18395  1.0000
  C   C103      1.0  0.80319  0.21046  0.09541  1.0000
  C   C104      1.0  0.76217  0.19504  0.99964  1.0000
  H   H51       1.0  0.69049  0.20342  0.91780  1.0000
  O  Te27      1.0  0.77726  0.32196  0.26321  1.0000
  O  Te28      1.0  0.85398  0.27358  0.27903  1.0000
  H   H52       1.0  0.75735  0.16121  0.93148  1.0000
  Mg  Mg14      1.0  0.84419  0.33395  0.37564  1.0000
  C   C105      1.0  0.80238  0.51452  0.98583  1.0000
  C   C106      1.0  0.75112  0.47238  0.06300  1.0000
  C  Sn29      1.0  0.72378  0.49555  0.14113  1.0000
  C  Sn30      1.0  0.74525  0.55757  0.14179  1.0000
  C   C107      1.0  0.79354  0.59485  0.06417  1.0000
  C   C108      1.0  0.82357  0.57570  0.98639  1.0000
  H   H53       1.0  0.82328  0.49622  0.92559  1.0000
  O  Te29      1.0  0.67561  0.45731  0.21766  1.0000
  O  Te30      1.0  0.71874  0.58190  0.21892  1.0000
  H   H54       1.0  0.86091  0.60485  0.92659  1.0000
  Mg  Mg15      1.0  0.65437  0.51164  0.30644  1.0000
  C   C109      1.0  0.54568  0.81305  0.17783  1.0000
  C   C110      1.0  0.58366  0.79595  0.12166  1.0000
  C  Sn31      1.0  0.56054  0.74507  0.04366  1.0000
  C  Sn32      1.0  0.49824  0.71076  0.02162  1.0000
  C   C111      1.0  0.46062  0.72826  0.07818  1.0000
  C   C112      1.0  0.48422  0.77925  0.15611  1.0000
  H   H55       1.0  0.56393  0.85251  0.23807  1.0000
  O  Te31      1.0  0.60211  0.73311  0.98832  1.0000
  O  Te32      1.0  0.47694  0.66422  0.94402  1.0000
  H   H56       1.0  0.45480  0.79249  0.19952  1.0000
  Mg  Mg16      1.0  0.54771  0.65995  0.88998  1.0000
  C   C113      1.0  0.21384  0.72453  0.16388  1.0000
  C   C114      1.0  0.26092  0.73130  0.08699  1.0000
  C  Sn33      1.0  0.28861  0.77897  0.00217  1.0000
  C  Sn34      1.0  0.27169  0.82506  0.99441  1.0000
  C   C115      1.0  0.22160  0.81341  0.07180  1.0000
  C   C116      1.0  0.19420  0.76554  0.15632  1.0000
  H   H57       1.0  0.19266  0.68751  0.22933  1.0000
  O  Te33      1.0  0.33856  0.78956  0.92601  1.0000
  O  Te34      1.0  0.29858  0.87312  0.91049  1.0000
  H   H58       1.0  0.15777  0.76033  0.21590  1.0000
  Mg  Mg17      1.0  0.36091  0.86239  0.82643  1.0000
  C   C117      1.0  0.26290  0.46140  0.16570  1.0000
  C   C118      1.0  0.21297  0.42337  0.09119  1.0000
  C  Sn35      1.0  0.19461  0.45092  0.99762  1.0000
  C  Sn36      1.0  0.22388  0.51321  0.97848  1.0000
  C   C119      1.0  0.27083  0.54637  0.05345  1.0000
  C   C120      1.0  0.29181  0.52284  0.14685  1.0000
  H   H59       1.0  0.27915  0.44319  0.23791  1.0000
  O  Te35      1.0  0.14466  0.41230  0.92406  1.0000
  O  Te36      1.0  0.20349  0.53743  0.88559  1.0000
  H   H60       1.0  0.33048  0.55229  0.20446  1.0000
  Mg  Mg18      1.0  0.13374  0.46661  0.80940  1.0000
  C   C121      1.0  0.45335  0.18888  0.66923  1.0000
  C   C122      1.0  0.41642  0.20390  0.60115  1.0000
  C  Sn37      1.0  0.44079  0.25119  0.51485  1.0000
  C  Sn38      1.0  0.50331  0.28395  0.49654  1.0000
  C   C123      1.0  0.53987  0.26854  0.56504  1.0000
  C   C124      1.0  0.51502  0.22116  0.65119  1.0000
  H   H61       1.0  0.43413  0.15220  0.73583  1.0000
  O  Te37      1.0  0.40325  0.26562  0.44766  1.0000
  O  Te38      1.0  0.52884  0.33141  0.41085  1.0000
  H   H62       1.0  0.54362  0.20951  0.70382  1.0000
  Mg  Mg19      1.0  0.45916  0.33401  0.34161  1.0000
  C   C125      1.0  0.70893  0.20018  0.49588  1.0000
  C   C126      1.0  0.71970  0.24989  0.56923  1.0000
  C  Sn39      1.0  0.76888  0.27717  0.65222  1.0000
  C  Sn40      1.0  0.80793  0.25414  0.66172  1.0000
  C   C127      1.0  0.79679  0.20441  0.58786  1.0000
  C   C128      1.0  0.74744  0.17745  0.50515  1.0000
  H   H63       1.0  0.67077  0.17934  0.43183  1.0000
  O  Te39      1.0  0.77897  0.32679  0.72484  1.0000
  O  Te40      1.0  0.85742  0.28055  0.74386  1.0000
  H   H64       1.0  0.73914  0.13898  0.44831  1.0000
  Mg  Mg20      1.0  0.85235  0.34726  0.82312  1.0000
  C   C129      1.0  0.78375  0.50080  0.45880  1.0000
  C   C130      1.0  0.74381  0.46430  0.55268  1.0000
  C  Sn41      1.0  0.72778  0.48906  0.65387  1.0000
  C  Sn42      1.0  0.75223  0.55152  0.66092  1.0000
  C   C131      1.0  0.79211  0.58765  0.56647  1.0000
  C   C132      1.0  0.80787  0.56241  0.46566  1.0000
  H   H65       1.0  0.79592  0.48128  0.38076  1.0000
  O  Te41      1.0  0.68783  0.45195  0.74688  1.0000
  O  Te42      1.0  0.73695  0.57743  0.76098  1.0000
  H   H66       1.0  0.83876  0.59068  0.39294  1.0000
  Mg  Mg21      1.0  0.68074  0.50828  0.86466  1.0000
  C   C133      1.0  0.53915  0.80588  0.66904  1.0000
  C   C134      1.0  0.57601  0.78925  0.60572  1.0000
  C  Sn43      1.0  0.55154  0.73980  0.52319  1.0000
  C  Sn44      1.0  0.48899  0.70648  0.50388  1.0000
  C   C135      1.0  0.45250  0.72351  0.56761  1.0000
  C   C136      1.0  0.47745  0.77305  0.65001  1.0000
  H   H67       1.0  0.55845  0.84423  0.73274  1.0000
  O  Te43      1.0  0.58901  0.72379  0.46072  1.0000
  O  Te44      1.0  0.46336  0.65688  0.42190  1.0000
  H   H68       1.0  0.44890  0.78594  0.69896  1.0000
  Mg  Mg22      1.0  0.53297  0.65270  0.35850  1.0000
  C   C137      1.0  0.26876  0.80940  0.49768  1.0000
  C   C138      1.0  0.21578  0.79745  0.55751  1.0000
  C  Sn45      1.0  0.18774  0.75025  0.64340  1.0000
  C  Sn46      1.0  0.21331  0.71445  0.66970  1.0000
  C   C139      1.0  0.26635  0.72681  0.60942  1.0000
  C   C140      1.0  0.29403  0.77413  0.52361  1.0000
  H   H69       1.0  0.29020  0.84603  0.43134  1.0000
  O  Te45      1.0  0.13482  0.73891  0.70230  1.0000
  O  Te46      1.0  0.18623  0.66702  0.75517  1.0000
  H   H70       1.0  0.33507  0.78340  0.47736  1.0000
  Mg  Mg23      1.0  0.11464  0.66925  0.81150  1.0000
  C   C141      1.0  0.17858  0.45541  0.50104  1.0000
  C   C142      1.0  0.19351  0.41559  0.55504  1.0000
  C  Sn47      1.0  0.24432  0.43646  0.63246  1.0000
  C  Sn48      1.0  0.28078  0.49836  0.65613  1.0000
  C   C143      1.0  0.26543  0.53784  0.60174  1.0000
  C   C144      1.0  0.21450  0.51648  0.52437  1.0000
  H   H71       1.0  0.13915  0.43889  0.44124  1.0000
  O  Te47      1.0  0.25860  0.39606  0.68561  1.0000
  O  Te48      1.0  0.33181  0.52042  0.73318  1.0000
  H   H72       1.0  0.20293  0.54732  0.48265  1.0000
  Mg  Mg24      1.0  0.33266  0.44773  0.78404  1.0000
