data_image0
_chemical_formula_structural       H80C136N40SnCSn2CSnTe4Mg2SnCSn2CSnTe4Mg2SnCSn2CSnTe4Mg2SnCSn2CSnTe4Mg2SnCSn2CSnTe4Mg2SnCSn2CSnTe4Mg2SnCSn2CSnTe4Mg2SnCSn2CSnTe4Mg2SnCSn2CSnTe4Mg2SnCSn2CSnTe4Mg2SnCSn2CSnTe4Mg2SnCSn2CSnTe4Mg2
_chemical_formula_sum              "H80 C160 N40 Sn48 Te48 Mg24"
_cell_length_a       38.5699
_cell_length_b       36.8431
_cell_length_c       8.22451
_cell_angle_alpha    123.214
_cell_angle_beta     100.829
_cell_angle_gamma    90.2195

_symmetry_space_group_name_H-M    'P1'
_space_group_IT_number       1

loop_
  _space_group_symop_operation_xyz
  'x, y, z'

loop_
  _atom_site_type_symbol
  _atom_site_label
  _atom_site_symmetry_multiplicity
  _atom_site_fract_x
  _atom_site_fract_y
  _atom_site_fract_z
  _atom_site_occupancy
  H   H1        1.0  0.58183  0.44042  0.91801  1.0000
  H   H2        1.0  0.58008  0.56646  0.00521  1.0000
  H   H3        1.0  0.61415  0.62268  0.10193  1.0000
  H   H4        1.0  0.65027  0.67871  0.09815  1.0000
  H   H5        1.0  0.72329  0.58492  0.85381  1.0000
  H   H6        1.0  0.73610  0.65399  0.90697  1.0000
  H   H7        1.0  0.76496  0.87699  0.13804  1.0000
  H   H8        1.0  0.77893  0.94691  0.18475  1.0000
  H   H9        1.0  0.84924  0.84929  0.94045  1.0000
  H   H10       1.0  0.88695  0.90312  0.93026  1.0000
  H   H11       1.0  0.61323  0.41179  0.01957  1.0000
  H   H12       1.0  0.65082  0.35756  0.02660  1.0000
  H   H13       1.0  0.73340  0.41330  0.91110  1.0000
  H   H14       1.0  0.74359  0.35065  0.92379  1.0000
  H   H15       1.0  0.77709  0.11092  0.09209  1.0000
  H   H16       1.0  0.86236  0.17220  0.01764  1.0000
  H   H17       1.0  0.89959  0.11689  0.01824  1.0000
  H   H18       1.0  0.92727  0.06947  0.01802  1.0000
  H   H19       1.0  0.08268  0.03836  0.91929  1.0000
  H   H20       1.0  0.11677  0.09052  0.01062  1.0000
  H   H21       1.0  0.22911  0.04873  0.80401  1.0000
  H   H22       1.0  0.15569  0.14385  0.00404  1.0000
  H   H23       1.0  0.24508  0.12075  0.86509  1.0000
  H   H24       1.0  0.27128  0.34206  0.09121  1.0000
  H   H25       1.0  0.36108  0.32295  0.93963  1.0000
  H   H26       1.0  0.28231  0.41068  0.14137  1.0000
  H   H27       1.0  0.39491  0.37911  0.92746  1.0000
  H   H28       1.0  0.42555  0.43416  0.00313  1.0000
  H   H29       1.0  0.42140  0.55945  0.08528  1.0000
  H   H30       1.0  0.38914  0.58808  0.98898  1.0000
  H   H31       1.0  0.35101  0.64299  0.99324  1.0000
  H   H32       1.0  0.27038  0.58594  0.11439  1.0000
  H   H33       1.0  0.25838  0.64759  0.09313  1.0000
  H   H34       1.0  0.23792  0.82364  0.90110  1.0000
  H   H35       1.0  0.22761  0.88395  0.88257  1.0000
  H   H36       1.0  0.14146  0.82400  0.95714  1.0000
  H   H37       1.0  0.10571  0.88144  0.96894  1.0000
  H   H38       1.0  0.92279  0.95792  0.05638  1.0000
  H   H39       1.0  0.08045  0.93264  0.99880  1.0000
  H   H40       1.0  0.76559  0.17006  0.06848  1.0000
  H   H41       1.0  0.57296  0.43359  0.50469  1.0000
  H   H42       1.0  0.57730  0.54104  0.43632  1.0000
  H   H43       1.0  0.61436  0.59612  0.56633  1.0000
  H   H44       1.0  0.65394  0.64951  0.56192  1.0000
  H   H45       1.0  0.72247  0.54969  0.31528  1.0000
  H   H46       1.0  0.73812  0.62001  0.36535  1.0000
  H   H47       1.0  0.76433  0.84413  0.58588  1.0000
  H   H48       1.0  0.77578  0.91189  0.62790  1.0000
  H   H49       1.0  0.85408  0.82321  0.43608  1.0000
  H   H50       1.0  0.88985  0.87938  0.43221  1.0000
  H   H51       1.0  0.59726  0.37879  0.44899  1.0000
  H   H52       1.0  0.63383  0.32303  0.45099  1.0000
  H   H53       1.0  0.72396  0.39369  0.46076  1.0000
  H   H54       1.0  0.73405  0.33354  0.47687  1.0000
  H   H55       1.0  0.76452  0.08150  0.58333  1.0000
  H   H56       1.0  0.84726  0.14592  0.50818  1.0000
  H   H57       1.0  0.88584  0.09131  0.50190  1.0000
  H   H58       1.0  0.91683  0.05736  0.56424  1.0000
  H   H59       1.0  0.07418  0.06750  0.50439  1.0000
  H   H60       1.0  0.10517  0.12348  0.58919  1.0000
  H   H61       1.0  0.21295  0.08966  0.32625  1.0000
  H   H62       1.0  0.13717  0.17960  0.56946  1.0000
  H   H63       1.0  0.22320  0.15803  0.37679  1.0000
  H   H64       1.0  0.25469  0.38200  0.64476  1.0000
  H   H65       1.0  0.34168  0.35570  0.47816  1.0000
  H   H66       1.0  0.27101  0.45356  0.70401  1.0000
  H   H67       1.0  0.38033  0.40838  0.46569  1.0000
  H   H68       1.0  0.41577  0.46208  0.57909  1.0000
  H   H69       1.0  0.42009  0.56876  0.50610  1.0000
  H   H70       1.0  0.39579  0.62060  0.53963  1.0000
  H   H71       1.0  0.36041  0.67752  0.54260  1.0000
  H   H72       1.0  0.27119  0.61439  0.58078  1.0000
  H   H73       1.0  0.26192  0.67449  0.56136  1.0000
  H   H74       1.0  0.24324  0.85342  0.38508  1.0000
  H   H75       1.0  0.23062  0.91666  0.37466  1.0000
  H   H76       1.0  0.15016  0.85478  0.47484  1.0000
  H   H77       1.0  0.11169  0.91029  0.49078  1.0000
  H   H78       1.0  0.92125  0.93438  0.50579  1.0000
  H   H79       1.0  0.07966  0.94242  0.42261  1.0000
  H   H80       1.0  0.75206  0.14326  0.56985  1.0000
  C   C1        1.0  0.37003  0.38548  0.97673  1.0000
  C   C2        1.0  0.63821  0.61499  0.04470  1.0000
  C   C3        1.0  0.63971  0.41081  0.99142  1.0000
  C   C4        1.0  0.36309  0.58913  0.02242  1.0000
  C   C5        1.0  0.86315  0.91210  0.98897  1.0000
  C   C6        1.0  0.14161  0.08189  0.96291  1.0000
  C   C7        1.0  0.13279  0.88116  0.94883  1.0000
  C   C8        1.0  0.87231  0.11630  0.03467  1.0000
  C   C9        1.0  0.35129  0.35393  0.98158  1.0000
  C   C10       1.0  0.65819  0.64639  0.04452  1.0000
  C   C11       1.0  0.66046  0.38091  0.99825  1.0000
  C   C12       1.0  0.34204  0.61937  0.02163  1.0000
  C   C13       1.0  0.84239  0.88200  0.99294  1.0000
  C   C14       1.0  0.16298  0.11175  0.96054  1.0000
  C   C15       1.0  0.15235  0.84899  0.94194  1.0000
  C   C16       1.0  0.85189  0.14725  0.03440  1.0000
  C   C17       1.0  0.69916  0.59444  0.91058  1.0000
  C   C18       1.0  0.30727  0.40260  0.09238  1.0000
  C   C19       1.0  0.29695  0.58734  0.08821  1.0000
  C   C20       1.0  0.70654  0.41214  0.93423  1.0000
  C   C21       1.0  0.20449  0.05921  0.85357  1.0000
  C   C22       1.0  0.80251  0.93591  0.12415  1.0000
  C   C23       1.0  0.80422  0.11274  0.07369  1.0000
  C   C24       1.0  0.20050  0.88268  0.90190  1.0000
  C   C25       1.0  0.35630  0.42518  0.03252  1.0000
  C   C26       1.0  0.64989  0.57375  0.97600  1.0000
  C   C27       1.0  0.65349  0.44044  0.95417  1.0000
  C   C28       1.0  0.35000  0.55905  0.05894  1.0000
  C   C29       1.0  0.85224  0.95350  0.05249  1.0000
  C   C30       1.0  0.15325  0.04152  0.91353  1.0000
  C   C31       1.0  0.14846  0.91368  0.93441  1.0000
  C   C32       1.0  0.85724  0.08389  0.05161  1.0000
  C   C33       1.0  0.31887  0.36224  0.04219  1.0000
  C   C34       1.0  0.68961  0.63630  0.97365  1.0000
  C   C35       1.0  0.69503  0.38087  0.96723  1.0000
  C   C36       1.0  0.30780  0.61911  0.05645  1.0000
  C   C37       1.0  0.81114  0.89380  0.06404  1.0000
  C   C38       1.0  0.19569  0.10079  0.90600  1.0000
  C   C39       1.0  0.18758  0.84946  0.91951  1.0000
  C   C40       1.0  0.81650  0.14572  0.05292  1.0000
  C   C41       1.0  0.78815  0.86401  0.07410  1.0000
  C   C42       1.0  0.22004  0.13181  0.91068  1.0000
  C   C43       1.0  0.21126  0.81909  0.92141  1.0000
  C   C44       1.0  0.79224  0.17554  0.05046  1.0000
  C   C45       1.0  0.29703  0.33192  0.05432  1.0000
  C   C46       1.0  0.71202  0.66629  0.96208  1.0000
  C   C47       1.0  0.71847  0.35029  0.96818  1.0000
  C   C48       1.0  0.28398  0.64942  0.05585  1.0000
  C   C49       1.0  0.12908  0.94944  0.94281  1.0000
  C   C50       1.0  0.87715  0.04878  0.04722  1.0000
  C   C51       1.0  0.87419  0.98662  0.05138  1.0000
  C   C52       1.0  0.13150  0.00969  0.92374  1.0000
  C   C53       1.0  0.63160  0.47295  0.94771  1.0000
  C   C54       1.0  0.37231  0.52629  0.05967  1.0000
  C   C55       1.0  0.37545  0.46103  0.03620  1.0000
  C   C56       1.0  0.62967  0.53826  0.97048  1.0000
  C   C57       1.0  0.09395  0.95377  0.96984  1.0000
  C   C58       1.0  0.91302  0.04621  0.03226  1.0000
  C   C59       1.0  0.91010  0.98285  0.04433  1.0000
  C   C60       1.0  0.09589  0.01440  0.93719  1.0000
  C   C61       1.0  0.59508  0.46948  0.94145  1.0000
  C   C62       1.0  0.40872  0.53030  0.06352  1.0000
  C   C63       1.0  0.41133  0.46123  0.02355  1.0000
  C   C64       1.0  0.59375  0.53891  0.98339  1.0000
  C   C65       1.0  0.07676  0.98702  0.96707  1.0000
  C   C66       1.0  0.93006  0.01229  0.02941  1.0000
  C   C67       1.0  0.57561  0.50359  0.96738  1.0000
  C   C68       1.0  0.42881  0.49670  0.03806  1.0000
  C   C69       1.0  0.35617  0.41769  0.52034  1.0000
  C   C70       1.0  0.63830  0.58667  0.50915  1.0000
  C   C71       1.0  0.62551  0.38144  0.45241  1.0000
  C   C72       1.0  0.36803  0.61985  0.54815  1.0000
  C   C73       1.0  0.86460  0.88593  0.47714  1.0000
  C   C74       1.0  0.12891  0.11663  0.52893  1.0000
  C   C75       1.0  0.13783  0.91034  0.45982  1.0000
  C   C76       1.0  0.85908  0.09039  0.52453  1.0000
  C   C77       1.0  0.33493  0.38822  0.52591  1.0000
  C   C78       1.0  0.66002  0.61646  0.50797  1.0000
  C   C79       1.0  0.64551  0.35010  0.45220  1.0000
  C   C80       1.0  0.34870  0.65179  0.55072  1.0000
  C   C81       1.0  0.84484  0.85441  0.47739  1.0000
  C   C82       1.0  0.14663  0.14811  0.51954  1.0000
  C   C83       1.0  0.15908  0.87967  0.45397  1.0000
  C   C84       1.0  0.83781  0.12061  0.52523  1.0000
  C   C85       1.0  0.69892  0.56133  0.37536  1.0000
  C   C86       1.0  0.29487  0.44228  0.64682  1.0000
  C   C87       1.0  0.29888  0.61634  0.57058  1.0000
  C   C88       1.0  0.69578  0.38965  0.45842  1.0000
  C   C89       1.0  0.18908  0.09824  0.38632  1.0000
  C   C90       1.0  0.80105  0.90358  0.58293  1.0000
  C   C91       1.0  0.79165  0.08461  0.56706  1.0000
  C   C92       1.0  0.20403  0.91429  0.39862  1.0000
  C   C93       1.0  0.34516  0.45864  0.57536  1.0000
  C   C94       1.0  0.64834  0.54487  0.44450  1.0000
  C   C95       1.0  0.64207  0.41642  0.45802  1.0000
  C   C96       1.0  0.35134  0.58641  0.55319  1.0000
  C   C97       1.0  0.85138  0.92581  0.53110  1.0000
  C   C98       1.0  0.14232  0.07638  0.46378  1.0000
  C   C99       1.0  0.15070  0.94198  0.43202  1.0000
  C   C100      1.0  0.84560  0.05833  0.54835  1.0000
  C   C101      1.0  0.30309  0.40024  0.58992  1.0000
  C   C102      1.0  0.69130  0.60388  0.43763  1.0000
  C   C103      1.0  0.68200  0.35398  0.45679  1.0000
  C   C104      1.0  0.31272  0.65019  0.55961  1.0000
  C   C105      1.0  0.81201  0.86298  0.53326  1.0000
  C   C106      1.0  0.17762  0.13909  0.44458  1.0000
  C   C107      1.0  0.19339  0.88105  0.42182  1.0000
  C   C108      1.0  0.80283  0.11826  0.54783  1.0000
  C   C109      1.0  0.78944  0.83278  0.54259  1.0000
  C   C110      1.0  0.19857  0.16922  0.42745  1.0000
  C   C111      1.0  0.21744  0.85055  0.41835  1.0000
  C   C112      1.0  0.77854  0.14822  0.54820  1.0000
  C   C113      1.0  0.27885  0.36987  0.59005  1.0000
  C   C114      1.0  0.71504  0.63340  0.42964  1.0000
  C   C115      1.0  0.70610  0.32474  0.46698  1.0000
  C   C116      1.0  0.28917  0.67998  0.55059  1.0000
  C   C117      1.0  0.12807  0.97511  0.43760  1.0000
  C   C118      1.0  0.86807  0.02580  0.55056  1.0000
  C   C119      1.0  0.87114  0.96134  0.53485  1.0000
  C   C120      1.0  0.12407  0.04048  0.46299  1.0000
  C   C121      1.0  0.62249  0.45155  0.46091  1.0000
  C   C122      1.0  0.37040  0.55077  0.54832  1.0000
  C   C123      1.0  0.36718  0.49042  0.56609  1.0000
  C   C124      1.0  0.62579  0.51243  0.44703  1.0000
  C   C125      1.0  0.09197  0.97134  0.44096  1.0000
  C   C126      1.0  0.90431  0.02913  0.55059  1.0000
  C   C127      1.0  0.90705  0.96121  0.52249  1.0000
  C   C128      1.0  0.08856  0.04036  0.48138  1.0000
  C   C129      1.0  0.58690  0.45523  0.48005  1.0000
  C   C130      1.0  0.40603  0.54707  0.52998  1.0000
  C   C131      1.0  0.40310  0.48614  0.55977  1.0000
  C   C132      1.0  0.58989  0.51670  0.45368  1.0000
  C   C133      1.0  0.07161  0.00485  0.46848  1.0000
  C   C134      1.0  0.92448  0.99601  0.53163  1.0000
  C   C135      1.0  0.56994  0.48851  0.47607  1.0000
  C   C136      1.0  0.42298  0.51388  0.53473  1.0000
  N   N1        1.0  0.68041  0.56415  0.91188  1.0000
  N   N2        1.0  0.32494  0.43309  0.08801  1.0000
  N   N3        1.0  0.31698  0.55811  0.09002  1.0000
  N   N4        1.0  0.68689  0.44123  0.92791  1.0000
  N   N5        1.0  0.18451  0.03060  0.86028  1.0000
  N   N6        1.0  0.82186  0.96475  0.11603  1.0000
  N   N7        1.0  0.82346  0.08278  0.07303  1.0000
  N   N8        1.0  0.18205  0.91381  0.90919  1.0000
  N   N9        1.0  0.30700  0.29581  0.02681  1.0000
  N   N10       1.0  0.70388  0.70441  0.00919  1.0000
  N   N11       1.0  0.70990  0.32378  0.01568  1.0000
  N   N12       1.0  0.29283  0.67659  0.01239  1.0000
  N   N13       1.0  0.79519  0.82480  0.01377  1.0000
  N   N14       1.0  0.21214  0.17048  0.96683  1.0000
  N   N15       1.0  0.20159  0.78959  0.94993  1.0000
  N   N16       1.0  0.80159  0.20637  0.02976  1.0000
  N   N17       1.0  0.14744  0.97736  0.92291  1.0000
  N   N18       1.0  0.85824  0.01927  0.05532  1.0000
  N   N19       1.0  0.64825  0.50628  0.95658  1.0000
  N   N20       1.0  0.35621  0.49258  0.05041  1.0000
  N   N21       1.0  0.67869  0.53283  0.38153  1.0000
  N   N22       1.0  0.31462  0.47046  0.63629  1.0000
  N   N23       1.0  0.31706  0.58537  0.56687  1.0000
  N   N24       1.0  0.67696  0.41983  0.45870  1.0000
  N   N25       1.0  0.17244  0.06786  0.39531  1.0000
  N   N26       1.0  0.81962  0.93396  0.58162  1.0000
  N   N27       1.0  0.81195  0.05553  0.56833  1.0000
  N   N28       1.0  0.18376  0.94391  0.40283  1.0000
  N   N29       1.0  0.28572  0.33052  0.52721  1.0000
  N   N30       1.0  0.70846  0.67285  0.49205  1.0000
  N   N31       1.0  0.69562  0.29187  0.47129  1.0000
  N   N32       1.0  0.29947  0.70980  0.52530  1.0000
  N   N33       1.0  0.79848  0.79560  0.50509  1.0000
  N   N34       1.0  0.18936  0.20650  0.46714  1.0000
  N   N35       1.0  0.20854  0.82231  0.45566  1.0000
  N   N36       1.0  0.78773  0.17824  0.52210  1.0000
  N   N37       1.0  0.14355  0.00879  0.44424  1.0000
  N   N38       1.0  0.85211  0.99283  0.54691  1.0000
  N   N39       1.0  0.64146  0.47999  0.44661  1.0000
  N   N40       1.0  0.35136  0.52243  0.56303  1.0000
  C  Sn1       1.0  0.29451  0.22173  0.02082  1.0000
  C   C137      1.0  0.32587  0.37490  0.97602  1.0000
  C  Sn2       1.0  0.29071  0.38366  0.95411  1.0000
  C  Sn3       1.0  0.26413  0.36127  0.97759  1.0000
  C   C138      1.0  0.23277  0.20813  0.02240  1.0000
  C  Sn4       1.0  0.26793  0.19934  0.04431  1.0000
  O  Te1       1.0  0.32983  0.21349  0.04206  1.0000
  O  Te2       1.0  0.28221  0.41451  0.90924  1.0000
  O  Te3       1.0  0.22879  0.36953  0.95630  1.0000
  O  Te4       1.0  0.27643  0.16852  0.08918  1.0000
  Mg  Mg1       1.0  0.23039  0.41442  0.89499  1.0000
  Mg  Mg2       1.0  0.32824  0.16860  0.10356  1.0000
  C  Sn5       1.0  0.77265  0.74593  0.09329  1.0000
  C   C139      1.0  0.73568  0.74143  0.06814  1.0000
  C  Sn6       1.0  0.75523  0.88396  0.98961  1.0000
  C  Sn7       1.0  0.77156  0.90907  0.93495  1.0000
  C   C140      1.0  0.80850  0.91356  0.96007  1.0000
  C  Sn8       1.0  0.78898  0.77104  0.03863  1.0000
  O  Te5       1.0  0.79308  0.72556  0.17207  1.0000
  O  Te6       1.0  0.71833  0.87900  0.96592  1.0000
  O  Te7       1.0  0.75109  0.92946  0.85612  1.0000
  O  Te8       1.0  0.82586  0.77599  0.06229  1.0000
  Mg  Mg3       1.0  0.70187  0.91305  0.85221  1.0000
  Mg  Mg4       1.0  0.84234  0.74194  0.17588  1.0000
  C  Sn9       1.0  0.77278  0.34870  0.94450  1.0000
  C   C141      1.0  0.80973  0.35022  0.96953  1.0000
  C  Sn10      1.0  0.79042  0.26684  0.04411  1.0000
  C  Sn11      1.0  0.77436  0.30519  0.09486  1.0000
  C   C142      1.0  0.73743  0.30365  0.06986  1.0000
  C  Sn12      1.0  0.75672  0.38704  0.99525  1.0000
  O  Te9       1.0  0.75210  0.30930  0.86970  1.0000
  O  Te10      1.0  0.82730  0.26756  0.06776  1.0000
  O  Te11      1.0  0.79507  0.34461  0.16971  1.0000
  O  Te12      1.0  0.71986  0.38632  0.97162  1.0000
  Mg  Mg5       1.0  0.84416  0.32908  0.17523  1.0000
  Mg  Mg6       1.0  0.70298  0.32482  0.86427  1.0000
  C  Sn13      1.0  0.22375  0.69560  0.91778  1.0000
  C   C143      1.0  0.26053  0.69575  0.93650  1.0000
  C  Sn14      1.0  0.28206  0.73292  0.99014  1.0000
  C  Sn15      1.0  0.22600  0.64830  0.02594  1.0000
  C   C144      1.0  0.18924  0.64814  0.00724  1.0000
  C  Sn16      1.0  0.20820  0.73342  0.95357  1.0000
  O  Te13      1.0  0.20274  0.65808  0.86401  1.0000
  O  Te14      1.0  0.27825  0.60984  0.00786  1.0000
  O  Te15      1.0  0.24704  0.68584  0.07974  1.0000
  O  Te16      1.0  0.17152  0.73405  0.93588  1.0000
  Mg  Mg7       1.0  0.29570  0.66899  0.08485  1.0000
  Mg  Mg8       1.0  0.15404  0.67493  0.85901  1.0000
  C  Sn17      1.0  0.99883  0.04039  0.01973  1.0000
  C   C145      1.0  0.01097  0.13208  0.96851  1.0000
  C  Sn18      1.0  0.02098  0.09200  0.94122  1.0000
  C  Sn19      1.0  0.05643  0.08247  0.96576  1.0000
  C   C146      1.0  0.04427  0.99077  0.01699  1.0000
  C  Sn20      1.0  0.03428  0.03085  0.04428  1.0000
  O  Te17      1.0  0.99186  0.08025  0.04629  1.0000
  O  Te18      1.0  0.99218  0.06178  0.88998  1.0000
  O  Te19      1.0  0.06338  0.04257  0.93916  1.0000
  O  Te20      1.0  0.06306  0.06107  0.09552  1.0000
  Mg  Mg9       1.0  0.01529  0.01203  0.87010  1.0000
  Mg  Mg10      1.0  0.03998  0.11084  0.11554  1.0000
  C  Sn21      1.0  0.50044  0.47983  0.10428  1.0000
  C   C147      1.0  0.47359  0.50251  0.07607  1.0000
  C  Sn22      1.0  0.51791  0.64574  0.97936  1.0000
  C  Sn23      1.0  0.54921  0.64380  0.90927  1.0000
  C   C148      1.0  0.57604  0.62113  0.93746  1.0000
  C  Sn24      1.0  0.53173  0.47789  0.03419  1.0000
  O  Te21      1.0  0.49605  0.45929  0.20135  1.0000
  O  Te22      1.0  0.49071  0.66822  0.95296  1.0000
  O  Te23      1.0  0.55358  0.66437  0.81215  1.0000
  O  Te24      1.0  0.55891  0.45542  0.06057  1.0000
  Mg  Mg11      1.0  0.50907  0.69092  0.81172  1.0000
  Mg  Mg12      1.0  0.54057  0.43268  0.20168  1.0000
  C  Sn25      1.0  0.21631  0.30012  0.49447  1.0000
  C   C149      1.0  0.25350  0.30656  0.54752  1.0000
  C  Sn26      1.0  0.27227  0.27447  0.55010  1.0000
  C  Sn27      1.0  0.25348  0.23509  0.49847  1.0000
  C   C150      1.0  0.21632  0.22866  0.44544  1.0000
  C  Sn28      1.0  0.19752  0.26074  0.44285  1.0000
  O  Te25      1.0  0.19810  0.33265  0.49290  1.0000
  O  Te26      1.0  0.30945  0.28166  0.60370  1.0000
  O  Te27      1.0  0.27174  0.20255  0.50009  1.0000
  O  Te28      1.0  0.16037  0.25356  0.38925  1.0000
  Mg  Mg13      1.0  0.32232  0.22757  0.58340  1.0000
  Mg  Mg14      1.0  0.14747  0.30761  0.40940  1.0000
  C  Sn29      1.0  0.78570  0.71669  0.45358  1.0000
  C   C151      1.0  0.77512  0.75251  0.44980  1.0000
  C  Sn30      1.0  0.74219  0.76635  0.48787  1.0000
  C  Sn31      1.0  0.71935  0.74393  0.53073  1.0000
  C   C152      1.0  0.72994  0.70815  0.53453  1.0000
  C  Sn32      1.0  0.76287  0.69428  0.49645  1.0000
  O  Te29      1.0  0.81875  0.70343  0.41509  1.0000
  O  Te30      1.0  0.73219  0.80223  0.48318  1.0000
  O  Te31      1.0  0.68629  0.75723  0.56923  1.0000
  O  Te32      1.0  0.77287  0.65843  0.50116  1.0000
  Mg  Mg15      1.0  0.68458  0.80788  0.54567  1.0000
  Mg  Mg16      1.0  0.82048  0.65276  0.43879  1.0000
  C  Sn33      1.0  0.77762  0.25385  0.54168  1.0000
  C   C153      1.0  0.76820  0.22113  0.56853  1.0000
  C  Sn34      1.0  0.73240  0.20688  0.53515  1.0000
  C  Sn35      1.0  0.70546  0.22572  0.47351  1.0000
  C   C154      1.0  0.71488  0.25842  0.44666  1.0000
  C  Sn36      1.0  0.75068  0.27269  0.48005  1.0000
  O  Te33      1.0  0.81358  0.26758  0.57591  1.0000
  O  Te34      1.0  0.72363  0.17413  0.56304  1.0000
  O  Te35      1.0  0.66948  0.21196  0.43930  1.0000
  O  Te36      1.0  0.75945  0.30541  0.45215  1.0000
  Mg  Mg17      1.0  0.67093  0.16641  0.49744  1.0000
  Mg  Mg18      1.0  0.81214  0.31314  0.51761  1.0000
  C  Sn37      1.0  0.22166  0.76127  0.53929  1.0000
  C   C155      1.0  0.23213  0.79536  0.52348  1.0000
  C  Sn38      1.0  0.26498  0.79805  0.47997  1.0000
  C  Sn39      1.0  0.28784  0.76597  0.45156  1.0000
  C   C156      1.0  0.27737  0.73189  0.46734  1.0000
  C  Sn40      1.0  0.24452  0.72919  0.51088  1.0000
  O  Te37      1.0  0.18870  0.75923  0.58290  1.0000
  O  Te38      1.0  0.27487  0.83245  0.46497  1.0000
  O  Te39      1.0  0.32082  0.76804  0.40793  1.0000
  O  Te40      1.0  0.23463  0.69481  0.52584  1.0000
  Mg  Mg19      1.0  0.32239  0.82110  0.40279  1.0000
  Mg  Mg20      1.0  0.18711  0.70612  0.58792  1.0000
  C  Sn41      1.0  0.98350  0.01946  0.40855  1.0000
  C   C157      1.0  0.96634  0.99461  0.45843  1.0000
  C  Sn42      1.0  0.98611  0.97549  0.54605  1.0000
  C  Sn43      1.0  0.02382  0.98134  0.58475  1.0000
  C   C158      1.0  0.04096  0.00618  0.53491  1.0000
  C  Sn44      1.0  0.02121  0.02532  0.44725  1.0000
  O  Te41      1.0  0.96320  0.03828  0.32108  1.0000
  O  Te42      1.0  0.96836  0.95078  0.59453  1.0000
  O  Te43      1.0  0.04411  0.96249  0.67228  1.0000
  O  Te44      1.0  0.03528  0.05002  0.39881  1.0000
  Mg  Mg21      1.0  0.00771  0.93171  0.71138  1.0000
  Mg  Mg22      1.0  0.99596  0.06912  0.28206  1.0000
  C  Sn45      1.0  0.49713  0.45544  0.38407  1.0000
  C   C159      1.0  0.52555  0.48622  0.43615  1.0000
  C  Sn46      1.0  0.52269  0.53091  0.55046  1.0000
  C  Sn47      1.0  0.49077  0.54513  0.61417  1.0000
  C   C160      1.0  0.46237  0.51436  0.56213  1.0000
  C  Sn48      1.0  0.46521  0.46966  0.44777  1.0000
  O  Te45      1.0  0.50058  0.41093  0.26969  1.0000
  O  Te46      1.0  0.55146  0.56107  0.60061  1.0000
  O  Te47      1.0  0.48734  0.58968  0.72863  1.0000
  O  Te48      1.0  0.43646  0.43952  0.39766  1.0000
  Mg  Mg23      1.0  0.53390  0.61815  0.75897  1.0000
  Mg  Mg24      1.0  0.45400  0.38243  0.23941  1.0000
