data_image0
_chemical_formula_structural       H40C64N16SnCSn2CSnTe4Mg2SnCSn2CSnTe4Mg2SnCSn2CSnTe4Mg2SnCSn2CSnTe4Mg2SnCSn2CSnTe4Mg2SnCSn2CSnTe4Mg2SnCSn2CSnTe4Mg2SnCSn2CSnTe4Mg2SnCSn2CSnTe4Mg2SnCSn2CSnTe4Mg2SnCSn2CSnTe4Mg2SnCSn2CSnTe4Mg2SnCSn2CSnTe4Mg2SnCSn2CSnTe4Mg2SnCSn2CSnTe4Mg2SnCSn2CSnTe4Mg2SnCSn2CSnTe4Mg2SnCSn2CSnTe4Mg2SnCSn2CSnTe4Mg2SnCSn2CSnTe4Mg2SnCSn2CSnTe4Mg2SnCSn2CSnTe4Mg2SnCSn2CSnTe4Mg2SnCSn2CSnTe4Mg2SnCSn2CSnTe4Mg2SnCSn2CSnTe4Mg2SnCSn2CSnTe4Mg2SnCSn2CSnTe4Mg2
_chemical_formula_sum              "H40 C120 N16 Sn112 Te112 Mg56"
_cell_length_a       35.4731
_cell_length_b       38.8856
_cell_length_c       8.0724
_cell_angle_alpha    63.8664
_cell_angle_beta     78.8641
_cell_angle_gamma    89.6762

_symmetry_space_group_name_H-M    'P1'
_space_group_IT_number       1

loop_
  _space_group_symop_operation_xyz
  'x, y, z'

loop_
  _atom_site_type_symbol
  _atom_site_label
  _atom_site_symmetry_multiplicity
  _atom_site_fract_x
  _atom_site_fract_y
  _atom_site_fract_z
  _atom_site_occupancy
  H   H1        1.0  0.75881  0.85309  0.46727  1.0000
  H   H2        1.0  0.75313  0.65293  0.65931  1.0000
  H   H3        1.0  0.69819  0.50589  0.54978  1.0000
  H   H4        1.0  0.59211  0.55825  0.56905  1.0000
  H   H5        1.0  0.59558  0.45246  0.52388  1.0000
  H   H6        1.0  0.42036  0.56334  0.48949  1.0000
  H   H7        1.0  0.42503  0.45489  0.46924  1.0000
  H   H8        1.0  0.31827  0.50723  0.47842  1.0000
  H   H9        1.0  0.25151  0.64530  0.68824  1.0000
  H   H10       1.0  0.25110  0.83036  0.71501  1.0000
  H   H11       1.0  0.27042  0.17586  0.33461  1.0000
  H   H12       1.0  0.10003  0.06558  0.45083  1.0000
  H   H13       1.0  0.76190  0.17886  0.32403  1.0000
  H   H14       1.0  0.76145  0.34887  0.53331  1.0000
  H   H15       1.0  0.26166  0.35735  0.40449  1.0000
  H   H16       1.0  0.92364  0.95330  0.49314  1.0000
  H   H17       1.0  0.09175  0.94532  0.59574  1.0000
  H   H18       1.0  0.92588  0.06902  0.42663  1.0000
  H   H19       1.0  0.82031  0.01090  0.45737  1.0000
  H   H20       1.0  0.20027  0.00343  0.53048  1.0000
  H   H21       1.0  0.74411  0.83115  0.95730  1.0000
  H   H22       1.0  0.73756  0.63034  0.15635  1.0000
  H   H23       1.0  0.68015  0.48684  0.02605  1.0000
  H   H24       1.0  0.57383  0.53664  0.08715  1.0000
  H   H25       1.0  0.57653  0.43628  0.99206  1.0000
  H   H26       1.0  0.40124  0.54473  0.05200  1.0000
  H   H27       1.0  0.40359  0.44898  0.91960  1.0000
  H   H28       1.0  0.29814  0.50099  0.98535  1.0000
  H   H29       1.0  0.24036  0.63866  0.21606  1.0000
  H   H30       1.0  0.24078  0.82659  0.21093  1.0000
  H   H31       1.0  0.24314  0.16937  0.84558  1.0000
  H   H32       1.0  0.07682  0.05391  0.96008  1.0000
  H   H33       1.0  0.74855  0.16454  0.78988  1.0000
  H   H34       1.0  0.74533  0.33223  0.00896  1.0000
  H   H35       1.0  0.23466  0.35627  0.87288  1.0000
  H   H36       1.0  0.90511  0.93381  0.99571  1.0000
  H   H37       1.0  0.07602  0.93488  0.07914  1.0000
  H   H38       1.0  0.90641  0.05075  0.91083  1.0000
  H   H39       1.0  0.80141  0.99125  0.94735  1.0000
  H   H40       1.0  0.17940  0.99595  0.05084  1.0000
  C   C1        1.0  0.78594  0.84710  0.51783  1.0000
  C   C2        1.0  0.14854  0.96997  0.56312  1.0000
  C   C3        1.0  0.10898  0.97143  0.56216  1.0000
  C   C4        1.0  0.29185  0.35291  0.41678  1.0000
  C   C5        1.0  0.64948  0.47487  0.53752  1.0000
  C   C6        1.0  0.61014  0.47573  0.53353  1.0000
  C   C7        1.0  0.23912  0.17352  0.38931  1.0000
  C   C8        1.0  0.87046  0.04440  0.44024  1.0000
  C   C9        1.0  0.90992  0.04347  0.44450  1.0000
  C   C10       1.0  0.72490  0.65902  0.62022  1.0000
  C   C11       1.0  0.36686  0.53880  0.48363  1.0000
  C   C12       1.0  0.40648  0.53942  0.48195  1.0000
  C   C13       1.0  0.22458  0.83278  0.66073  1.0000
  C   C14       1.0  0.87000  0.97890  0.46883  1.0000
  C   C15       1.0  0.90907  0.97881  0.47798  1.0000
  C   C16       1.0  0.73369  0.35086  0.48947  1.0000
  C   C17       1.0  0.36939  0.47715  0.46863  1.0000
  C   C18       1.0  0.40877  0.47838  0.47237  1.0000
  C   C19       1.0  0.78978  0.17849  0.36471  1.0000
  C   C20       1.0  0.15229  0.03801  0.49385  1.0000
  C   C21       1.0  0.11301  0.03852  0.48878  1.0000
  C   C22       1.0  0.28173  0.65469  0.61210  1.0000
  C   C23       1.0  0.64724  0.53517  0.56641  1.0000
  C   C24       1.0  0.60800  0.53503  0.55970  1.0000
  C   C25       1.0  0.09091  0.00560  0.52081  1.0000
  C   C26       1.0  0.58896  0.50575  0.54141  1.0000
  C   C27       1.0  0.42784  0.50904  0.47996  1.0000
  C   C28       1.0  0.34888  0.50755  0.47739  1.0000
  C   C29       1.0  0.66745  0.50497  0.55377  1.0000
  C   C30       1.0  0.16971  0.00370  0.52894  1.0000
  C   C31       1.0  0.85105  0.01159  0.45381  1.0000
  C   C32       1.0  0.92957  0.01068  0.46769  1.0000
  C   C33       1.0  0.77065  0.82563  0.01317  1.0000
  C   C34       1.0  0.13081  0.96133  0.06168  1.0000
  C   C35       1.0  0.09158  0.96130  0.05356  1.0000
  C   C36       1.0  0.26471  0.35117  0.88692  1.0000
  C   C37       1.0  0.63062  0.45622  0.01765  1.0000
  C   C38       1.0  0.59116  0.45793  0.01353  1.0000
  C   C39       1.0  0.21178  0.16752  0.89696  1.0000
  C   C40       1.0  0.85136  0.02515  0.92830  1.0000
  C   C41       1.0  0.89068  0.02468  0.93320  1.0000
  C   C42       1.0  0.71003  0.63766  0.11095  1.0000
  C   C43       1.0  0.34820  0.52768  0.00815  1.0000
  C   C44       1.0  0.38736  0.52512  0.01456  1.0000
  C   C45       1.0  0.21446  0.82802  0.15609  1.0000
  C   C46       1.0  0.85138  0.95923  0.96435  1.0000
  C   C47       1.0  0.89034  0.95943  0.97599  1.0000
  C   C48       1.0  0.71670  0.33236  0.97563  1.0000
  C   C49       1.0  0.34800  0.47033  0.95492  1.0000
  C   C50       1.0  0.38778  0.46999  0.95210  1.0000
  C   C51       1.0  0.77381  0.16032  0.85494  1.0000
  C   C52       1.0  0.13005  0.02843  0.00980  1.0000
  C   C53       1.0  0.09131  0.02769  0.99481  1.0000
  C   C54       1.0  0.27047  0.64708  0.13701  1.0000
  C   C55       1.0  0.62951  0.51559  0.05589  1.0000
  C   C56       1.0  0.58977  0.51517  0.05943  1.0000
  C   C57       1.0  0.07152  0.99427  0.01665  1.0000
  C   C58       1.0  0.57024  0.48727  0.03284  1.0000
  C   C59       1.0  0.40782  0.49642  0.98670  1.0000
  C   C60       1.0  0.32882  0.49972  0.98253  1.0000
  C   C61       1.0  0.64926  0.48594  0.03473  1.0000
  C   C62       1.0  0.14933  0.99521  0.04125  1.0000
  C   C63       1.0  0.83218  0.99211  0.94370  1.0000
  C   C64       1.0  0.91050  0.99187  0.96197  1.0000
  N   N1        1.0  0.30731  0.32208  0.42601  1.0000
  N   N2        1.0  0.79854  0.81343  0.57251  1.0000
  N   N3        1.0  0.71061  0.69134  0.59162  1.0000
  N   N4        1.0  0.22303  0.19913  0.43313  1.0000
  N   N5        1.0  0.72085  0.32689  0.43723  1.0000
  N   N6        1.0  0.21268  0.80820  0.60967  1.0000
  N   N7        1.0  0.29721  0.68858  0.56539  1.0000
  N   N8        1.0  0.80264  0.20461  0.40377  1.0000
  N   N9        1.0  0.27991  0.32036  0.89413  1.0000
  N   N10       1.0  0.78340  0.79200  0.07362  1.0000
  N   N11       1.0  0.69658  0.67033  0.08214  1.0000
  N   N12       1.0  0.19556  0.19526  0.92118  1.0000
  N   N13       1.0  0.70371  0.30713  0.93121  1.0000
  N   N14       1.0  0.20325  0.80270  0.10794  1.0000
  N   N15       1.0  0.28662  0.68127  0.07878  1.0000
  N   N16       1.0  0.78518  0.18362  0.91449  1.0000
  C  Sn1       1.0  0.37100  0.40836  0.41978  1.0000
  C   C65       1.0  0.35676  0.44276  0.40804  1.0000
  C  Sn2       1.0  0.31733  0.44715  0.42216  1.0000
  C  Sn3       1.0  0.29159  0.41650  0.44868  1.0000
  C   C66       1.0  0.30584  0.38213  0.46044  1.0000
  C  Sn4       1.0  0.34527  0.37772  0.44630  1.0000
  O  Te1       1.0  0.41053  0.40461  0.40531  1.0000
  O  Te2       1.0  0.30378  0.48182  0.40993  1.0000
  O  Te3       1.0  0.25204  0.42028  0.46314  1.0000
  O  Te4       1.0  0.35882  0.34307  0.45855  1.0000
  Mg  Mg1       1.0  0.24749  0.47304  0.43792  1.0000
  Mg  Mg2       1.0  0.41510  0.35181  0.43068  1.0000
  C  Sn5       1.0  0.72473  0.58820  0.60218  1.0000
  C   C67       1.0  0.71351  0.62521  0.55791  1.0000
  C  Sn6       1.0  0.67584  0.63341  0.53683  1.0000
  C  Sn7       1.0  0.64882  0.60400  0.56062  1.0000
  C   C68       1.0  0.66004  0.56701  0.60489  1.0000
  C  Sn8       1.0  0.69771  0.55879  0.62596  1.0000
  O  Te5       1.0  0.76254  0.58064  0.62259  1.0000
  O  Te6       1.0  0.66530  0.67064  0.49249  1.0000
  O  Te7       1.0  0.61099  0.61158  0.54016  1.0000
  O  Te8       1.0  0.70825  0.52159  0.67031  1.0000
  Mg  Mg3       1.0  0.61043  0.66675  0.47932  1.0000
  Mg  Mg4       1.0  0.76310  0.52544  0.68361  1.0000
  C  Sn9       1.0  0.28110  0.22781  0.53967  1.0000
  C   C69       1.0  0.24687  0.22698  0.47959  1.0000
  C  Sn10      1.0  0.23287  0.26118  0.36579  1.0000
  C  Sn11      1.0  0.25354  0.29695  0.31078  1.0000
  C   C70       1.0  0.28776  0.29777  0.37082  1.0000
  C  Sn12      1.0  0.30177  0.26358  0.48466  1.0000
  O  Te9       1.0  0.29456  0.19327  0.65337  1.0000
  O  Te10      1.0  0.19857  0.25962  0.30755  1.0000
  O  Te11      1.0  0.24006  0.33151  0.19699  1.0000
  O  Te12      1.0  0.33606  0.26513  0.54287  1.0000
  Mg  Mg5       1.0  0.19197  0.31447  0.15368  1.0000
  Mg  Mg6       1.0  0.34269  0.21030  0.69664  1.0000
  C  Sn13      1.0  0.79100  0.75733  0.46273  1.0000
  C   C71       1.0  0.77728  0.78362  0.52967  1.0000
  C  Sn14      1.0  0.74051  0.77678  0.64454  1.0000
  C  Sn15      1.0  0.71696  0.74293  0.69363  1.0000
  C   C72       1.0  0.73068  0.71667  0.62673  1.0000
  C  Sn16      1.0  0.76745  0.72349  0.51182  1.0000
  O  Te13      1.0  0.82785  0.76477  0.34809  1.0000
  O  Te14      1.0  0.72743  0.80348  0.70969  1.0000
  O  Te15      1.0  0.68008  0.73552  0.80836  1.0000
  O  Te16      1.0  0.78054  0.69681  0.44671  1.0000
  Mg  Mg7       1.0  0.67515  0.78053  0.86211  1.0000
  Mg  Mg8       1.0  0.83282  0.71972  0.29438  1.0000
  C  Sn17      1.0  0.00453  0.97187  0.51164  1.0000
  C   C73       1.0  0.97859  0.99768  0.53136  1.0000
  C  Sn18      1.0  0.99197  0.03212  0.52431  1.0000
  C  Sn19      1.0  0.03211  0.04096  0.49686  1.0000
  C   C74       1.0  0.05803  0.01516  0.47713  1.0000
  C  Sn20      1.0  0.04468  0.98071  0.48419  1.0000
  O  Te17      1.0  0.98432  0.93762  0.51913  1.0000
  O  Te18      1.0  0.96548  0.05747  0.54445  1.0000
  O  Te19      1.0  0.04612  0.07525  0.48939  1.0000
  O  Te20      1.0  0.06495  0.95538  0.46403  1.0000
  Mg  Mg9       1.0  0.99867  0.10051  0.52407  1.0000
  Mg  Mg10      1.0  0.03179  0.91234  0.48429  1.0000
  C  Sn21      1.0  0.80296  0.94236  0.45146  1.0000
  C   C75       1.0  0.83684  0.94370  0.51345  1.0000
  C  Sn22      1.0  0.85900  0.91228  0.56390  1.0000
  C  Sn23      1.0  0.84708  0.87883  0.55202  1.0000
  C   C76       1.0  0.81323  0.87750  0.49003  1.0000
  C  Sn24      1.0  0.79104  0.90891  0.43958  1.0000
  O  Te21      1.0  0.78745  0.97410  0.40174  1.0000
  O  Te22      1.0  0.89275  0.91429  0.62553  1.0000
  O  Te23      1.0  0.86882  0.84707  0.60181  1.0000
  O  Te24      1.0  0.75731  0.90691  0.37796  1.0000
  Mg  Mg11      1.0  0.91256  0.86364  0.67737  1.0000
  Mg  Mg12      1.0  0.73749  0.95754  0.32599  1.0000
  C  Sn25      1.0  0.22336  0.08136  0.41266  1.0000
  C   C77       1.0  0.18403  0.07015  0.48843  1.0000
  C  Sn26      1.0  0.15903  0.09623  0.51275  1.0000
  C  Sn27      1.0  0.17364  0.13431  0.46013  1.0000
  C   C78       1.0  0.21295  0.14550  0.38438  1.0000
  C  Sn28      1.0  0.23797  0.11944  0.36004  1.0000
  O  Te25      1.0  0.24782  0.05481  0.38959  1.0000
  O  Te26      1.0  0.11982  0.08435  0.58885  1.0000
  O  Te27      1.0  0.14914  0.16086  0.48327  1.0000
  O  Te28      1.0  0.27715  0.13130  0.28397  1.0000
  Mg  Mg13      1.0  0.09801  0.13103  0.59277  1.0000
  Mg  Mg14      1.0  0.29899  0.08465  0.27989  1.0000
  C  Sn29      1.0  0.49681  0.54317  0.49953  1.0000
  C   C79       1.0  0.47541  0.51984  0.45342  1.0000
  C  Sn30      1.0  0.48933  0.48603  0.45519  1.0000
  C  Sn31      1.0  0.52540  0.47531  0.50419  1.0000
  C   C80       1.0  0.54679  0.49863  0.55030  1.0000
  C  Sn32      1.0  0.53288  0.53245  0.54853  1.0000
  O  Te29      1.0  0.48233  0.57684  0.49683  1.0000
  O  Te30      1.0  0.46742  0.46317  0.40851  1.0000
  O  Te31      1.0  0.53988  0.44161  0.50685  1.0000
  O  Te32      1.0  0.55477  0.55529  0.59520  1.0000
  Mg  Mg15      1.0  0.49940  0.42000  0.43258  1.0000
  Mg  Mg16      1.0  0.52282  0.59846  0.57128  1.0000
  C  Sn33      1.0  0.65252  0.40264  0.52754  1.0000
  C   C81       1.0  0.66539  0.43260  0.55983  1.0000
  C  Sn34      1.0  0.70469  0.44020  0.54436  1.0000
  C  Sn35      1.0  0.73169  0.41740  0.49548  1.0000
  C   C82       1.0  0.71881  0.38747  0.46319  1.0000
  C  Sn36      1.0  0.67952  0.37984  0.47867  1.0000
  O  Te33      1.0  0.61309  0.39556  0.54379  1.0000
  O  Te34      1.0  0.71687  0.47030  0.57737  1.0000
  O  Te35      1.0  0.77114  0.42451  0.47926  1.0000
  O  Te36      1.0  0.66734  0.34977  0.44566  1.0000
  Mg  Mg17      1.0  0.77357  0.46871  0.53782  1.0000
  Mg  Mg18      1.0  0.61064  0.35135  0.48507  1.0000
  C  Sn37      1.0  0.34486  0.63434  0.40642  1.0000
  C   C83       1.0  0.30696  0.63055  0.50568  1.0000
  C  Sn38      1.0  0.28750  0.59413  0.62155  1.0000
  C  Sn39      1.0  0.30632  0.56081  0.63867  1.0000
  C   C84       1.0  0.34420  0.56462  0.53948  1.0000
  C  Sn40      1.0  0.36368  0.60103  0.42354  1.0000
  O  Te37      1.0  0.36375  0.67103  0.29141  1.0000
  O  Te38      1.0  0.24962  0.59106  0.71934  1.0000
  O  Te39      1.0  0.28739  0.52410  0.75380  1.0000
  O  Te40      1.0  0.40154  0.60410  0.32582  1.0000
  Mg  Mg19      1.0  0.23599  0.53479  0.85855  1.0000
  Mg  Mg20      1.0  0.41520  0.66035  0.18665  1.0000
  C  Sn41      1.0  0.74034  0.25187  0.32303  1.0000
  C   C85       1.0  0.77766  0.24231  0.34576  1.0000
  C  Sn42      1.0  0.79805  0.25865  0.42924  1.0000
  C  Sn43      1.0  0.78076  0.28507  0.49142  1.0000
  C   C86       1.0  0.74346  0.29460  0.46871  1.0000
  C  Sn44      1.0  0.72305  0.27829  0.38521  1.0000
  O  Te41      1.0  0.72049  0.23518  0.23920  1.0000
  O  Te42      1.0  0.83534  0.24867  0.45039  1.0000
  O  Te43      1.0  0.80064  0.30175  0.57530  1.0000
  O  Te44      1.0  0.68578  0.28825  0.36408  1.0000
  Mg  Mg21      1.0  0.85070  0.27904  0.57308  1.0000
  Mg  Mg22      1.0  0.67038  0.25788  0.24151  1.0000
  C  Sn45      1.0  0.28765  0.74589  0.67837  1.0000
  C   C87       1.0  0.27412  0.71640  0.64456  1.0000
  C  Sn46      1.0  0.24061  0.71941  0.57410  1.0000
  C  Sn47      1.0  0.22021  0.75261  0.53652  1.0000
  C   C88       1.0  0.23374  0.78209  0.57030  1.0000
  C  Sn48      1.0  0.26725  0.77909  0.64080  1.0000
  O  Te45      1.0  0.32122  0.74227  0.74884  1.0000
  O  Te46      1.0  0.22764  0.68954  0.54149  1.0000
  O  Te47      1.0  0.18662  0.75621  0.46601  1.0000
  O  Te48      1.0  0.28022  0.80894  0.67337  1.0000
  Mg  Mg23      1.0  0.18047  0.70786  0.44461  1.0000
  Mg  Mg24      1.0  0.32740  0.79066  0.77015  1.0000
  C  Sn49      1.0  0.14614  0.89137  0.63112  1.0000
  C   C89       1.0  0.15982  0.92353  0.64419  1.0000
  C  Sn50      1.0  0.19865  0.92898  0.64515  1.0000
  C  Sn51      1.0  0.22435  0.90173  0.63267  1.0000
  C   C90       1.0  0.21067  0.86960  0.61958  1.0000
  C  Sn52      1.0  0.17184  0.86413  0.61864  1.0000
  O  Te49      1.0  0.10720  0.88651  0.63040  1.0000
  O  Te50      1.0  0.21785  0.96134  0.65840  1.0000
  O  Te51      1.0  0.26331  0.90662  0.63341  1.0000
  O  Te52      1.0  0.15884  0.83179  0.60537  1.0000
  Mg  Mg25      1.0  0.27344  0.95531  0.65382  1.0000
  Mg  Mg26      1.0  0.10326  0.83780  0.60984  1.0000
  C  Sn53      1.0  0.85962  0.11170  0.49917  1.0000
  C   C91       1.0  0.84756  0.08010  0.47711  1.0000
  C  Sn54      1.0  0.81754  0.08231  0.38442  1.0000
  C  Sn55      1.0  0.79921  0.11683  0.31214  1.0000
  C   C92       1.0  0.81128  0.14841  0.33418  1.0000
  C  Sn56      1.0  0.84130  0.14622  0.42689  1.0000
  O  Te53      1.0  0.88969  0.10885  0.59231  1.0000
  O  Te54      1.0  0.80597  0.05033  0.36415  1.0000
  O  Te55      1.0  0.76912  0.11966  0.21895  1.0000
  O  Te56      1.0  0.85287  0.17818  0.44714  1.0000
  Mg  Mg27      1.0  0.76370  0.06833  0.22648  1.0000
  Mg  Mg28      1.0  0.89515  0.16022  0.58469  1.0000
  C  Sn57      1.0  0.27609  0.42747  0.82877  1.0000
  C   C93       1.0  0.28733  0.39122  0.85534  1.0000
  C  Sn58      1.0  0.31801  0.37650  0.94344  1.0000
  C  Sn59      1.0  0.38124  0.48969  0.00643  1.0000
  C   C94       1.0  0.32661  0.43470  0.97990  1.0000
  C  Sn60      1.0  0.29593  0.44944  0.89176  1.0000
  O  Te57      1.0  0.24533  0.44161  0.74035  1.0000
  O  Te58      1.0  0.32873  0.34019  0.96836  1.0000
  O  Te59      1.0  0.41202  0.47551  0.09491  1.0000
  O  Te60      1.0  0.28521  0.48573  0.86687  1.0000
  Mg  Mg29      1.0  0.41583  0.42456  0.09666  1.0000
  Mg  Mg30      1.0  0.24150  0.49260  0.73868  1.0000
  C  Sn61      1.0  0.64230  0.60435  0.07916  1.0000
  C   C95       1.0  0.67755  0.60444  0.13202  1.0000
  C  Sn62      1.0  0.70244  0.57616  0.13745  1.0000
  C  Sn63      1.0  0.69188  0.54720  0.08893  1.0000
  C   C96       1.0  0.65665  0.54713  0.03609  1.0000
  C  Sn64      1.0  0.63175  0.57539  0.03065  1.0000
  O  Te61      1.0  0.61788  0.63290  0.07471  1.0000
  O  Te62      1.0  0.73752  0.57684  0.19079  1.0000
  O  Te63      1.0  0.71634  0.51864  0.09343  1.0000
  O  Te64      1.0  0.55330  0.48351  0.97731  1.0000
  Mg  Mg31      1.0  0.76102  0.53178  0.17512  1.0000
  Mg  Mg32      1.0  0.52979  0.52857  0.99284  1.0000
  C  Sn65      1.0  0.27752  0.24983  0.89781  1.0000
  C   C97       1.0  0.26577  0.28690  0.84456  1.0000
  C  Sn66      1.0  0.22749  0.29375  0.83191  1.0000
  C  Sn67      1.0  0.20037  0.26289  0.87346  1.0000
  C   C98       1.0  0.21212  0.22584  0.92670  1.0000
  C  Sn68      1.0  0.25040  0.21897  0.93936  1.0000
  O  Te65      1.0  0.31594  0.24365  0.90954  1.0000
  O  Te66      1.0  0.21643  0.33106  0.77832  1.0000
  O  Te67      1.0  0.16192  0.26910  0.86168  1.0000
  O  Te68      1.0  0.26146  0.18169  0.99294  1.0000
  Mg  Mg33      1.0  0.16082  0.32498  0.78267  1.0000
  Mg  Mg34      1.0  0.31706  0.18773  0.98873  1.0000
  C  Sn69      1.0  0.71488  0.74305  0.20249  1.0000
  C   C99       1.0  0.75467  0.75308  0.14574  1.0000
  C  Sn70      1.0  0.77785  0.73811  0.03701  1.0000
  C  Sn71      1.0  0.71753  0.62139  0.98377  1.0000
  C   C100      1.0  0.72115  0.70259  0.04048  1.0000
  C  Sn72      1.0  0.69795  0.71754  0.14925  1.0000
  O  Te69      1.0  0.69226  0.75836  0.31114  1.0000
  O  Te70      1.0  0.77418  0.65734  0.98203  1.0000
  O  Te71      1.0  0.74019  0.60608  0.87504  1.0000
  O  Te72      1.0  0.65826  0.70712  0.20420  1.0000
  Mg  Mg35      1.0  0.79288  0.62892  0.83471  1.0000
  Mg  Mg36      1.0  0.63953  0.73553  0.35143  1.0000
  C  Sn73      1.0  0.03078  0.04708  0.00428  1.0000
  C   C101      1.0  0.00311  0.07121  0.02760  1.0000
  C  Sn74      1.0  0.01429  0.10596  0.02402  1.0000
  C  Sn75      1.0  0.01058  0.02561  0.99643  1.0000
  C   C102      1.0  0.03822  0.00150  0.97310  1.0000
  C  Sn76      1.0  0.02706  0.96674  0.97670  1.0000
  O  Te73      1.0  0.01894  0.01247  0.00836  1.0000
  O  Te74      1.0  0.98610  0.12959  0.04772  1.0000
  O  Te75      1.0  0.02240  0.06025  0.99238  1.0000
  O  Te76      1.0  0.05523  0.94311  0.95298  1.0000
  Mg  Mg37      1.0  0.01659  0.17391  0.03120  1.0000
  Mg  Mg38      1.0  0.01858  0.89880  0.96938  1.0000
  C  Sn77      1.0  0.82081  0.85937  0.14554  1.0000
  C   C103      1.0  0.79072  0.85791  0.05909  1.0000
  C  Sn78      1.0  0.73842  0.80003  0.91414  1.0000
  C  Sn79      1.0  0.76005  0.83556  0.85424  1.0000
  C   C104      1.0  0.79013  0.83701  0.94064  1.0000
  C  Sn80      1.0  0.84244  0.89490  0.08563  1.0000
  O  Te77      1.0  0.82922  0.82569  0.29017  1.0000
  O  Te78      1.0  0.70820  0.79785  0.82991  1.0000
  O  Te79      1.0  0.75162  0.86925  0.70949  1.0000
  O  Te80      1.0  0.87265  0.89707  0.16982  1.0000
  Mg  Mg39      1.0  0.70780  0.85161  0.63852  1.0000
  Mg  Mg40      1.0  0.87309  0.84333  0.36115  1.0000
  C  Sn81      1.0  0.08719  0.01295  0.98041  1.0000
  C   C105      1.0  0.10240  0.98295  0.94566  1.0000
  C  Sn82      1.0  0.14217  0.98010  0.91530  1.0000
  C  Sn83      1.0  0.16726  0.00779  0.91987  1.0000
  C   C106      1.0  0.15205  0.03776  0.95463  1.0000
  C  Sn84      1.0  0.11228  0.04064  0.98498  1.0000
  O  Te81      1.0  0.09072  0.10645  0.01039  1.0000
  O  Te82      1.0  0.15670  0.94986  0.88077  1.0000
  O  Te83      1.0  0.20714  0.00548  0.88985  1.0000
  O  Te84      1.0  0.14113  0.16207  0.01952  1.0000
  Mg  Mg41      1.0  0.21308  0.95904  0.84844  1.0000
  Mg  Mg42      1.0  0.08476  0.15291  0.05197  1.0000
  C  Sn85      1.0  0.49846  0.52056  0.06076  1.0000
  C   C107      1.0  0.52149  0.49049  0.07542  1.0000
  C  Sn86      1.0  0.50945  0.46116  0.03675  1.0000
  C  Sn87      1.0  0.43027  0.37070  0.98217  1.0000
  C   C108      1.0  0.40727  0.40075  0.96751  1.0000
  C  Sn88      1.0  0.46267  0.52131  0.00618  1.0000
  O  Te85      1.0  0.51107  0.54958  0.10008  1.0000
  O  Te86      1.0  0.53297  0.43140  0.05244  1.0000
  O  Te87      1.0  0.41767  0.34164  0.94285  1.0000
  O  Te88      1.0  0.39579  0.45985  0.99049  1.0000
  Mg  Mg43      1.0  0.45987  0.30725  0.98401  1.0000
  Mg  Mg44      1.0  0.46887  0.58402  0.05879  1.0000
  C  Sn89      1.0  0.67727  0.47391  0.01635  1.0000
  C   C109      1.0  0.68961  0.50419  0.04770  1.0000
  C  Sn90      1.0  0.72878  0.51220  0.03317  1.0000
  C  Sn91      1.0  0.71281  0.39828  0.98622  1.0000
  C   C110      1.0  0.70046  0.36803  0.95488  1.0000
  C  Sn92      1.0  0.66129  0.35999  0.96940  1.0000
  O  Te89      1.0  0.63797  0.46642  0.03163  1.0000
  O  Te90      1.0  0.74043  0.54261  0.06521  1.0000
  O  Te91      1.0  0.75213  0.40579  0.97097  1.0000
  O  Te92      1.0  0.64965  0.32960  0.93737  1.0000
  Mg  Mg45      1.0  0.79717  0.54153  0.02759  1.0000
  Mg  Mg46      1.0  0.59292  0.33068  0.97484  1.0000
  C  Sn93      1.0  0.27646  0.56945  0.21818  1.0000
  C   C111      1.0  0.29098  0.60740  0.15638  1.0000
  C  Sn94      1.0  0.32421  0.62318  0.01393  1.0000
  C  Sn95      1.0  0.29993  0.50934  0.93144  1.0000
  C   C112      1.0  0.28542  0.47142  0.99321  1.0000
  C  Sn96      1.0  0.29557  0.54683  0.13568  1.0000
  O  Te93      1.0  0.24320  0.55427  0.36076  1.0000
  O  Te94      1.0  0.29480  0.56997  0.95455  1.0000
  O  Te95      1.0  0.33322  0.52456  0.78876  1.0000
  O  Te96      1.0  0.28160  0.50884  0.19504  1.0000
  Mg  Mg47      1.0  0.34107  0.57773  0.75586  1.0000
  Mg  Mg48      1.0  0.23532  0.50106  0.39364  1.0000
  C  Sn97      1.0  0.77883  0.24543  0.98776  1.0000
  C   C113      1.0  0.76387  0.21517  0.96362  1.0000
  C  Sn98      1.0  0.72970  0.21797  0.89854  1.0000
  C  Sn99      1.0  0.71008  0.25173  0.85659  1.0000
  C   C114      1.0  0.72503  0.28197  0.88069  1.0000
  C  Sn100     1.0  0.75920  0.27919  0.94581  1.0000
  O  Te97      1.0  0.85642  0.33322  0.05298  1.0000
  O  Te98      1.0  0.71530  0.18734  0.87558  1.0000
  O  Te99      1.0  0.67585  0.25513  0.79132  1.0000
  O  Te100     1.0  0.77360  0.30981  0.96873  1.0000
  Mg  Mg49      1.0  0.66773  0.20566  0.78285  1.0000
  Mg  Mg50      1.0  0.86456  0.38273  0.06136  1.0000
  C  Sn101     1.0  0.22259  0.72381  0.02836  1.0000
  C   C115      1.0  0.26050  0.71599  0.04596  1.0000
  C  Sn102     1.0  0.28120  0.73494  0.11695  1.0000
  C  Sn103     1.0  0.26362  0.76227  0.17161  1.0000
  C   C116      1.0  0.22572  0.77007  0.15404  1.0000
  C  Sn104     1.0  0.20501  0.75113  0.08302  1.0000
  O  Te101     1.0  0.15905  0.61330  0.95705  1.0000
  O  Te102     1.0  0.31908  0.72666  0.13318  1.0000
  O  Te103     1.0  0.28380  0.78156  0.24297  1.0000
  O  Te104     1.0  0.16715  0.75940  0.06682  1.0000
  Mg  Mg51      1.0  0.33466  0.76041  0.23831  1.0000
  Mg  Mg52      1.0  0.10814  0.63443  0.96180  1.0000
  C  Sn105     1.0  0.15565  0.87534  0.02366  1.0000
  C   C117      1.0  0.19052  0.86647  0.08256  1.0000
  C  Sn106     1.0  0.20565  0.88659  0.16539  1.0000
  C  Sn107     1.0  0.18549  0.91618  0.18997  1.0000
  C   C118      1.0  0.15064  0.92504  0.13111  1.0000
  C  Sn108     1.0  0.13550  0.90493  0.04824  1.0000
  O  Te105     1.0  0.09768  0.76364  0.94121  1.0000
  O  Te106     1.0  0.24057  0.87721  0.22309  1.0000
  O  Te107     1.0  0.20011  0.93667  0.27249  1.0000
  O  Te108     1.0  0.05721  0.82308  0.99058  1.0000
  Mg  Mg53      1.0  0.24868  0.91331  0.32816  1.0000
  Mg  Mg54      1.0  0.04906  0.78699  0.88559  1.0000
  C  Sn109     1.0  0.84056  0.11893  0.89374  1.0000
  C   C119      1.0  0.80642  0.13028  0.83086  1.0000
  C  Sn110     1.0  0.78111  0.10381  0.82373  1.0000
  C  Sn111     1.0  0.79010  0.06518  0.88077  1.0000
  C   C120      1.0  0.82421  0.05385  0.94364  1.0000
  C  Sn112     1.0  0.84955  0.08031  0.95078  1.0000
  O  Te109     1.0  0.86544  0.14588  0.89970  1.0000
  O  Te110     1.0  0.74716  0.11583  0.76029  1.0000
  O  Te111     1.0  0.76519  0.03823  0.87475  1.0000
  O  Te112     1.0  0.92686  0.15951  0.01420  1.0000
  Mg  Mg55      1.0  0.72247  0.06847  0.77786  1.0000
  Mg  Mg56      1.0  0.90818  0.11563  0.99678  1.0000
