data_image0
_chemical_formula_structural       H104C172N40C2Sn2C2HTe2HMgC2Sn2C2HTe2HMgC2Sn2C2HTe2HMgC2Sn2C2HTe2HMgC2Sn2C2HTe2HMgC2Sn2C2HTe2HMg
_chemical_formula_sum              "H116 C196 N40 Sn12 Te12 Mg6"
_cell_length_a       38.5699
_cell_length_b       36.8431
_cell_length_c       8.22451
_cell_angle_alpha    123.214
_cell_angle_beta     100.829
_cell_angle_gamma    90.2195

_symmetry_space_group_name_H-M    'P1'
_space_group_IT_number       1

loop_
  _space_group_symop_operation_xyz
  'x, y, z'

loop_
  _atom_site_type_symbol
  _atom_site_label
  _atom_site_symmetry_multiplicity
  _atom_site_fract_x
  _atom_site_fract_y
  _atom_site_fract_z
  _atom_site_occupancy
  H   H1        1.0  0.58183  0.44042  0.91801  1.0000
  H   H2        1.0  0.58008  0.56646  0.00521  1.0000
  H   H3        1.0  0.61415  0.62268  0.10193  1.0000
  H   H4        1.0  0.65027  0.67871  0.09815  1.0000
  H   H5        1.0  0.72329  0.58492  0.85381  1.0000
  H   H6        1.0  0.73610  0.65399  0.90697  1.0000
  H   H7        1.0  0.77677  0.70918  0.05932  1.0000
  H   H8        1.0  0.81476  0.76264  0.05254  1.0000
  H   H9        1.0  0.72258  0.82050  0.96600  1.0000
  H   H10       1.0  0.68430  0.76603  0.96687  1.0000
  H   H11       1.0  0.76496  0.87699  0.13804  1.0000
  H   H12       1.0  0.77893  0.94691  0.18475  1.0000
  H   H13       1.0  0.84924  0.84929  0.94045  1.0000
  H   H14       1.0  0.88695  0.90312  0.93026  1.0000
  H   H15       1.0  0.61323  0.41179  0.01957  1.0000
  H   H16       1.0  0.65082  0.35756  0.02660  1.0000
  H   H17       1.0  0.73340  0.41330  0.91110  1.0000
  H   H18       1.0  0.74359  0.35065  0.92379  1.0000
  H   H19       1.0  0.77709  0.11092  0.09209  1.0000
  H   H20       1.0  0.86236  0.17220  0.01764  1.0000
  H   H21       1.0  0.89959  0.11689  0.01824  1.0000
  H   H22       1.0  0.92727  0.06947  0.01802  1.0000
  H   H23       1.0  0.08268  0.03836  0.91929  1.0000
  H   H24       1.0  0.11677  0.09052  0.01062  1.0000
  H   H25       1.0  0.22911  0.04873  0.80401  1.0000
  H   H26       1.0  0.15569  0.14385  0.00404  1.0000
  H   H27       1.0  0.24508  0.12075  0.86509  1.0000
  H   H28       1.0  0.28432  0.18582  0.10923  1.0000
  H   H29       1.0  0.32481  0.24215  0.13209  1.0000
  H   H30       1.0  0.23458  0.28276  0.90448  1.0000
  H   H31       1.0  0.19443  0.22697  0.88378  1.0000
  H   H32       1.0  0.27128  0.34206  0.09121  1.0000
  H   H33       1.0  0.36108  0.32295  0.93963  1.0000
  H   H34       1.0  0.28231  0.41068  0.14137  1.0000
  H   H35       1.0  0.39491  0.37911  0.92746  1.0000
  H   H36       1.0  0.42555  0.43416  0.00313  1.0000
  H   H37       1.0  0.42140  0.55945  0.08528  1.0000
  H   H38       1.0  0.48068  0.45059  0.08692  1.0000
  H   H39       1.0  0.52383  0.55043  0.92050  1.0000
  H   H40       1.0  0.46249  0.54717  0.94942  1.0000
  H   H41       1.0  0.54182  0.45347  0.05564  1.0000
  H   H42       1.0  0.38914  0.58808  0.98898  1.0000
  H   H43       1.0  0.35101  0.64299  0.99324  1.0000
  H   H44       1.0  0.27038  0.58594  0.11439  1.0000
  H   H45       1.0  0.25838  0.64759  0.09313  1.0000
  H   H46       1.0  0.23792  0.82364  0.90110  1.0000
  H   H47       1.0  0.22761  0.88395  0.88257  1.0000
  H   H48       1.0  0.14146  0.82400  0.95714  1.0000
  H   H49       1.0  0.10571  0.88144  0.96894  1.0000
  H   H50       1.0  0.92279  0.95792  0.05638  1.0000
  H   H51       1.0  0.08045  0.93264  0.99880  1.0000
  H   H52       1.0  0.76559  0.17006  0.06848  1.0000
  H   H53       1.0  0.57296  0.43359  0.50469  1.0000
  H   H54       1.0  0.57730  0.54104  0.43632  1.0000
  H   H55       1.0  0.61436  0.59612  0.56633  1.0000
  H   H56       1.0  0.65394  0.64951  0.56192  1.0000
  H   H57       1.0  0.72247  0.54969  0.31528  1.0000
  H   H58       1.0  0.73812  0.62001  0.36535  1.0000
  H   H59       1.0  0.76433  0.84413  0.58588  1.0000
  H   H60       1.0  0.77578  0.91189  0.62790  1.0000
  H   H61       1.0  0.85408  0.82321  0.43608  1.0000
  H   H62       1.0  0.88985  0.87938  0.43221  1.0000
  H   H63       1.0  0.59726  0.37879  0.44899  1.0000
  H   H64       1.0  0.63383  0.32303  0.45099  1.0000
  H   H65       1.0  0.72396  0.39369  0.46076  1.0000
  H   H66       1.0  0.73405  0.33354  0.47687  1.0000
  H   H67       1.0  0.76699  0.28922  0.44443  1.0000
  H   H68       1.0  0.67915  0.23342  0.52739  1.0000
  H   H69       1.0  0.80477  0.23830  0.47620  1.0000
  H   H70       1.0  0.71656  0.18130  0.55098  1.0000
  H   H71       1.0  0.76452  0.08150  0.58333  1.0000
  H   H72       1.0  0.84726  0.14592  0.50818  1.0000
  H   H73       1.0  0.88584  0.09131  0.50190  1.0000
  H   H74       1.0  0.91683  0.05736  0.56424  1.0000
  H   H75       1.0  0.07418  0.06750  0.50439  1.0000
  H   H76       1.0  0.10517  0.12348  0.58919  1.0000
  H   H77       1.0  0.21295  0.08966  0.32625  1.0000
  H   H78       1.0  0.13717  0.17960  0.56946  1.0000
  H   H79       1.0  0.22320  0.15803  0.37679  1.0000
  H   H80       1.0  0.26155  0.21613  0.57337  1.0000
  H   H81       1.0  0.30262  0.27172  0.59734  1.0000
  H   H82       1.0  0.21342  0.31918  0.40377  1.0000
  H   H83       1.0  0.17204  0.26327  0.37912  1.0000
  H   H84       1.0  0.25469  0.38200  0.64476  1.0000
  H   H85       1.0  0.34168  0.35570  0.47816  1.0000
  H   H86       1.0  0.27101  0.45356  0.70401  1.0000
  H   H87       1.0  0.38033  0.40838  0.46569  1.0000
  H   H88       1.0  0.41577  0.46208  0.57909  1.0000
  H   H89       1.0  0.42009  0.56876  0.50610  1.0000
  H   H90       1.0  0.45333  0.43911  0.40923  1.0000
  H   H91       1.0  0.53942  0.56307  0.59962  1.0000
  H   H92       1.0  0.47743  0.57400  0.61848  1.0000
  H   H93       1.0  0.51544  0.42825  0.39159  1.0000
  H   H94       1.0  0.39579  0.62060  0.53963  1.0000
  H   H95       1.0  0.36041  0.67752  0.54260  1.0000
  H   H96       1.0  0.27119  0.61439  0.58078  1.0000
  H   H97       1.0  0.26192  0.67449  0.56136  1.0000
  H   H98       1.0  0.24324  0.85342  0.38508  1.0000
  H   H99       1.0  0.23062  0.91666  0.37466  1.0000
  H   H100      1.0  0.15016  0.85478  0.47484  1.0000
  H   H101      1.0  0.11169  0.91029  0.49078  1.0000
  H   H102      1.0  0.92125  0.93438  0.50579  1.0000
  H   H103      1.0  0.07966  0.94242  0.42261  1.0000
  H   H104      1.0  0.75206  0.14326  0.56985  1.0000
  C   C1        1.0  0.37003  0.38548  0.97673  1.0000
  C   C2        1.0  0.63821  0.61499  0.04470  1.0000
  C   C3        1.0  0.63971  0.41081  0.99142  1.0000
  C   C4        1.0  0.36309  0.58913  0.02242  1.0000
  C   C5        1.0  0.86315  0.91210  0.98897  1.0000
  C   C6        1.0  0.14161  0.08189  0.96291  1.0000
  C   C7        1.0  0.13279  0.88116  0.94883  1.0000
  C   C8        1.0  0.87231  0.11630  0.03467  1.0000
  C   C9        1.0  0.35129  0.35393  0.98158  1.0000
  C   C10       1.0  0.65819  0.64639  0.04452  1.0000
  C   C11       1.0  0.66046  0.38091  0.99825  1.0000
  C   C12       1.0  0.34204  0.61937  0.02163  1.0000
  C   C13       1.0  0.84239  0.88200  0.99294  1.0000
  C   C14       1.0  0.16298  0.11175  0.96054  1.0000
  C   C15       1.0  0.15235  0.84899  0.94194  1.0000
  C   C16       1.0  0.85189  0.14725  0.03440  1.0000
  C   C17       1.0  0.69916  0.59444  0.91058  1.0000
  C   C18       1.0  0.30727  0.40260  0.09238  1.0000
  C   C19       1.0  0.29695  0.58734  0.08821  1.0000
  C   C20       1.0  0.70654  0.41214  0.93423  1.0000
  C   C21       1.0  0.20449  0.05921  0.85357  1.0000
  C   C22       1.0  0.80251  0.93591  0.12415  1.0000
  C   C23       1.0  0.80422  0.11274  0.07369  1.0000
  C   C24       1.0  0.20050  0.88268  0.90190  1.0000
  C   C25       1.0  0.35630  0.42518  0.03252  1.0000
  C   C26       1.0  0.64989  0.57375  0.97600  1.0000
  C   C27       1.0  0.65349  0.44044  0.95417  1.0000
  C   C28       1.0  0.35000  0.55905  0.05894  1.0000
  C   C29       1.0  0.85224  0.95350  0.05249  1.0000
  C   C30       1.0  0.15325  0.04152  0.91353  1.0000
  C   C31       1.0  0.14846  0.91368  0.93441  1.0000
  C   C32       1.0  0.85724  0.08389  0.05161  1.0000
  C   C33       1.0  0.31887  0.36224  0.04219  1.0000
  C   C34       1.0  0.68961  0.63630  0.97365  1.0000
  C   C35       1.0  0.69503  0.38087  0.96723  1.0000
  C   C36       1.0  0.30780  0.61911  0.05645  1.0000
  C   C37       1.0  0.81114  0.89380  0.06404  1.0000
  C   C38       1.0  0.19569  0.10079  0.90600  1.0000
  C   C39       1.0  0.18758  0.84946  0.91951  1.0000
  C   C40       1.0  0.81650  0.14572  0.05292  1.0000
  C   C41       1.0  0.24556  0.26219  0.95274  1.0000
  C   C42       1.0  0.76464  0.73252  0.03221  1.0000
  C   C43       1.0  0.73448  0.79637  0.98805  1.0000
  C   C44       1.0  0.27363  0.20645  0.06042  1.0000
  C   C45       1.0  0.28277  0.26642  0.02072  1.0000
  C   C46       1.0  0.72745  0.73308  0.00702  1.0000
  C   C47       1.0  0.77165  0.79566  0.01237  1.0000
  C   C48       1.0  0.23657  0.20155  0.98745  1.0000
  C   C49       1.0  0.78815  0.86401  0.07410  1.0000
  C   C50       1.0  0.22004  0.13181  0.91068  1.0000
  C   C51       1.0  0.21126  0.81909  0.92141  1.0000
  C   C52       1.0  0.79224  0.17554  0.05046  1.0000
  C   C53       1.0  0.29703  0.33192  0.05432  1.0000
  C   C54       1.0  0.71202  0.66629  0.96208  1.0000
  C   C55       1.0  0.71847  0.35029  0.96818  1.0000
  C   C56       1.0  0.28398  0.64942  0.05585  1.0000
  C   C57       1.0  0.78608  0.76277  0.03161  1.0000
  C   C58       1.0  0.22299  0.23075  0.93919  1.0000
  C   C59       1.0  0.29625  0.23810  0.07492  1.0000
  C   C60       1.0  0.71297  0.76582  0.98671  1.0000
  C   C61       1.0  0.12908  0.94944  0.94281  1.0000
  C   C62       1.0  0.87715  0.04878  0.04722  1.0000
  C   C63       1.0  0.87419  0.98662  0.05138  1.0000
  C   C64       1.0  0.13150  0.00969  0.92374  1.0000
  C   C65       1.0  0.63160  0.47295  0.94771  1.0000
  C   C66       1.0  0.37231  0.52629  0.05967  1.0000
  C   C67       1.0  0.37545  0.46103  0.03620  1.0000
  C   C68       1.0  0.62967  0.53826  0.97048  1.0000
  C   C69       1.0  0.09395  0.95377  0.96984  1.0000
  C   C70       1.0  0.91302  0.04621  0.03226  1.0000
  C   C71       1.0  0.91010  0.98285  0.04433  1.0000
  C   C72       1.0  0.09589  0.01440  0.93719  1.0000
  C   C73       1.0  0.59508  0.46948  0.94145  1.0000
  C   C74       1.0  0.40872  0.53030  0.06352  1.0000
  C   C75       1.0  0.41133  0.46123  0.02355  1.0000
  C   C76       1.0  0.59375  0.53891  0.98339  1.0000
  C   C77       1.0  0.52454  0.47362  0.02795  1.0000
  C   C78       1.0  0.47980  0.52703  0.97719  1.0000
  C   C79       1.0  0.48954  0.47199  0.04623  1.0000
  C   C80       1.0  0.51489  0.52882  0.95990  1.0000
  C   C81       1.0  0.07676  0.98702  0.96707  1.0000
  C   C82       1.0  0.93006  0.01229  0.02941  1.0000
  C   C83       1.0  0.57561  0.50359  0.96738  1.0000
  C   C84       1.0  0.42881  0.49670  0.03806  1.0000
  C   C85       1.0  0.53818  0.50199  0.98384  1.0000
  C   C86       1.0  0.46621  0.49867  0.02147  1.0000
  C   C87       1.0  0.35617  0.41769  0.52034  1.0000
  C   C88       1.0  0.63830  0.58667  0.50915  1.0000
  C   C89       1.0  0.62551  0.38144  0.45241  1.0000
  C   C90       1.0  0.36803  0.61985  0.54815  1.0000
  C   C91       1.0  0.86460  0.88593  0.47714  1.0000
  C   C92       1.0  0.12891  0.11663  0.52893  1.0000
  C   C93       1.0  0.13783  0.91034  0.45982  1.0000
  C   C94       1.0  0.85908  0.09039  0.52453  1.0000
  C   C95       1.0  0.33493  0.38822  0.52591  1.0000
  C   C96       1.0  0.66002  0.61646  0.50797  1.0000
  C   C97       1.0  0.64551  0.35010  0.45220  1.0000
  C   C98       1.0  0.34870  0.65179  0.55072  1.0000
  C   C99       1.0  0.84484  0.85441  0.47739  1.0000
  C   C100      1.0  0.14663  0.14811  0.51954  1.0000
  C   C101      1.0  0.15908  0.87967  0.45397  1.0000
  C   C102      1.0  0.83781  0.12061  0.52523  1.0000
  C   C103      1.0  0.69892  0.56133  0.37536  1.0000
  C   C104      1.0  0.29487  0.44228  0.64682  1.0000
  C   C105      1.0  0.29888  0.61634  0.57058  1.0000
  C   C106      1.0  0.69578  0.38965  0.45842  1.0000
  C   C107      1.0  0.18908  0.09824  0.38632  1.0000
  C   C108      1.0  0.80105  0.90358  0.58293  1.0000
  C   C109      1.0  0.79165  0.08461  0.56706  1.0000
  C   C110      1.0  0.20403  0.91429  0.39862  1.0000
  C   C111      1.0  0.34516  0.45864  0.57536  1.0000
  C   C112      1.0  0.64834  0.54487  0.44450  1.0000
  C   C113      1.0  0.64207  0.41642  0.45802  1.0000
  C   C114      1.0  0.35134  0.58641  0.55319  1.0000
  C   C115      1.0  0.85138  0.92581  0.53110  1.0000
  C   C116      1.0  0.14232  0.07638  0.46378  1.0000
  C   C117      1.0  0.15070  0.94198  0.43202  1.0000
  C   C118      1.0  0.84560  0.05833  0.54835  1.0000
  C   C119      1.0  0.30309  0.40024  0.58992  1.0000
  C   C120      1.0  0.69130  0.60388  0.43763  1.0000
  C   C121      1.0  0.68200  0.35398  0.45679  1.0000
  C   C122      1.0  0.31272  0.65019  0.55961  1.0000
  C   C123      1.0  0.81201  0.86298  0.53326  1.0000
  C   C124      1.0  0.17762  0.13909  0.44458  1.0000
  C   C125      1.0  0.19339  0.88105  0.42182  1.0000
  C   C126      1.0  0.80283  0.11826  0.54783  1.0000
  C   C127      1.0  0.22379  0.29708  0.44426  1.0000
  C   C128      1.0  0.75581  0.26628  0.47093  1.0000
  C   C129      1.0  0.25097  0.23803  0.53230  1.0000
  C   C130      1.0  0.72796  0.20495  0.52941  1.0000
  C   C131      1.0  0.26093  0.30005  0.50844  1.0000
  C   C132      1.0  0.71995  0.26508  0.48575  1.0000
  C   C133      1.0  0.21373  0.23559  0.47221  1.0000
  C   C134      1.0  0.76383  0.20621  0.51574  1.0000
  C   C135      1.0  0.78944  0.83278  0.54259  1.0000
  C   C136      1.0  0.19857  0.16922  0.42745  1.0000
  C   C137      1.0  0.21744  0.85055  0.41835  1.0000
  C   C138      1.0  0.77854  0.14822  0.54820  1.0000
  C   C139      1.0  0.27885  0.36987  0.59005  1.0000
  C   C140      1.0  0.71504  0.63340  0.42964  1.0000
  C   C141      1.0  0.70610  0.32474  0.46698  1.0000
  C   C142      1.0  0.28917  0.67998  0.55059  1.0000
  C   C143      1.0  0.20067  0.26566  0.42849  1.0000
  C   C144      1.0  0.77716  0.23765  0.48755  1.0000
  C   C145      1.0  0.27403  0.26932  0.54764  1.0000
  C   C146      1.0  0.70673  0.23388  0.51531  1.0000
  C   C147      1.0  0.12807  0.97511  0.43760  1.0000
  C   C148      1.0  0.86807  0.02580  0.55056  1.0000
  C   C149      1.0  0.87114  0.96134  0.53485  1.0000
  C   C150      1.0  0.12407  0.04048  0.46299  1.0000
  C   C151      1.0  0.62249  0.45155  0.46091  1.0000
  C   C152      1.0  0.37040  0.55077  0.54832  1.0000
  C   C153      1.0  0.36718  0.49042  0.56609  1.0000
  C   C154      1.0  0.62579  0.51243  0.44703  1.0000
  C   C155      1.0  0.09197  0.97134  0.44096  1.0000
  C   C156      1.0  0.90431  0.02913  0.55059  1.0000
  C   C157      1.0  0.90705  0.96121  0.52249  1.0000
  C   C158      1.0  0.08856  0.04036  0.48138  1.0000
  C   C159      1.0  0.58690  0.45523  0.48005  1.0000
  C   C160      1.0  0.40603  0.54707  0.52998  1.0000
  C   C161      1.0  0.40310  0.48614  0.55977  1.0000
  C   C162      1.0  0.58989  0.51670  0.45368  1.0000
  C   C163      1.0  0.50749  0.46050  0.44370  1.0000
  C   C164      1.0  0.48535  0.54173  0.56614  1.0000
  C   C165      1.0  0.47218  0.46671  0.45384  1.0000
  C   C166      1.0  0.52063  0.53548  0.55550  1.0000
  C   C167      1.0  0.07161  0.00485  0.46848  1.0000
  C   C168      1.0  0.92448  0.99601  0.53163  1.0000
  C   C169      1.0  0.56994  0.48851  0.47607  1.0000
  C   C170      1.0  0.42298  0.51388  0.53473  1.0000
  C   C171      1.0  0.53265  0.49474  0.49370  1.0000
  C   C172      1.0  0.46021  0.50751  0.51634  1.0000
  N   N1        1.0  0.68041  0.56415  0.91188  1.0000
  N   N2        1.0  0.32494  0.43309  0.08801  1.0000
  N   N3        1.0  0.31698  0.55811  0.09002  1.0000
  N   N4        1.0  0.68689  0.44123  0.92791  1.0000
  N   N5        1.0  0.18451  0.03060  0.86028  1.0000
  N   N6        1.0  0.82186  0.96475  0.11603  1.0000
  N   N7        1.0  0.82346  0.08278  0.07303  1.0000
  N   N8        1.0  0.18205  0.91381  0.90919  1.0000
  N   N9        1.0  0.30700  0.29581  0.02681  1.0000
  N   N10       1.0  0.70388  0.70441  0.00919  1.0000
  N   N11       1.0  0.70990  0.32378  0.01568  1.0000
  N   N12       1.0  0.29283  0.67659  0.01239  1.0000
  N   N13       1.0  0.79519  0.82480  0.01377  1.0000
  N   N14       1.0  0.21214  0.17048  0.96683  1.0000
  N   N15       1.0  0.20159  0.78959  0.94993  1.0000
  N   N16       1.0  0.80159  0.20637  0.02976  1.0000
  N   N17       1.0  0.14744  0.97736  0.92291  1.0000
  N   N18       1.0  0.85824  0.01927  0.05532  1.0000
  N   N19       1.0  0.64825  0.50628  0.95658  1.0000
  N   N20       1.0  0.35621  0.49258  0.05041  1.0000
  N   N21       1.0  0.67869  0.53283  0.38153  1.0000
  N   N22       1.0  0.31462  0.47046  0.63629  1.0000
  N   N23       1.0  0.31706  0.58537  0.56687  1.0000
  N   N24       1.0  0.67696  0.41983  0.45870  1.0000
  N   N25       1.0  0.17244  0.06786  0.39531  1.0000
  N   N26       1.0  0.81962  0.93396  0.58162  1.0000
  N   N27       1.0  0.81195  0.05553  0.56833  1.0000
  N   N28       1.0  0.18376  0.94391  0.40283  1.0000
  N   N29       1.0  0.28572  0.33052  0.52721  1.0000
  N   N30       1.0  0.70846  0.67285  0.49205  1.0000
  N   N31       1.0  0.69562  0.29187  0.47129  1.0000
  N   N32       1.0  0.29947  0.70980  0.52530  1.0000
  N   N33       1.0  0.79848  0.79560  0.50509  1.0000
  N   N34       1.0  0.18936  0.20650  0.46714  1.0000
  N   N35       1.0  0.20854  0.82231  0.45566  1.0000
  N   N36       1.0  0.78773  0.17824  0.52210  1.0000
  N   N37       1.0  0.14355  0.00879  0.44424  1.0000
  N   N38       1.0  0.85211  0.99283  0.54691  1.0000
  N   N39       1.0  0.64146  0.47999  0.44661  1.0000
  N   N40       1.0  0.35136  0.52243  0.56303  1.0000
  C   C173      1.0  0.01379  0.97025  0.54453  1.0000
  C   C174      1.0  0.03108  0.99323  0.48621  1.0000
  C  Sn1       1.0  0.01332  0.02146  0.44648  1.0000
  C  Sn2       1.0  0.97757  0.02673  0.46568  1.0000
  C   C175      1.0  0.96052  0.00361  0.52426  1.0000
  C   C176      1.0  0.97854  0.97543  0.56358  1.0000
  H   H105      1.0  0.02774  0.94847  0.57507  1.0000
  O  Te1       1.0  0.03099  0.04416  0.38830  1.0000
  O  Te2       1.0  0.95553  0.05474  0.42697  1.0000
  H   H106      1.0  0.96515  0.95767  0.60886  1.0000
  Mg  Mg1       1.0  0.99102  0.07853  0.35203  1.0000
  C   C177      1.0  0.02116  0.04232  0.07034  1.0000
  C   C178      1.0  0.03784  0.00497  0.01731  1.0000
  C  Sn3       1.0  0.06206  0.08792  0.94799  1.0000
  C  Sn4       1.0  0.02472  0.08588  0.93156  1.0000
  C   C179      1.0  0.00462  0.12342  0.98485  1.0000
  C   C180      1.0  0.98432  0.04033  0.05411  1.0000
  H   H107      1.0  0.03679  0.07277  0.12382  1.0000
  O  Te3       1.0  0.07916  0.05091  0.89572  1.0000
  O  Te4       1.0  0.00414  0.04682  0.86264  1.0000
  H   H108      1.0  0.97139  0.06924  0.09503  1.0000
  Mg  Mg2       1.0  0.03966  0.00526  0.80974  1.0000
  C   C181      1.0  0.27828  0.79628  0.48999  1.0000
  C   C182      1.0  0.24140  0.79604  0.46331  1.0000
  C  Sn5       1.0  0.22046  0.76527  0.46502  1.0000
  C  Sn6       1.0  0.23684  0.73421  0.49406  1.0000
  C   C183      1.0  0.27377  0.73475  0.52075  1.0000
  C   C184      1.0  0.29446  0.76567  0.51872  1.0000
  H   H109      1.0  0.29430  0.82022  0.48852  1.0000
  O  Te5       1.0  0.18364  0.76547  0.43806  1.0000
  O  Te6       1.0  0.21655  0.70311  0.49650  1.0000
  H   H110      1.0  0.32302  0.76587  0.53950  1.0000
  Mg  Mg3       1.0  0.16735  0.71656  0.45317  1.0000
  C   C185      1.0  0.79126  0.28193  0.04430  1.0000
  C   C186      1.0  0.78168  0.24455  0.03846  1.0000
  C  Sn7       1.0  0.74608  0.23190  0.01772  1.0000
  C  Sn8       1.0  0.71963  0.25722  0.00254  1.0000
  C   C187      1.0  0.72948  0.29455  0.00840  1.0000
  C   C188      1.0  0.76519  0.30691  0.02926  1.0000
  H   H111      1.0  0.81888  0.29149  0.06033  1.0000
  O  Te7       1.0  0.73697  0.19447  0.01222  1.0000
  O  Te8       1.0  0.72435  0.36776  0.98163  1.0000
  H   H112      1.0  0.77259  0.33584  0.03365  1.0000
  Mg  Mg4       1.0  0.72518  0.31405  0.98184  1.0000
  C   C189      1.0  0.22324  0.70293  0.98273  1.0000
  C   C190      1.0  0.25927  0.69971  0.98083  1.0000
  C  Sn9       1.0  0.28005  0.73083  0.98068  1.0000
  C  Sn10      1.0  0.26439  0.76580  0.98252  1.0000
  C   C191      1.0  0.22833  0.76876  0.98456  1.0000
  C   C192      1.0  0.20778  0.73743  0.98462  1.0000
  H   H113      1.0  0.20734  0.67871  0.98289  1.0000
  O  Te9       1.0  0.31600  0.72711  0.97870  1.0000
  O  Te10      1.0  0.28454  0.79737  0.98250  1.0000
  H   H114      1.0  0.17989  0.73995  0.98622  1.0000
  Mg  Mg5       1.0  0.33244  0.77820  0.97939  1.0000
  C   C193      1.0  0.72891  0.76250  0.48173  1.0000
  C   C194      1.0  0.76579  0.76847  0.50667  1.0000
  C  Sn11      1.0  0.78675  0.73924  0.52261  1.0000
  C  Sn12      1.0  0.77039  0.70338  0.51329  1.0000
  C   C195      1.0  0.73347  0.69768  0.48817  1.0000
  C   C196      1.0  0.71275  0.72714  0.47245  1.0000
  H   H115      1.0  0.71288  0.78528  0.46946  1.0000
  O  Te11      1.0  0.82356  0.74569  0.54755  1.0000
  O  Te12      1.0  0.79070  0.67366  0.52873  1.0000
  H   H116      1.0  0.68419  0.72249  0.45301  1.0000
  Mg  Mg6       1.0  0.83989  0.69634  0.56135  1.0000
