data_image0
_chemical_formula_structural       H40C64N16C2Sn2C2HTe2HMgC2Sn2C2HTe2HMgC2Sn2C2HTe2HMgC2Sn2C2HTe2HMgC2Sn2C2HTe2HMgC2Sn2C2HTe2HMgC2Sn2C2HTe2HMgC2Sn2C2HTe2HMgC2Sn2C2HTe2HMgC2Sn2C2HTe2HMgC2Sn2C2HTe2HMgC2Sn2C2HTe2HMgC2Sn2C2HTe2HMgC2Sn2C2HTe2HMgC2Sn2C2HTe2HMgC2Sn2C2HTe2HMgC2Sn2C2HTe2HMgC2Sn2C2HTe2HMgC2Sn2C2HTe2HMgC2Sn2C2HTe2HMgC2Sn2C2HTe2HMgC2Sn2C2HTe2HMgC2Sn2C2HTe2HMgC2Sn2C2HTe2HMgC2Sn2C2HTe2HMgC2Sn2C2HTe2HMgC2Sn2C2HTe2HMgC2Sn2C2HTe2HMg
_chemical_formula_sum              "H96 C176 N16 Sn56 Te56 Mg28"
_cell_length_a       35.4731
_cell_length_b       38.8856
_cell_length_c       8.0724
_cell_angle_alpha    63.8664
_cell_angle_beta     78.8641
_cell_angle_gamma    89.6762

_symmetry_space_group_name_H-M    'P1'
_space_group_IT_number       1

loop_
  _space_group_symop_operation_xyz
  'x, y, z'

loop_
  _atom_site_type_symbol
  _atom_site_label
  _atom_site_symmetry_multiplicity
  _atom_site_fract_x
  _atom_site_fract_y
  _atom_site_fract_z
  _atom_site_occupancy
  H   H1        1.0  0.75881  0.85309  0.46727  1.0000
  H   H2        1.0  0.75313  0.65293  0.65931  1.0000
  H   H3        1.0  0.69819  0.50589  0.54978  1.0000
  H   H4        1.0  0.59211  0.55825  0.56905  1.0000
  H   H5        1.0  0.59558  0.45246  0.52388  1.0000
  H   H6        1.0  0.42036  0.56334  0.48949  1.0000
  H   H7        1.0  0.42503  0.45489  0.46924  1.0000
  H   H8        1.0  0.31827  0.50723  0.47842  1.0000
  H   H9        1.0  0.25151  0.64530  0.68824  1.0000
  H   H10       1.0  0.25110  0.83036  0.71501  1.0000
  H   H11       1.0  0.27042  0.17586  0.33461  1.0000
  H   H12       1.0  0.10003  0.06558  0.45083  1.0000
  H   H13       1.0  0.76190  0.17886  0.32403  1.0000
  H   H14       1.0  0.76145  0.34887  0.53331  1.0000
  H   H15       1.0  0.26166  0.35735  0.40449  1.0000
  H   H16       1.0  0.92364  0.95330  0.49314  1.0000
  H   H17       1.0  0.09175  0.94532  0.59574  1.0000
  H   H18       1.0  0.92588  0.06902  0.42663  1.0000
  H   H19       1.0  0.82031  0.01090  0.45737  1.0000
  H   H20       1.0  0.20027  0.00343  0.53048  1.0000
  H   H21       1.0  0.74411  0.83115  0.95730  1.0000
  H   H22       1.0  0.73756  0.63034  0.15635  1.0000
  H   H23       1.0  0.68015  0.48684  0.02605  1.0000
  H   H24       1.0  0.57383  0.53664  0.08715  1.0000
  H   H25       1.0  0.57653  0.43628  0.99206  1.0000
  H   H26       1.0  0.40124  0.54473  0.05200  1.0000
  H   H27       1.0  0.40359  0.44898  0.91960  1.0000
  H   H28       1.0  0.29814  0.50099  0.98535  1.0000
  H   H29       1.0  0.24036  0.63866  0.21606  1.0000
  H   H30       1.0  0.24078  0.82659  0.21093  1.0000
  H   H31       1.0  0.24314  0.16937  0.84558  1.0000
  H   H32       1.0  0.07682  0.05391  0.96008  1.0000
  H   H33       1.0  0.74855  0.16454  0.78988  1.0000
  H   H34       1.0  0.74533  0.33223  0.00896  1.0000
  H   H35       1.0  0.23466  0.35627  0.87288  1.0000
  H   H36       1.0  0.90511  0.93381  0.99571  1.0000
  H   H37       1.0  0.07602  0.93488  0.07914  1.0000
  H   H38       1.0  0.90641  0.05075  0.91083  1.0000
  H   H39       1.0  0.80141  0.99125  0.94735  1.0000
  H   H40       1.0  0.17940  0.99595  0.05084  1.0000
  C   C1        1.0  0.78594  0.84710  0.51783  1.0000
  C   C2        1.0  0.14854  0.96997  0.56312  1.0000
  C   C3        1.0  0.10898  0.97143  0.56216  1.0000
  C   C4        1.0  0.29185  0.35291  0.41678  1.0000
  C   C5        1.0  0.64948  0.47487  0.53752  1.0000
  C   C6        1.0  0.61014  0.47573  0.53353  1.0000
  C   C7        1.0  0.23912  0.17352  0.38931  1.0000
  C   C8        1.0  0.87046  0.04440  0.44024  1.0000
  C   C9        1.0  0.90992  0.04347  0.44450  1.0000
  C   C10       1.0  0.72490  0.65902  0.62022  1.0000
  C   C11       1.0  0.36686  0.53880  0.48363  1.0000
  C   C12       1.0  0.40648  0.53942  0.48195  1.0000
  C   C13       1.0  0.22458  0.83278  0.66073  1.0000
  C   C14       1.0  0.87000  0.97890  0.46883  1.0000
  C   C15       1.0  0.90907  0.97881  0.47798  1.0000
  C   C16       1.0  0.73369  0.35086  0.48947  1.0000
  C   C17       1.0  0.36939  0.47715  0.46863  1.0000
  C   C18       1.0  0.40877  0.47838  0.47237  1.0000
  C   C19       1.0  0.78978  0.17849  0.36471  1.0000
  C   C20       1.0  0.15229  0.03801  0.49385  1.0000
  C   C21       1.0  0.11301  0.03852  0.48878  1.0000
  C   C22       1.0  0.28173  0.65469  0.61210  1.0000
  C   C23       1.0  0.64724  0.53517  0.56641  1.0000
  C   C24       1.0  0.60800  0.53503  0.55970  1.0000
  C   C25       1.0  0.09091  0.00560  0.52081  1.0000
  C   C26       1.0  0.58896  0.50575  0.54141  1.0000
  C   C27       1.0  0.42784  0.50904  0.47996  1.0000
  C   C28       1.0  0.34888  0.50755  0.47739  1.0000
  C   C29       1.0  0.66745  0.50497  0.55377  1.0000
  C   C30       1.0  0.16971  0.00370  0.52894  1.0000
  C   C31       1.0  0.85105  0.01159  0.45381  1.0000
  C   C32       1.0  0.92957  0.01068  0.46769  1.0000
  C   C33       1.0  0.77065  0.82563  0.01317  1.0000
  C   C34       1.0  0.13081  0.96133  0.06168  1.0000
  C   C35       1.0  0.09158  0.96130  0.05356  1.0000
  C   C36       1.0  0.26471  0.35117  0.88692  1.0000
  C   C37       1.0  0.63062  0.45622  0.01765  1.0000
  C   C38       1.0  0.59116  0.45793  0.01353  1.0000
  C   C39       1.0  0.21178  0.16752  0.89696  1.0000
  C   C40       1.0  0.85136  0.02515  0.92830  1.0000
  C   C41       1.0  0.89068  0.02468  0.93320  1.0000
  C   C42       1.0  0.71003  0.63766  0.11095  1.0000
  C   C43       1.0  0.34820  0.52768  0.00815  1.0000
  C   C44       1.0  0.38736  0.52512  0.01456  1.0000
  C   C45       1.0  0.21446  0.82802  0.15609  1.0000
  C   C46       1.0  0.85138  0.95923  0.96435  1.0000
  C   C47       1.0  0.89034  0.95943  0.97599  1.0000
  C   C48       1.0  0.71670  0.33236  0.97563  1.0000
  C   C49       1.0  0.34800  0.47033  0.95492  1.0000
  C   C50       1.0  0.38778  0.46999  0.95210  1.0000
  C   C51       1.0  0.77381  0.16032  0.85494  1.0000
  C   C52       1.0  0.13005  0.02843  0.00980  1.0000
  C   C53       1.0  0.09131  0.02769  0.99481  1.0000
  C   C54       1.0  0.27047  0.64708  0.13701  1.0000
  C   C55       1.0  0.62951  0.51559  0.05589  1.0000
  C   C56       1.0  0.58977  0.51517  0.05943  1.0000
  C   C57       1.0  0.07152  0.99427  0.01665  1.0000
  C   C58       1.0  0.57024  0.48727  0.03284  1.0000
  C   C59       1.0  0.40782  0.49642  0.98670  1.0000
  C   C60       1.0  0.32882  0.49972  0.98253  1.0000
  C   C61       1.0  0.64926  0.48594  0.03473  1.0000
  C   C62       1.0  0.14933  0.99521  0.04125  1.0000
  C   C63       1.0  0.83218  0.99211  0.94370  1.0000
  C   C64       1.0  0.91050  0.99187  0.96197  1.0000
  N   N1        1.0  0.30731  0.32208  0.42601  1.0000
  N   N2        1.0  0.79854  0.81343  0.57251  1.0000
  N   N3        1.0  0.71061  0.69134  0.59162  1.0000
  N   N4        1.0  0.22303  0.19913  0.43313  1.0000
  N   N5        1.0  0.72085  0.32689  0.43723  1.0000
  N   N6        1.0  0.21268  0.80820  0.60967  1.0000
  N   N7        1.0  0.29721  0.68858  0.56539  1.0000
  N   N8        1.0  0.80264  0.20461  0.40377  1.0000
  N   N9        1.0  0.27991  0.32036  0.89413  1.0000
  N   N10       1.0  0.78340  0.79200  0.07362  1.0000
  N   N11       1.0  0.69658  0.67033  0.08214  1.0000
  N   N12       1.0  0.19556  0.19526  0.92118  1.0000
  N   N13       1.0  0.70371  0.30713  0.93121  1.0000
  N   N14       1.0  0.20325  0.80270  0.10794  1.0000
  N   N15       1.0  0.28662  0.68127  0.07878  1.0000
  N   N16       1.0  0.78518  0.18362  0.91449  1.0000
  C   C65       1.0  0.35916  0.38572  0.46563  1.0000
  C   C66       1.0  0.32142  0.38155  0.44574  1.0000
  C  Sn1       1.0  0.29742  0.41126  0.42184  1.0000
  C  Sn2       1.0  0.31156  0.44574  0.41779  1.0000
  C   C67       1.0  0.34937  0.44963  0.43768  1.0000
  C   C68       1.0  0.37313  0.41972  0.46158  1.0000
  H   H41       1.0  0.37755  0.36258  0.48402  1.0000
  O  Te1       1.0  0.25978  0.40662  0.40225  1.0000
  O  Te2       1.0  0.28820  0.47589  0.39402  1.0000
  H   H42       1.0  0.40236  0.42296  0.47685  1.0000
  Mg  Mg1       1.0  0.23901  0.45588  0.37332  1.0000
  C   C69       1.0  0.65144  0.61276  0.52735  1.0000
  C   C70       1.0  0.66405  0.57701  0.55266  1.0000
  C  Sn3       1.0  0.69780  0.56546  0.61902  1.0000
  C  Sn4       1.0  0.71926  0.59023  0.66075  1.0000
  C   C71       1.0  0.70638  0.62593  0.63508  1.0000
  C   C72       1.0  0.67257  0.63720  0.56854  1.0000
  H   H43       1.0  0.62527  0.62148  0.47596  1.0000
  O  Te3       1.0  0.71000  0.52965  0.64344  1.0000
  O  Te4       1.0  0.75309  0.57940  0.72733  1.0000
  H   H44       1.0  0.66280  0.66487  0.54907  1.0000
  Mg  Mg2       1.0  0.75795  0.52779  0.73752  1.0000
  C   C73       1.0  0.23073  0.27607  0.35367  1.0000
  C   C74       1.0  0.24181  0.23891  0.40123  1.0000
  C  Sn5       1.0  0.27587  0.22838  0.46618  1.0000
  C  Sn6       1.0  0.29919  0.25561  0.48374  1.0000
  C   C75       1.0  0.28783  0.29270  0.43591  1.0000
  C   C76       1.0  0.25371  0.30294  0.37101  1.0000
  H   H45       1.0  0.20431  0.28399  0.30355  1.0000
  O  Te5       1.0  0.28653  0.19114  0.51302  1.0000
  O  Te6       1.0  0.33337  0.24584  0.54836  1.0000
  H   H46       1.0  0.24512  0.33170  0.33431  1.0000
  Mg  Mg3       1.0  0.33566  0.19154  0.59456  1.0000
  C   C77       1.0  0.72575  0.77268  0.65142  1.0000
  C   C78       1.0  0.76564  0.78199  0.60272  1.0000
  C  Sn7       1.0  0.79018  0.76097  0.53291  1.0000
  C  Sn8       1.0  0.77441  0.73007  0.51155  1.0000
  C   C79       1.0  0.73447  0.72100  0.56054  1.0000
  C   C80       1.0  0.71018  0.74222  0.63033  1.0000
  H   H47       1.0  0.70696  0.78911  0.70531  1.0000
  O  Te7       1.0  0.82996  0.77065  0.48500  1.0000
  O  Te8       1.0  0.79828  0.70860  0.44204  1.0000
  H   H48       1.0  0.67930  0.73502  0.66790  1.0000
  Mg  Mg4       1.0  0.85061  0.73285  0.39624  1.0000
  C   C81       1.0  0.99738  0.03985  0.53215  1.0000
  C   C82       1.0  0.97537  0.01833  0.47861  1.0000
  C  Sn9       1.0  0.99106  0.98866  0.44255  1.0000
  C  Sn10      1.0  0.02950  0.98044  0.46057  1.0000
  C   C83       1.0  0.05127  0.00212  0.51434  1.0000
  C   C84       1.0  0.03529  0.03176  0.55003  1.0000
  H   H49       1.0  0.98501  0.06277  0.55987  1.0000
  O  Te9       1.0  0.96868  0.96744  0.38913  1.0000
  O  Te10      1.0  0.03969  0.95093  0.42545  1.0000
  H   H50       1.0  0.05232  0.04840  0.59160  1.0000
  Mg  Mg5       1.0  0.99766  0.93011  0.35647  1.0000
  C   C85       1.0  0.80796  0.94486  0.39091  1.0000
  C   C86       1.0  0.83949  0.94654  0.46836  1.0000
  C  Sn11      1.0  0.85649  0.91307  0.56636  1.0000
  C  Sn12      1.0  0.84159  0.87729  0.58693  1.0000
  C   C87       1.0  0.81005  0.87592  0.50881  1.0000
  C   C88       1.0  0.79326  0.90959  0.41107  1.0000
  H   H51       1.0  0.79498  0.97091  0.31520  1.0000
  O  Te11      1.0  0.88796  0.91526  0.64292  1.0000
  O  Te12      1.0  0.85803  0.84340  0.68413  1.0000
  H   H52       1.0  0.76886  0.90828  0.35101  1.0000
  Mg  Mg6       1.0  0.90047  0.86114  0.76320  1.0000
  C   C89       1.0  0.23485  0.10470  0.34525  1.0000
  C   C90       1.0  0.22197  0.13472  0.38589  1.0000
  C  Sn13      1.0  0.18362  0.13312  0.47449  1.0000
  C  Sn14      1.0  0.15775  0.10082  0.52318  1.0000
  C   C91       1.0  0.17093  0.07092  0.48204  1.0000
  C   C92       1.0  0.20936  0.07282  0.39330  1.0000
  H   H53       1.0  0.26459  0.10616  0.27668  1.0000
  O  Te13      1.0  0.17123  0.16337  0.51400  1.0000
  O  Te14      1.0  0.11928  0.09847  0.61188  1.0000
  H   H54       1.0  0.21933  0.04956  0.36196  1.0000
  Mg  Mg7       1.0  0.11608  0.14693  0.63642  1.0000
  C   C93       1.0  0.52244  0.47715  0.46584  1.0000
  C   C94       1.0  0.54471  0.50069  0.50726  1.0000
  C  Sn15      1.0  0.52787  0.52871  0.55385  1.0000
  C  Sn16      1.0  0.48800  0.53317  0.55900  1.0000
  C   C95       1.0  0.46597  0.50946  0.51746  1.0000
  C   C96       1.0  0.48311  0.48153  0.47096  1.0000
  H   H55       1.0  0.53569  0.45552  0.42996  1.0000
  O  Te15      1.0  0.55054  0.55199  0.59477  1.0000
  O  Te16      1.0  0.47044  0.56094  0.60519  1.0000
  H   H56       1.0  0.46586  0.46329  0.43902  1.0000
  Mg  Mg8       1.0  0.51342  0.58574  0.64989  1.0000
  C   C97       1.0  0.71829  0.43435  0.55182  1.0000
  C   C98       1.0  0.68195  0.44477  0.51459  1.0000
  C  Sn17      1.0  0.65912  0.42201  0.47130  1.0000
  C  Sn18      1.0  0.67300  0.38819  0.46533  1.0000
  C   C99       1.0  0.70938  0.37800  0.50293  1.0000
  C   C100      1.0  0.73200  0.40099  0.54604  1.0000
  H   H57       1.0  0.73579  0.45213  0.58528  1.0000
  O  Te17      1.0  0.62288  0.43285  0.43440  1.0000
  O  Te18      1.0  0.65077  0.36491  0.42251  1.0000
  H   H58       1.0  0.76012  0.39291  0.57498  1.0000
  Mg  Mg9       1.0  0.60330  0.39174  0.38269  1.0000
  C   C101      1.0  0.36152  0.61737  0.42736  1.0000
  C   C102      1.0  0.35013  0.57850  0.49124  1.0000
  C  Sn19      1.0  0.31262  0.56341  0.59303  1.0000
  C  Sn20      1.0  0.28607  0.58775  0.63131  1.0000
  C   C103      1.0  0.29774  0.62660  0.56667  1.0000
  C   C104      1.0  0.33535  0.64140  0.46500  1.0000
  H   H59       1.0  0.39061  0.62883  0.34861  1.0000
  O  Te19      1.0  0.30172  0.52451  0.65587  1.0000
  O  Te20      1.0  0.24840  0.57342  0.73267  1.0000
  H   H60       1.0  0.34415  0.67150  0.41545  1.0000
  Mg  Mg10      1.0  0.24721  0.51844  0.78847  1.0000
  C   C105      1.0  0.72415  0.26210  0.37883  1.0000
  C   C106      1.0  0.73680  0.28937  0.42957  1.0000
  C  Sn21      1.0  0.77415  0.29014  0.46031  1.0000
  C  Sn22      1.0  0.79924  0.26307  0.43970  1.0000
  C   C107      1.0  0.78631  0.23593  0.38875  1.0000
  C   C108      1.0  0.74887  0.23541  0.35840  1.0000
  H   H61       1.0  0.69519  0.26171  0.35523  1.0000
  O  Te21      1.0  0.78633  0.31757  0.51100  1.0000
  O  Te22      1.0  0.83672  0.26321  0.46950  1.0000
  H   H62       1.0  0.73909  0.21431  0.31899  1.0000
  Mg  Mg11      1.0  0.84000  0.30618  0.53646  1.0000
  C   C109      1.0  0.22652  0.72338  0.57699  1.0000
  C   C110      1.0  0.26534  0.71697  0.57650  1.0000
  C  Sn23      1.0  0.28948  0.74116  0.60536  1.0000
  C  Sn24      1.0  0.27439  0.77232  0.63529  1.0000
  C   C111      1.0  0.23551  0.77847  0.63565  1.0000
  C   C112      1.0  0.21162  0.75409  0.60657  1.0000
  H   H63       1.0  0.20803  0.70450  0.55459  1.0000
  O  Te23      1.0  0.32819  0.73436  0.60436  1.0000
  O  Te24      1.0  0.29788  0.79694  0.66456  1.0000
  H   H64       1.0  0.18156  0.75904  0.60708  1.0000
  Mg  Mg12      1.0  0.34870  0.77587  0.65063  1.0000
  C   C113      1.0  0.15008  0.89526  0.56835  1.0000
  C   C114      1.0  0.16125  0.92597  0.59942  1.0000
  C  Sn25      1.0  0.19638  0.92723  0.65133  1.0000
  C  Sn26      1.0  0.22074  0.89715  0.67238  1.0000
  C   C115      1.0  0.20932  0.86657  0.64085  1.0000
  C   C116      1.0  0.17409  0.86559  0.58900  1.0000
  H   H65       1.0  0.12284  0.89451  0.52813  1.0000
  O  Te25      1.0  0.21328  0.95811  0.68190  1.0000
  O  Te26      1.0  0.25601  0.89770  0.72408  1.0000
  H   H66       1.0  0.16547  0.84183  0.56484  1.0000
  Mg  Mg13      1.0  0.26411  0.94592  0.75021  1.0000
  C   C117      1.0  0.85607  0.13558  0.44036  1.0000
  C   C118      1.0  0.82173  0.14661  0.37894  1.0000
  C  Sn27      1.0  0.79946  0.12170  0.34582  1.0000
  C  Sn28      1.0  0.81186  0.08509  0.37490  1.0000
  C   C119      1.0  0.84624  0.07433  0.43649  1.0000
  C   C120      1.0  0.86831  0.09948  0.46915  1.0000
  H   H67       1.0  0.87313  0.15503  0.46573  1.0000
  O  Te27      1.0  0.76524  0.13318  0.28442  1.0000
  O  Te28      1.0  0.79015  0.05964  0.34293  1.0000
  H   H68       1.0  0.89488  0.09092  0.51682  1.0000
  Mg  Mg14      1.0  0.74563  0.08839  0.26010  1.0000
  C   C121      1.0  0.33234  0.38038  0.94742  1.0000
  C   C122      1.0  0.29492  0.37870  0.91878  1.0000
  C  Sn29      1.0  0.27271  0.40978  0.89145  1.0000
  C  Sn30      1.0  0.28834  0.44314  0.89285  1.0000
  C   C123      1.0  0.32581  0.44455  0.92148  1.0000
  C   C124      1.0  0.34778  0.41328  0.94874  1.0000
  H   H69       1.0  0.34935  0.35619  0.96841  1.0000
  O  Te29      1.0  0.23536  0.40762  0.86310  1.0000
  O  Te30      1.0  0.26677  0.47463  0.86582  1.0000
  H   H70       1.0  0.37677  0.41460  0.97079  1.0000
  Mg  Mg15      1.0  0.21729  0.45793  0.83276  1.0000
  C   C125      1.0  0.64633  0.60970  0.01566  1.0000
  C   C126      1.0  0.67942  0.60921  0.08639  1.0000
  C  Sn31      1.0  0.69988  0.57658  0.14213  1.0000
  C  Sn32      1.0  0.68691  0.54389  0.12656  1.0000
  C   C127      1.0  0.65379  0.54468  0.05550  1.0000
  C   C128      1.0  0.63353  0.57747  0.00018  1.0000
  H   H71       1.0  0.58727  0.54387  0.97276  1.0000
  O  Te31      1.0  0.73287  0.57657  0.21256  1.0000
  O  Te32      1.0  0.70683  0.51090  0.18119  1.0000
  H   H72       1.0  0.56454  0.48664  0.94531  1.0000
  Mg  Mg16      1.0  0.75018  0.52481  0.26862  1.0000
  C   C129      1.0  0.21502  0.29074  0.81461  1.0000
  C   C130      1.0  0.24911  0.29290  0.87342  1.0000
  C  Sn33      1.0  0.26955  0.26051  0.94288  1.0000
  C  Sn34      1.0  0.25555  0.22534  0.95344  1.0000
  C   C131      1.0  0.22143  0.22348  0.89413  1.0000
  C   C132      1.0  0.20119  0.25607  0.82491  1.0000
  H   H73       1.0  0.19937  0.31596  0.76095  1.0000
  O  Te33      1.0  0.34694  0.35438  0.00110  1.0000
  O  Te34      1.0  0.31880  0.28374  0.02222  1.0000
  H   H74       1.0  0.17481  0.25439  0.77928  1.0000
  Mg  Mg17      1.0  0.36376  0.30176  0.08453  1.0000
  C   C133      1.0  0.70010  0.73293  0.16062  1.0000
  C   C134      1.0  0.71345  0.70685  0.09167  1.0000
  C  Sn35      1.0  0.75291  0.70694  0.02596  1.0000
  C  Sn36      1.0  0.77942  0.73366  0.02957  1.0000
  C   C135      1.0  0.76577  0.75962  0.09895  1.0000
  C   C136      1.0  0.72622  0.75929  0.16430  1.0000
  H   H75       1.0  0.66950  0.73267  0.21129  1.0000
  O  Te35      1.0  0.72237  0.58948  0.95747  1.0000
  O  Te36      1.0  0.77562  0.64315  0.96482  1.0000
  H   H76       1.0  0.71589  0.77947  0.21780  1.0000
  Mg  Mg18      1.0  0.77907  0.60168  0.88470  1.0000
  C   C137      1.0  0.01186  0.96102  0.95711  1.0000
  C   C138      1.0  0.03368  0.98715  0.98449  1.0000
  C  Sn37      1.0  0.05946  0.10721  0.02143  1.0000
  C  Sn38      1.0  0.01925  0.10987  0.03111  1.0000
  C   C139      1.0  0.99767  0.08358  0.00365  1.0000
  C   C140      1.0  0.97220  0.96362  0.96670  1.0000
  H   H77       1.0  0.02571  0.93877  0.92863  1.0000
  O  Te37      1.0  0.08169  0.13309  0.04836  1.0000
  O  Te38      1.0  0.00092  0.13841  0.06789  1.0000
  H   H78       1.0  0.95529  0.94338  0.94564  1.0000
  Mg  Mg19      1.0  0.04354  0.16696  0.09461  1.0000
  C   C141      1.0  0.84030  0.87688  0.10190  1.0000
  C   C142      1.0  0.83486  0.91571  0.00142  1.0000
  C  Sn39      1.0  0.76166  0.83515  0.90288  1.0000
  C  Sn40      1.0  0.73689  0.80634  0.90528  1.0000
  C   C143      1.0  0.78595  0.85879  0.00633  1.0000
  C   C144      1.0  0.81587  0.84845  0.10440  1.0000
  H   H79       1.0  0.86344  0.86887  0.17787  1.0000
  O  Te39      1.0  0.75664  0.87407  0.80316  1.0000
  O  Te40      1.0  0.70687  0.81619  0.80807  1.0000
  H   H80       1.0  0.82006  0.81839  0.18228  1.0000
  Mg  Mg20      1.0  0.71166  0.87310  0.69265  1.0000
  C   C145      1.0  0.21049  0.09581  0.88381  1.0000
  C   C146      1.0  0.19586  0.12656  0.91345  1.0000
  C  Sn41      1.0  0.15676  0.12498  0.99106  1.0000
  C  Sn42      1.0  0.17529  0.18319  0.03981  1.0000
  C   C147      1.0  0.19021  0.15257  0.00972  1.0000
  C   C148      1.0  0.18600  0.06324  0.93192  1.0000
  H   H81       1.0  0.24080  0.09725  0.82371  1.0000
  O  Te41      1.0  0.18601  0.24718  0.01967  1.0000
  O  Te42      1.0  0.13610  0.18086  0.11766  1.0000
  H   H82       1.0  0.19732  0.03942  0.90910  1.0000
  Mg  Mg21      1.0  0.13046  0.23045  0.12967  1.0000
  C   C149      1.0  0.52333  0.61959  0.00118  1.0000
  C   C150      1.0  0.45442  0.50245  0.99118  1.0000
  C  Sn43      1.0  0.50919  0.55801  0.00816  1.0000
  C  Sn44      1.0  0.54684  0.54820  0.03572  1.0000
  C   C151      1.0  0.57215  0.57433  0.04566  1.0000
  C   C152      1.0  0.56047  0.60993  0.02843  1.0000
  H   H83       1.0  0.47089  0.55592  0.98796  1.0000
  O  Te43      1.0  0.43995  0.44123  0.99777  1.0000
  O  Te44      1.0  0.55897  0.51275  0.05320  1.0000
  H   H84       1.0  0.58022  0.62999  0.03631  1.0000
  Mg  Mg22      1.0  0.51328  0.48762  0.02951  1.0000
  C   C153      1.0  0.64671  0.37090  0.95703  1.0000
  C   C154      1.0  0.68500  0.36393  0.96957  1.0000
  C  Sn45      1.0  0.75103  0.47868  0.00929  1.0000
  C  Sn46      1.0  0.73497  0.50973  0.03696  1.0000
  C   C155      1.0  0.69663  0.51644  0.02425  1.0000
  C   C156      1.0  0.63084  0.40151  0.98437  1.0000
  H   H85       1.0  0.62937  0.35253  0.92629  1.0000
  O  Te45      1.0  0.78924  0.47133  0.02125  1.0000
  O  Te46      1.0  0.75695  0.53369  0.07690  1.0000
  H   H86       1.0  0.60119  0.40689  0.97480  1.0000
  Mg  Mg23      1.0  0.80761  0.51204  0.07879  1.0000
  C   C157      1.0  0.29483  0.52955  0.98417  1.0000
  C   C158      1.0  0.29983  0.62047  0.06851  1.0000
  C  Sn47      1.0  0.27495  0.58689  0.14800  1.0000
  C  Sn48      1.0  0.28885  0.55301  0.14278  1.0000
  C   C159      1.0  0.32731  0.55360  0.05819  1.0000
  C   C160      1.0  0.30856  0.49615  0.97902  1.0000
  H   H87       1.0  0.31390  0.55567  0.92300  1.0000
  O  Te47      1.0  0.23668  0.58709  0.23165  1.0000
  O  Te48      1.0  0.26461  0.51905  0.22122  1.0000
  H   H88       1.0  0.33829  0.49637  0.91384  1.0000
  Mg  Mg24      1.0  0.21480  0.53372  0.31934  1.0000
  C   C161      1.0  0.71600  0.22245  0.89860  1.0000
  C   C162      1.0  0.75462  0.21510  0.89808  1.0000
  C  Sn49      1.0  0.78009  0.23998  0.91562  1.0000
  C  Sn50      1.0  0.76655  0.27279  0.93405  1.0000
  C   C163      1.0  0.72785  0.27987  0.93455  1.0000
  C   C164      1.0  0.70262  0.25479  0.91684  1.0000
  H   H89       1.0  0.69647  0.20304  0.88500  1.0000
  O  Te49      1.0  0.81858  0.23222  0.91477  1.0000
  O  Te50      1.0  0.79138  0.29812  0.95188  1.0000
  H   H90       1.0  0.67271  0.26048  0.91737  1.0000
  Mg  Mg25      1.0  0.84130  0.27526  0.94301  1.0000
  C   C165      1.0  0.20648  0.73460  0.08075  1.0000
  C   C166      1.0  0.21936  0.76419  0.11561  1.0000
  C  Sn51      1.0  0.25739  0.76730  0.13413  1.0000
  C  Sn52      1.0  0.28292  0.74024  0.11731  1.0000
  C   C167      1.0  0.26975  0.71076  0.08230  1.0000
  C   C168      1.0  0.23164  0.70791  0.06408  1.0000
  H   H91       1.0  0.17699  0.73241  0.06655  1.0000
  O  Te51      1.0  0.26979  0.79703  0.16901  1.0000
  O  Te52      1.0  0.32108  0.74268  0.13513  1.0000
  H   H92       1.0  0.22168  0.68502  0.03697  1.0000
  Mg  Mg26      1.0  0.32442  0.78829  0.18234  1.0000
  C   C169      1.0  0.19622  0.91735  0.15724  1.0000
  C   C170      1.0  0.16205  0.92747  0.09270  1.0000
  C  Sn53      1.0  0.14139  0.90223  0.05490  1.0000
  C  Sn54      1.0  0.15525  0.86621  0.08240  1.0000
  C   C171      1.0  0.18945  0.85635  0.14714  1.0000
  C   C172      1.0  0.20990  0.88183  0.18447  1.0000
  H   H93       1.0  0.21203  0.93705  0.18622  1.0000
  O  Te53      1.0  0.06393  0.82158  0.99043  1.0000
  O  Te54      1.0  0.13516  0.84043  0.04578  1.0000
  H   H94       1.0  0.23634  0.87398  0.23456  1.0000
  Mg  Mg27      1.0  0.04680  0.77668  0.96010  1.0000
  C   C173      1.0  0.83592  0.11312  0.95690  1.0000
  C   C174      1.0  0.80413  0.12699  0.87634  1.0000
  C  Sn55      1.0  0.78371  0.10495  0.81950  1.0000
  C  Sn56      1.0  0.79539  0.06835  0.84400  1.0000
  C   C175      1.0  0.82722  0.05472  0.92487  1.0000
  C   C176      1.0  0.84746  0.07702  0.98119  1.0000
  H   H95       1.0  0.89496  0.22158  0.00058  1.0000
  O  Te55      1.0  0.75202  0.11924  0.73919  1.0000
  O  Te56      1.0  0.77548  0.04572  0.78851  1.0000
  H   H96       1.0  0.91544  0.15748  0.04367  1.0000
  Mg  Mg28      1.0  0.73418  0.07770  0.68594  1.0000
