data_image0
_chemical_formula_structural       H80C136N40C2Sn2C2HTe2HMgC2Sn2C2HTe2HMgC2Sn2C2HTe2HMgC2Sn2C2HTe2HMgC2Sn2C2HTe2HMgC2Sn2C2HTe2HMgC2Sn2C2HTe2HMgC2Sn2C2HTe2HMgC2Sn2C2HTe2HMgC2Sn2C2HTe2HMgC2Sn2C2HTe2HMgC2Sn2C2HTe2HMg
_chemical_formula_sum              "H104 C184 N40 Sn24 Te24 Mg12"
_cell_length_a       38.5699
_cell_length_b       36.8431
_cell_length_c       8.22451
_cell_angle_alpha    123.214
_cell_angle_beta     100.829
_cell_angle_gamma    90.2195

_symmetry_space_group_name_H-M    'P1'
_space_group_IT_number       1

loop_
  _space_group_symop_operation_xyz
  'x, y, z'

loop_
  _atom_site_type_symbol
  _atom_site_label
  _atom_site_symmetry_multiplicity
  _atom_site_fract_x
  _atom_site_fract_y
  _atom_site_fract_z
  _atom_site_occupancy
  H   H1        1.0  0.58183  0.44042  0.91801  1.0000
  H   H2        1.0  0.58008  0.56646  0.00521  1.0000
  H   H3        1.0  0.61415  0.62268  0.10193  1.0000
  H   H4        1.0  0.65027  0.67871  0.09815  1.0000
  H   H5        1.0  0.72329  0.58492  0.85381  1.0000
  H   H6        1.0  0.73610  0.65399  0.90697  1.0000
  H   H7        1.0  0.76496  0.87699  0.13804  1.0000
  H   H8        1.0  0.77893  0.94691  0.18475  1.0000
  H   H9        1.0  0.84924  0.84929  0.94045  1.0000
  H   H10       1.0  0.88695  0.90312  0.93026  1.0000
  H   H11       1.0  0.61323  0.41179  0.01957  1.0000
  H   H12       1.0  0.65082  0.35756  0.02660  1.0000
  H   H13       1.0  0.73340  0.41330  0.91110  1.0000
  H   H14       1.0  0.74359  0.35065  0.92379  1.0000
  H   H15       1.0  0.77709  0.11092  0.09209  1.0000
  H   H16       1.0  0.86236  0.17220  0.01764  1.0000
  H   H17       1.0  0.89959  0.11689  0.01824  1.0000
  H   H18       1.0  0.92727  0.06947  0.01802  1.0000
  H   H19       1.0  0.08268  0.03836  0.91929  1.0000
  H   H20       1.0  0.11677  0.09052  0.01062  1.0000
  H   H21       1.0  0.22911  0.04873  0.80401  1.0000
  H   H22       1.0  0.15569  0.14385  0.00404  1.0000
  H   H23       1.0  0.24508  0.12075  0.86509  1.0000
  H   H24       1.0  0.27128  0.34206  0.09121  1.0000
  H   H25       1.0  0.36108  0.32295  0.93963  1.0000
  H   H26       1.0  0.28231  0.41068  0.14137  1.0000
  H   H27       1.0  0.39491  0.37911  0.92746  1.0000
  H   H28       1.0  0.42555  0.43416  0.00313  1.0000
  H   H29       1.0  0.42140  0.55945  0.08528  1.0000
  H   H30       1.0  0.38914  0.58808  0.98898  1.0000
  H   H31       1.0  0.35101  0.64299  0.99324  1.0000
  H   H32       1.0  0.27038  0.58594  0.11439  1.0000
  H   H33       1.0  0.25838  0.64759  0.09313  1.0000
  H   H34       1.0  0.23792  0.82364  0.90110  1.0000
  H   H35       1.0  0.22761  0.88395  0.88257  1.0000
  H   H36       1.0  0.14146  0.82400  0.95714  1.0000
  H   H37       1.0  0.10571  0.88144  0.96894  1.0000
  H   H38       1.0  0.92279  0.95792  0.05638  1.0000
  H   H39       1.0  0.08045  0.93264  0.99880  1.0000
  H   H40       1.0  0.76559  0.17006  0.06848  1.0000
  H   H41       1.0  0.57296  0.43359  0.50469  1.0000
  H   H42       1.0  0.57730  0.54104  0.43632  1.0000
  H   H43       1.0  0.61436  0.59612  0.56633  1.0000
  H   H44       1.0  0.65394  0.64951  0.56192  1.0000
  H   H45       1.0  0.72247  0.54969  0.31528  1.0000
  H   H46       1.0  0.73812  0.62001  0.36535  1.0000
  H   H47       1.0  0.76433  0.84413  0.58588  1.0000
  H   H48       1.0  0.77578  0.91189  0.62790  1.0000
  H   H49       1.0  0.85408  0.82321  0.43608  1.0000
  H   H50       1.0  0.88985  0.87938  0.43221  1.0000
  H   H51       1.0  0.59726  0.37879  0.44899  1.0000
  H   H52       1.0  0.63383  0.32303  0.45099  1.0000
  H   H53       1.0  0.72396  0.39369  0.46076  1.0000
  H   H54       1.0  0.73405  0.33354  0.47687  1.0000
  H   H55       1.0  0.76452  0.08150  0.58333  1.0000
  H   H56       1.0  0.84726  0.14592  0.50818  1.0000
  H   H57       1.0  0.88584  0.09131  0.50190  1.0000
  H   H58       1.0  0.91683  0.05736  0.56424  1.0000
  H   H59       1.0  0.07418  0.06750  0.50439  1.0000
  H   H60       1.0  0.10517  0.12348  0.58919  1.0000
  H   H61       1.0  0.21295  0.08966  0.32625  1.0000
  H   H62       1.0  0.13717  0.17960  0.56946  1.0000
  H   H63       1.0  0.22320  0.15803  0.37679  1.0000
  H   H64       1.0  0.25469  0.38200  0.64476  1.0000
  H   H65       1.0  0.34168  0.35570  0.47816  1.0000
  H   H66       1.0  0.27101  0.45356  0.70401  1.0000
  H   H67       1.0  0.38033  0.40838  0.46569  1.0000
  H   H68       1.0  0.41577  0.46208  0.57909  1.0000
  H   H69       1.0  0.42009  0.56876  0.50610  1.0000
  H   H70       1.0  0.39579  0.62060  0.53963  1.0000
  H   H71       1.0  0.36041  0.67752  0.54260  1.0000
  H   H72       1.0  0.27119  0.61439  0.58078  1.0000
  H   H73       1.0  0.26192  0.67449  0.56136  1.0000
  H   H74       1.0  0.24324  0.85342  0.38508  1.0000
  H   H75       1.0  0.23062  0.91666  0.37466  1.0000
  H   H76       1.0  0.15016  0.85478  0.47484  1.0000
  H   H77       1.0  0.11169  0.91029  0.49078  1.0000
  H   H78       1.0  0.92125  0.93438  0.50579  1.0000
  H   H79       1.0  0.07966  0.94242  0.42261  1.0000
  H   H80       1.0  0.75206  0.14326  0.56985  1.0000
  C   C1        1.0  0.37003  0.38548  0.97673  1.0000
  C   C2        1.0  0.63821  0.61499  0.04470  1.0000
  C   C3        1.0  0.63971  0.41081  0.99142  1.0000
  C   C4        1.0  0.36309  0.58913  0.02242  1.0000
  C   C5        1.0  0.86315  0.91210  0.98897  1.0000
  C   C6        1.0  0.14161  0.08189  0.96291  1.0000
  C   C7        1.0  0.13279  0.88116  0.94883  1.0000
  C   C8        1.0  0.87231  0.11630  0.03467  1.0000
  C   C9        1.0  0.35129  0.35393  0.98158  1.0000
  C   C10       1.0  0.65819  0.64639  0.04452  1.0000
  C   C11       1.0  0.66046  0.38091  0.99825  1.0000
  C   C12       1.0  0.34204  0.61937  0.02163  1.0000
  C   C13       1.0  0.84239  0.88200  0.99294  1.0000
  C   C14       1.0  0.16298  0.11175  0.96054  1.0000
  C   C15       1.0  0.15235  0.84899  0.94194  1.0000
  C   C16       1.0  0.85189  0.14725  0.03440  1.0000
  C   C17       1.0  0.69916  0.59444  0.91058  1.0000
  C   C18       1.0  0.30727  0.40260  0.09238  1.0000
  C   C19       1.0  0.29695  0.58734  0.08821  1.0000
  C   C20       1.0  0.70654  0.41214  0.93423  1.0000
  C   C21       1.0  0.20449  0.05921  0.85357  1.0000
  C   C22       1.0  0.80251  0.93591  0.12415  1.0000
  C   C23       1.0  0.80422  0.11274  0.07369  1.0000
  C   C24       1.0  0.20050  0.88268  0.90190  1.0000
  C   C25       1.0  0.35630  0.42518  0.03252  1.0000
  C   C26       1.0  0.64989  0.57375  0.97600  1.0000
  C   C27       1.0  0.65349  0.44044  0.95417  1.0000
  C   C28       1.0  0.35000  0.55905  0.05894  1.0000
  C   C29       1.0  0.85224  0.95350  0.05249  1.0000
  C   C30       1.0  0.15325  0.04152  0.91353  1.0000
  C   C31       1.0  0.14846  0.91368  0.93441  1.0000
  C   C32       1.0  0.85724  0.08389  0.05161  1.0000
  C   C33       1.0  0.31887  0.36224  0.04219  1.0000
  C   C34       1.0  0.68961  0.63630  0.97365  1.0000
  C   C35       1.0  0.69503  0.38087  0.96723  1.0000
  C   C36       1.0  0.30780  0.61911  0.05645  1.0000
  C   C37       1.0  0.81114  0.89380  0.06404  1.0000
  C   C38       1.0  0.19569  0.10079  0.90600  1.0000
  C   C39       1.0  0.18758  0.84946  0.91951  1.0000
  C   C40       1.0  0.81650  0.14572  0.05292  1.0000
  C   C41       1.0  0.78815  0.86401  0.07410  1.0000
  C   C42       1.0  0.22004  0.13181  0.91068  1.0000
  C   C43       1.0  0.21126  0.81909  0.92141  1.0000
  C   C44       1.0  0.79224  0.17554  0.05046  1.0000
  C   C45       1.0  0.29703  0.33192  0.05432  1.0000
  C   C46       1.0  0.71202  0.66629  0.96208  1.0000
  C   C47       1.0  0.71847  0.35029  0.96818  1.0000
  C   C48       1.0  0.28398  0.64942  0.05585  1.0000
  C   C49       1.0  0.12908  0.94944  0.94281  1.0000
  C   C50       1.0  0.87715  0.04878  0.04722  1.0000
  C   C51       1.0  0.87419  0.98662  0.05138  1.0000
  C   C52       1.0  0.13150  0.00969  0.92374  1.0000
  C   C53       1.0  0.63160  0.47295  0.94771  1.0000
  C   C54       1.0  0.37231  0.52629  0.05967  1.0000
  C   C55       1.0  0.37545  0.46103  0.03620  1.0000
  C   C56       1.0  0.62967  0.53826  0.97048  1.0000
  C   C57       1.0  0.09395  0.95377  0.96984  1.0000
  C   C58       1.0  0.91302  0.04621  0.03226  1.0000
  C   C59       1.0  0.91010  0.98285  0.04433  1.0000
  C   C60       1.0  0.09589  0.01440  0.93719  1.0000
  C   C61       1.0  0.59508  0.46948  0.94145  1.0000
  C   C62       1.0  0.40872  0.53030  0.06352  1.0000
  C   C63       1.0  0.41133  0.46123  0.02355  1.0000
  C   C64       1.0  0.59375  0.53891  0.98339  1.0000
  C   C65       1.0  0.07676  0.98702  0.96707  1.0000
  C   C66       1.0  0.93006  0.01229  0.02941  1.0000
  C   C67       1.0  0.57561  0.50359  0.96738  1.0000
  C   C68       1.0  0.42881  0.49670  0.03806  1.0000
  C   C69       1.0  0.35617  0.41769  0.52034  1.0000
  C   C70       1.0  0.63830  0.58667  0.50915  1.0000
  C   C71       1.0  0.62551  0.38144  0.45241  1.0000
  C   C72       1.0  0.36803  0.61985  0.54815  1.0000
  C   C73       1.0  0.86460  0.88593  0.47714  1.0000
  C   C74       1.0  0.12891  0.11663  0.52893  1.0000
  C   C75       1.0  0.13783  0.91034  0.45982  1.0000
  C   C76       1.0  0.85908  0.09039  0.52453  1.0000
  C   C77       1.0  0.33493  0.38822  0.52591  1.0000
  C   C78       1.0  0.66002  0.61646  0.50797  1.0000
  C   C79       1.0  0.64551  0.35010  0.45220  1.0000
  C   C80       1.0  0.34870  0.65179  0.55072  1.0000
  C   C81       1.0  0.84484  0.85441  0.47739  1.0000
  C   C82       1.0  0.14663  0.14811  0.51954  1.0000
  C   C83       1.0  0.15908  0.87967  0.45397  1.0000
  C   C84       1.0  0.83781  0.12061  0.52523  1.0000
  C   C85       1.0  0.69892  0.56133  0.37536  1.0000
  C   C86       1.0  0.29487  0.44228  0.64682  1.0000
  C   C87       1.0  0.29888  0.61634  0.57058  1.0000
  C   C88       1.0  0.69578  0.38965  0.45842  1.0000
  C   C89       1.0  0.18908  0.09824  0.38632  1.0000
  C   C90       1.0  0.80105  0.90358  0.58293  1.0000
  C   C91       1.0  0.79165  0.08461  0.56706  1.0000
  C   C92       1.0  0.20403  0.91429  0.39862  1.0000
  C   C93       1.0  0.34516  0.45864  0.57536  1.0000
  C   C94       1.0  0.64834  0.54487  0.44450  1.0000
  C   C95       1.0  0.64207  0.41642  0.45802  1.0000
  C   C96       1.0  0.35134  0.58641  0.55319  1.0000
  C   C97       1.0  0.85138  0.92581  0.53110  1.0000
  C   C98       1.0  0.14232  0.07638  0.46378  1.0000
  C   C99       1.0  0.15070  0.94198  0.43202  1.0000
  C   C100      1.0  0.84560  0.05833  0.54835  1.0000
  C   C101      1.0  0.30309  0.40024  0.58992  1.0000
  C   C102      1.0  0.69130  0.60388  0.43763  1.0000
  C   C103      1.0  0.68200  0.35398  0.45679  1.0000
  C   C104      1.0  0.31272  0.65019  0.55961  1.0000
  C   C105      1.0  0.81201  0.86298  0.53326  1.0000
  C   C106      1.0  0.17762  0.13909  0.44458  1.0000
  C   C107      1.0  0.19339  0.88105  0.42182  1.0000
  C   C108      1.0  0.80283  0.11826  0.54783  1.0000
  C   C109      1.0  0.78944  0.83278  0.54259  1.0000
  C   C110      1.0  0.19857  0.16922  0.42745  1.0000
  C   C111      1.0  0.21744  0.85055  0.41835  1.0000
  C   C112      1.0  0.77854  0.14822  0.54820  1.0000
  C   C113      1.0  0.27885  0.36987  0.59005  1.0000
  C   C114      1.0  0.71504  0.63340  0.42964  1.0000
  C   C115      1.0  0.70610  0.32474  0.46698  1.0000
  C   C116      1.0  0.28917  0.67998  0.55059  1.0000
  C   C117      1.0  0.12807  0.97511  0.43760  1.0000
  C   C118      1.0  0.86807  0.02580  0.55056  1.0000
  C   C119      1.0  0.87114  0.96134  0.53485  1.0000
  C   C120      1.0  0.12407  0.04048  0.46299  1.0000
  C   C121      1.0  0.62249  0.45155  0.46091  1.0000
  C   C122      1.0  0.37040  0.55077  0.54832  1.0000
  C   C123      1.0  0.36718  0.49042  0.56609  1.0000
  C   C124      1.0  0.62579  0.51243  0.44703  1.0000
  C   C125      1.0  0.09197  0.97134  0.44096  1.0000
  C   C126      1.0  0.90431  0.02913  0.55059  1.0000
  C   C127      1.0  0.90705  0.96121  0.52249  1.0000
  C   C128      1.0  0.08856  0.04036  0.48138  1.0000
  C   C129      1.0  0.58690  0.45523  0.48005  1.0000
  C   C130      1.0  0.40603  0.54707  0.52998  1.0000
  C   C131      1.0  0.40310  0.48614  0.55977  1.0000
  C   C132      1.0  0.58989  0.51670  0.45368  1.0000
  C   C133      1.0  0.07161  0.00485  0.46848  1.0000
  C   C134      1.0  0.92448  0.99601  0.53163  1.0000
  C   C135      1.0  0.56994  0.48851  0.47607  1.0000
  C   C136      1.0  0.42298  0.51388  0.53473  1.0000
  N   N1        1.0  0.68041  0.56415  0.91188  1.0000
  N   N2        1.0  0.32494  0.43309  0.08801  1.0000
  N   N3        1.0  0.31698  0.55811  0.09002  1.0000
  N   N4        1.0  0.68689  0.44123  0.92791  1.0000
  N   N5        1.0  0.18451  0.03060  0.86028  1.0000
  N   N6        1.0  0.82186  0.96475  0.11603  1.0000
  N   N7        1.0  0.82346  0.08278  0.07303  1.0000
  N   N8        1.0  0.18205  0.91381  0.90919  1.0000
  N   N9        1.0  0.30700  0.29581  0.02681  1.0000
  N   N10       1.0  0.70388  0.70441  0.00919  1.0000
  N   N11       1.0  0.70990  0.32378  0.01568  1.0000
  N   N12       1.0  0.29283  0.67659  0.01239  1.0000
  N   N13       1.0  0.79519  0.82480  0.01377  1.0000
  N   N14       1.0  0.21214  0.17048  0.96683  1.0000
  N   N15       1.0  0.20159  0.78959  0.94993  1.0000
  N   N16       1.0  0.80159  0.20637  0.02976  1.0000
  N   N17       1.0  0.14744  0.97736  0.92291  1.0000
  N   N18       1.0  0.85824  0.01927  0.05532  1.0000
  N   N19       1.0  0.64825  0.50628  0.95658  1.0000
  N   N20       1.0  0.35621  0.49258  0.05041  1.0000
  N   N21       1.0  0.67869  0.53283  0.38153  1.0000
  N   N22       1.0  0.31462  0.47046  0.63629  1.0000
  N   N23       1.0  0.31706  0.58537  0.56687  1.0000
  N   N24       1.0  0.67696  0.41983  0.45870  1.0000
  N   N25       1.0  0.17244  0.06786  0.39531  1.0000
  N   N26       1.0  0.81962  0.93396  0.58162  1.0000
  N   N27       1.0  0.81195  0.05553  0.56833  1.0000
  N   N28       1.0  0.18376  0.94391  0.40283  1.0000
  N   N29       1.0  0.28572  0.33052  0.52721  1.0000
  N   N30       1.0  0.70846  0.67285  0.49205  1.0000
  N   N31       1.0  0.69562  0.29187  0.47129  1.0000
  N   N32       1.0  0.29947  0.70980  0.52530  1.0000
  N   N33       1.0  0.79848  0.79560  0.50509  1.0000
  N   N34       1.0  0.18936  0.20650  0.46714  1.0000
  N   N35       1.0  0.20854  0.82231  0.45566  1.0000
  N   N36       1.0  0.78773  0.17824  0.52210  1.0000
  N   N37       1.0  0.14355  0.00879  0.44424  1.0000
  N   N38       1.0  0.85211  0.99283  0.54691  1.0000
  N   N39       1.0  0.64146  0.47999  0.44661  1.0000
  N   N40       1.0  0.35136  0.52243  0.56303  1.0000
  C   C137      1.0  0.29511  0.22984  0.08724  1.0000
  C   C138      1.0  0.28703  0.25780  0.02424  1.0000
  C  Sn1       1.0  0.29220  0.38140  0.94940  1.0000
  C  Sn2       1.0  0.26451  0.35404  0.93765  1.0000
  C   C139      1.0  0.23236  0.20377  0.00120  1.0000
  C   C140      1.0  0.26780  0.20285  0.07578  1.0000
  H   H81       1.0  0.32253  0.22915  0.14505  1.0000
  O  Te1       1.0  0.28460  0.40951  0.88704  1.0000
  O  Te2       1.0  0.22896  0.35456  0.86354  1.0000
  H   H82       1.0  0.27405  0.18123  0.12466  1.0000
  Mg  Mg1       1.0  0.23204  0.39844  0.79698  1.0000
  C   C141      1.0  0.72528  0.79130  0.97869  1.0000
  C   C142      1.0  0.72187  0.67590  0.01687  1.0000
  C  Sn3       1.0  0.74252  0.64812  0.04694  1.0000
  C  Sn4       1.0  0.72563  0.61266  0.03849  1.0000
  C   C143      1.0  0.68849  0.60588  0.00005  1.0000
  C   C144      1.0  0.70860  0.75632  0.97025  1.0000
  H   H83       1.0  0.70949  0.81295  0.95551  1.0000
  O  Te3       1.0  0.77956  0.65563  0.08500  1.0000
  O  Te4       1.0  0.74562  0.58439  0.06791  1.0000
  H   H84       1.0  0.67987  0.75085  0.94056  1.0000
  Mg  Mg2       1.0  0.79529  0.60811  0.11520  1.0000
  C   C145      1.0  0.75999  0.36983  0.99720  1.0000
  C   C146      1.0  0.72974  0.28778  0.03065  1.0000
  C  Sn5       1.0  0.76542  0.30075  0.05441  1.0000
  C  Sn6       1.0  0.79125  0.27269  0.04435  1.0000
  C   C147      1.0  0.78071  0.23233  0.01068  1.0000
  C   C148      1.0  0.78545  0.34213  0.98718  1.0000
  H   H85       1.0  0.73231  0.36003  0.97891  1.0000
  O  Te5       1.0  0.77521  0.34122  0.08780  1.0000
  O  Te6       1.0  0.82708  0.28484  0.06750  1.0000
  H   H86       1.0  0.77751  0.31084  0.96116  1.0000
  Mg  Mg3       1.0  0.82732  0.34321  0.11012  1.0000
  C   C149      1.0  0.27179  0.76453  0.98771  1.0000
  C   C150      1.0  0.23479  0.76329  0.95510  1.0000
  C  Sn7       1.0  0.21389  0.73162  0.95101  1.0000
  C  Sn8       1.0  0.23042  0.70066  0.98021  1.0000
  C   C151      1.0  0.22695  0.57975  0.01286  1.0000
  C   C152      1.0  0.24761  0.61158  0.01660  1.0000
  H   H87       1.0  0.28777  0.78916  0.99071  1.0000
  O  Te7       1.0  0.17696  0.73084  0.91818  1.0000
  O  Te8       1.0  0.21018  0.66867  0.97693  1.0000
  H   H88       1.0  0.27625  0.61254  0.04198  1.0000
  Mg  Mg4       1.0  0.16078  0.68095  0.92680  1.0000
  C   C153      1.0  0.98576  0.95741  0.92310  1.0000
  C   C154      1.0  0.92971  0.87368  0.00525  1.0000
  C  Sn9       1.0  0.94980  0.91334  0.07800  1.0000
  C  Sn10      1.0  0.98610  0.91414  0.06805  1.0000
  C   C155      1.0  0.04189  0.99767  0.98546  1.0000
  C   C156      1.0  0.02156  0.95817  0.91316  1.0000
  H   H89       1.0  0.97002  0.92685  0.86705  1.0000
  O  Te9       1.0  0.93386  0.95172  0.15967  1.0000
  O  Te10      1.0  0.00678  0.95332  0.13959  1.0000
  H   H90       1.0  0.03359  0.92820  0.84944  1.0000
  Mg  Mg5       1.0  0.97304  0.99699  0.23754  1.0000
  C   C157      1.0  0.49812  0.46719  0.04298  1.0000
  C   C158      1.0  0.47193  0.49270  0.03584  1.0000
  C  Sn11      1.0  0.51898  0.64555  0.99028  1.0000
  C  Sn12      1.0  0.55239  0.65042  0.95115  1.0000
  C   C159      1.0  0.57841  0.62472  0.95852  1.0000
  C   C160      1.0  0.53107  0.47196  0.00433  1.0000
  H   H91       1.0  0.49284  0.44372  0.07831  1.0000
  O  Te11      1.0  0.49252  0.67078  0.98385  1.0000
  O  Te12      1.0  0.55963  0.68054  0.90516  1.0000
  H   H92       1.0  0.55135  0.45219  0.00972  1.0000
  Mg  Mg6       1.0  0.51506  0.70742  0.91450  1.0000
  C   C161      1.0  0.26035  0.24222  0.53915  1.0000
  C   C162      1.0  0.22315  0.23659  0.49654  1.0000
  C  Sn13      1.0  0.20405  0.26221  0.44403  1.0000
  C  Sn14      1.0  0.22261  0.29402  0.43407  1.0000
  C   C163      1.0  0.25982  0.29938  0.47684  1.0000
  C   C164      1.0  0.27867  0.27358  0.52929  1.0000
  H   H93       1.0  0.27493  0.22225  0.57962  1.0000
  O  Te13      1.0  0.16690  0.25617  0.40199  1.0000
  O  Te14      1.0  0.20419  0.32005  0.38191  1.0000
  H   H94       1.0  0.30746  0.27793  0.56214  1.0000
  Mg  Mg7       1.0  0.15368  0.29958  0.33799  1.0000
  C   C165      1.0  0.71783  0.74686  0.48950  1.0000
  C   C166      1.0  0.72759  0.71034  0.48916  1.0000
  C  Sn15      1.0  0.76311  0.70257  0.50303  1.0000
  C  Sn16      1.0  0.78929  0.73199  0.51754  1.0000
  C   C167      1.0  0.77926  0.76845  0.51790  1.0000
  C   C168      1.0  0.74364  0.77590  0.50389  1.0000
  H   H95       1.0  0.69027  0.75264  0.47878  1.0000
  O  Te15      1.0  0.77240  0.66591  0.50241  1.0000
  O  Te16      1.0  0.82499  0.72502  0.53165  1.0000
  H   H96       1.0  0.73610  0.80420  0.50429  1.0000
  Mg  Mg8       1.0  0.82449  0.67044  0.52471  1.0000
  C   C169      1.0  0.76494  0.26311  0.47686  1.0000
  C   C170      1.0  0.72851  0.26473  0.46909  1.0000
  C  Sn17      1.0  0.70901  0.23718  0.49627  1.0000
  C  Sn18      1.0  0.72638  0.20750  0.53192  1.0000
  C   C171      1.0  0.76284  0.20616  0.53956  1.0000
  C   C172      1.0  0.78209  0.23386  0.51209  1.0000
  H   H97       1.0  0.77985  0.28456  0.45572  1.0000
  O  Te17      1.0  0.67263  0.23921  0.48797  1.0000
  O  Te18      1.0  0.70753  0.17961  0.55967  1.0000
  H   H98       1.0  0.81030  0.23262  0.51824  1.0000
  Mg  Mg9       1.0  0.65841  0.19457  0.53492  1.0000
  C   C173      1.0  0.22966  0.73631  0.49462  1.0000
  C   C174      1.0  0.26575  0.73304  0.49502  1.0000
  C  Sn19      1.0  0.28661  0.76344  0.49054  1.0000
  C  Sn20      1.0  0.27095  0.79771  0.48562  1.0000
  C   C175      1.0  0.23482  0.80071  0.48540  1.0000
  C   C176      1.0  0.21420  0.77011  0.48985  1.0000
  H   H99       1.0  0.21370  0.71264  0.49817  1.0000
  O  Te19      1.0  0.32263  0.75969  0.49094  1.0000
  O  Te20      1.0  0.29118  0.82855  0.48115  1.0000
  H   H100      1.0  0.18626  0.77266  0.48966  1.0000
  Mg  Mg10      1.0  0.33915  0.80964  0.48366  1.0000
  C   C177      1.0  0.99426  0.96735  0.54237  1.0000
  C   C178      1.0  0.96773  0.99212  0.53095  1.0000
  C  Sn21      1.0  0.97417  0.02249  0.48508  1.0000
  C  Sn22      1.0  0.00782  0.02810  0.45001  1.0000
  C   C179      1.0  0.03417  0.00314  0.46165  1.0000
  C   C180      1.0  0.02744  0.97285  0.50773  1.0000
  H   H101      1.0  0.98905  0.94390  0.57791  1.0000
  O  Te21      1.0  0.94738  0.04698  0.47435  1.0000
  O  Te22      1.0  0.01130  0.05821  0.40382  1.0000
  H   H102      1.0  0.04797  0.95365  0.51643  1.0000
  Mg  Mg11      1.0  0.96625  0.08391  0.40648  1.0000
  C   C181      1.0  0.47898  0.45897  0.43722  1.0000
  C   C182      1.0  0.46304  0.49734  0.50995  1.0000
  C  Sn23      1.0  0.48264  0.53646  0.57167  1.0000
  C  Sn24      1.0  0.51886  0.53707  0.56013  1.0000
  C   C183      1.0  0.53455  0.49850  0.48701  1.0000
  C   C184      1.0  0.51470  0.45954  0.42572  1.0000
  H   H103      1.0  0.46362  0.42882  0.38969  1.0000
  O  Te23      1.0  0.46630  0.57450  0.64402  1.0000
  O  Te24      1.0  0.53905  0.57571  0.62074  1.0000
  H   H104      1.0  0.52705  0.42983  0.36929  1.0000
  Mg  Mg12      1.0  0.50489  0.61908  0.70867  1.0000
