data_image0
_chemical_formula_structural       H96C148N16SnCSn2CSnTe4Mg2SnCSn2CSnTe4Mg2SnCSn2CSnTe4Mg2SnCSn2CSnTe4Mg2SnCSn2CSnTe4Mg2SnCSn2CSnTe4Mg2SnCSn2CSnTe4Mg2SnCSn2CSnTe4Mg2SnCSn2CSnTe4Mg2SnCSn2CSnTe4Mg2SnCSn2CSnTe4Mg2SnCSn2CSnTe4Mg2SnCSn2CSnTe4Mg2SnCSn2CSnTe4Mg2
_chemical_formula_sum              "H96 C176 N16 Sn56 Te56 Mg28"
_cell_length_a       35.4731
_cell_length_b       38.8856
_cell_length_c       8.0724
_cell_angle_alpha    63.8664
_cell_angle_beta     78.8641
_cell_angle_gamma    89.6762

_symmetry_space_group_name_H-M    'P1'
_space_group_IT_number       1

loop_
  _space_group_symop_operation_xyz
  'x, y, z'

loop_
  _atom_site_type_symbol
  _atom_site_label
  _atom_site_symmetry_multiplicity
  _atom_site_fract_x
  _atom_site_fract_y
  _atom_site_fract_z
  _atom_site_occupancy
  H   H1        1.0  0.78813  0.70875  0.46548  1.0000
  H   H2        1.0  0.82560  0.76224  0.46898  1.0000
  H   H3        1.0  0.72085  0.79647  0.69775  1.0000
  H   H4        1.0  0.68352  0.74156  0.70370  1.0000
  H   H5        1.0  0.75881  0.85309  0.46727  1.0000
  H   H6        1.0  0.76988  0.92017  0.35913  1.0000
  H   H7        1.0  0.80632  0.97712  0.33025  1.0000
  H   H8        1.0  0.88569  0.90370  0.63645  1.0000
  H   H9        1.0  0.84978  0.84704  0.65750  1.0000
  H   H10       1.0  0.75313  0.65293  0.65931  1.0000
  H   H11       1.0  0.74742  0.58858  0.70342  1.0000
  H   H12       1.0  0.71424  0.53518  0.68628  1.0000
  H   H13       1.0  0.62612  0.60826  0.46924  1.0000
  H   H14       1.0  0.65813  0.66054  0.50205  1.0000
  H   H15       1.0  0.69819  0.50589  0.54978  1.0000
  H   H16       1.0  0.59211  0.55825  0.56905  1.0000
  H   H17       1.0  0.59558  0.45246  0.52388  1.0000
  H   H18       1.0  0.42036  0.56334  0.48949  1.0000
  H   H19       1.0  0.42503  0.45489  0.46924  1.0000
  H   H20       1.0  0.31827  0.50723  0.47842  1.0000
  H   H21       1.0  0.39163  0.61425  0.35808  1.0000
  H   H22       1.0  0.35534  0.66379  0.41896  1.0000
  H   H23       1.0  0.25546  0.58259  0.70859  1.0000
  H   H24       1.0  0.29121  0.53323  0.64714  1.0000
  H   H25       1.0  0.25151  0.64530  0.68824  1.0000
  H   H26       1.0  0.25110  0.83036  0.71501  1.0000
  H   H27       1.0  0.24942  0.89168  0.71009  1.0000
  H   H28       1.0  0.21754  0.95037  0.67032  1.0000
  H   H29       1.0  0.12247  0.90810  0.52863  1.0000
  H   H30       1.0  0.15434  0.84872  0.57566  1.0000
  H   H31       1.0  0.29729  0.47198  0.40647  1.0000
  H   H32       1.0  0.26512  0.41931  0.38107  1.0000
  H   H33       1.0  0.39694  0.40802  0.50698  1.0000
  H   H34       1.0  0.36398  0.35529  0.48131  1.0000
  H   H35       1.0  0.27042  0.17586  0.33461  1.0000
  H   H36       1.0  0.10003  0.06558  0.45083  1.0000
  H   H37       1.0  0.76190  0.17886  0.32403  1.0000
  H   H38       1.0  0.82905  0.25791  0.46076  1.0000
  H   H39       1.0  0.79679  0.31328  0.47673  1.0000
  H   H40       1.0  0.72744  0.21955  0.34956  1.0000
  H   H41       1.0  0.69457  0.27396  0.37403  1.0000
  H   H42       1.0  0.76145  0.34887  0.53331  1.0000
  H   H43       1.0  0.75877  0.40696  0.55744  1.0000
  H   H44       1.0  0.72369  0.45979  0.57922  1.0000
  H   H45       1.0  0.62547  0.41878  0.45156  1.0000
  H   H46       1.0  0.66092  0.36545  0.43472  1.0000
  H   H47       1.0  0.26166  0.35735  0.40449  1.0000
  H   H48       1.0  0.92364  0.95330  0.49314  1.0000
  H   H49       1.0  0.09175  0.94532  0.59574  1.0000
  H   H50       1.0  0.04038  0.05583  0.56741  1.0000
  H   H51       1.0  0.92588  0.06902  0.42663  1.0000
  H   H52       1.0  0.97278  0.05778  0.54605  1.0000
  H   H53       1.0  0.98058  0.96084  0.42020  1.0000
  H   H54       1.0  0.04814  0.95909  0.44085  1.0000
  H   H55       1.0  0.82031  0.01090  0.45737  1.0000
  H   H56       1.0  0.20027  0.00343  0.53048  1.0000
  H   H57       1.0  0.77487  0.68504  0.98239  1.0000
  H   H58       1.0  0.81152  0.73937  0.98241  1.0000
  H   H59       1.0  0.70583  0.77463  0.19582  1.0000
  H   H60       1.0  0.66890  0.72077  0.19134  1.0000
  H   H61       1.0  0.74411  0.83115  0.95730  1.0000
  H   H62       1.0  0.73756  0.63034  0.15635  1.0000
  H   H63       1.0  0.68015  0.48684  0.02605  1.0000
  H   H64       1.0  0.57383  0.53664  0.08715  1.0000
  H   H65       1.0  0.57653  0.43628  0.99206  1.0000
  H   H66       1.0  0.40124  0.54473  0.05200  1.0000
  H   H67       1.0  0.40359  0.44898  0.91960  1.0000
  H   H68       1.0  0.29814  0.50099  0.98535  1.0000
  H   H69       1.0  0.24036  0.63866  0.21606  1.0000
  H   H70       1.0  0.31394  0.73751  0.12404  1.0000
  H   H71       1.0  0.27974  0.79214  0.13930  1.0000
  H   H72       1.0  0.17678  0.74616  0.07325  1.0000
  H   H73       1.0  0.21109  0.69094  0.06057  1.0000
  H   H74       1.0  0.24078  0.82659  0.21093  1.0000
  H   H75       1.0  0.27555  0.47029  0.87948  1.0000
  H   H76       1.0  0.24034  0.41901  0.85519  1.0000
  H   H77       1.0  0.37060  0.40020  0.99848  1.0000
  H   H78       1.0  0.33567  0.34990  0.96161  1.0000
  H   H79       1.0  0.24314  0.16937  0.84558  1.0000
  H   H80       1.0  0.07682  0.05391  0.96008  1.0000
  H   H81       1.0  0.74855  0.16454  0.78988  1.0000
  H   H82       1.0  0.74533  0.33223  0.00896  1.0000
  H   H83       1.0  0.73991  0.38834  0.04856  1.0000
  H   H84       1.0  0.70433  0.44095  0.06560  1.0000
  H   H85       1.0  0.60688  0.39857  0.93825  1.0000
  H   H86       1.0  0.64318  0.34533  0.92486  1.0000
  H   H87       1.0  0.23466  0.35627  0.87288  1.0000
  H   H88       1.0  0.90511  0.93381  0.99571  1.0000
  H   H89       1.0  0.07602  0.93488  0.07914  1.0000
  H   H90       1.0  0.01748  0.04098  0.06898  1.0000
  H   H91       1.0  0.90641  0.05075  0.91083  1.0000
  H   H92       1.0  0.94993  0.03926  0.05000  1.0000
  H   H93       1.0  0.96451  0.94430  0.91115  1.0000
  H   H94       1.0  0.03211  0.94604  0.93040  1.0000
  H   H95       1.0  0.80141  0.99125  0.94735  1.0000
  H   H96       1.0  0.17940  0.99595  0.05084  1.0000
  C   C1        1.0  0.36820  0.41117  0.47686  1.0000
  C   C2        1.0  0.35006  0.38137  0.46277  1.0000
  C   C3        1.0  0.72064  0.59276  0.65285  1.0000
  C   C4        1.0  0.35000  0.44488  0.45691  1.0000
  C   C5        1.0  0.31252  0.38377  0.42763  1.0000
  C   C6        1.0  0.78594  0.84710  0.51783  1.0000
  C   C7        1.0  0.79451  0.75732  0.52118  1.0000
  C   C8        1.0  0.14854  0.96997  0.56312  1.0000
  C   C9        1.0  0.10898  0.97143  0.56216  1.0000
  C   C10       1.0  0.03162  0.98030  0.46887  1.0000
  C   C11       1.0  0.86091  0.90770  0.57101  1.0000
  C   C12       1.0  0.84075  0.87574  0.58513  1.0000
  C   C13       1.0  0.84891  0.94497  0.48077  1.0000
  C   C14       1.0  0.80744  0.87974  0.50986  1.0000
  C   C15       1.0  0.73541  0.77755  0.64441  1.0000
  C   C16       1.0  0.77581  0.78334  0.57961  1.0000
  C   C17       1.0  0.29185  0.35291  0.41678  1.0000
  C   C18       1.0  0.64948  0.47487  0.53752  1.0000
  C   C19       1.0  0.61014  0.47573  0.53353  1.0000
  C   C20       1.0  0.65193  0.60312  0.52758  1.0000
  C   C21       1.0  0.67000  0.63286  0.54223  1.0000
  C   C22       1.0  0.29408  0.41692  0.40924  1.0000
  C   C23       1.0  0.66713  0.56706  0.57861  1.0000
  C   C24       1.0  0.70483  0.62827  0.60537  1.0000
  C   C25       1.0  0.77358  0.72712  0.52253  1.0000
  C   C26       1.0  0.73318  0.72097  0.58926  1.0000
  C   C27       1.0  0.23912  0.17352  0.38931  1.0000
  C   C28       1.0  0.87046  0.04440  0.44024  1.0000
  C   C29       1.0  0.90992  0.04347  0.44450  1.0000
  C   C30       1.0  0.98914  0.03642  0.51878  1.0000
  C   C31       1.0  0.79524  0.91672  0.42063  1.0000
  C   C32       1.0  0.72490  0.65902  0.62022  1.0000
  C   C33       1.0  0.71453  0.74687  0.64905  1.0000
  C   C34       1.0  0.36686  0.53880  0.48363  1.0000
  C   C35       1.0  0.40648  0.53942  0.48195  1.0000
  C   C36       1.0  0.65461  0.41655  0.47633  1.0000
  C   C37       1.0  0.67437  0.38651  0.46484  1.0000
  C   C38       1.0  0.28530  0.58955  0.63060  1.0000
  C   C39       1.0  0.67137  0.44384  0.51858  1.0000
  C   C40       1.0  0.71228  0.38237  0.49521  1.0000
  C   C41       1.0  0.78124  0.29284  0.45029  1.0000
  C   C42       1.0  0.74269  0.29734  0.42879  1.0000
  C   C43       1.0  0.22458  0.83278  0.66073  1.0000
  C   C44       1.0  0.87000  0.97890  0.46883  1.0000
  C   C45       1.0  0.90907  0.97881  0.47798  1.0000
  C   C46       1.0  0.99303  0.98148  0.45603  1.0000
  C   C47       1.0  0.14984  0.90440  0.57327  1.0000
  C   C48       1.0  0.16761  0.87112  0.59756  1.0000
  C   C49       1.0  0.16736  0.93417  0.59547  1.0000
  C   C50       1.0  0.20404  0.86615  0.64536  1.0000
  C   C51       1.0  0.73369  0.35086  0.48947  1.0000
  C   C52       1.0  0.72415  0.27022  0.39189  1.0000
  C   C53       1.0  0.36939  0.47715  0.46863  1.0000
  C   C54       1.0  0.40877  0.47838  0.47237  1.0000
  C   C55       1.0  0.36191  0.60704  0.43712  1.0000
  C   C56       1.0  0.34182  0.63495  0.46948  1.0000
  C   C57       1.0  0.72951  0.40981  0.53327  1.0000
  C   C58       1.0  0.34447  0.56953  0.50250  1.0000
  C   C59       1.0  0.30323  0.62645  0.57034  1.0000
  C   C60       1.0  0.78978  0.17849  0.36471  1.0000
  C   C61       1.0  0.79963  0.26202  0.44029  1.0000
  C   C62       1.0  0.15229  0.03801  0.49385  1.0000
  C   C63       1.0  0.11301  0.03852  0.48878  1.0000
  C   C64       1.0  0.02774  0.03533  0.53119  1.0000
  C   C65       1.0  0.22151  0.89542  0.67028  1.0000
  C   C66       1.0  0.74278  0.23970  0.37871  1.0000
  C   C67       1.0  0.78104  0.23473  0.40498  1.0000
  C   C68       1.0  0.28173  0.65469  0.61210  1.0000
  C   C69       1.0  0.64724  0.53517  0.56641  1.0000
  C   C70       1.0  0.60800  0.53503  0.55970  1.0000
  C   C71       1.0  0.09091  0.00560  0.52081  1.0000
  C   C72       1.0  0.04996  0.00712  0.50704  1.0000
  C   C73       1.0  0.58896  0.50575  0.54141  1.0000
  C   C74       1.0  0.42784  0.50904  0.47996  1.0000
  C   C75       1.0  0.34888  0.50755  0.47739  1.0000
  C   C76       1.0  0.30546  0.56179  0.59609  1.0000
  C   C77       1.0  0.31243  0.44670  0.42331  1.0000
  C   C78       1.0  0.66745  0.50497  0.55377  1.0000
  C   C79       1.0  0.70199  0.56274  0.64161  1.0000
  C   C80       1.0  0.70962  0.43992  0.54414  1.0000
  C   C81       1.0  0.20361  0.92875  0.64567  1.0000
  C   C82       1.0  0.81573  0.94875  0.40518  1.0000
  C   C83       1.0  0.16971  0.00370  0.52894  1.0000
  C   C84       1.0  0.85105  0.01159  0.45381  1.0000
  C   C85       1.0  0.97065  0.00956  0.48089  1.0000
  C   C86       1.0  0.92957  0.01068  0.46769  1.0000
  C   C87       1.0  0.34264  0.40525  0.96009  1.0000
  C   C88       1.0  0.32315  0.37665  0.94224  1.0000
  C   C89       1.0  0.32661  0.44002  0.93623  1.0000
  C   C90       1.0  0.28597  0.38106  0.90317  1.0000
  C   C91       1.0  0.77065  0.82563  0.01317  1.0000
  C   C92       1.0  0.78035  0.73453  0.03166  1.0000
  C   C93       1.0  0.13081  0.96133  0.06168  1.0000
  C   C94       1.0  0.09158  0.96130  0.05356  1.0000
  C   C95       1.0  0.01412  0.96614  0.96093  1.0000
  C   C96       1.0  0.72071  0.75552  0.14456  1.0000
  C   C97       1.0  0.76121  0.76131  0.08309  1.0000
  C   C98       1.0  0.26471  0.35117  0.88692  1.0000
  C   C99       1.0  0.63062  0.45622  0.01765  1.0000
  C   C100      1.0  0.59116  0.45793  0.01353  1.0000
  C   C101      1.0  0.26919  0.41515  0.88444  1.0000
  C   C102      1.0  0.75975  0.70408  0.03323  1.0000
  C   C103      1.0  0.71913  0.69889  0.08919  1.0000
  C   C104      1.0  0.21178  0.16752  0.89696  1.0000
  C   C105      1.0  0.85136  0.02515  0.92830  1.0000
  C   C106      1.0  0.89068  0.02468  0.93320  1.0000
  C   C107      1.0  0.96785  0.01923  0.01866  1.0000
  C   C108      1.0  0.71003  0.63766  0.11095  1.0000
  C   C109      1.0  0.70014  0.72509  0.14561  1.0000
  C   C110      1.0  0.34820  0.52768  0.00815  1.0000
  C   C111      1.0  0.38736  0.52512  0.01456  1.0000
  C   C112      1.0  0.63591  0.39657  0.96475  1.0000
  C   C113      1.0  0.65611  0.36648  0.95606  1.0000
  C   C114      1.0  0.65232  0.42463  0.00290  1.0000
  C   C115      1.0  0.69412  0.36300  0.98524  1.0000
  C   C116      1.0  0.21446  0.82802  0.15609  1.0000
  C   C117      1.0  0.20649  0.74320  0.09024  1.0000
  C   C118      1.0  0.85138  0.95923  0.96435  1.0000
  C   C119      1.0  0.89034  0.95943  0.97599  1.0000
  C   C120      1.0  0.97554  0.96522  0.94936  1.0000
  C   C121      1.0  0.26432  0.76988  0.12447  1.0000
  C   C122      1.0  0.22514  0.77245  0.11148  1.0000
  C   C123      1.0  0.71670  0.33236  0.97563  1.0000
  C   C124      1.0  0.34800  0.47033  0.95492  1.0000
  C   C125      1.0  0.38778  0.46999  0.95210  1.0000
  C   C126      1.0  0.71075  0.39074  0.02329  1.0000
  C   C127      1.0  0.22562  0.71227  0.08522  1.0000
  C   C128      1.0  0.26474  0.70980  0.09806  1.0000
  C   C129      1.0  0.77381  0.16032  0.85494  1.0000
  C   C130      1.0  0.13005  0.02843  0.00980  1.0000
  C   C131      1.0  0.09131  0.02769  0.99481  1.0000
  C   C132      1.0  0.00643  0.02011  0.03049  1.0000
  C   C133      1.0  0.27047  0.64708  0.13701  1.0000
  C   C134      1.0  0.28372  0.73943  0.11552  1.0000
  C   C135      1.0  0.62951  0.51559  0.05589  1.0000
  C   C136      1.0  0.58977  0.51517  0.05943  1.0000
  C   C137      1.0  0.07152  0.99427  0.01665  1.0000
  C   C138      1.0  0.03068  0.99362  0.00140  1.0000
  C   C139      1.0  0.57024  0.48727  0.03284  1.0000
  C   C140      1.0  0.40782  0.49642  0.98670  1.0000
  C   C141      1.0  0.32882  0.49972  0.98253  1.0000
  C   C142      1.0  0.28918  0.44405  0.89886  1.0000
  C   C143      1.0  0.64926  0.48594  0.03473  1.0000
  C   C144      1.0  0.69039  0.42075  0.03213  1.0000
  C   C145      1.0  0.14933  0.99521  0.04125  1.0000
  C   C146      1.0  0.83218  0.99211  0.94370  1.0000
  C   C147      1.0  0.95140  0.99197  0.97676  1.0000
  C   C148      1.0  0.91050  0.99187  0.96197  1.0000
  N   N1        1.0  0.30731  0.32208  0.42601  1.0000
  N   N2        1.0  0.79854  0.81343  0.57251  1.0000
  N   N3        1.0  0.71061  0.69134  0.59162  1.0000
  N   N4        1.0  0.22303  0.19913  0.43313  1.0000
  N   N5        1.0  0.72085  0.32689  0.43723  1.0000
  N   N6        1.0  0.21268  0.80820  0.60967  1.0000
  N   N7        1.0  0.29721  0.68858  0.56539  1.0000
  N   N8        1.0  0.80264  0.20461  0.40377  1.0000
  N   N9        1.0  0.27991  0.32036  0.89413  1.0000
  N   N10       1.0  0.78340  0.79200  0.07362  1.0000
  N   N11       1.0  0.69658  0.67033  0.08214  1.0000
  N   N12       1.0  0.19556  0.19526  0.92118  1.0000
  N   N13       1.0  0.70371  0.30713  0.93121  1.0000
  N   N14       1.0  0.20325  0.80270  0.10794  1.0000
  N   N15       1.0  0.28662  0.68127  0.07878  1.0000
  N   N16       1.0  0.78518  0.18362  0.91449  1.0000
  C  Sn1       1.0  0.14620  0.11267  0.07068  1.0000
  C   C149      1.0  0.14165  0.03455  0.98891  1.0000
  C  Sn2       1.0  0.16395  0.01799  0.88543  1.0000
  C  Sn3       1.0  0.14710  0.98773  0.86311  1.0000
  C   C150      1.0  0.10829  0.97465  0.94482  1.0000
  C  Sn4       1.0  0.12934  0.08240  0.04835  1.0000
  O  Te1       1.0  0.12444  0.12964  0.17353  1.0000
  O  Te2       1.0  0.20272  0.03157  0.80506  1.0000
  O  Te3       1.0  0.16889  0.97075  0.76016  1.0000
  O  Te4       1.0  0.09060  0.06885  0.12867  1.0000
  Mg  Mg1       1.0  0.22046  0.99921  0.67757  1.0000
  Mg  Mg2       1.0  0.07282  0.10120  0.25610  1.0000
  C  Sn5       1.0  0.84056  0.11893  0.89374  1.0000
  C   C151      1.0  0.80642  0.13028  0.83086  1.0000
  C  Sn6       1.0  0.78111  0.10381  0.82373  1.0000
  C  Sn7       1.0  0.79010  0.06518  0.88077  1.0000
  C   C152      1.0  0.82421  0.05385  0.94364  1.0000
  C  Sn8       1.0  0.84955  0.08031  0.95078  1.0000
  O  Te5       1.0  0.86544  0.14588  0.89970  1.0000
  O  Te6       1.0  0.74716  0.11583  0.76029  1.0000
  O  Te7       1.0  0.76519  0.03823  0.87475  1.0000
  O  Te8       1.0  0.92686  0.15951  0.01420  1.0000
  Mg  Mg3       1.0  0.72247  0.06847  0.77786  1.0000
  Mg  Mg4       1.0  0.90818  0.11563  0.99678  1.0000
  C  Sn9       1.0  0.85962  0.11170  0.49917  1.0000
  C   C153      1.0  0.84756  0.08010  0.47711  1.0000
  C  Sn10      1.0  0.81754  0.08231  0.38442  1.0000
  C  Sn11      1.0  0.79921  0.11683  0.31214  1.0000
  C   C154      1.0  0.81128  0.14841  0.33418  1.0000
  C  Sn12      1.0  0.84130  0.14622  0.42689  1.0000
  O  Te9       1.0  0.88969  0.10885  0.59231  1.0000
  O  Te10      1.0  0.80597  0.05033  0.36415  1.0000
  O  Te11      1.0  0.76912  0.11966  0.21895  1.0000
  O  Te12      1.0  0.85287  0.17818  0.44714  1.0000
  Mg  Mg5       1.0  0.76370  0.06833  0.22648  1.0000
  Mg  Mg6       1.0  0.89515  0.16022  0.58469  1.0000
  C  Sn13      1.0  0.77883  0.24543  0.98776  1.0000
  C   C155      1.0  0.76387  0.21517  0.96362  1.0000
  C  Sn14      1.0  0.72970  0.21797  0.89854  1.0000
  C  Sn15      1.0  0.71008  0.25173  0.85659  1.0000
  C   C156      1.0  0.72503  0.28197  0.88069  1.0000
  C  Sn16      1.0  0.75920  0.27919  0.94581  1.0000
  O  Te13      1.0  0.85642  0.33322  0.05298  1.0000
  O  Te14      1.0  0.71530  0.18734  0.87558  1.0000
  O  Te15      1.0  0.67585  0.25513  0.79132  1.0000
  O  Te16      1.0  0.77360  0.30981  0.96873  1.0000
  Mg  Mg7       1.0  0.66773  0.20566  0.78285  1.0000
  Mg  Mg8       1.0  0.86456  0.38273  0.06136  1.0000
  C  Sn17      1.0  0.45787  0.36956  0.97316  1.0000
  C   C157      1.0  0.48345  0.39680  0.97284  1.0000
  C  Sn18      1.0  0.51301  0.51885  0.00388  1.0000
  C  Sn19      1.0  0.47278  0.52252  0.03603  1.0000
  C   C158      1.0  0.44723  0.49529  0.03637  1.0000
  C  Sn20      1.0  0.46102  0.46445  0.00531  1.0000
  O  Te17      1.0  0.47233  0.33897  0.94182  1.0000
  O  Te18      1.0  0.53915  0.54573  0.00284  1.0000
  O  Te19      1.0  0.45834  0.55315  0.06737  1.0000
  O  Te20      1.0  0.43491  0.43758  0.00637  1.0000
  Mg  Mg9       1.0  0.50542  0.58235  0.05256  1.0000
  Mg  Mg10      1.0  0.42522  0.30972  0.95677  1.0000
  C  Sn21      1.0  0.59970  0.50371  0.96487  1.0000
  C   C159      1.0  0.65365  0.55769  0.00948  1.0000
  C  Sn22      1.0  0.68167  0.54308  0.11659  1.0000
  C  Sn23      1.0  0.69949  0.56614  0.18056  1.0000
  C   C160      1.0  0.68893  0.60335  0.13598  1.0000
  C  Sn24      1.0  0.66091  0.61800  0.02884  1.0000
  O  Te21      1.0  0.57162  0.51774  0.85761  1.0000
  O  Te22      1.0  0.69176  0.50577  0.15935  1.0000
  O  Te23      1.0  0.72759  0.55209  0.28789  1.0000
  O  Te24      1.0  0.60743  0.56406  0.98611  1.0000
  Mg  Mg11      1.0  0.73154  0.49953  0.30964  1.0000
  Mg  Mg12      1.0  0.56765  0.57032  0.83592  1.0000
  C  Sn25      1.0  0.39281  0.69075  0.01898  1.0000
  C   C161      1.0  0.37762  0.65341  0.07217  1.0000
  C  Sn26      1.0  0.33781  0.64366  0.13050  1.0000
  C  Sn27      1.0  0.31266  0.67181  0.13566  1.0000
  C   C162      1.0  0.32785  0.70913  0.08246  1.0000
  C  Sn28      1.0  0.36766  0.71891  0.02415  1.0000
  O  Te25      1.0  0.38931  0.60865  0.96114  1.0000
  O  Te26      1.0  0.32331  0.60614  0.18307  1.0000
  O  Te27      1.0  0.27275  0.66267  0.19357  1.0000
  O  Te28      1.0  0.33877  0.66519  0.97157  1.0000
  Mg  Mg13      1.0  0.26686  0.60770  0.25149  1.0000
  Mg  Mg14      1.0  0.39522  0.66366  0.90303  1.0000
  C  Sn29      1.0  0.20008  0.89316  0.21856  1.0000
  C   C163      1.0  0.19002  0.86183  0.18970  1.0000
  C  Sn30      1.0  0.16125  0.86382  0.09035  1.0000
  C  Sn31      1.0  0.14216  0.89785  0.01822  1.0000
  C   C164      1.0  0.15223  0.92915  0.04706  1.0000
  C  Sn32      1.0  0.18099  0.92718  0.14644  1.0000
  O  Te29      1.0  0.22893  0.89053  0.31829  1.0000
  O  Te30      1.0  0.15167  0.83212  0.06334  1.0000
  O  Te31      1.0  0.06990  0.80924  0.91843  1.0000
  O  Te32      1.0  0.19057  0.95886  0.17342  1.0000
  Mg  Mg15      1.0  0.06709  0.75844  0.91819  1.0000
  Mg  Mg16      1.0  0.23178  0.94137  0.31846  1.0000
  C  Sn33      1.0  0.49681  0.54317  0.49953  1.0000
  C   C165      1.0  0.47541  0.51984  0.45342  1.0000
  C  Sn34      1.0  0.48933  0.48603  0.45519  1.0000
  C  Sn35      1.0  0.52540  0.47531  0.50419  1.0000
  C   C166      1.0  0.54679  0.49863  0.55030  1.0000
  C  Sn36      1.0  0.53288  0.53245  0.54853  1.0000
  O  Te33      1.0  0.48233  0.57684  0.49683  1.0000
  O  Te34      1.0  0.46742  0.46317  0.40851  1.0000
  O  Te35      1.0  0.53988  0.44161  0.50685  1.0000
  O  Te36      1.0  0.55477  0.55529  0.59520  1.0000
  Mg  Mg17      1.0  0.49940  0.42000  0.43258  1.0000
  Mg  Mg18      1.0  0.52282  0.59846  0.57128  1.0000
  C  Sn37      1.0  0.21104  0.27374  0.77582  1.0000
  C   C167      1.0  0.22127  0.23594  0.84369  1.0000
  C  Sn38      1.0  0.24984  0.22449  0.94966  1.0000
  C  Sn39      1.0  0.26856  0.25136  0.98872  1.0000
  C   C168      1.0  0.25833  0.28912  0.92090  1.0000
  C  Sn40      1.0  0.22977  0.30061  0.81488  1.0000
  O  Te37      1.0  0.18240  0.28456  0.67018  1.0000
  O  Te38      1.0  0.30296  0.27776  0.01594  1.0000
  O  Te39      1.0  0.34061  0.33172  0.09445  1.0000
  O  Te40      1.0  0.22003  0.33852  0.74865  1.0000
  Mg  Mg19      1.0  0.34376  0.27681  0.15377  1.0000
  Mg  Mg20      1.0  0.17922  0.33949  0.61090  1.0000
  C  Sn41      1.0  0.30415  0.25123  0.43178  1.0000
  C   C169      1.0  0.29307  0.28856  0.37705  1.0000
  C  Sn42      1.0  0.25515  0.29620  0.35932  1.0000
  C  Sn43      1.0  0.22771  0.26587  0.39718  1.0000
  C   C170      1.0  0.23878  0.22856  0.45189  1.0000
  C  Sn44      1.0  0.27671  0.22090  0.46964  1.0000
  O  Te41      1.0  0.34222  0.24425  0.44861  1.0000
  O  Te42      1.0  0.24476  0.33376  0.30434  1.0000
  O  Te43      1.0  0.18961  0.27288  0.38029  1.0000
  O  Te44      1.0  0.28710  0.18337  0.52460  1.0000
  Mg  Mg21      1.0  0.18941  0.32881  0.30127  1.0000
  Mg  Mg22      1.0  0.34243  0.18827  0.52781  1.0000
  C  Sn45      1.0  0.17349  0.12054  0.55407  1.0000
  C   C171      1.0  0.21199  0.13352  0.46312  1.0000
  C  Sn46      1.0  0.23211  0.11787  0.34970  1.0000
  C  Sn47      1.0  0.21335  0.08865  0.32660  1.0000
  C   C172      1.0  0.17487  0.07569  0.41748  1.0000
  C  Sn48      1.0  0.15473  0.09132  0.53097  1.0000
  O  Te45      1.0  0.15394  0.13659  0.66678  1.0000
  O  Te46      1.0  0.27058  0.13131  0.26026  1.0000
  O  Te47      1.0  0.23294  0.07260  0.21378  1.0000
  O  Te48      1.0  0.11628  0.07790  0.62035  1.0000
  Mg  Mg23      1.0  0.28499  0.10046  0.12114  1.0000
  Mg  Mg24      1.0  0.10183  0.10874  0.75941  1.0000
  C  Sn49      1.0  0.21470  0.73565  0.63469  1.0000
  C   C173      1.0  0.22877  0.76612  0.65988  1.0000
  C  Sn50      1.0  0.26843  0.77417  0.63286  1.0000
  C  Sn51      1.0  0.29458  0.75129  0.57942  1.0000
  C   C174      1.0  0.28050  0.72084  0.55422  1.0000
  C  Sn52      1.0  0.24084  0.71277  0.58125  1.0000
  O  Te49      1.0  0.17493  0.72813  0.66246  1.0000
  O  Te50      1.0  0.28182  0.80478  0.65895  1.0000
  O  Te51      1.0  0.33437  0.75884  0.55166  1.0000
  O  Te52      1.0  0.22746  0.68219  0.55516  1.0000
  Mg  Mg25      1.0  0.33855  0.80365  0.60424  1.0000
  Mg  Mg26      1.0  0.17073  0.68330  0.60973  1.0000
  C  Sn53      1.0  0.78883  0.90478  0.85232  1.0000
  C   C175      1.0  0.79473  0.86616  0.95503  1.0000
  C  Sn54      1.0  0.86072  0.94673  0.09078  1.0000
  C  Sn55      1.0  0.87777  0.97527  0.12467  1.0000
  C   C176      1.0  0.87806  0.01386  0.02202  1.0000
  C  Sn56      1.0  0.81207  0.93332  0.88621  1.0000
  O  Te53      1.0  0.76612  0.91476  0.71730  1.0000
  O  Te54      1.0  0.86622  0.90794  0.19165  1.0000
  O  Te55      1.0  0.90049  0.96526  0.25982  1.0000
  O  Te56      1.0  0.80657  0.97208  0.78541  1.0000
  Mg  Mg27      1.0  0.89950  0.90866  0.36093  1.0000
  Mg  Mg28      1.0  0.77328  0.97139  0.61617  1.0000
