data_image0
_chemical_formula_structural       H96C148N16C2Sn2C2HTe2HMgC2Sn2C2HTe2HMgC2Sn2C2HTe2HMgC2Sn2C2HTe2HMgC2Sn2C2HTe2HMgC2Sn2C2HTe2HMgC2Sn2C2HTe2HMgC2Sn2C2HTe2HMgC2Sn2C2HTe2HMgC2Sn2C2HTe2HMgC2Sn2C2HTe2HMgC2Sn2C2HTe2HMgC2Sn2C2HTe2HMgC2Sn2C2HTe2HMg
_chemical_formula_sum              "H124 C204 N16 Sn28 Te28 Mg14"
_cell_length_a       35.4731
_cell_length_b       38.8856
_cell_length_c       8.0724
_cell_angle_alpha    63.8664
_cell_angle_beta     78.8641
_cell_angle_gamma    89.6762

_symmetry_space_group_name_H-M    'P1'
_space_group_IT_number       1

loop_
  _space_group_symop_operation_xyz
  'x, y, z'

loop_
  _atom_site_type_symbol
  _atom_site_label
  _atom_site_symmetry_multiplicity
  _atom_site_fract_x
  _atom_site_fract_y
  _atom_site_fract_z
  _atom_site_occupancy
  H   H1        1.0  0.78813  0.70875  0.46548  1.0000
  H   H2        1.0  0.82560  0.76224  0.46898  1.0000
  H   H3        1.0  0.72085  0.79647  0.69775  1.0000
  H   H4        1.0  0.68352  0.74156  0.70370  1.0000
  H   H5        1.0  0.75881  0.85309  0.46727  1.0000
  H   H6        1.0  0.76988  0.92017  0.35913  1.0000
  H   H7        1.0  0.80632  0.97712  0.33025  1.0000
  H   H8        1.0  0.88569  0.90370  0.63645  1.0000
  H   H9        1.0  0.84978  0.84704  0.65750  1.0000
  H   H10       1.0  0.75313  0.65293  0.65931  1.0000
  H   H11       1.0  0.69819  0.50589  0.54978  1.0000
  H   H12       1.0  0.59211  0.55825  0.56905  1.0000
  H   H13       1.0  0.59558  0.45246  0.52388  1.0000
  H   H14       1.0  0.53552  0.55236  0.60753  1.0000
  H   H15       1.0  0.46860  0.55314  0.58478  1.0000
  H   H16       1.0  0.48163  0.46342  0.40745  1.0000
  H   H17       1.0  0.54795  0.46145  0.43798  1.0000
  H   H18       1.0  0.42036  0.56334  0.48949  1.0000
  H   H19       1.0  0.42503  0.45489  0.46924  1.0000
  H   H20       1.0  0.31827  0.50723  0.47842  1.0000
  H   H21       1.0  0.25151  0.64530  0.68824  1.0000
  H   H22       1.0  0.25110  0.83036  0.71501  1.0000
  H   H23       1.0  0.29729  0.47198  0.40647  1.0000
  H   H24       1.0  0.26512  0.41931  0.38107  1.0000
  H   H25       1.0  0.39694  0.40802  0.50698  1.0000
  H   H26       1.0  0.36398  0.35529  0.48131  1.0000
  H   H27       1.0  0.32746  0.25386  0.52715  1.0000
  H   H28       1.0  0.29204  0.19740  0.53479  1.0000
  H   H29       1.0  0.23912  0.32494  0.30110  1.0000
  H   H30       1.0  0.20370  0.26881  0.31307  1.0000
  H   H31       1.0  0.27042  0.17586  0.33461  1.0000
  H   H32       1.0  0.26532  0.11980  0.28057  1.0000
  H   H33       1.0  0.22809  0.06197  0.32007  1.0000
  H   H34       1.0  0.12656  0.09350  0.59023  1.0000
  H   H35       1.0  0.16346  0.15261  0.54013  1.0000
  H   H36       1.0  0.10003  0.06558  0.45083  1.0000
  H   H37       1.0  0.76190  0.17886  0.32403  1.0000
  H   H38       1.0  0.82905  0.25791  0.46076  1.0000
  H   H39       1.0  0.79679  0.31328  0.47673  1.0000
  H   H40       1.0  0.72744  0.21955  0.34956  1.0000
  H   H41       1.0  0.69457  0.27396  0.37403  1.0000
  H   H42       1.0  0.76145  0.34887  0.53331  1.0000
  H   H43       1.0  0.75877  0.40696  0.55744  1.0000
  H   H44       1.0  0.72369  0.45979  0.57922  1.0000
  H   H45       1.0  0.62547  0.41878  0.45156  1.0000
  H   H46       1.0  0.66092  0.36545  0.43472  1.0000
  H   H47       1.0  0.26166  0.35735  0.40449  1.0000
  H   H48       1.0  0.92364  0.95330  0.49314  1.0000
  H   H49       1.0  0.09175  0.94532  0.59574  1.0000
  H   H50       1.0  0.92588  0.06902  0.42663  1.0000
  H   H51       1.0  0.82031  0.01090  0.45737  1.0000
  H   H52       1.0  0.20027  0.00343  0.53048  1.0000
  H   H53       1.0  0.77487  0.68504  0.98239  1.0000
  H   H54       1.0  0.81152  0.73937  0.98241  1.0000
  H   H55       1.0  0.70583  0.77463  0.19582  1.0000
  H   H56       1.0  0.66890  0.72077  0.19134  1.0000
  H   H57       1.0  0.74411  0.83115  0.95730  1.0000
  H   H58       1.0  0.73756  0.63034  0.15635  1.0000
  H   H59       1.0  0.68015  0.48684  0.02605  1.0000
  H   H60       1.0  0.57383  0.53664  0.08715  1.0000
  H   H61       1.0  0.57653  0.43628  0.99206  1.0000
  H   H62       1.0  0.40124  0.54473  0.05200  1.0000
  H   H63       1.0  0.40359  0.44898  0.91960  1.0000
  H   H64       1.0  0.29814  0.50099  0.98535  1.0000
  H   H65       1.0  0.37662  0.60100  0.88812  1.0000
  H   H66       1.0  0.34369  0.65268  0.94615  1.0000
  H   H67       1.0  0.24139  0.57521  0.24882  1.0000
  H   H68       1.0  0.27390  0.52370  0.19170  1.0000
  H   H69       1.0  0.24036  0.63866  0.21606  1.0000
  H   H70       1.0  0.31394  0.73751  0.12404  1.0000
  H   H71       1.0  0.27974  0.79214  0.13930  1.0000
  H   H72       1.0  0.17678  0.74616  0.07325  1.0000
  H   H73       1.0  0.21109  0.69094  0.06057  1.0000
  H   H74       1.0  0.24078  0.82659  0.21093  1.0000
  H   H75       1.0  0.30134  0.25310  0.98981  1.0000
  H   H76       1.0  0.26632  0.19595  0.00262  1.0000
  H   H77       1.0  0.21124  0.32235  0.77213  1.0000
  H   H78       1.0  0.17580  0.26525  0.79356  1.0000
  H   H79       1.0  0.24314  0.16937  0.84558  1.0000
  H   H80       1.0  0.24073  0.11149  0.82189  1.0000
  H   H81       1.0  0.20617  0.05240  0.86416  1.0000
  H   H82       1.0  0.10034  0.08480  0.09667  1.0000
  H   H83       1.0  0.13521  0.14529  0.04510  1.0000
  H   H84       1.0  0.07682  0.05391  0.96008  1.0000
  H   H85       1.0  0.74855  0.16454  0.78988  1.0000
  H   H86       1.0  0.74533  0.33223  0.00896  1.0000
  H   H87       1.0  0.23466  0.35627  0.87288  1.0000
  H   H88       1.0  0.90511  0.93381  0.99571  1.0000
  H   H89       1.0  0.07602  0.93488  0.07914  1.0000
  H   H90       1.0  0.01748  0.04098  0.06898  1.0000
  H   H91       1.0  0.90641  0.05075  0.91083  1.0000
  H   H92       1.0  0.94993  0.03926  0.05000  1.0000
  H   H93       1.0  0.96451  0.94430  0.91115  1.0000
  H   H94       1.0  0.03211  0.94604  0.93040  1.0000
  H   H95       1.0  0.80141  0.99125  0.94735  1.0000
  H   H96       1.0  0.17940  0.99595  0.05084  1.0000
  C   C1        1.0  0.36820  0.41117  0.47686  1.0000
  C   C2        1.0  0.35006  0.38137  0.46277  1.0000
  C   C3        1.0  0.35000  0.44488  0.45691  1.0000
  C   C4        1.0  0.31252  0.38377  0.42763  1.0000
  C   C5        1.0  0.25067  0.29705  0.35524  1.0000
  C   C6        1.0  0.28569  0.29297  0.41813  1.0000
  C   C7        1.0  0.78594  0.84710  0.51783  1.0000
  C   C8        1.0  0.79451  0.75732  0.52118  1.0000
  C   C9        1.0  0.14854  0.96997  0.56312  1.0000
  C   C10       1.0  0.10898  0.97143  0.56216  1.0000
  C   C11       1.0  0.86091  0.90770  0.57101  1.0000
  C   C12       1.0  0.84075  0.87574  0.58513  1.0000
  C   C13       1.0  0.23479  0.11407  0.34793  1.0000
  C   C14       1.0  0.84891  0.94497  0.48077  1.0000
  C   C15       1.0  0.80744  0.87974  0.50986  1.0000
  C   C16       1.0  0.73541  0.77755  0.64441  1.0000
  C   C17       1.0  0.77581  0.78334  0.57961  1.0000
  C   C18       1.0  0.29185  0.35291  0.41678  1.0000
  C   C19       1.0  0.30048  0.25671  0.47910  1.0000
  C   C20       1.0  0.64948  0.47487  0.53752  1.0000
  C   C21       1.0  0.61014  0.47573  0.53353  1.0000
  C   C22       1.0  0.53096  0.48157  0.47297  1.0000
  C   C23       1.0  0.29408  0.41692  0.40924  1.0000
  C   C24       1.0  0.77358  0.72712  0.52253  1.0000
  C   C25       1.0  0.73318  0.72097  0.58926  1.0000
  C   C26       1.0  0.23912  0.17352  0.38931  1.0000
  C   C27       1.0  0.23072  0.26588  0.36082  1.0000
  C   C28       1.0  0.87046  0.04440  0.44024  1.0000
  C   C29       1.0  0.90992  0.04347  0.44450  1.0000
  C   C30       1.0  0.15668  0.09984  0.51702  1.0000
  C   C31       1.0  0.17718  0.13268  0.49143  1.0000
  C   C32       1.0  0.79524  0.91672  0.42063  1.0000
  C   C33       1.0  0.17459  0.07328  0.45963  1.0000
  C   C34       1.0  0.21681  0.14012  0.40833  1.0000
  C   C35       1.0  0.28082  0.22551  0.48233  1.0000
  C   C36       1.0  0.24538  0.22953  0.42411  1.0000
  C   C37       1.0  0.72490  0.65902  0.62022  1.0000
  C   C38       1.0  0.71453  0.74687  0.64905  1.0000
  C   C39       1.0  0.36686  0.53880  0.48363  1.0000
  C   C40       1.0  0.40648  0.53942  0.48195  1.0000
  C   C41       1.0  0.48585  0.53339  0.54793  1.0000
  C   C42       1.0  0.65461  0.41655  0.47633  1.0000
  C   C43       1.0  0.67437  0.38651  0.46484  1.0000
  C   C44       1.0  0.67137  0.44384  0.51858  1.0000
  C   C45       1.0  0.71228  0.38237  0.49521  1.0000
  C   C46       1.0  0.78124  0.29284  0.45029  1.0000
  C   C47       1.0  0.74269  0.29734  0.42879  1.0000
  C   C48       1.0  0.22458  0.83278  0.66073  1.0000
  C   C49       1.0  0.87000  0.97890  0.46883  1.0000
  C   C50       1.0  0.90907  0.97881  0.47798  1.0000
  C   C51       1.0  0.73369  0.35086  0.48947  1.0000
  C   C52       1.0  0.72415  0.27022  0.39189  1.0000
  C   C53       1.0  0.36939  0.47715  0.46863  1.0000
  C   C54       1.0  0.40877  0.47838  0.47237  1.0000
  C   C55       1.0  0.49268  0.48268  0.45526  1.0000
  C   C56       1.0  0.72951  0.40981  0.53327  1.0000
  C   C57       1.0  0.78978  0.17849  0.36471  1.0000
  C   C58       1.0  0.79963  0.26202  0.44029  1.0000
  C   C59       1.0  0.15229  0.03801  0.49385  1.0000
  C   C60       1.0  0.11301  0.03852  0.48878  1.0000
  C   C61       1.0  0.74278  0.23970  0.37871  1.0000
  C   C62       1.0  0.78104  0.23473  0.40498  1.0000
  C   C63       1.0  0.28173  0.65469  0.61210  1.0000
  C   C64       1.0  0.64724  0.53517  0.56641  1.0000
  C   C65       1.0  0.60800  0.53503  0.55970  1.0000
  C   C66       1.0  0.52427  0.53270  0.56273  1.0000
  C   C67       1.0  0.09091  0.00560  0.52081  1.0000
  C   C68       1.0  0.58896  0.50575  0.54141  1.0000
  C   C69       1.0  0.54801  0.50658  0.52668  1.0000
  C   C70       1.0  0.42784  0.50904  0.47996  1.0000
  C   C71       1.0  0.46886  0.50850  0.49342  1.0000
  C   C72       1.0  0.34888  0.50755  0.47739  1.0000
  C   C73       1.0  0.31243  0.44670  0.42331  1.0000
  C   C74       1.0  0.66745  0.50497  0.55377  1.0000
  C   C75       1.0  0.70962  0.43992  0.54414  1.0000
  C   C76       1.0  0.21401  0.08131  0.37196  1.0000
  C   C77       1.0  0.81573  0.94875  0.40518  1.0000
  C   C78       1.0  0.16971  0.00370  0.52894  1.0000
  C   C79       1.0  0.85105  0.01159  0.45381  1.0000
  C   C80       1.0  0.92957  0.01068  0.46769  1.0000
  C   C81       1.0  0.22323  0.29465  0.82616  1.0000
  C   C82       1.0  0.25857  0.29122  0.88597  1.0000
  C   C83       1.0  0.77065  0.82563  0.01317  1.0000
  C   C84       1.0  0.78035  0.73453  0.03166  1.0000
  C   C85       1.0  0.13081  0.96133  0.06168  1.0000
  C   C86       1.0  0.09158  0.96130  0.05356  1.0000
  C   C87       1.0  0.01412  0.96614  0.96093  1.0000
  C   C88       1.0  0.20998  0.10539  0.88424  1.0000
  C   C89       1.0  0.72071  0.75552  0.14456  1.0000
  C   C90       1.0  0.76121  0.76131  0.08309  1.0000
  C   C91       1.0  0.26471  0.35117  0.88692  1.0000
  C   C92       1.0  0.27400  0.25531  0.94523  1.0000
  C   C93       1.0  0.63062  0.45622  0.01765  1.0000
  C   C94       1.0  0.59116  0.45793  0.01353  1.0000
  C   C95       1.0  0.75975  0.70408  0.03323  1.0000
  C   C96       1.0  0.71913  0.69889  0.08919  1.0000
  C   C97       1.0  0.21178  0.16752  0.89696  1.0000
  C   C98       1.0  0.20330  0.26291  0.83658  1.0000
  C   C99       1.0  0.85136  0.02515  0.92830  1.0000
  C   C100      1.0  0.89068  0.02468  0.93320  1.0000
  C   C101      1.0  0.96785  0.01923  0.01866  1.0000
  C   C102      1.0  0.13105  0.09086  0.03399  1.0000
  C   C103      1.0  0.15034  0.12453  0.00715  1.0000
  C   C104      1.0  0.15065  0.06378  0.98588  1.0000
  C   C105      1.0  0.19029  0.13244  0.93070  1.0000
  C   C106      1.0  0.25445  0.22370  0.95212  1.0000
  C   C107      1.0  0.21830  0.22664  0.90123  1.0000
  C   C108      1.0  0.71003  0.63766  0.11095  1.0000
  C   C109      1.0  0.70014  0.72509  0.14561  1.0000
  C   C110      1.0  0.34820  0.52768  0.00815  1.0000
  C   C111      1.0  0.38736  0.52512  0.01456  1.0000
  C   C112      1.0  0.27108  0.58079  0.16954  1.0000
  C   C113      1.0  0.21446  0.82802  0.15609  1.0000
  C   C114      1.0  0.20649  0.74320  0.09024  1.0000
  C   C115      1.0  0.85138  0.95923  0.96435  1.0000
  C   C116      1.0  0.89034  0.95943  0.97599  1.0000
  C   C117      1.0  0.97554  0.96522  0.94936  1.0000
  C   C118      1.0  0.26432  0.76988  0.12447  1.0000
  C   C119      1.0  0.22514  0.77245  0.11148  1.0000
  C   C120      1.0  0.71670  0.33236  0.97563  1.0000
  C   C121      1.0  0.34800  0.47033  0.95492  1.0000
  C   C122      1.0  0.38778  0.46999  0.95210  1.0000
  C   C123      1.0  0.34720  0.59516  0.97030  1.0000
  C   C124      1.0  0.32902  0.62413  0.00108  1.0000
  C   C125      1.0  0.32790  0.55837  0.03803  1.0000
  C   C126      1.0  0.29060  0.61732  0.10285  1.0000
  C   C127      1.0  0.22562  0.71227  0.08522  1.0000
  C   C128      1.0  0.26474  0.70980  0.09806  1.0000
  C   C129      1.0  0.77381  0.16032  0.85494  1.0000
  C   C130      1.0  0.13005  0.02843  0.00980  1.0000
  C   C131      1.0  0.09131  0.02769  0.99481  1.0000
  C   C132      1.0  0.00643  0.02011  0.03049  1.0000
  C   C133      1.0  0.27047  0.64708  0.13701  1.0000
  C   C134      1.0  0.28372  0.73943  0.11552  1.0000
  C   C135      1.0  0.62951  0.51559  0.05589  1.0000
  C   C136      1.0  0.58977  0.51517  0.05943  1.0000
  C   C137      1.0  0.07152  0.99427  0.01665  1.0000
  C   C138      1.0  0.03068  0.99362  0.00140  1.0000
  C   C139      1.0  0.57024  0.48727  0.03284  1.0000
  C   C140      1.0  0.40782  0.49642  0.98670  1.0000
  C   C141      1.0  0.32882  0.49972  0.98253  1.0000
  C   C142      1.0  0.28933  0.55190  0.13704  1.0000
  C   C143      1.0  0.64926  0.48594  0.03473  1.0000
  C   C144      1.0  0.19056  0.07185  0.91031  1.0000
  C   C145      1.0  0.14933  0.99521  0.04125  1.0000
  C   C146      1.0  0.83218  0.99211  0.94370  1.0000
  C   C147      1.0  0.95140  0.99197  0.97676  1.0000
  C   C148      1.0  0.91050  0.99187  0.96197  1.0000
  N   N1        1.0  0.30731  0.32208  0.42601  1.0000
  N   N2        1.0  0.79854  0.81343  0.57251  1.0000
  N   N3        1.0  0.71061  0.69134  0.59162  1.0000
  N   N4        1.0  0.22303  0.19913  0.43313  1.0000
  N   N5        1.0  0.72085  0.32689  0.43723  1.0000
  N   N6        1.0  0.21268  0.80820  0.60967  1.0000
  N   N7        1.0  0.29721  0.68858  0.56539  1.0000
  N   N8        1.0  0.80264  0.20461  0.40377  1.0000
  N   N9        1.0  0.27991  0.32036  0.89413  1.0000
  N   N10       1.0  0.78340  0.79200  0.07362  1.0000
  N   N11       1.0  0.69658  0.67033  0.08214  1.0000
  N   N12       1.0  0.19556  0.19526  0.92118  1.0000
  N   N13       1.0  0.70371  0.30713  0.93121  1.0000
  N   N14       1.0  0.20325  0.80270  0.10794  1.0000
  N   N15       1.0  0.28662  0.68127  0.07878  1.0000
  N   N16       1.0  0.78518  0.18362  0.91449  1.0000
  C   C149      1.0  0.29661  0.56412  0.62155  1.0000
  C   C150      1.0  0.33366  0.56782  0.51405  1.0000
  C  Sn1       1.0  0.35698  0.60237  0.43639  1.0000
  C  Sn2       1.0  0.34286  0.63374  0.46722  1.0000
  C   C151      1.0  0.30576  0.62974  0.57509  1.0000
  C   C152      1.0  0.28267  0.59505  0.65209  1.0000
  H   H97       1.0  0.27875  0.53728  0.68122  1.0000
  O  Te1       1.0  0.39392  0.60558  0.32928  1.0000
  O  Te2       1.0  0.36556  0.66859  0.39131  1.0000
  H   H98       1.0  0.25399  0.59218  0.73542  1.0000
  Mg  Mg1       1.0  0.41394  0.65891  0.25531  1.0000
  C   C153      1.0  0.84030  0.87688  0.10190  1.0000
  C   C154      1.0  0.83486  0.91571  0.00142  1.0000
  C  Sn3       1.0  0.76166  0.83515  0.90288  1.0000
  C  Sn4       1.0  0.73689  0.80634  0.90528  1.0000
  C   C155      1.0  0.78595  0.85879  0.00633  1.0000
  C   C156      1.0  0.81587  0.84845  0.10440  1.0000
  H   H99       1.0  0.86344  0.86887  0.17787  1.0000
  O  Te3       1.0  0.75664  0.87407  0.80316  1.0000
  O  Te4       1.0  0.70687  0.81619  0.80807  1.0000
  H   H100      1.0  0.82006  0.81839  0.18228  1.0000
  Mg  Mg2       1.0  0.71166  0.87310  0.69265  1.0000
  C   C157      1.0  0.79471  0.10677  0.35106  1.0000
  C   C158      1.0  0.80496  0.13742  0.38457  1.0000
  C  Sn5       1.0  0.84030  0.13971  0.43284  1.0000
  C  Sn6       1.0  0.86580  0.11074  0.44768  1.0000
  C   C159      1.0  0.85529  0.08021  0.41374  1.0000
  C   C160      1.0  0.81985  0.07819  0.36559  1.0000
  H   H101      1.0  0.76730  0.10521  0.31370  1.0000
  O  Te5       1.0  0.85007  0.17053  0.46592  1.0000
  O  Te6       1.0  0.90130  0.11234  0.49563  1.0000
  H   H102      1.0  0.81194  0.05447  0.33953  1.0000
  Mg  Mg3       1.0  0.90165  0.16001  0.52729  1.0000
  C   C161      1.0  0.15876  0.87641  0.58999  1.0000
  C   C162      1.0  0.19525  0.86701  0.62811  1.0000
  C  Sn7       1.0  0.21807  0.89167  0.66034  1.0000
  C  Sn8       1.0  0.20401  0.92635  0.65426  1.0000
  C   C163      1.0  0.16746  0.93548  0.61613  1.0000
  C   C164      1.0  0.14487  0.91060  0.58403  1.0000
  H   H103      1.0  0.14127  0.85716  0.56525  1.0000
  O  Te7       1.0  0.25446  0.88185  0.69816  1.0000
  O  Te8       1.0  0.23240  0.95151  0.68601  1.0000
  H   H104      1.0  0.11661  0.91787  0.55464  1.0000
  Mg  Mg4       1.0  0.27393  0.92548  0.73194  1.0000
  C   C165      1.0  0.65144  0.61276  0.52735  1.0000
  C   C166      1.0  0.66405  0.57701  0.55266  1.0000
  C  Sn9       1.0  0.69780  0.56546  0.61902  1.0000
  C  Sn10      1.0  0.71926  0.59023  0.66075  1.0000
  C   C167      1.0  0.70638  0.62593  0.63508  1.0000
  C   C168      1.0  0.67257  0.63720  0.56854  1.0000
  H   H105      1.0  0.62527  0.62148  0.47596  1.0000
  O  Te9       1.0  0.71000  0.52965  0.64344  1.0000
  O  Te10      1.0  0.75309  0.57940  0.72733  1.0000
  H   H106      1.0  0.66280  0.66487  0.54907  1.0000
  Mg  Mg5       1.0  0.75795  0.52779  0.73752  1.0000
  C   C169      1.0  0.78454  0.25342  0.92733  1.0000
  C   C170      1.0  0.76916  0.22090  0.92292  1.0000
  C  Sn11      1.0  0.73082  0.21810  0.90811  1.0000
  C  Sn12      1.0  0.70751  0.24848  0.89748  1.0000
  C   C171      1.0  0.72317  0.28090  0.90187  1.0000
  C   C172      1.0  0.76157  0.28340  0.91678  1.0000
  H   H107      1.0  0.81425  0.25537  0.93876  1.0000
  O  Te11      1.0  0.71591  0.18540  0.90397  1.0000
  O  Te12      1.0  0.66911  0.24643  0.88254  1.0000
  H   H108      1.0  0.77348  0.30860  0.92006  1.0000
  Mg  Mg6       1.0  0.66193  0.19599  0.88236  1.0000
  C   C173      1.0  0.29354  0.75433  0.61899  1.0000
  C   C174      1.0  0.27951  0.72243  0.60484  1.0000
  C  Sn13      1.0  0.24164  0.71946  0.58409  1.0000
  C  Sn14      1.0  0.21743  0.74902  0.57738  1.0000
  C   C175      1.0  0.23175  0.78083  0.59153  1.0000
  C   C176      1.0  0.26969  0.78350  0.61231  1.0000
  H   H109      1.0  0.32290  0.75642  0.63497  1.0000
  O  Te13      1.0  0.22808  0.68739  0.57023  1.0000
  O  Te14      1.0  0.17947  0.74678  0.55667  1.0000
  H   H110      1.0  0.28056  0.80822  0.62314  1.0000
  Mg  Mg7       1.0  0.17423  0.69741  0.54367  1.0000
  C   C177      1.0  0.69496  0.54641  0.12936  1.0000
  C   C178      1.0  0.65864  0.54479  0.08877  1.0000
  C  Sn15      1.0  0.63779  0.57716  0.03668  1.0000
  C  Sn16      1.0  0.65366  0.61176  0.02508  1.0000
  C   C179      1.0  0.69003  0.61309  0.06583  1.0000
  C   C180      1.0  0.71065  0.58053  0.11787  1.0000
  H   H111      1.0  0.71092  0.52122  0.16953  1.0000
  O  Te15      1.0  0.55815  0.48382  0.99668  1.0000
  O  Te16      1.0  0.59006  0.55333  0.97329  1.0000
  H   H112      1.0  0.73877  0.58180  0.14917  1.0000
  Mg  Mg8       1.0  0.54173  0.53615  0.93240  1.0000
  C   C181      1.0  0.01881  0.04055  0.52910  1.0000
  C   C182      1.0  0.04469  0.01390  0.51985  1.0000
  C  Sn17      1.0  0.03375  0.98452  0.47896  1.0000
  C  Sn18      1.0  0.99618  0.98184  0.44673  1.0000
  C   C183      1.0  0.97052  0.00865  0.45617  1.0000
  C   C184      1.0  0.98176  0.03794  0.49726  1.0000
  H   H113      1.0  0.02751  0.06322  0.56078  1.0000
  O  Te17      1.0  0.05996  0.95812  0.47033  1.0000
  O  Te18      1.0  0.97831  0.95276  0.40552  1.0000
  H   H114      1.0  0.96172  0.05858  0.50428  1.0000
  Mg  Mg9       1.0  0.02436  0.92363  0.40940  1.0000
  C   C185      1.0  0.45795  0.43672  0.99750  1.0000
  C   C186      1.0  0.52385  0.49687  0.03164  1.0000
  C  Sn19      1.0  0.50875  0.46248  0.04432  1.0000
  C  Sn20      1.0  0.47040  0.45921  0.02230  1.0000
  C   C187      1.0  0.40475  0.39925  0.98805  1.0000
  C   C188      1.0  0.42014  0.43352  0.97569  1.0000
  H   H115      1.0  0.46986  0.46324  0.98783  1.0000
  O  Te19      1.0  0.53163  0.43173  0.07856  1.0000
  O  Te20      1.0  0.45460  0.42518  0.03423  1.0000
  H   H116      1.0  0.40271  0.45758  0.94914  1.0000
  Mg  Mg10      1.0  0.49716  0.39130  0.08292  1.0000
  C   C189      1.0  0.64671  0.37090  0.95703  1.0000
  C   C190      1.0  0.68500  0.36393  0.96957  1.0000
  C  Sn21      1.0  0.75103  0.47868  0.00929  1.0000
  C  Sn22      1.0  0.73497  0.50973  0.03696  1.0000
  C   C191      1.0  0.69663  0.51644  0.02425  1.0000
  C   C192      1.0  0.63084  0.40151  0.98437  1.0000
  H   H117      1.0  0.62937  0.35253  0.92629  1.0000
  O  Te21      1.0  0.78924  0.47133  0.02125  1.0000
  O  Te22      1.0  0.75695  0.53369  0.07690  1.0000
  H   H118      1.0  0.60119  0.40689  0.97480  1.0000
  Mg  Mg11      1.0  0.80761  0.51204  0.07879  1.0000
  C   C193      1.0  0.20776  0.90065  0.16170  1.0000
  C   C194      1.0  0.19651  0.86723  0.15272  1.0000
  C  Sn23      1.0  0.16180  0.86407  0.10091  1.0000
  C  Sn24      1.0  0.13798  0.89499  0.05729  1.0000
  C   C195      1.0  0.14952  0.92830  0.06656  1.0000
  C   C196      1.0  0.18430  0.93116  0.11863  1.0000
  H   H119      1.0  0.23469  0.90287  0.20188  1.0000
  O  Te23      1.0  0.15098  0.83048  0.09272  1.0000
  O  Te24      1.0  0.10316  0.89259  0.00503  1.0000
  H   H120      1.0  0.19302  0.95704  0.12544  1.0000
  Mg  Mg12      1.0  0.10088  0.84090  0.01426  1.0000
  C   C197      1.0  0.77873  0.09069  0.81857  1.0000
  C   C198      1.0  0.78736  0.11865  0.87348  1.0000
  C  Sn25      1.0  0.82050  0.11774  0.94440  1.0000
  C  Sn26      1.0  0.84540  0.08826  0.96044  1.0000
  C   C199      1.0  0.83652  0.06044  0.90500  1.0000
  C   C200      1.0  0.80329  0.06161  0.83427  1.0000
  H   H121      1.0  0.75303  0.09161  0.76375  1.0000
  O  Te25      1.0  0.82868  0.14589  0.99867  1.0000
  O  Te26      1.0  0.92210  0.17789  0.03078  1.0000
  H   H122      1.0  0.79662  0.03998  0.79166  1.0000
  Mg  Mg13      1.0  0.92087  0.22272  0.08624  1.0000
  C   C201      1.0  0.33234  0.38038  0.94742  1.0000
  C   C202      1.0  0.29492  0.37870  0.91878  1.0000
  C  Sn27      1.0  0.27271  0.40978  0.89145  1.0000
  C  Sn28      1.0  0.28834  0.44314  0.89285  1.0000
  C   C203      1.0  0.32581  0.44455  0.92148  1.0000
  C   C204      1.0  0.34778  0.41328  0.94874  1.0000
  H   H123      1.0  0.34935  0.35619  0.96841  1.0000
  O  Te27      1.0  0.23536  0.40762  0.86310  1.0000
  O  Te28      1.0  0.26677  0.47463  0.86582  1.0000
  H   H124      1.0  0.37677  0.41460  0.97079  1.0000
  Mg  Mg14      1.0  0.21729  0.45793  0.83276  1.0000
