data_image0
_chemical_formula_structural       H96C180N24SnCSn2CSnTe4Mg2SnCSn2CSnTe4Mg2SnCSn2CSnTe4Mg2SnCSn2CSnTe4Mg2SnCSn2CSnTe4Mg2SnCSn2CSnTe4Mg2SnCSn2CSnTe4Mg2SnCSn2CSnTe4Mg2SnCSn2CSnTe4Mg2SnCSn2CSnTe4Mg2SnCSn2CSnTe4Mg2SnCSn2CSnTe4Mg2SnCSn2CSnTe4Mg2SnCSn2CSnTe4Mg2SnCSn2CSnTe4Mg2SnCSn2CSnTe4Mg2SnCSn2CSnTe4Mg2SnCSn2CSnTe4Mg2SnCSn2CSnTe4Mg2SnCSn2CSnTe4Mg2SnCSn2CSnTe4Mg2SnCSn2CSnTe4Mg2SnCSn2CSnTe4Mg2SnCSn2CSnTe4Mg2
_chemical_formula_sum              "H96 C228 N24 Sn96 Te96 Mg48"
_cell_length_a       47.2598
_cell_length_b       47.0583
_cell_length_c       8.08687
_cell_angle_alpha    99.2967
_cell_angle_beta     66.739
_cell_angle_gamma    120.069

_symmetry_space_group_name_H-M    'P1'
_space_group_IT_number       1

loop_
  _space_group_symop_operation_xyz
  'x, y, z'

loop_
  _atom_site_type_symbol
  _atom_site_label
  _atom_site_symmetry_multiplicity
  _atom_site_fract_x
  _atom_site_fract_y
  _atom_site_fract_z
  _atom_site_occupancy
  H   H1        1.0  0.44732  0.42996  0.19790  1.0000
  H   H2        1.0  0.58445  0.01807  0.20484  1.0000
  H   H3        1.0  0.99274  0.56129  0.16820  1.0000
  H   H4        1.0  0.56675  0.58275  0.28378  1.0000
  H   H5        1.0  0.43215  0.98930  0.20708  1.0000
  H   H6        1.0  0.02223  0.43958  0.18523  1.0000
  H   H7        1.0  0.45328  0.38077  0.14236  1.0000
  H   H8        1.0  0.63500  0.07180  0.19082  1.0000
  H   H9        1.0  0.94010  0.55630  0.15363  1.0000
  H   H10       1.0  0.56422  0.63139  0.24815  1.0000
  H   H11       1.0  0.38610  0.93655  0.16329  1.0000
  H   H12       1.0  0.07573  0.44151  0.16743  1.0000
  H   H13       1.0  0.54519  0.42970  0.27818  1.0000
  H   H14       1.0  0.57000  0.11699  0.32688  1.0000
  H   H15       1.0  0.88438  0.45476  0.31921  1.0000
  H   H16       1.0  0.45745  0.57230  0.28987  1.0000
  H   H17       1.0  0.43090  0.88693  0.28338  1.0000
  H   H18       1.0  0.11427  0.54140  0.32035  1.0000
  H   H19       1.0  0.58159  0.47073  0.31171  1.0000
  H   H20       1.0  0.53012  0.11356  0.28589  1.0000
  H   H21       1.0  0.88801  0.41663  0.32283  1.0000
  H   H22       1.0  0.42011  0.53012  0.28329  1.0000
  H   H23       1.0  0.46381  0.88891  0.36540  1.0000
  H   H24       1.0  0.11330  0.58111  0.30100  1.0000
  H   H25       1.0  0.36398  0.42949  0.47186  1.0000
  H   H26       1.0  0.55922  0.94453  0.46426  1.0000
  H   H27       1.0  0.05298  0.62899  0.36906  1.0000
  H   H28       1.0  0.61478  0.56908  0.48713  1.0000
  H   H29       1.0  0.41809  0.05552  0.46386  1.0000
  H   H30       1.0  0.93623  0.37433  0.47771  1.0000
  H   H31       1.0  0.41858  0.43437  0.47052  1.0000
  H   H32       1.0  0.55851  0.99553  0.43989  1.0000
  H   H33       1.0  0.00239  0.57584  0.37124  1.0000
  H   H34       1.0  0.56161  0.56612  0.48696  1.0000
  H   H35       1.0  0.42285  0.00554  0.46053  1.0000
  H   H36       1.0  0.98707  0.42913  0.45314  1.0000
  H   H37       1.0  0.14184  0.62741  0.41744  1.0000
  H   H38       1.0  0.36845  0.52276  0.40126  1.0000
  H   H39       1.0  0.61432  0.47694  0.46961  1.0000
  H   H40       1.0  0.51417  0.14995  0.40315  1.0000
  H   H41       1.0  0.84222  0.37119  0.50593  1.0000
  H   H42       1.0  0.55598  0.66172  0.08991  1.0000
  H   H43       1.0  0.33965  0.89013  0.28840  1.0000
  H   H44       1.0  0.12019  0.44787  0.19232  1.0000
  H   H45       1.0  0.45945  0.34060  0.14493  1.0000
  H   H46       1.0  0.67393  0.12387  0.09175  1.0000
  H   H47       1.0  0.89504  0.53858  0.07904  1.0000
  H   H48       1.0  0.48904  0.86103  0.22471  1.0000
  H   H49       1.0  0.44443  0.42315  0.69339  1.0000
  H   H50       1.0  0.58500  0.01406  0.70180  1.0000
  H   H51       1.0  0.99012  0.55969  0.66260  1.0000
  H   H52       1.0  0.56151  0.57810  0.79050  1.0000
  H   H53       1.0  0.43441  0.98700  0.69813  1.0000
  H   H54       1.0  0.02159  0.44019  0.68619  1.0000
  H   H55       1.0  0.45241  0.37498  0.64066  1.0000
  H   H56       1.0  0.63616  0.06788  0.68160  1.0000
  H   H57       1.0  0.93813  0.55425  0.64171  1.0000
  H   H58       1.0  0.55778  0.62653  0.76529  1.0000
  H   H59       1.0  0.38723  0.93457  0.65920  1.0000
  H   H60       1.0  0.07580  0.44351  0.66710  1.0000
  H   H61       1.0  0.54481  0.42767  0.77091  1.0000
  H   H62       1.0  0.57126  0.11355  0.82985  1.0000
  H   H63       1.0  0.88245  0.45289  0.81058  1.0000
  H   H64       1.0  0.45175  0.56636  0.79658  1.0000
  H   H65       1.0  0.42971  0.88359  0.78997  1.0000
  H   H66       1.0  0.11240  0.54324  0.82083  1.0000
  H   H67       1.0  0.58132  0.46927  0.79294  1.0000
  H   H68       1.0  0.53194  0.11060  0.78793  1.0000
  H   H69       1.0  0.88610  0.41506  0.82396  1.0000
  H   H70       1.0  0.41522  0.52431  0.78700  1.0000
  H   H71       1.0  0.46544  0.88582  0.85600  1.0000
  H   H72       1.0  0.10990  0.58196  0.81060  1.0000
  H   H73       1.0  0.36028  0.42314  0.96164  1.0000
  H   H74       1.0  0.55899  0.94200  0.97298  1.0000
  H   H75       1.0  0.04932  0.62859  0.86102  1.0000
  H   H76       1.0  0.61036  0.56619  0.98482  1.0000
  H   H77       1.0  0.41979  0.05341  0.96277  1.0000
  H   H78       1.0  0.93602  0.37395  0.97231  1.0000
  H   H79       1.0  0.41524  0.42805  0.95390  1.0000
  H   H80       1.0  0.55746  0.99267  0.94853  1.0000
  H   H81       1.0  0.99908  0.57497  0.86518  1.0000
  H   H82       1.0  0.55560  0.56085  0.99233  1.0000
  H   H83       1.0  0.42398  0.00293  0.95184  1.0000
  H   H84       1.0  0.98601  0.42920  0.95191  1.0000
  H   H85       1.0  0.13906  0.62819  0.91472  1.0000
  H   H86       1.0  0.36421  0.51687  0.91008  1.0000
  H   H87       1.0  0.61267  0.47827  0.97963  1.0000
  H   H88       1.0  0.51507  0.14655  0.92336  1.0000
  H   H89       1.0  0.84107  0.36910  0.99987  1.0000
  H   H90       1.0  0.55008  0.65564  0.60365  1.0000
  H   H91       1.0  0.33977  0.88921  0.79250  1.0000
  H   H92       1.0  0.11881  0.44980  0.69963  1.0000
  H   H93       1.0  0.46073  0.33602  0.64088  1.0000
  H   H94       1.0  0.67496  0.12202  0.57152  1.0000
  H   H95       1.0  0.89293  0.54134  0.60513  1.0000
  H   H96       1.0  0.49288  0.86032  0.71082  1.0000
  C   C1        1.0  0.52075  0.45954  0.29662  1.0000
  C   C2        1.0  0.54319  0.06419  0.30367  1.0000
  C   C3        1.0  0.93894  0.48037  0.29649  1.0000
  C   C4        1.0  0.48168  0.54503  0.31308  1.0000
  C   C5        1.0  0.45737  0.93984  0.30619  1.0000
  C   C6        1.0  0.06322  0.51910  0.29479  1.0000
  C   C7        1.0  0.54697  0.48991  0.33990  1.0000
  C   C8        1.0  0.50980  0.06177  0.32999  1.0000
  C   C9        1.0  0.93888  0.45136  0.33628  1.0000
  C   C10       1.0  0.45077  0.51303  0.33356  1.0000
  C   C11       1.0  0.48577  0.94147  0.34360  1.0000
  C   C12       1.0  0.06033  0.54883  0.31082  1.0000
  C   C13       1.0  0.54254  0.51848  0.37195  1.0000
  C   C14       1.0  0.47976  0.03008  0.35487  1.0000
  C   C15       1.0  0.96944  0.45469  0.35046  1.0000
  C   C16       1.0  0.45184  0.48469  0.36284  1.0000
  C   C17       1.0  0.51432  0.97280  0.35169  1.0000
  C   C18       1.0  0.02901  0.54688  0.31230  1.0000
  C   C19       1.0  0.51326  0.51801  0.34897  1.0000
  C   C20       1.0  0.48358  0.00068  0.32666  1.0000
  C   C21       1.0  0.00131  0.48630  0.30963  1.0000
  C   C22       1.0  0.48518  0.48712  0.33739  1.0000
  C   C23       1.0  0.51483  0.00280  0.32253  1.0000
  C   C24       1.0  0.99996  0.51530  0.29759  1.0000
  C   C25       1.0  0.49040  0.45855  0.29287  1.0000
  C   C26       1.0  0.54596  0.03499  0.29198  1.0000
  C   C27       1.0  0.96947  0.51186  0.27258  1.0000
  C   C28       1.0  0.51216  0.54764  0.32719  1.0000
  C   C29       1.0  0.45658  0.96939  0.29647  1.0000
  C   C30       1.0  0.03472  0.48859  0.28068  1.0000
  C   C31       1.0  0.46765  0.42972  0.22759  1.0000
  C   C32       1.0  0.58043  0.03934  0.23890  1.0000
  C   C33       1.0  0.96870  0.53820  0.21315  1.0000
  C   C34       1.0  0.54175  0.57972  0.29582  1.0000
  C   C35       1.0  0.43051  0.96697  0.24041  1.0000
  C   C36       1.0  0.04144  0.46158  0.22455  1.0000
  C   C37       1.0  0.47134  0.40187  0.19353  1.0000
  C   C38       1.0  0.60937  0.06984  0.22558  1.0000
  C   C39       1.0  0.93907  0.53520  0.19989  1.0000
  C   C40       1.0  0.54085  0.60749  0.26908  1.0000
  C   C41       1.0  0.40438  0.93715  0.21528  1.0000
  C   C42       1.0  0.07193  0.46280  0.21287  1.0000
  C   C43       1.0  0.49891  0.40137  0.22104  1.0000
  C   C44       1.0  0.60536  0.09830  0.26607  1.0000
  C   C45       1.0  0.90751  0.50484  0.24589  1.0000
  C   C46       1.0  0.50958  0.60500  0.27269  1.0000
  C   C47       1.0  0.40356  0.90757  0.23956  1.0000
  C   C48       1.0  0.09781  0.49160  0.25907  1.0000
  C   C49       1.0  0.52384  0.43072  0.26344  1.0000
  C   C50       1.0  0.57242  0.09480  0.30011  1.0000
  C   C51       1.0  0.90862  0.47802  0.28895  1.0000
  C   C52       1.0  0.48092  0.57366  0.29182  1.0000
  C   C53       1.0  0.43092  0.90978  0.27700  1.0000
  C   C54       1.0  0.09328  0.51936  0.29281  1.0000
  C   C55       1.0  0.57729  0.49189  0.34579  1.0000
  C   C56       1.0  0.50655  0.08983  0.32748  1.0000
  C   C57       1.0  0.90977  0.41980  0.35372  1.0000
  C   C58       1.0  0.41975  0.50928  0.32706  1.0000
  C   C59       1.0  0.48601  0.91264  0.36652  1.0000
  C   C60       1.0  0.08883  0.57975  0.31485  1.0000
  C   C61       1.0  0.60299  0.52058  0.38750  1.0000
  C   C62       1.0  0.47408  0.08793  0.36595  1.0000
  C   C63       1.0  0.90929  0.39162  0.39178  1.0000
  C   C64       1.0  0.38872  0.47918  0.36840  1.0000
  C   C65       1.0  0.51392  0.91344  0.39158  1.0000
  C   C66       1.0  0.08743  0.60897  0.32668  1.0000
  C   C67       1.0  0.38866  0.45227  0.42541  1.0000
  C   C68       1.0  0.53979  0.94408  0.42229  1.0000
  C   C69       1.0  0.05519  0.60665  0.34817  1.0000
  C   C70       1.0  0.59649  0.54752  0.43955  1.0000
  C   C71       1.0  0.44365  0.05686  0.42022  1.0000
  C   C72       1.0  0.93777  0.39559  0.43010  1.0000
  C   C73       1.0  0.41937  0.45512  0.42272  1.0000
  C   C74       1.0  0.53958  0.97270  0.40468  1.0000
  C   C75       1.0  0.02709  0.57663  0.34416  1.0000
  C   C76       1.0  0.56698  0.54600  0.43419  1.0000
  C   C77       1.0  0.44661  0.02899  0.41548  1.0000
  C   C78       1.0  0.96644  0.42636  0.41348  1.0000
  C   C79       1.0  0.14191  0.64632  0.35283  1.0000
  C   C80       1.0  0.35162  0.49807  0.36557  1.0000
  C   C81       1.0  0.63776  0.50044  0.40834  1.0000
  C   C82       1.0  0.49236  0.14426  0.36188  1.0000
  C   C83       1.0  0.85105  0.35367  0.42936  1.0000
  C   C84       1.0  0.52993  0.65880  0.17825  1.0000
  C   C85       1.0  0.34730  0.87077  0.24402  1.0000
  C   C86       1.0  0.13606  0.47190  0.23784  1.0000
  C   C87       1.0  0.48150  0.34510  0.18046  1.0000
  C   C88       1.0  0.66456  0.13886  0.19381  1.0000
  C   C89       1.0  0.87205  0.51872  0.17520  1.0000
  C   C90       1.0  0.50284  0.86055  0.30546  1.0000
  C   C91       1.0  0.51873  0.45570  0.78716  1.0000
  C   C92       1.0  0.54431  0.06086  0.80303  1.0000
  C   C93       1.0  0.93655  0.47905  0.79578  1.0000
  C   C94       1.0  0.47678  0.53947  0.81399  1.0000
  C   C95       1.0  0.45762  0.93667  0.80582  1.0000
  C   C96       1.0  0.06105  0.51973  0.79831  1.0000
  C   C97       1.0  0.54463  0.48646  0.82895  1.0000
  C   C98       1.0  0.51105  0.05869  0.82930  1.0000
  C   C99       1.0  0.93687  0.45035  0.83669  1.0000
  C   C100      1.0  0.44639  0.50722  0.83120  1.0000
  C   C101      1.0  0.48614  0.93826  0.84230  1.0000
  C   C102      1.0  0.05753  0.54911  0.81373  1.0000
  C   C103      1.0  0.53888  0.51421  0.86584  1.0000
  C   C104      1.0  0.48087  0.02720  0.85149  1.0000
  C   C105      1.0  0.96769  0.45420  0.85054  1.0000
  C   C106      1.0  0.44806  0.47889  0.85502  1.0000
  C   C107      1.0  0.51446  0.96958  0.85265  1.0000
  C   C108      1.0  0.02619  0.54660  0.81175  1.0000
  C   C109      1.0  0.50918  0.51286  0.84357  1.0000
  C   C110      1.0  0.48446  0.99772  0.82369  1.0000
  C   C111      1.0  0.99928  0.48603  0.81083  1.0000
  C   C112      1.0  0.48165  0.48171  0.82911  1.0000
  C   C113      1.0  0.51546  0.99963  0.82132  1.0000
  C   C114      1.0  0.99746  0.51470  0.79786  1.0000
  C   C115      1.0  0.48774  0.45359  0.78481  1.0000
  C   C116      1.0  0.54690  0.03155  0.79001  1.0000
  C   C117      1.0  0.96687  0.51066  0.77171  1.0000
  C   C118      1.0  0.50743  0.54232  0.82629  1.0000
  C   C119      1.0  0.45737  0.96645  0.79411  1.0000
  C   C120      1.0  0.03293  0.48895  0.78328  1.0000
  C   C121      1.0  0.46537  0.42399  0.72227  1.0000
  C   C122      1.0  0.58130  0.03556  0.73522  1.0000
  C   C123      1.0  0.96609  0.53664  0.70869  1.0000
  C   C124      1.0  0.53646  0.57466  0.80112  1.0000
  C   C125      1.0  0.43176  0.96445  0.73588  1.0000
  C   C126      1.0  0.04042  0.46241  0.72645  1.0000
  C   C127      1.0  0.47019  0.39673  0.68964  1.0000
  C   C128      1.0  0.61046  0.06604  0.72007  1.0000
  C   C129      1.0  0.93664  0.53331  0.69230  1.0000
  C   C130      1.0  0.53492  0.60237  0.78073  1.0000
  C   C131      1.0  0.40516  0.93482  0.71276  1.0000
  C   C132      1.0  0.07129  0.46438  0.71436  1.0000
  C   C133      1.0  0.49852  0.39748  0.71561  1.0000
  C   C134      1.0  0.60660  0.09460  0.76294  1.0000
  C   C135      1.0  0.90519  0.50284  0.73705  1.0000
  C   C136      1.0  0.50357  0.59950  0.78308  1.0000
  C   C137      1.0  0.40337  0.90496  0.74152  1.0000
  C   C138      1.0  0.09690  0.49343  0.76076  1.0000
  C   C139      1.0  0.52288  0.42747  0.75595  1.0000
  C   C140      1.0  0.57363  0.09132  0.80018  1.0000
  C   C141      1.0  0.90641  0.47633  0.78345  1.0000
  C   C142      1.0  0.47537  0.56800  0.79797  1.0000
  C   C143      1.0  0.43053  0.90672  0.77969  1.0000
  C   C144      1.0  0.09157  0.52075  0.79521  1.0000
  C   C145      1.0  0.57572  0.48963  0.83113  1.0000
  C   C146      1.0  0.50817  0.08700  0.82857  1.0000
  C   C147      1.0  0.90811  0.41857  0.85354  1.0000
  C   C148      1.0  0.41521  0.50339  0.82710  1.0000
  C   C149      1.0  0.48698  0.90967  0.86271  1.0000
  C   C150      1.0  0.08552  0.58022  0.82008  1.0000
  C   C151      1.0  0.60083  0.51872  0.87338  1.0000
  C   C152      1.0  0.47587  0.08547  0.86775  1.0000
  C   C153      1.0  0.90831  0.39062  0.88902  1.0000
  C   C154      1.0  0.38438  0.47323  0.86607  1.0000
  C   C155      1.0  0.51473  0.91078  0.89156  1.0000
  C   C156      1.0  0.08386  0.60922  0.82840  1.0000
  C   C157      1.0  0.38475  0.44615  0.91757  1.0000
  C   C158      1.0  0.53988  0.94135  0.92757  1.0000
  C   C159      1.0  0.05170  0.60640  0.84438  1.0000
  C   C160      1.0  0.59286  0.54468  0.93292  1.0000
  C   C161      1.0  0.44523  0.05449  0.91872  1.0000
  C   C162      1.0  0.93701  0.39507  0.92696  1.0000
  C   C163      1.0  0.41575  0.44906  0.91114  1.0000
  C   C164      1.0  0.53929  0.96973  0.90999  1.0000
  C   C165      1.0  0.02390  0.57614  0.84008  1.0000
  C   C166      1.0  0.56243  0.54183  0.93237  1.0000
  C   C167      1.0  0.44786  0.02638  0.91062  1.0000
  C   C168      1.0  0.96526  0.42609  0.91214  1.0000
  C   C169      1.0  0.13847  0.64694  0.85243  1.0000
  C   C170      1.0  0.34759  0.49273  0.86846  1.0000
  C   C171      1.0  0.63620  0.50056  0.90419  1.0000
  C   C172      1.0  0.49450  0.14181  0.87425  1.0000
  C   C173      1.0  0.85042  0.35193  0.92311  1.0000
  C   C174      1.0  0.52415  0.65318  0.69023  1.0000
  C   C175      1.0  0.34669  0.86937  0.74750  1.0000
  C   C176      1.0  0.13524  0.47405  0.74080  1.0000
  C   C177      1.0  0.48306  0.34151  0.67688  1.0000
  C   C178      1.0  0.66574  0.13617  0.68100  1.0000
  C   C179      1.0  0.87001  0.51838  0.67668  1.0000
  C   C180      1.0  0.50528  0.85885  0.79676  1.0000
  N   N1        1.0  0.50473  0.63166  0.26741  1.0000
  N   N2        1.0  0.37844  0.87609  0.21751  1.0000
  N   N3        1.0  0.12819  0.49546  0.27194  1.0000
  N   N4        1.0  0.50327  0.37391  0.21501  1.0000
  N   N5        1.0  0.63152  0.12953  0.28169  1.0000
  N   N6        1.0  0.87482  0.49961  0.25936  1.0000
  N   N7        1.0  0.63528  0.52460  0.37128  1.0000
  N   N8        1.0  0.46975  0.11440  0.34692  1.0000
  N   N9        1.0  0.88335  0.36009  0.37804  1.0000
  N   N10       1.0  0.35794  0.47389  0.35331  1.0000
  N   N11       1.0  0.51718  0.88546  0.39526  1.0000
  N   N12       1.0  0.11601  0.64049  0.30915  1.0000
  N   N13       1.0  0.49852  0.62610  0.77893  1.0000
  N   N14       1.0  0.37749  0.87374  0.72139  1.0000
  N   N15       1.0  0.12771  0.49782  0.77174  1.0000
  N   N16       1.0  0.50418  0.37080  0.71007  1.0000
  N   N17       1.0  0.63286  0.12577  0.77815  1.0000
  N   N18       1.0  0.87269  0.49691  0.74244  1.0000
  N   N19       1.0  0.63367  0.52349  0.85247  1.0000
  N   N20       1.0  0.47218  0.11239  0.85126  1.0000
  N   N21       1.0  0.88289  0.35891  0.87308  1.0000
  N   N22       1.0  0.35373  0.46829  0.85095  1.0000
  N   N23       1.0  0.51829  0.88295  0.89391  1.0000
  N   N24       1.0  0.11218  0.64092  0.81171  1.0000
  C  Sn1       1.0  0.49136  0.70999  0.37024  1.0000
  C   C181      1.0  0.51546  0.74076  0.28073  1.0000
  C  Sn2       1.0  0.54475  0.74463  0.12743  1.0000
  C  Sn3       1.0  0.55006  0.71717  0.06216  1.0000
  C   C182      1.0  0.52597  0.68642  0.15163  1.0000
  C  Sn4       1.0  0.49667  0.68252  0.30497  1.0000
  O  Te1       1.0  0.46226  0.70669  0.52324  1.0000
  O  Te2       1.0  0.56849  0.77564  0.04026  1.0000
  O  Te3       1.0  0.50745  0.71216  0.90903  1.0000
  O  Te4       1.0  0.47294  0.65154  0.39210  1.0000
  Mg  Mg1       1.0  0.53236  0.75938  0.83700  1.0000
  Mg  Mg2       1.0  0.43731  0.65943  0.59531  1.0000
  C  Sn5       1.0  0.30354  0.78438  0.22243  1.0000
  C   C183      1.0  0.26826  0.77529  0.26699  1.0000
  C  Sn6       1.0  0.25835  0.79912  0.27713  1.0000
  C  Sn7       1.0  0.28423  0.83274  0.24188  1.0000
  C   C184      1.0  0.31948  0.84182  0.19732  1.0000
  C  Sn8       1.0  0.32942  0.81800  0.18718  1.0000
  O  Te5       1.0  0.31286  0.76013  0.21306  1.0000
  O  Te6       1.0  0.22291  0.78944  0.32200  1.0000
  O  Te7       1.0  0.27488  0.85699  0.25129  1.0000
  O  Te8       1.0  0.36483  0.82766  0.14231  1.0000
  Mg  Mg3       1.0  0.22327  0.83157  0.31763  1.0000
  Mg  Mg4       1.0  0.36450  0.78556  0.14655  1.0000
  C  Sn9       1.0  0.20112  0.51191  0.28713  1.0000
  C   C185      1.0  0.17763  0.48578  0.21832  1.0000
  C  Sn10      1.0  0.17779  0.45578  0.19209  1.0000
  C  Sn11      1.0  0.20192  0.45180  0.23566  1.0000
  C   C186      1.0  0.22539  0.47792  0.30446  1.0000
  C  Sn12      1.0  0.22525  0.50794  0.33070  1.0000
  O  Te9       1.0  0.20049  0.54169  0.31226  1.0000
  O  Te10      1.0  0.15407  0.43001  0.12306  1.0000
  O  Te11      1.0  0.20253  0.42200  0.21047  1.0000
  O  Te12      1.0  0.24895  0.53369  0.39971  1.0000
  Mg  Mg5       1.0  0.16507  0.39418  0.11292  1.0000
  Mg  Mg6       1.0  0.23796  0.56952  0.41000  1.0000
  C  Sn13      1.0  0.52017  0.31506  0.19218  1.0000
  C   C187      1.0  0.49533  0.31695  0.14859  1.0000
  C  Sn14      1.0  0.46345  0.28887  0.16174  1.0000
  C  Sn15      1.0  0.45624  0.25826  0.21978  1.0000
  C   C188      1.0  0.48107  0.25638  0.26336  1.0000
  C  Sn16      1.0  0.51296  0.28445  0.25022  1.0000
  O  Te13      1.0  0.55187  0.34345  0.17805  1.0000
  O  Te14      1.0  0.43902  0.29138  0.11736  1.0000
  O  Te15      1.0  0.42451  0.22987  0.23388  1.0000
  O  Te16      1.0  0.53738  0.28196  0.29459  1.0000
  Mg  Mg7       1.0  0.39961  0.24579  0.15839  1.0000
  Mg  Mg8       1.0  0.57679  0.32754  0.25371  1.0000
  C  Sn17      1.0  0.73585  0.18444  0.13599  1.0000
  C   C189      1.0  0.69972  0.16890  0.23576  1.0000
  C  Sn18      1.0  0.68405  0.18671  0.35198  1.0000
  C  Sn19      1.0  0.70494  0.22077  0.36878  1.0000
  C   C190      1.0  0.74105  0.23629  0.26903  1.0000
  C  Sn20      1.0  0.75674  0.21850  0.15278  1.0000
  O  Te17      1.0  0.75095  0.16616  0.02061  1.0000
  O  Te18      1.0  0.64788  0.17063  0.45037  1.0000
  O  Te19      1.0  0.68980  0.23905  0.48428  1.0000
  O  Te20      1.0  0.79289  0.23456  0.05442  1.0000
  Mg  Mg9       1.0  0.63947  0.20612  0.58973  1.0000
  Mg  Mg10      1.0  0.72958  0.19077  0.91495  1.0000
  C  Sn21      1.0  0.78108  0.49254  0.39026  1.0000
  C   C191      1.0  0.77422  0.51137  0.30988  1.0000
  C  Sn22      1.0  0.79971  0.53092  0.15402  1.0000
  C  Sn23      1.0  0.83275  0.53165  0.07681  1.0000
  C   C192      1.0  0.83959  0.51283  0.15716  1.0000
  C  Sn24      1.0  0.81411  0.49327  0.31305  1.0000
  O  Te21      1.0  0.75520  0.47317  0.54602  1.0000
  O  Te22      1.0  0.79225  0.54954  0.07614  1.0000
  O  Te23      1.0  0.78690  0.54271  0.92093  1.0000
  O  Te24      1.0  0.82156  0.47466  0.39090  1.0000
  Mg  Mg11      1.0  0.76426  0.56371  0.86462  1.0000
  Mg  Mg12      1.0  0.77783  0.45213  0.60235  1.0000
  C  Sn25      1.0  0.26770  0.45691  0.33270  1.0000
  C   C193      1.0  0.25815  0.48102  0.34272  1.0000
  C  Sn26      1.0  0.28269  0.51430  0.33292  1.0000
  C  Sn27      1.0  0.31751  0.52368  0.31257  1.0000
  C   C194      1.0  0.32704  0.49957  0.30253  1.0000
  C  Sn28      1.0  0.30252  0.46628  0.31235  1.0000
  O  Te25      1.0  0.24274  0.42379  0.34278  1.0000
  O  Te26      1.0  0.27252  0.53797  0.34332  1.0000
  O  Te27      1.0  0.34247  0.55683  0.30250  1.0000
  O  Te28      1.0  0.31268  0.44263  0.30193  1.0000
  Mg  Mg13      1.0  0.31598  0.57993  0.32300  1.0000
  Mg  Mg14      1.0  0.26924  0.40066  0.32214  1.0000
  C  Sn29      1.0  0.47357  0.79166  0.30753  1.0000
  C   C195      1.0  0.49710  0.82360  0.33435  1.0000
  C  Sn30      1.0  0.53142  0.83184  0.30828  1.0000
  C  Sn31      1.0  0.54246  0.80767  0.25415  1.0000
  C   C196      1.0  0.51893  0.77575  0.22732  1.0000
  C  Sn32      1.0  0.48460  0.76748  0.25340  1.0000
  O  Te29      1.0  0.43938  0.78397  0.33437  1.0000
  O  Te30      1.0  0.55446  0.86393  0.33598  1.0000
  O  Te31      1.0  0.57667  0.81539  0.22732  1.0000
  O  Te32      1.0  0.46157  0.73542  0.22569  1.0000
  Mg  Mg15      1.0  0.59836  0.86245  0.28205  1.0000
  Mg  Mg16      1.0  0.41767  0.73688  0.27949  1.0000
  C  Sn33      1.0  0.20635  0.69180  0.39152  1.0000
  C   C197      1.0  0.17511  0.68211  0.36706  1.0000
  C  Sn34      1.0  0.17342  0.70208  0.26483  1.0000
  C  Sn35      1.0  0.20358  0.73235  0.18528  1.0000
  C   C198      1.0  0.23479  0.74202  0.20974  1.0000
  C  Sn36      1.0  0.23651  0.72207  0.31198  1.0000
  O  Te33      1.0  0.20744  0.67145  0.49425  1.0000
  O  Te34      1.0  0.14190  0.69188  0.24232  1.0000
  O  Te35      1.0  0.20246  0.75270  0.08251  1.0000
  O  Te36      1.0  0.26800  0.73225  0.33448  1.0000
  Mg  Mg17      1.0  0.15351  0.72811  0.09058  1.0000
  Mg  Mg18      1.0  0.25643  0.69603  0.48610  1.0000
  C  Sn37      1.0  0.45395  0.19010  0.32346  1.0000
  C   C199      1.0  0.47857  0.22317  0.32100  1.0000
  C  Sn38      1.0  0.51249  0.23204  0.30606  1.0000
  C  Sn39      1.0  0.52201  0.20735  0.29320  1.0000
  C   C200      1.0  0.49740  0.17430  0.29564  1.0000
  C  Sn40      1.0  0.46347  0.16541  0.31060  1.0000
  O  Te37      1.0  0.42019  0.18180  0.33848  1.0000
  O  Te38      1.0  0.53664  0.26526  0.30395  1.0000
  O  Te39      1.0  0.55580  0.21568  0.27818  1.0000
  O  Te40      1.0  0.43933  0.13221  0.31268  1.0000
  Mg  Mg19      1.0  0.57940  0.26425  0.28117  1.0000
  Mg  Mg20      1.0  0.39657  0.13320  0.33537  1.0000
  C  Sn41      1.0  0.81338  0.27312  0.27643  1.0000
  C   C201      1.0  0.77738  0.26230  0.33429  1.0000
  C  Sn42      1.0  0.76421  0.28415  0.40845  1.0000
  C  Sn43      1.0  0.78751  0.31751  0.42503  1.0000
  C   C202      1.0  0.82348  0.32832  0.36716  1.0000
  C  Sn44      1.0  0.83668  0.30648  0.29301  1.0000
  O  Te41      1.0  0.82597  0.25085  0.20269  1.0000
  O  Te42      1.0  0.72811  0.27276  0.46540  1.0000
  O  Te43      1.0  0.77489  0.33978  0.49885  1.0000
  O  Te44      1.0  0.87275  0.31786  0.23605  1.0000
  Mg  Mg21      1.0  0.72362  0.31251  0.55692  1.0000
  Mg  Mg22      1.0  0.87727  0.27813  0.14443  1.0000
  C  Sn45      1.0  0.69786  0.47168  0.33132  1.0000
  C   C203      1.0  0.73142  0.49839  0.25605  1.0000
  C  Sn46      1.0  0.73581  0.52994  0.25173  1.0000
  C  Sn47      1.0  0.70603  0.53490  0.32425  1.0000
  C   C204      1.0  0.67250  0.50820  0.39949  1.0000
  C  Sn48      1.0  0.66809  0.47663  0.40384  1.0000
  O  Te45      1.0  0.69410  0.44035  0.33420  1.0000
  O  Te46      1.0  0.76962  0.55626  0.17573  1.0000
  O  Te47      1.0  0.70982  0.56626  0.32131  1.0000
  O  Te48      1.0  0.63430  0.45032  0.47981  1.0000
  Mg  Mg23      1.0  0.76124  0.59429  0.20342  1.0000
  Mg  Mg24      1.0  0.64266  0.41229  0.45228  1.0000
  C  Sn49      1.0  0.55371  0.72125  0.63954  1.0000
  C   C205      1.0  0.52804  0.69014  0.72155  1.0000
  C  Sn50      1.0  0.49268  0.68229  0.80023  1.0000
  C  Sn51      1.0  0.48277  0.70602  0.79678  1.0000
  C   C206      1.0  0.50843  0.73711  0.71479  1.0000
  C  Sn52      1.0  0.54380  0.74498  0.63610  1.0000
  O  Te49      1.0  0.58890  0.72856  0.56172  1.0000
  O  Te50      1.0  0.46749  0.65104  0.88147  1.0000
  O  Te51      1.0  0.44755  0.69869  0.87470  1.0000
  O  Te52      1.0  0.56898  0.77621  0.55487  1.0000
  Mg  Mg25      1.0  0.42292  0.65277  0.96914  1.0000
  Mg  Mg26      1.0  0.61355  0.77450  0.46708  1.0000
  C  Sn53      1.0  0.30048  0.78313  0.71941  1.0000
  C   C207      1.0  0.26553  0.77518  0.76366  1.0000
  C  Sn54      1.0  0.25672  0.79990  0.77622  1.0000
  C  Sn55      1.0  0.28339  0.83326  0.74376  1.0000
  C   C208      1.0  0.31831  0.84120  0.69951  1.0000
  C  Sn56      1.0  0.32715  0.81650  0.68695  1.0000
  O  Te53      1.0  0.30870  0.75802  0.70759  1.0000
  O  Te54      1.0  0.22159  0.79134  0.82072  1.0000
  O  Te55      1.0  0.27514  0.85838  0.75562  1.0000
  O  Te56      1.0  0.36225  0.82504  0.64244  1.0000
  Mg  Mg27      1.0  0.22355  0.83435  0.82035  1.0000
  Mg  Mg28      1.0  0.36032  0.78205  0.64269  1.0000
  C  Sn57      1.0  0.20453  0.45713  0.65090  1.0000
  C   C209      1.0  0.22884  0.48298  0.71645  1.0000
  C  Sn58      1.0  0.22047  0.50622  0.82264  1.0000
  C  Sn59      1.0  0.18711  0.50355  0.86428  1.0000
  C   C210      1.0  0.16282  0.47771  0.79878  1.0000
  C  Sn60      1.0  0.17116  0.45446  0.69255  1.0000
  O  Te57      1.0  0.21345  0.43417  0.54500  1.0000
  O  Te58      1.0  0.24521  0.53186  0.88657  1.0000
  O  Te59      1.0  0.17820  0.52654  0.97028  1.0000
  O  Te60      1.0  0.14644  0.42883  0.62867  1.0000
  Mg  Mg29      1.0  0.29249  0.56536  0.02579  1.0000
  Mg  Mg30      1.0  0.17086  0.40365  0.48952  1.0000
  C  Sn61      1.0  0.46672  0.25885  0.63587  1.0000
  C   C211      1.0  0.49143  0.25754  0.68372  1.0000
  C  Sn62      1.0  0.51364  0.28489  0.75314  1.0000
  C  Sn63      1.0  0.51109  0.31414  0.77531  1.0000
  C   C212      1.0  0.48639  0.31544  0.72751  1.0000
  C  Sn64      1.0  0.46417  0.28810  0.65804  1.0000
  O  Te61      1.0  0.44479  0.23121  0.56674  1.0000
  O  Te62      1.0  0.53814  0.28300  0.79996  1.0000
  O  Te63      1.0  0.53305  0.34179  0.84451  1.0000
  O  Te64      1.0  0.43968  0.28998  0.61127  1.0000
  Mg  Mg31      1.0  0.56218  0.32715  0.88874  1.0000
  Mg  Mg32      1.0  0.41561  0.24584  0.52257  1.0000
  C  Sn65      1.0  0.68533  0.19849  0.83783  1.0000
  C   C213      1.0  0.68961  0.17683  0.70222  1.0000
  C  Sn66      1.0  0.72305  0.18059  0.59889  1.0000
  C  Sn67      1.0  0.75283  0.20653  0.63186  1.0000
  C   C214      1.0  0.74854  0.22817  0.76742  1.0000
  C  Sn68      1.0  0.71511  0.22443  0.87080  1.0000
  O  Te65      1.0  0.65166  0.19427  0.93949  1.0000
  O  Te66      1.0  0.72667  0.15863  0.46402  1.0000
  O  Te67      1.0  0.78652  0.21074  0.53006  1.0000
  O  Te68      1.0  0.78322  0.25470  0.00562  1.0000
  Mg  Mg33      1.0  0.77797  0.17453  0.36161  1.0000
  Mg  Mg34      1.0  0.73194  0.23882  0.10817  1.0000
  C  Sn69      1.0  0.81022  0.53731  0.62259  1.0000
  C   C215      1.0  0.77657  0.51142  0.70811  1.0000
  C  Sn70      1.0  0.77187  0.48658  0.80656  1.0000
  C  Sn71      1.0  0.80142  0.48763  0.81990  1.0000
  C   C216      1.0  0.83504  0.51350  0.73445  1.0000
  C  Sn72      1.0  0.83976  0.53836  0.63594  1.0000
  O  Te69      1.0  0.81430  0.56188  0.52490  1.0000
  O  Te70      1.0  0.73798  0.46095  0.89083  1.0000
  O  Te71      1.0  0.79731  0.46302  0.91770  1.0000
  O  Te72      1.0  0.87363  0.56398  0.55173  1.0000
  Mg  Mg35      1.0  0.81764  0.44156  0.00858  1.0000
  Mg  Mg36      1.0  0.86574  0.59172  0.43403  1.0000
  C  Sn73      1.0  0.26541  0.45455  0.81619  1.0000
  C   C217      1.0  0.25634  0.47924  0.83347  1.0000
  C  Sn74      1.0  0.28075  0.51214  0.83734  1.0000
  C  Sn75      1.0  0.31494  0.52053  0.82352  1.0000
  C   C218      1.0  0.32399  0.49585  0.80622  1.0000
  C  Sn76      1.0  0.29960  0.46294  0.80238  1.0000
  O  Te73      1.0  0.24059  0.42182  0.81262  1.0000
  O  Te74      1.0  0.27107  0.53640  0.85478  1.0000
  O  Te75      1.0  0.33976  0.55329  0.82711  1.0000
  O  Te76      1.0  0.30927  0.43869  0.78492  1.0000
  Mg  Mg37      1.0  0.31410  0.57749  0.85289  1.0000
  Mg  Mg38      1.0  0.26626  0.39760  0.78669  1.0000
  C  Sn77      1.0  0.54228  0.82540  0.77209  1.0000
  C   C219      1.0  0.51713  0.83033  0.75028  1.0000
  C  Sn78      1.0  0.48592  0.80351  0.74293  1.0000
  C  Sn79      1.0  0.47971  0.77108  0.75782  1.0000
  C   C220      1.0  0.50485  0.76617  0.77965  1.0000
  C  Sn80      1.0  0.53607  0.79297  0.78697  1.0000
  O  Te77      1.0  0.57329  0.85257  0.77908  1.0000
  O  Te78      1.0  0.46118  0.80906  0.72099  1.0000
  O  Te79      1.0  0.44867  0.74390  0.75080  1.0000
  O  Te80      1.0  0.56081  0.78744  0.80893  1.0000
  Mg  Mg39      1.0  0.42297  0.76408  0.71941  1.0000
  Mg  Mg40      1.0  0.59901  0.83239  0.81063  1.0000
  C  Sn81      1.0  0.18829  0.73382  0.78323  1.0000
  C   C221      1.0  0.22033  0.74275  0.79621  1.0000
  C  Sn82      1.0  0.22875  0.71870  0.80597  1.0000
  C  Sn83      1.0  0.20466  0.68501  0.80258  1.0000
  C   C222      1.0  0.17266  0.67610  0.78959  1.0000
  C  Sn84      1.0  0.16421  0.70014  0.77985  1.0000
  O  Te81      1.0  0.18042  0.75828  0.77362  1.0000
  O  Te82      1.0  0.26093  0.72822  0.81894  1.0000
  O  Te83      1.0  0.21256  0.66055  0.81221  1.0000
  O  Te84      1.0  0.13205  0.69062  0.76686  1.0000
  Mg  Mg41      1.0  0.25968  0.68582  0.82843  1.0000
  Mg  Mg42      1.0  0.13328  0.73301  0.75727  1.0000
  C  Sn85      1.0  0.51549  0.20927  0.90072  1.0000
  C   C223      1.0  0.49274  0.17623  0.88611  1.0000
  C  Sn86      1.0  0.47010  0.16760  0.79451  1.0000
  C  Sn87      1.0  0.47023  0.19252  0.71576  1.0000
  C   C224      1.0  0.49298  0.22553  0.73035  1.0000
  C  Sn88      1.0  0.51562  0.23418  0.82196  1.0000
  O  Te85      1.0  0.53789  0.21732  0.99290  1.0000
  O  Te86      1.0  0.44759  0.13441  0.78174  1.0000
  O  Te87      1.0  0.44780  0.18443  0.62353  1.0000
  O  Te88      1.0  0.53813  0.26735  0.83472  1.0000
  Mg  Mg43      1.0  0.42197  0.13580  0.64242  1.0000
  Mg  Mg44      1.0  0.56377  0.26599  0.97393  1.0000
  C  Sn89      1.0  0.81333  0.27105  0.77039  1.0000
  C   C225      1.0  0.77735  0.26021  0.82651  1.0000
  C  Sn90      1.0  0.76411  0.28202  0.89983  1.0000
  C  Sn91      1.0  0.78730  0.31537  0.91733  1.0000
  C   C226      1.0  0.82325  0.32620  0.86120  1.0000
  C  Sn92      1.0  0.83652  0.30440  0.78789  1.0000
  O  Te89      1.0  0.82599  0.24881  0.69747  1.0000
  O  Te90      1.0  0.72804  0.27061  0.95504  1.0000
  O  Te91      1.0  0.77460  0.33761  0.99033  1.0000
  O  Te92      1.0  0.87257  0.31580  0.73267  1.0000
  Mg  Mg45      1.0  0.79515  0.31865  0.04602  1.0000
  Mg  Mg46      1.0  0.87722  0.27612  0.64159  1.0000
  C  Sn93      1.0  0.72919  0.53706  0.75490  1.0000
  C   C227      1.0  0.73582  0.51626  0.82119  1.0000
  C  Sn94      1.0  0.70832  0.48594  0.90630  1.0000
  C  Sn95      1.0  0.67347  0.47619  0.92545  1.0000
  C   C228      1.0  0.66685  0.49698  0.85916  1.0000
  C  Sn96      1.0  0.69433  0.52731  0.77405  1.0000
  O  Te93      1.0  0.75708  0.56726  0.67028  1.0000
  O  Te94      1.0  0.71560  0.46557  0.97154  1.0000
  O  Te95      1.0  0.71730  0.45429  0.01016  1.0000
  O  Te96      1.0  0.68707  0.54767  0.70881  1.0000
  Mg  Mg47      1.0  0.74050  0.43512  0.07663  1.0000
  Mg  Mg48      1.0  0.73388  0.58645  0.60362  1.0000
