data_image0
_chemical_formula_structural       H96C180N24C2Sn2C2HTe2HMgC2Sn2C2HTe2HMgC2Sn2C2HTe2HMgC2Sn2C2HTe2HMgC2Sn2C2HTe2HMgC2Sn2C2HTe2HMgC2Sn2C2HTe2HMgC2Sn2C2HTe2HMgC2Sn2C2HTe2HMgC2Sn2C2HTe2HMgC2Sn2C2HTe2HMgC2Sn2C2HTe2HMgC2Sn2C2HTe2HMgC2Sn2C2HTe2HMgC2Sn2C2HTe2HMgC2Sn2C2HTe2HMgC2Sn2C2HTe2HMgC2Sn2C2HTe2HMgC2Sn2C2HTe2HMgC2Sn2C2HTe2HMgC2Sn2C2HTe2HMgC2Sn2C2HTe2HMgC2Sn2C2HTe2HMgC2Sn2C2HTe2HMg
_chemical_formula_sum              "H144 C276 N24 Sn48 Te48 Mg24"
_cell_length_a       47.2598
_cell_length_b       47.0583
_cell_length_c       8.08687
_cell_angle_alpha    99.2967
_cell_angle_beta     66.739
_cell_angle_gamma    120.069

_symmetry_space_group_name_H-M    'P1'
_space_group_IT_number       1

loop_
  _space_group_symop_operation_xyz
  'x, y, z'

loop_
  _atom_site_type_symbol
  _atom_site_label
  _atom_site_symmetry_multiplicity
  _atom_site_fract_x
  _atom_site_fract_y
  _atom_site_fract_z
  _atom_site_occupancy
  H   H1        1.0  0.44732  0.42996  0.19790  1.0000
  H   H2        1.0  0.58445  0.01807  0.20484  1.0000
  H   H3        1.0  0.99274  0.56129  0.16820  1.0000
  H   H4        1.0  0.56675  0.58275  0.28378  1.0000
  H   H5        1.0  0.43215  0.98930  0.20708  1.0000
  H   H6        1.0  0.02223  0.43958  0.18523  1.0000
  H   H7        1.0  0.45328  0.38077  0.14236  1.0000
  H   H8        1.0  0.63500  0.07180  0.19082  1.0000
  H   H9        1.0  0.94010  0.55630  0.15363  1.0000
  H   H10       1.0  0.56422  0.63139  0.24815  1.0000
  H   H11       1.0  0.38610  0.93655  0.16329  1.0000
  H   H12       1.0  0.07573  0.44151  0.16743  1.0000
  H   H13       1.0  0.54519  0.42970  0.27818  1.0000
  H   H14       1.0  0.57000  0.11699  0.32688  1.0000
  H   H15       1.0  0.88438  0.45476  0.31921  1.0000
  H   H16       1.0  0.45745  0.57230  0.28987  1.0000
  H   H17       1.0  0.43090  0.88693  0.28338  1.0000
  H   H18       1.0  0.11427  0.54140  0.32035  1.0000
  H   H19       1.0  0.58159  0.47073  0.31171  1.0000
  H   H20       1.0  0.53012  0.11356  0.28589  1.0000
  H   H21       1.0  0.88801  0.41663  0.32283  1.0000
  H   H22       1.0  0.42011  0.53012  0.28329  1.0000
  H   H23       1.0  0.46381  0.88891  0.36540  1.0000
  H   H24       1.0  0.11330  0.58111  0.30100  1.0000
  H   H25       1.0  0.36398  0.42949  0.47186  1.0000
  H   H26       1.0  0.55922  0.94453  0.46426  1.0000
  H   H27       1.0  0.05298  0.62899  0.36906  1.0000
  H   H28       1.0  0.61478  0.56908  0.48713  1.0000
  H   H29       1.0  0.41809  0.05552  0.46386  1.0000
  H   H30       1.0  0.93623  0.37433  0.47771  1.0000
  H   H31       1.0  0.41858  0.43437  0.47052  1.0000
  H   H32       1.0  0.55851  0.99553  0.43989  1.0000
  H   H33       1.0  0.00239  0.57584  0.37124  1.0000
  H   H34       1.0  0.56161  0.56612  0.48696  1.0000
  H   H35       1.0  0.42285  0.00554  0.46053  1.0000
  H   H36       1.0  0.98707  0.42913  0.45314  1.0000
  H   H37       1.0  0.14184  0.62741  0.41744  1.0000
  H   H38       1.0  0.36845  0.52276  0.40126  1.0000
  H   H39       1.0  0.61432  0.47694  0.46961  1.0000
  H   H40       1.0  0.51417  0.14995  0.40315  1.0000
  H   H41       1.0  0.84222  0.37119  0.50593  1.0000
  H   H42       1.0  0.55598  0.66172  0.08991  1.0000
  H   H43       1.0  0.33965  0.89013  0.28840  1.0000
  H   H44       1.0  0.12019  0.44787  0.19232  1.0000
  H   H45       1.0  0.45945  0.34060  0.14493  1.0000
  H   H46       1.0  0.67393  0.12387  0.09175  1.0000
  H   H47       1.0  0.89504  0.53858  0.07904  1.0000
  H   H48       1.0  0.48904  0.86103  0.22471  1.0000
  H   H49       1.0  0.44443  0.42315  0.69339  1.0000
  H   H50       1.0  0.58500  0.01406  0.70180  1.0000
  H   H51       1.0  0.99012  0.55969  0.66260  1.0000
  H   H52       1.0  0.56151  0.57810  0.79050  1.0000
  H   H53       1.0  0.43441  0.98700  0.69813  1.0000
  H   H54       1.0  0.02159  0.44019  0.68619  1.0000
  H   H55       1.0  0.45241  0.37498  0.64066  1.0000
  H   H56       1.0  0.63616  0.06788  0.68160  1.0000
  H   H57       1.0  0.93813  0.55425  0.64171  1.0000
  H   H58       1.0  0.55778  0.62653  0.76529  1.0000
  H   H59       1.0  0.38723  0.93457  0.65920  1.0000
  H   H60       1.0  0.07580  0.44351  0.66710  1.0000
  H   H61       1.0  0.54481  0.42767  0.77091  1.0000
  H   H62       1.0  0.57126  0.11355  0.82985  1.0000
  H   H63       1.0  0.88245  0.45289  0.81058  1.0000
  H   H64       1.0  0.45175  0.56636  0.79658  1.0000
  H   H65       1.0  0.42971  0.88359  0.78997  1.0000
  H   H66       1.0  0.11240  0.54324  0.82083  1.0000
  H   H67       1.0  0.58132  0.46927  0.79294  1.0000
  H   H68       1.0  0.53194  0.11060  0.78793  1.0000
  H   H69       1.0  0.88610  0.41506  0.82396  1.0000
  H   H70       1.0  0.41522  0.52431  0.78700  1.0000
  H   H71       1.0  0.46544  0.88582  0.85600  1.0000
  H   H72       1.0  0.10990  0.58196  0.81060  1.0000
  H   H73       1.0  0.36028  0.42314  0.96164  1.0000
  H   H74       1.0  0.55899  0.94200  0.97298  1.0000
  H   H75       1.0  0.04932  0.62859  0.86102  1.0000
  H   H76       1.0  0.61036  0.56619  0.98482  1.0000
  H   H77       1.0  0.41979  0.05341  0.96277  1.0000
  H   H78       1.0  0.93602  0.37395  0.97231  1.0000
  H   H79       1.0  0.41524  0.42805  0.95390  1.0000
  H   H80       1.0  0.55746  0.99267  0.94853  1.0000
  H   H81       1.0  0.99908  0.57497  0.86518  1.0000
  H   H82       1.0  0.55560  0.56085  0.99233  1.0000
  H   H83       1.0  0.42398  0.00293  0.95184  1.0000
  H   H84       1.0  0.98601  0.42920  0.95191  1.0000
  H   H85       1.0  0.13906  0.62819  0.91472  1.0000
  H   H86       1.0  0.36421  0.51687  0.91008  1.0000
  H   H87       1.0  0.61267  0.47827  0.97963  1.0000
  H   H88       1.0  0.51507  0.14655  0.92336  1.0000
  H   H89       1.0  0.84107  0.36910  0.99987  1.0000
  H   H90       1.0  0.55008  0.65564  0.60365  1.0000
  H   H91       1.0  0.33977  0.88921  0.79250  1.0000
  H   H92       1.0  0.11881  0.44980  0.69963  1.0000
  H   H93       1.0  0.46073  0.33602  0.64088  1.0000
  H   H94       1.0  0.67496  0.12202  0.57152  1.0000
  H   H95       1.0  0.89293  0.54134  0.60513  1.0000
  H   H96       1.0  0.49288  0.86032  0.71082  1.0000
  C   C1        1.0  0.52075  0.45954  0.29662  1.0000
  C   C2        1.0  0.54319  0.06419  0.30367  1.0000
  C   C3        1.0  0.93894  0.48037  0.29649  1.0000
  C   C4        1.0  0.48168  0.54503  0.31308  1.0000
  C   C5        1.0  0.45737  0.93984  0.30619  1.0000
  C   C6        1.0  0.06322  0.51910  0.29479  1.0000
  C   C7        1.0  0.54697  0.48991  0.33990  1.0000
  C   C8        1.0  0.50980  0.06177  0.32999  1.0000
  C   C9        1.0  0.93888  0.45136  0.33628  1.0000
  C   C10       1.0  0.45077  0.51303  0.33356  1.0000
  C   C11       1.0  0.48577  0.94147  0.34360  1.0000
  C   C12       1.0  0.06033  0.54883  0.31082  1.0000
  C   C13       1.0  0.54254  0.51848  0.37195  1.0000
  C   C14       1.0  0.47976  0.03008  0.35487  1.0000
  C   C15       1.0  0.96944  0.45469  0.35046  1.0000
  C   C16       1.0  0.45184  0.48469  0.36284  1.0000
  C   C17       1.0  0.51432  0.97280  0.35169  1.0000
  C   C18       1.0  0.02901  0.54688  0.31230  1.0000
  C   C19       1.0  0.51326  0.51801  0.34897  1.0000
  C   C20       1.0  0.48358  0.00068  0.32666  1.0000
  C   C21       1.0  0.00131  0.48630  0.30963  1.0000
  C   C22       1.0  0.48518  0.48712  0.33739  1.0000
  C   C23       1.0  0.51483  0.00280  0.32253  1.0000
  C   C24       1.0  0.99996  0.51530  0.29759  1.0000
  C   C25       1.0  0.49040  0.45855  0.29287  1.0000
  C   C26       1.0  0.54596  0.03499  0.29198  1.0000
  C   C27       1.0  0.96947  0.51186  0.27258  1.0000
  C   C28       1.0  0.51216  0.54764  0.32719  1.0000
  C   C29       1.0  0.45658  0.96939  0.29647  1.0000
  C   C30       1.0  0.03472  0.48859  0.28068  1.0000
  C   C31       1.0  0.46765  0.42972  0.22759  1.0000
  C   C32       1.0  0.58043  0.03934  0.23890  1.0000
  C   C33       1.0  0.96870  0.53820  0.21315  1.0000
  C   C34       1.0  0.54175  0.57972  0.29582  1.0000
  C   C35       1.0  0.43051  0.96697  0.24041  1.0000
  C   C36       1.0  0.04144  0.46158  0.22455  1.0000
  C   C37       1.0  0.47134  0.40187  0.19353  1.0000
  C   C38       1.0  0.60937  0.06984  0.22558  1.0000
  C   C39       1.0  0.93907  0.53520  0.19989  1.0000
  C   C40       1.0  0.54085  0.60749  0.26908  1.0000
  C   C41       1.0  0.40438  0.93715  0.21528  1.0000
  C   C42       1.0  0.07193  0.46280  0.21287  1.0000
  C   C43       1.0  0.49891  0.40137  0.22104  1.0000
  C   C44       1.0  0.60536  0.09830  0.26607  1.0000
  C   C45       1.0  0.90751  0.50484  0.24589  1.0000
  C   C46       1.0  0.50958  0.60500  0.27269  1.0000
  C   C47       1.0  0.40356  0.90757  0.23956  1.0000
  C   C48       1.0  0.09781  0.49160  0.25907  1.0000
  C   C49       1.0  0.52384  0.43072  0.26344  1.0000
  C   C50       1.0  0.57242  0.09480  0.30011  1.0000
  C   C51       1.0  0.90862  0.47802  0.28895  1.0000
  C   C52       1.0  0.48092  0.57366  0.29182  1.0000
  C   C53       1.0  0.43092  0.90978  0.27700  1.0000
  C   C54       1.0  0.09328  0.51936  0.29281  1.0000
  C   C55       1.0  0.57729  0.49189  0.34579  1.0000
  C   C56       1.0  0.50655  0.08983  0.32748  1.0000
  C   C57       1.0  0.90977  0.41980  0.35372  1.0000
  C   C58       1.0  0.41975  0.50928  0.32706  1.0000
  C   C59       1.0  0.48601  0.91264  0.36652  1.0000
  C   C60       1.0  0.08883  0.57975  0.31485  1.0000
  C   C61       1.0  0.60299  0.52058  0.38750  1.0000
  C   C62       1.0  0.47408  0.08793  0.36595  1.0000
  C   C63       1.0  0.90929  0.39162  0.39178  1.0000
  C   C64       1.0  0.38872  0.47918  0.36840  1.0000
  C   C65       1.0  0.51392  0.91344  0.39158  1.0000
  C   C66       1.0  0.08743  0.60897  0.32668  1.0000
  C   C67       1.0  0.38866  0.45227  0.42541  1.0000
  C   C68       1.0  0.53979  0.94408  0.42229  1.0000
  C   C69       1.0  0.05519  0.60665  0.34817  1.0000
  C   C70       1.0  0.59649  0.54752  0.43955  1.0000
  C   C71       1.0  0.44365  0.05686  0.42022  1.0000
  C   C72       1.0  0.93777  0.39559  0.43010  1.0000
  C   C73       1.0  0.41937  0.45512  0.42272  1.0000
  C   C74       1.0  0.53958  0.97270  0.40468  1.0000
  C   C75       1.0  0.02709  0.57663  0.34416  1.0000
  C   C76       1.0  0.56698  0.54600  0.43419  1.0000
  C   C77       1.0  0.44661  0.02899  0.41548  1.0000
  C   C78       1.0  0.96644  0.42636  0.41348  1.0000
  C   C79       1.0  0.14191  0.64632  0.35283  1.0000
  C   C80       1.0  0.35162  0.49807  0.36557  1.0000
  C   C81       1.0  0.63776  0.50044  0.40834  1.0000
  C   C82       1.0  0.49236  0.14426  0.36188  1.0000
  C   C83       1.0  0.85105  0.35367  0.42936  1.0000
  C   C84       1.0  0.52993  0.65880  0.17825  1.0000
  C   C85       1.0  0.34730  0.87077  0.24402  1.0000
  C   C86       1.0  0.13606  0.47190  0.23784  1.0000
  C   C87       1.0  0.48150  0.34510  0.18046  1.0000
  C   C88       1.0  0.66456  0.13886  0.19381  1.0000
  C   C89       1.0  0.87205  0.51872  0.17520  1.0000
  C   C90       1.0  0.50284  0.86055  0.30546  1.0000
  C   C91       1.0  0.51873  0.45570  0.78716  1.0000
  C   C92       1.0  0.54431  0.06086  0.80303  1.0000
  C   C93       1.0  0.93655  0.47905  0.79578  1.0000
  C   C94       1.0  0.47678  0.53947  0.81399  1.0000
  C   C95       1.0  0.45762  0.93667  0.80582  1.0000
  C   C96       1.0  0.06105  0.51973  0.79831  1.0000
  C   C97       1.0  0.54463  0.48646  0.82895  1.0000
  C   C98       1.0  0.51105  0.05869  0.82930  1.0000
  C   C99       1.0  0.93687  0.45035  0.83669  1.0000
  C   C100      1.0  0.44639  0.50722  0.83120  1.0000
  C   C101      1.0  0.48614  0.93826  0.84230  1.0000
  C   C102      1.0  0.05753  0.54911  0.81373  1.0000
  C   C103      1.0  0.53888  0.51421  0.86584  1.0000
  C   C104      1.0  0.48087  0.02720  0.85149  1.0000
  C   C105      1.0  0.96769  0.45420  0.85054  1.0000
  C   C106      1.0  0.44806  0.47889  0.85502  1.0000
  C   C107      1.0  0.51446  0.96958  0.85265  1.0000
  C   C108      1.0  0.02619  0.54660  0.81175  1.0000
  C   C109      1.0  0.50918  0.51286  0.84357  1.0000
  C   C110      1.0  0.48446  0.99772  0.82369  1.0000
  C   C111      1.0  0.99928  0.48603  0.81083  1.0000
  C   C112      1.0  0.48165  0.48171  0.82911  1.0000
  C   C113      1.0  0.51546  0.99963  0.82132  1.0000
  C   C114      1.0  0.99746  0.51470  0.79786  1.0000
  C   C115      1.0  0.48774  0.45359  0.78481  1.0000
  C   C116      1.0  0.54690  0.03155  0.79001  1.0000
  C   C117      1.0  0.96687  0.51066  0.77171  1.0000
  C   C118      1.0  0.50743  0.54232  0.82629  1.0000
  C   C119      1.0  0.45737  0.96645  0.79411  1.0000
  C   C120      1.0  0.03293  0.48895  0.78328  1.0000
  C   C121      1.0  0.46537  0.42399  0.72227  1.0000
  C   C122      1.0  0.58130  0.03556  0.73522  1.0000
  C   C123      1.0  0.96609  0.53664  0.70869  1.0000
  C   C124      1.0  0.53646  0.57466  0.80112  1.0000
  C   C125      1.0  0.43176  0.96445  0.73588  1.0000
  C   C126      1.0  0.04042  0.46241  0.72645  1.0000
  C   C127      1.0  0.47019  0.39673  0.68964  1.0000
  C   C128      1.0  0.61046  0.06604  0.72007  1.0000
  C   C129      1.0  0.93664  0.53331  0.69230  1.0000
  C   C130      1.0  0.53492  0.60237  0.78073  1.0000
  C   C131      1.0  0.40516  0.93482  0.71276  1.0000
  C   C132      1.0  0.07129  0.46438  0.71436  1.0000
  C   C133      1.0  0.49852  0.39748  0.71561  1.0000
  C   C134      1.0  0.60660  0.09460  0.76294  1.0000
  C   C135      1.0  0.90519  0.50284  0.73705  1.0000
  C   C136      1.0  0.50357  0.59950  0.78308  1.0000
  C   C137      1.0  0.40337  0.90496  0.74152  1.0000
  C   C138      1.0  0.09690  0.49343  0.76076  1.0000
  C   C139      1.0  0.52288  0.42747  0.75595  1.0000
  C   C140      1.0  0.57363  0.09132  0.80018  1.0000
  C   C141      1.0  0.90641  0.47633  0.78345  1.0000
  C   C142      1.0  0.47537  0.56800  0.79797  1.0000
  C   C143      1.0  0.43053  0.90672  0.77969  1.0000
  C   C144      1.0  0.09157  0.52075  0.79521  1.0000
  C   C145      1.0  0.57572  0.48963  0.83113  1.0000
  C   C146      1.0  0.50817  0.08700  0.82857  1.0000
  C   C147      1.0  0.90811  0.41857  0.85354  1.0000
  C   C148      1.0  0.41521  0.50339  0.82710  1.0000
  C   C149      1.0  0.48698  0.90967  0.86271  1.0000
  C   C150      1.0  0.08552  0.58022  0.82008  1.0000
  C   C151      1.0  0.60083  0.51872  0.87338  1.0000
  C   C152      1.0  0.47587  0.08547  0.86775  1.0000
  C   C153      1.0  0.90831  0.39062  0.88902  1.0000
  C   C154      1.0  0.38438  0.47323  0.86607  1.0000
  C   C155      1.0  0.51473  0.91078  0.89156  1.0000
  C   C156      1.0  0.08386  0.60922  0.82840  1.0000
  C   C157      1.0  0.38475  0.44615  0.91757  1.0000
  C   C158      1.0  0.53988  0.94135  0.92757  1.0000
  C   C159      1.0  0.05170  0.60640  0.84438  1.0000
  C   C160      1.0  0.59286  0.54468  0.93292  1.0000
  C   C161      1.0  0.44523  0.05449  0.91872  1.0000
  C   C162      1.0  0.93701  0.39507  0.92696  1.0000
  C   C163      1.0  0.41575  0.44906  0.91114  1.0000
  C   C164      1.0  0.53929  0.96973  0.90999  1.0000
  C   C165      1.0  0.02390  0.57614  0.84008  1.0000
  C   C166      1.0  0.56243  0.54183  0.93237  1.0000
  C   C167      1.0  0.44786  0.02638  0.91062  1.0000
  C   C168      1.0  0.96526  0.42609  0.91214  1.0000
  C   C169      1.0  0.13847  0.64694  0.85243  1.0000
  C   C170      1.0  0.34759  0.49273  0.86846  1.0000
  C   C171      1.0  0.63620  0.50056  0.90419  1.0000
  C   C172      1.0  0.49450  0.14181  0.87425  1.0000
  C   C173      1.0  0.85042  0.35193  0.92311  1.0000
  C   C174      1.0  0.52415  0.65318  0.69023  1.0000
  C   C175      1.0  0.34669  0.86937  0.74750  1.0000
  C   C176      1.0  0.13524  0.47405  0.74080  1.0000
  C   C177      1.0  0.48306  0.34151  0.67688  1.0000
  C   C178      1.0  0.66574  0.13617  0.68100  1.0000
  C   C179      1.0  0.87001  0.51838  0.67668  1.0000
  C   C180      1.0  0.50528  0.85885  0.79676  1.0000
  N   N1        1.0  0.50473  0.63166  0.26741  1.0000
  N   N2        1.0  0.37844  0.87609  0.21751  1.0000
  N   N3        1.0  0.12819  0.49546  0.27194  1.0000
  N   N4        1.0  0.50327  0.37391  0.21501  1.0000
  N   N5        1.0  0.63152  0.12953  0.28169  1.0000
  N   N6        1.0  0.87482  0.49961  0.25936  1.0000
  N   N7        1.0  0.63528  0.52460  0.37128  1.0000
  N   N8        1.0  0.46975  0.11440  0.34692  1.0000
  N   N9        1.0  0.88335  0.36009  0.37804  1.0000
  N   N10       1.0  0.35794  0.47389  0.35331  1.0000
  N   N11       1.0  0.51718  0.88546  0.39526  1.0000
  N   N12       1.0  0.11601  0.64049  0.30915  1.0000
  N   N13       1.0  0.49852  0.62610  0.77893  1.0000
  N   N14       1.0  0.37749  0.87374  0.72139  1.0000
  N   N15       1.0  0.12771  0.49782  0.77174  1.0000
  N   N16       1.0  0.50418  0.37080  0.71007  1.0000
  N   N17       1.0  0.63286  0.12577  0.77815  1.0000
  N   N18       1.0  0.87269  0.49691  0.74244  1.0000
  N   N19       1.0  0.63367  0.52349  0.85247  1.0000
  N   N20       1.0  0.47218  0.11239  0.85126  1.0000
  N   N21       1.0  0.88289  0.35891  0.87308  1.0000
  N   N22       1.0  0.35373  0.46829  0.85095  1.0000
  N   N23       1.0  0.51829  0.88295  0.89391  1.0000
  N   N24       1.0  0.11218  0.64092  0.81171  1.0000
  C   C181      1.0  0.48505  0.70524  0.33417  1.0000
  C   C182      1.0  0.50987  0.73711  0.26066  1.0000
  C  Sn1       1.0  0.54354  0.74390  0.13983  1.0000
  C  Sn2       1.0  0.55245  0.71826  0.09193  1.0000
  C   C183      1.0  0.52743  0.68645  0.16612  1.0000
  C   C184      1.0  0.49382  0.67993  0.28695  1.0000
  H   H97       1.0  0.45904  0.70019  0.42759  1.0000
  O  Te1       1.0  0.56801  0.77589  0.06769  1.0000
  O  Te2       1.0  0.51417  0.71603  0.97142  1.0000
  H   H98       1.0  0.47461  0.65525  0.34375  1.0000
  Mg  Mg1       1.0  0.53844  0.76363  0.90913  1.0000
  C   C185      1.0  0.27604  0.82857  0.28092  1.0000
  C   C186      1.0  0.31113  0.83801  0.24486  1.0000
  C  Sn3       1.0  0.32310  0.81499  0.18950  1.0000
  C  Sn4       1.0  0.29946  0.78192  0.16994  1.0000
  C   C187      1.0  0.26442  0.77272  0.20622  1.0000
  C   C188      1.0  0.25271  0.79595  0.26159  1.0000
  H   H99       1.0  0.26699  0.84654  0.32367  1.0000
  O  Te3       1.0  0.35823  0.82484  0.15410  1.0000
  O  Te4       1.0  0.31074  0.75841  0.11474  1.0000
  H   H100      1.0  0.22555  0.78864  0.28939  1.0000
  Mg  Mg2       1.0  0.36109  0.78379  0.08251  1.0000
  C   C189      1.0  0.21301  0.51170  0.34287  1.0000
  C   C190      1.0  0.22607  0.48956  0.30493  1.0000
  C  Sn5       1.0  0.20999  0.45980  0.22793  1.0000
  C  Sn6       1.0  0.18030  0.45214  0.18828  1.0000
  C   C191      1.0  0.16745  0.47447  0.22663  1.0000
  C   C192      1.0  0.18373  0.50418  0.30374  1.0000
  H   H101      1.0  0.22562  0.53470  0.40244  1.0000
  O  Te5       1.0  0.22337  0.43794  0.19096  1.0000
  O  Te6       1.0  0.16373  0.42258  0.11124  1.0000
  H   H102      1.0  0.17363  0.52133  0.33299  1.0000
  Mg  Mg3       1.0  0.19171  0.40077  0.08577  1.0000
  C   C193      1.0  0.51554  0.31504  0.25298  1.0000
  C   C194      1.0  0.49322  0.31789  0.19161  1.0000
  C  Sn7       1.0  0.46594  0.28979  0.15636  1.0000
  C  Sn8       1.0  0.46097  0.25830  0.18321  1.0000
  C   C195      1.0  0.48342  0.25572  0.24476  1.0000
  C   C196      1.0  0.51065  0.28399  0.27957  1.0000
  H   H103      1.0  0.53659  0.33692  0.28000  1.0000
  O  Te7       1.0  0.44389  0.29308  0.09506  1.0000
  O  Te8       1.0  0.43390  0.22982  0.14909  1.0000
  H   H104      1.0  0.52791  0.28178  0.32719  1.0000
  Mg  Mg4       1.0  0.41074  0.24699  0.06731  1.0000
  C   C197      1.0  0.73624  0.18932  0.09074  1.0000
  C   C198      1.0  0.70069  0.17184  0.19915  1.0000
  C  Sn9       1.0  0.68585  0.18612  0.34917  1.0000
  C  Sn10      1.0  0.70706  0.21851  0.39106  1.0000
  C   C199      1.0  0.74259  0.23580  0.28169  1.0000
  C   C200      1.0  0.75718  0.22127  0.13193  1.0000
  H   H105      1.0  0.67578  0.16975  0.97481  1.0000
  O  Te9       1.0  0.65028  0.16830  0.45609  1.0000
  O  Te10      1.0  0.69290  0.23337  0.54016  1.0000
  H   H106      1.0  0.78470  0.23482  0.04795  1.0000
  Mg  Mg5       1.0  0.64308  0.19915  0.64495  1.0000
  C   C201      1.0  0.79680  0.48643  0.34749  1.0000
  C   C202      1.0  0.83005  0.50655  0.22227  1.0000
  C  Sn11      1.0  0.83467  0.53012  0.11484  1.0000
  C  Sn12      1.0  0.80541  0.53357  0.13346  1.0000
  C   C203      1.0  0.77226  0.51335  0.25923  1.0000
  C   C204      1.0  0.76793  0.48983  0.36600  1.0000
  H   H107      1.0  0.79345  0.46825  0.43018  1.0000
  O  Te11      1.0  0.79633  0.54168  0.99035  1.0000
  O  Te12      1.0  0.80929  0.55694  0.02786  1.0000
  H   H108      1.0  0.74219  0.47427  0.46303  1.0000
  Mg  Mg6       1.0  0.78831  0.56994  0.87713  1.0000
  C   C205      1.0  0.28811  0.45830  0.29289  1.0000
  C   C206      1.0  0.31679  0.48672  0.31462  1.0000
  C  Sn13      1.0  0.31698  0.51686  0.33563  1.0000
  C  Sn14      1.0  0.28786  0.51851  0.33488  1.0000
  C   C207      1.0  0.25928  0.48993  0.31318  1.0000
  C   C208      1.0  0.25937  0.45990  0.29220  1.0000
  H   H109      1.0  0.28817  0.43506  0.27676  1.0000
  O  Te13      1.0  0.34586  0.54502  0.35712  1.0000
  O  Te14      1.0  0.28735  0.54831  0.35568  1.0000
  H   H110      1.0  0.23714  0.43789  0.27550  1.0000
  Mg  Mg7       1.0  0.33288  0.57991  0.38060  1.0000
  C   C209      1.0  0.54266  0.81311  0.29429  1.0000
  C   C210      1.0  0.51958  0.78095  0.26748  1.0000
  C  Sn15      1.0  0.48881  0.77395  0.24620  1.0000
  C  Sn16      1.0  0.48108  0.79967  0.25188  1.0000
  C   C211      1.0  0.50434  0.83176  0.27865  1.0000
  C   C212      1.0  0.53505  0.83849  0.29984  1.0000
  H   H111      1.0  0.56643  0.81832  0.31059  1.0000
  O  Te15      1.0  0.46604  0.74169  0.21960  1.0000
  O  Te16      1.0  0.45051  0.79336  0.23093  1.0000
  H   H112      1.0  0.55292  0.86339  0.32048  1.0000
  Mg  Mg8       1.0  0.42769  0.74541  0.19805  1.0000
  C   C213      1.0  0.17759  0.71466  0.24812  1.0000
  C   C214      1.0  0.17296  0.68488  0.29479  1.0000
  C  Sn17      1.0  0.19921  0.68406  0.32995  1.0000
  C  Sn18      1.0  0.23065  0.71365  0.31813  1.0000
  C   C215      1.0  0.23502  0.74332  0.27147  1.0000
  C   C216      1.0  0.20858  0.74386  0.23650  1.0000
  H   H113      1.0  0.15713  0.71508  0.22116  1.0000
  O  Te17      1.0  0.19417  0.65409  0.37633  1.0000
  O  Te18      1.0  0.25731  0.71354  0.35265  1.0000
  H   H114      1.0  0.21216  0.76692  0.20049  1.0000
  Mg  Mg9       1.0  0.23814  0.66657  0.41083  1.0000
  C   C217      1.0  0.45702  0.17323  0.28865  1.0000
  C   C218      1.0  0.48388  0.17102  0.30905  1.0000
  C  Sn19      1.0  0.51375  0.19949  0.31867  1.0000
  C  Sn20      1.0  0.51671  0.23072  0.30767  1.0000
  C   C219      1.0  0.48968  0.23266  0.28739  1.0000
  C   C220      1.0  0.45990  0.20402  0.27786  1.0000
  H   H115      1.0  0.43397  0.15107  0.28137  1.0000
  O  Te19      1.0  0.54035  0.19685  0.33900  1.0000
  O  Te20      1.0  0.54628  0.25957  0.31698  1.0000
  H   H116      1.0  0.43910  0.20573  0.26218  1.0000
  Mg  Mg10      1.0  0.57552  0.24323  0.34494  1.0000
  C   C221      1.0  0.81717  0.27798  0.22242  1.0000
  C   C222      1.0  0.78069  0.26507  0.29307  1.0000
  C  Sn21      1.0  0.76555  0.28325  0.40954  1.0000
  C  Sn22      1.0  0.78741  0.31494  0.45586  1.0000
  C   C223      1.0  0.82388  0.32765  0.38436  1.0000
  C   C224      1.0  0.83875  0.30924  0.26798  1.0000
  H   H117      1.0  0.82868  0.26375  0.13229  1.0000
  O  Te21      1.0  0.72905  0.26998  0.47896  1.0000
  O  Te22      1.0  0.77297  0.33365  0.57191  1.0000
  H   H118      1.0  0.86701  0.31926  0.21321  1.0000
  Mg  Mg11      1.0  0.72180  0.30492  0.63183  1.0000
  C   C225      1.0  0.73046  0.53726  0.24762  1.0000
  C   C226      1.0  0.73773  0.51458  0.29001  1.0000
  C  Sn23      1.0  0.71041  0.48365  0.36765  1.0000
  C  Sn24      1.0  0.67517  0.47533  0.40330  1.0000
  C   C227      1.0  0.66817  0.49818  0.36028  1.0000
  C   C228      1.0  0.69572  0.52907  0.28268  1.0000
  H   H119      1.0  0.75177  0.56115  0.18749  1.0000
  O  Te23      1.0  0.71813  0.46129  0.40921  1.0000
  O  Te24      1.0  0.64736  0.44459  0.48075  1.0000
  H   H120      1.0  0.69008  0.54661  0.24976  1.0000
  Mg  Mg12      1.0  0.67123  0.42249  0.51327  1.0000
  C   C229      1.0  0.48095  0.70117  0.83582  1.0000
  C   C230      1.0  0.50653  0.73279  0.76083  1.0000
  C  Sn25      1.0  0.54014  0.73878  0.64312  1.0000
  C  Sn26      1.0  0.54820  0.71258  0.59990  1.0000
  C   C231      1.0  0.52241  0.68104  0.67553  1.0000
  C   C232      1.0  0.48887  0.67532  0.79321  1.0000
  H   H121      1.0  0.45499  0.69674  0.92680  1.0000
  O  Te25      1.0  0.56539  0.77051  0.56945  1.0000
  O  Te26      1.0  0.58157  0.71788  0.48259  1.0000
  H   H122      1.0  0.46906  0.65083  0.85116  1.0000
  Mg  Mg13      1.0  0.60710  0.76544  0.41654  1.0000
  C   C233      1.0  0.25940  0.81217  0.79114  1.0000
  C   C234      1.0  0.25921  0.78257  0.72990  1.0000
  C  Sn27      1.0  0.29016  0.78048  0.66942  1.0000
  C  Sn28      1.0  0.32185  0.80858  0.67047  1.0000
  C   C235      1.0  0.32176  0.83807  0.73212  1.0000
  C   C236      1.0  0.29064  0.83989  0.79229  1.0000
  H   H123      1.0  0.23533  0.81358  0.83780  1.0000
  O  Te27      1.0  0.28951  0.75073  0.60861  1.0000
  O  Te28      1.0  0.35315  0.80717  0.61082  1.0000
  H   H124      1.0  0.29080  0.86280  0.83981  1.0000
  Mg  Mg14      1.0  0.33891  0.76108  0.54061  1.0000
  C   C237      1.0  0.19631  0.51071  0.83842  1.0000
  C   C238      1.0  0.17311  0.48633  0.76151  1.0000
  C  Sn29      1.0  0.17687  0.45863  0.69444  1.0000
  C  Sn30      1.0  0.20439  0.45536  0.70479  1.0000
  C   C239      1.0  0.22744  0.47988  0.78210  1.0000
  C   C240      1.0  0.22345  0.50749  0.84874  1.0000
  H   H125      1.0  0.19320  0.53207  0.89008  1.0000
  O  Te29      1.0  0.15347  0.43451  0.61797  1.0000
  O  Te30      1.0  0.20874  0.42792  0.63886  1.0000
  H   H126      1.0  0.24140  0.52636  0.90838  1.0000
  Mg  Mg15      1.0  0.17019  0.40165  0.54672  1.0000
  C   C241      1.0  0.45814  0.27233  0.66947  1.0000
  C   C242      1.0  0.47927  0.30542  0.69281  1.0000
  C  Sn31      1.0  0.50879  0.31502  0.73433  1.0000
  C  Sn32      1.0  0.51724  0.29099  0.75268  1.0000
  C   C243      1.0  0.49594  0.25796  0.72894  1.0000
  C   C244      1.0  0.46646  0.24862  0.68748  1.0000
  H   H127      1.0  0.43534  0.26511  0.63729  1.0000
  O  Te31      1.0  0.52961  0.34818  0.75727  1.0000
  O  Te32      1.0  0.54659  0.29991  0.79404  1.0000
  H   H128      1.0  0.45012  0.22301  0.66930  1.0000
  Mg  Mg16      1.0  0.56687  0.34817  0.81257  1.0000
  C   C245      1.0  0.68592  0.19430  0.88219  1.0000
  C   C246      1.0  0.68888  0.17382  0.73791  1.0000
  C  Sn33      1.0  0.72166  0.18168  0.60262  1.0000
  C  Sn34      1.0  0.75200  0.21059  0.61235  1.0000
  C   C247      1.0  0.74877  0.23091  0.75731  1.0000
  C   C248      1.0  0.71584  0.22282  0.89193  1.0000
  H   H129      1.0  0.66044  0.18804  0.98640  1.0000
  O  Te33      1.0  0.72414  0.16094  0.45938  1.0000
  O  Te34      1.0  0.78509  0.21902  0.47901  1.0000
  H   H130      1.0  0.78530  0.24701  0.00368  1.0000
  Mg  Mg17      1.0  0.77502  0.18294  0.31058  1.0000
  C   C249      1.0  0.79455  0.48074  0.80059  1.0000
  C   C250      1.0  0.82848  0.50609  0.71349  1.0000
  C  Sn35      1.0  0.83343  0.53515  0.65477  1.0000
  C  Sn36      1.0  0.80382  0.53884  0.68402  1.0000
  C   C251      1.0  0.76998  0.51334  0.77140  1.0000
  C   C252      1.0  0.76533  0.48436  0.82956  1.0000
  H   H131      1.0  0.79095  0.45832  0.84568  1.0000
  O  Te35      1.0  0.86751  0.56023  0.56791  1.0000
  O  Te36      1.0  0.80801  0.56763  0.62678  1.0000
  H   H132      1.0  0.73906  0.46474  0.89710  1.0000
  Mg  Mg18      1.0  0.85971  0.59482  0.51467  1.0000
  C   C253      1.0  0.28579  0.45575  0.77769  1.0000
  C   C254      1.0  0.31377  0.48299  0.81280  1.0000
  C  Sn37      1.0  0.31408  0.51320  0.84514  1.0000
  C  Sn38      1.0  0.28582  0.51612  0.84222  1.0000
  C   C255      1.0  0.25794  0.48872  0.80709  1.0000
  C   C256      1.0  0.25790  0.45860  0.77486  1.0000
  H   H133      1.0  0.28574  0.43244  0.75285  1.0000
  O  Te37      1.0  0.34225  0.54018  0.87994  1.0000
  O  Te38      1.0  0.28546  0.54603  0.87415  1.0000
  H   H134      1.0  0.23622  0.43751  0.74779  1.0000
  Mg  Mg19      1.0  0.32981  0.57572  0.91526  1.0000
  C   C257      1.0  0.47947  0.77506  0.72040  1.0000
  C   C258      1.0  0.50411  0.76939  0.74270  1.0000
  C  Sn39      1.0  0.53071  0.79450  0.79721  1.0000
  C  Sn40      1.0  0.53260  0.82584  0.82996  1.0000
  C   C259      1.0  0.50781  0.83125  0.80739  1.0000
  C   C260      1.0  0.48131  0.80595  0.75274  1.0000
  H   H135      1.0  0.45895  0.75548  0.67820  1.0000
  O  Te39      1.0  0.55513  0.78842  0.81878  1.0000
  O  Te40      1.0  0.55891  0.85136  0.88463  1.0000
  H   H136      1.0  0.46221  0.81034  0.73560  1.0000
  Mg  Mg20      1.0  0.58611  0.83105  0.89538  1.0000
  C   C261      1.0  0.19082  0.73188  0.72387  1.0000
  C   C262      1.0  0.22169  0.74214  0.75356  1.0000
  C  Sn41      1.0  0.22704  0.71943  0.81149  1.0000
  C  Sn42      1.0  0.20096  0.68583  0.84005  1.0000
  C   C263      1.0  0.17017  0.67580  0.80984  1.0000
  C   C264      1.0  0.16508  0.69874  0.75194  1.0000
  H   H137      1.0  0.18689  0.74962  0.67898  1.0000
  O  Te41      1.0  0.25804  0.73010  0.84057  1.0000
  O  Te42      1.0  0.20563  0.66260  0.89786  1.0000
  H   H138      1.0  0.14119  0.69078  0.72885  1.0000
  Mg  Mg21      1.0  0.25228  0.68916  0.91909  1.0000
  C   C265      1.0  0.46266  0.18615  0.75400  1.0000
  C   C266      1.0  0.48407  0.21925  0.77559  1.0000
  C  Sn43      1.0  0.51270  0.22859  0.82457  1.0000
  C  Sn44      1.0  0.51997  0.20430  0.85232  1.0000
  C   C267      1.0  0.49840  0.17125  0.83026  1.0000
  C   C268      1.0  0.46981  0.16217  0.78127  1.0000
  H   H139      1.0  0.44055  0.17912  0.71600  1.0000
  O  Te43      1.0  0.53382  0.26177  0.84563  1.0000
  O  Te44      1.0  0.54842  0.21295  0.90129  1.0000
  H   H140      1.0  0.45325  0.13654  0.76446  1.0000
  Mg  Mg22      1.0  0.56954  0.26135  0.91366  1.0000
  C   C269      1.0  0.81722  0.27593  0.71630  1.0000
  C   C270      1.0  0.78073  0.26299  0.78527  1.0000
  C  Sn45      1.0  0.76544  0.28112  0.90102  1.0000
  C  Sn46      1.0  0.78714  0.31279  0.94832  1.0000
  C   C271      1.0  0.82362  0.32553  0.87850  1.0000
  C   C272      1.0  0.83864  0.30717  0.76283  1.0000
  H   H141      1.0  0.82885  0.26174  0.62673  1.0000
  O  Te45      1.0  0.72894  0.26782  0.96876  1.0000
  O  Te46      1.0  0.84428  0.33978  0.06368  1.0000
  H   H142      1.0  0.86689  0.31721  0.70936  1.0000
  Mg  Mg23      1.0  0.79318  0.31103  0.12125  1.0000
  C   C273      1.0  0.67711  0.47704  0.95899  1.0000
  C   C274      1.0  0.66970  0.49727  0.89339  1.0000
  C  Sn47      1.0  0.69670  0.52314  0.76863  1.0000
  C  Sn48      1.0  0.73174  0.52881  0.70864  1.0000
  C   C275      1.0  0.73887  0.50843  0.77499  1.0000
  C   C276      1.0  0.71166  0.48261  0.89984  1.0000
  H   H143      1.0  0.72778  0.46539  0.05551  1.0000
  O  Te47      1.0  0.68885  0.54312  0.70451  1.0000
  O  Te48      1.0  0.75923  0.55449  0.58398  1.0000
  H   H144      1.0  0.71739  0.46694  0.95052  1.0000
  Mg  Mg24      1.0  0.73530  0.57499  0.53603  1.0000
