data_image0
_chemical_formula_structural       H30C48N6C2Sn2C2HTe2HMgC2Sn2C2HTe2HMgC2Sn2C2HTe2HMg
_chemical_formula_sum              "H36 C60 N6 Sn6 Te6 Mg3"
_cell_length_a       18.7832
_cell_length_b       18.8068
_cell_length_c       8.10767
_cell_angle_alpha    82.5063
_cell_angle_beta     68.6103
_cell_angle_gamma    120.152

_symmetry_space_group_name_H-M    'P1'
_space_group_IT_number       1

loop_
  _space_group_symop_operation_xyz
  'x, y, z'

loop_
  _atom_site_type_symbol
  _atom_site_label
  _atom_site_symmetry_multiplicity
  _atom_site_fract_x
  _atom_site_fract_y
  _atom_site_fract_z
  _atom_site_occupancy
  H   H1        1.0  0.17912  0.15575  0.27838  1.0000
  H   H2        1.0  0.84072  0.01203  0.20610  1.0000
  H   H3        1.0  0.97986  0.79903  0.27192  1.0000
  H   H4        1.0  0.20190  0.00644  0.24539  1.0000
  H   H5        1.0  0.97196  0.16465  0.29234  1.0000
  H   H6        1.0  0.82615  0.79444  0.20839  1.0000
  H   H7        1.0  0.95545  0.28187  0.29563  1.0000
  H   H8        1.0  0.67192  0.12397  0.22038  1.0000
  H   H9        1.0  0.87091  0.34713  0.29814  1.0000
  H   H10       1.0  0.75276  0.05686  0.23116  1.0000
  H   H11       1.0  0.58941  0.39333  0.21746  1.0000
  H   H12       1.0  0.59501  0.16707  0.26639  1.0000
  H   H13       1.0  0.82419  0.41088  0.22586  1.0000
  H   H14       1.0  0.17643  0.17596  0.79136  1.0000
  H   H15       1.0  0.83752  0.03283  0.71860  1.0000
  H   H16       1.0  0.98139  0.82308  0.76593  1.0000
  H   H17       1.0  0.20220  0.02919  0.74810  1.0000
  H   H18       1.0  0.97389  0.18921  0.78829  1.0000
  H   H19       1.0  0.81976  0.81406  0.72940  1.0000
  H   H20       1.0  0.35086  0.06044  0.68019  1.0000
  H   H21       1.0  0.96234  0.30969  0.77441  1.0000
  H   H22       1.0  0.44863  0.32897  0.83430  1.0000
  H   H23       1.0  0.66231  0.14064  0.75986  1.0000
  H   H24       1.0  0.50649  0.14859  0.65924  1.0000
  H   H25       1.0  0.88020  0.37704  0.77248  1.0000
  H   H26       1.0  0.29489  0.24230  0.84981  1.0000
  H   H27       1.0  0.74555  0.07532  0.75845  1.0000
  H   H28       1.0  0.59171  0.41821  0.71299  1.0000
  H   H29       1.0  0.59953  0.19366  0.75280  1.0000
  H   H30       1.0  0.81146  0.42612  0.77922  1.0000
  C   C1        1.0  0.22258  0.06987  0.25939  1.0000
  C   C2        1.0  0.91373  0.12799  0.26405  1.0000
  C   C3        1.0  0.86279  0.76717  0.23045  1.0000
  C   C4        1.0  0.16369  0.09273  0.26998  1.0000
  C   C5        1.0  0.89686  0.05285  0.23625  1.0000
  C   C6        1.0  0.93803  0.81996  0.25220  1.0000
  C   C7        1.0  0.86175  0.16452  0.26149  1.0000
  C   C8        1.0  0.77955  0.12093  0.24454  1.0000
  C   C9        1.0  0.73298  0.15904  0.24050  1.0000
  C   C10       1.0  0.76481  0.24247  0.25572  1.0000
  C   C11       1.0  0.84538  0.28463  0.27795  1.0000
  C   C12       1.0  0.89310  0.24724  0.27902  1.0000
  C   C13       1.0  0.07688  0.03676  0.26363  1.0000
  C   C14       1.0  0.95117  0.01960  0.24579  1.0000
  C   C15       1.0  0.96983  0.90853  0.25112  1.0000
  C   C16       1.0  0.58322  0.27517  0.23596  1.0000
  C   C17       1.0  0.71646  0.28405  0.24540  1.0000
  C   C18       1.0  0.71005  0.41226  0.22906  1.0000
  C   C19       1.0  0.62456  0.36283  0.22688  1.0000
  C   C20       1.0  0.62920  0.23638  0.24920  1.0000
  C   C21       1.0  0.75604  0.37230  0.23244  1.0000
  C   C22       1.0  0.22171  0.09182  0.76544  1.0000
  C   C23       1.0  0.91396  0.15135  0.76548  1.0000
  C   C24       1.0  0.86041  0.78947  0.73847  1.0000
  C   C25       1.0  0.16206  0.11393  0.77834  1.0000
  C   C26       1.0  0.89544  0.07487  0.74306  1.0000
  C   C27       1.0  0.93771  0.84304  0.75384  1.0000
  C   C28       1.0  0.31080  0.14456  0.76450  1.0000
  C   C29       1.0  0.86168  0.18773  0.76423  1.0000
  C   C30       1.0  0.34149  0.22202  0.80532  1.0000
  C   C31       1.0  0.77552  0.14148  0.76214  1.0000
  C   C32       1.0  0.42909  0.27144  0.79537  1.0000
  C   C33       1.0  0.72803  0.17911  0.76329  1.0000
  C   C34       1.0  0.49140  0.24687  0.74338  1.0000
  C   C35       1.0  0.76378  0.26535  0.76473  1.0000
  C   C36       1.0  0.46032  0.16925  0.70390  1.0000
  C   C37       1.0  0.84961  0.31105  0.76813  1.0000
  C   C38       1.0  0.37228  0.11926  0.71519  1.0000
  C   C39       1.0  0.89686  0.27313  0.76895  1.0000
  C   C40       1.0  0.07584  0.05879  0.76935  1.0000
  C   C41       1.0  0.95020  0.04183  0.75107  1.0000
  C   C42       1.0  0.96855  0.93068  0.75745  1.0000
  C   C43       1.0  0.58331  0.29881  0.73912  1.0000
  C   C44       1.0  0.71464  0.30645  0.75728  1.0000
  C   C45       1.0  0.70658  0.43333  0.74642  1.0000
  C   C46       1.0  0.62416  0.38610  0.73238  1.0000
  C   C47       1.0  0.63054  0.26094  0.74864  1.0000
  C   C48       1.0  0.75009  0.39194  0.76032  1.0000
  N   N1        1.0  0.02987  0.07171  0.25798  1.0000
  N   N2        1.0  0.91805  0.93788  0.24152  1.0000
  N   N3        1.0  0.04964  0.95526  0.26161  1.0000
  N   N4        1.0  0.02979  0.09446  0.76027  1.0000
  N   N5        1.0  0.91631  0.95969  0.74946  1.0000
  N   N6        1.0  0.04815  0.97705  0.76854  1.0000
  C   C49       1.0  0.40881  0.24760  0.29237  1.0000
  C   C50       1.0  0.47441  0.22863  0.26326  1.0000
  C  Sn1       1.0  0.46044  0.15507  0.21834  1.0000
  C  Sn2       1.0  0.37924  0.09960  0.20230  1.0000
  C   C51       1.0  0.31406  0.11918  0.23156  1.0000
  C   C52       1.0  0.32871  0.19295  0.27651  1.0000
  H   H31       1.0  0.42016  0.30469  0.32704  1.0000
  O  Te1       1.0  0.52667  0.13705  0.18978  1.0000
  O  Te2       1.0  0.36356  0.02567  0.15749  1.0000
  H   H32       1.0  0.27794  0.20765  0.29891  1.0000
  Mg  Mg1       1.0  0.47409  0.02863  0.13162  1.0000
  C   C53       1.0  0.84440  0.56706  0.26832  1.0000
  C   C54       1.0  0.76534  0.51092  0.25117  1.0000
  C  Sn3       1.0  0.71691  0.54165  0.21213  1.0000
  C  Sn4       1.0  0.74840  0.63026  0.18985  1.0000
  C   C55       1.0  0.82760  0.68592  0.20714  1.0000
  C   C56       1.0  0.87552  0.65448  0.24630  1.0000
  H   H33       1.0  0.88151  0.54276  0.29851  1.0000
  O  Te3       1.0  0.63804  0.48466  0.19552  1.0000
  O  Te4       1.0  0.70133  0.66269  0.15070  1.0000
  H   H34       1.0  0.93677  0.69798  0.25944  1.0000
  Mg  Mg2       1.0  0.59745  0.55959  0.14119  1.0000
  C   C57       1.0  0.85795  0.60026  0.71967  1.0000
  C   C58       1.0  0.76806  0.53554  0.74935  1.0000
  C  Sn5       1.0  0.70420  0.55574  0.76654  1.0000
  C  Sn6       1.0  0.73105  0.64240  0.75365  1.0000
  C   C59       1.0  0.82117  0.70670  0.72380  1.0000
  C   C60       1.0  0.88450  0.68576  0.70686  1.0000
  H   H35       1.0  0.90698  0.58408  0.70646  1.0000
  O  Te5       1.0  0.61466  0.49028  0.79623  1.0000
  O  Te6       1.0  0.66863  0.66439  0.77025  1.0000
  H   H36       1.0  0.95412  0.73590  0.68376  1.0000
  Mg  Mg3       1.0  0.55450  0.55240  0.80984  1.0000
