data_image0
_chemical_formula_structural       H18C30N6SnCSn2CSnTe4Mg2SnCSn2CSnTe4Mg2SnCSn2CSnTe4Mg2SnCSn2CSnTe4Mg2SnCSn2CSnTe4Mg2SnCSn2CSnTe4Mg2
_chemical_formula_sum              "H18 C42 N6 Sn24 Te24 Mg12"
_cell_length_a       18.7832
_cell_length_b       18.8068
_cell_length_c       8.10767
_cell_angle_alpha    82.5063
_cell_angle_beta     68.6103
_cell_angle_gamma    120.152

_symmetry_space_group_name_H-M    'P1'
_space_group_IT_number       1

loop_
  _space_group_symop_operation_xyz
  'x, y, z'

loop_
  _atom_site_type_symbol
  _atom_site_label
  _atom_site_symmetry_multiplicity
  _atom_site_fract_x
  _atom_site_fract_y
  _atom_site_fract_z
  _atom_site_occupancy
  H   H1        1.0  0.17912  0.15575  0.27838  1.0000
  H   H2        1.0  0.84072  0.01203  0.20610  1.0000
  H   H3        1.0  0.97986  0.79903  0.27192  1.0000
  H   H4        1.0  0.20190  0.00644  0.24539  1.0000
  H   H5        1.0  0.97196  0.16465  0.29234  1.0000
  H   H6        1.0  0.82615  0.79444  0.20839  1.0000
  H   H7        1.0  0.58941  0.39333  0.21746  1.0000
  H   H8        1.0  0.59501  0.16707  0.26639  1.0000
  H   H9        1.0  0.82419  0.41088  0.22586  1.0000
  H   H10       1.0  0.17643  0.17596  0.79136  1.0000
  H   H11       1.0  0.83752  0.03283  0.71860  1.0000
  H   H12       1.0  0.98139  0.82308  0.76593  1.0000
  H   H13       1.0  0.20220  0.02919  0.74810  1.0000
  H   H14       1.0  0.97389  0.18921  0.78829  1.0000
  H   H15       1.0  0.81976  0.81406  0.72940  1.0000
  H   H16       1.0  0.59171  0.41821  0.71299  1.0000
  H   H17       1.0  0.59953  0.19366  0.75280  1.0000
  H   H18       1.0  0.81146  0.42612  0.77922  1.0000
  C   C1        1.0  0.22258  0.06987  0.25939  1.0000
  C   C2        1.0  0.91373  0.12799  0.26405  1.0000
  C   C3        1.0  0.86279  0.76717  0.23045  1.0000
  C   C4        1.0  0.16369  0.09273  0.26998  1.0000
  C   C5        1.0  0.89686  0.05285  0.23625  1.0000
  C   C6        1.0  0.93803  0.81996  0.25220  1.0000
  C   C7        1.0  0.07688  0.03676  0.26363  1.0000
  C   C8        1.0  0.95117  0.01960  0.24579  1.0000
  C   C9        1.0  0.96983  0.90853  0.25112  1.0000
  C   C10       1.0  0.58322  0.27517  0.23596  1.0000
  C   C11       1.0  0.71646  0.28405  0.24540  1.0000
  C   C12       1.0  0.71005  0.41226  0.22906  1.0000
  C   C13       1.0  0.62456  0.36283  0.22688  1.0000
  C   C14       1.0  0.62920  0.23638  0.24920  1.0000
  C   C15       1.0  0.75604  0.37230  0.23244  1.0000
  C   C16       1.0  0.22171  0.09182  0.76544  1.0000
  C   C17       1.0  0.91396  0.15135  0.76548  1.0000
  C   C18       1.0  0.86041  0.78947  0.73847  1.0000
  C   C19       1.0  0.16206  0.11393  0.77834  1.0000
  C   C20       1.0  0.89544  0.07487  0.74306  1.0000
  C   C21       1.0  0.93771  0.84304  0.75384  1.0000
  C   C22       1.0  0.07584  0.05879  0.76935  1.0000
  C   C23       1.0  0.95020  0.04183  0.75107  1.0000
  C   C24       1.0  0.96855  0.93068  0.75745  1.0000
  C   C25       1.0  0.58331  0.29881  0.73912  1.0000
  C   C26       1.0  0.71464  0.30645  0.75728  1.0000
  C   C27       1.0  0.70658  0.43333  0.74642  1.0000
  C   C28       1.0  0.62416  0.38610  0.73238  1.0000
  C   C29       1.0  0.63054  0.26094  0.74864  1.0000
  C   C30       1.0  0.75009  0.39194  0.76032  1.0000
  N   N1        1.0  0.02987  0.07171  0.25798  1.0000
  N   N2        1.0  0.91805  0.93788  0.24152  1.0000
  N   N3        1.0  0.04964  0.95526  0.26161  1.0000
  N   N4        1.0  0.02979  0.09446  0.76027  1.0000
  N   N5        1.0  0.91631  0.95969  0.74946  1.0000
  N   N6        1.0  0.04815  0.97705  0.76854  1.0000
  C  Sn1       1.0  0.37286  0.23025  0.24309  1.0000
  C   C31       1.0  0.33179  0.15242  0.20796  1.0000
  C  Sn2       1.0  0.36689  0.10208  0.20372  1.0000
  C  Sn3       1.0  0.44463  0.13007  0.23537  1.0000
  C   C32       1.0  0.48565  0.20784  0.27050  1.0000
  C  Sn4       1.0  0.45061  0.25823  0.27474  1.0000
  O  Te1       1.0  0.33661  0.27953  0.24669  1.0000
  O  Te2       1.0  0.32467  0.02454  0.16825  1.0000
  O  Te3       1.0  0.48087  0.08070  0.23174  1.0000
  O  Te4       1.0  0.49277  0.33572  0.31022  1.0000
  Mg  Mg1       1.0  0.39935  0.97995  0.17771  1.0000
  Mg  Mg2       1.0  0.41812  0.38033  0.30089  1.0000
  C  Sn5       1.0  0.87654  0.29459  0.22110  1.0000
  C   C33       1.0  0.79346  0.25954  0.21077  1.0000
  C  Sn6       1.0  0.73584  0.16955  0.24140  1.0000
  C  Sn7       1.0  0.76177  0.11341  0.28336  1.0000
  C   C34       1.0  0.84479  0.14846  0.29371  1.0000
  C  Sn8       1.0  0.90246  0.23845  0.26306  1.0000
  O  Te5       1.0  0.93306  0.38475  0.18997  1.0000
  O  Te6       1.0  0.65314  0.13604  0.23026  1.0000
  O  Te7       1.0  0.70516  0.02319  0.31449  1.0000
  O  Te8       1.0  0.98511  0.27195  0.27422  1.0000
  Mg  Mg3       1.0  0.59938  0.00874  0.28392  1.0000
  Mg  Mg4       1.0  0.03889  0.39922  0.22068  1.0000
  C  Sn9       1.0  0.81873  0.55438  0.32731  1.0000
  C   C35       1.0  0.74574  0.50300  0.28999  1.0000
  C  Sn10      1.0  0.71600  0.54255  0.20142  1.0000
  C  Sn11      1.0  0.76019  0.63540  0.14893  1.0000
  C   C36       1.0  0.83315  0.68672  0.18622  1.0000
  C  Sn12      1.0  0.86292  0.64722  0.27482  1.0000
  O  Te9       1.0  0.84731  0.51344  0.41598  1.0000
  O  Te10      1.0  0.64286  0.48981  0.16564  1.0000
  O  Te11      1.0  0.73154  0.67631  0.06020  1.0000
  O  Te12      1.0  0.93602  0.69992  0.31057  1.0000
  Mg  Mg5       1.0  0.62897  0.57634  0.04153  1.0000
  Mg  Mg6       1.0  0.95000  0.61347  0.43457  1.0000
  C  Sn13      1.0  0.38032  0.11080  0.76466  1.0000
  C   C37       1.0  0.31171  0.12667  0.81144  1.0000
  C  Sn14      1.0  0.33512  0.20996  0.81073  1.0000
  C  Sn15      1.0  0.42909  0.27887  0.76213  1.0000
  C   C38       1.0  0.49764  0.26299  0.71535  1.0000
  C  Sn16      1.0  0.47429  0.17970  0.71606  1.0000
  O  Te13      1.0  0.35532  0.02701  0.76629  1.0000
  O  Te14      1.0  0.26530  0.22423  0.85808  1.0000
  O  Te15      1.0  0.45404  0.36270  0.76054  1.0000
  O  Te16      1.0  0.54405  0.16543  0.66872  1.0000
  Mg  Mg7       1.0  0.33404  0.34967  0.83539  1.0000
  Mg  Mg8       1.0  0.47541  0.04004  0.69126  1.0000
  C  Sn17      1.0  0.71849  0.15484  0.82104  1.0000
  C   C39       1.0  0.74474  0.23885  0.82042  1.0000
  C  Sn18      1.0  0.83753  0.30499  0.77448  1.0000
  C  Sn19      1.0  0.90553  0.28680  0.72808  1.0000
  C   C40       1.0  0.87927  0.20283  0.72868  1.0000
  C  Sn20      1.0  0.78649  0.13665  0.77464  1.0000
  O  Te17      1.0  0.62533  0.08973  0.86739  1.0000
  O  Te18      1.0  0.86209  0.38846  0.77488  1.0000
  O  Te19      1.0  0.99874  0.35199  0.68171  1.0000
  O  Te20      1.0  0.76192  0.05322  0.77422  1.0000
  Mg  Mg9       1.0  0.99788  0.45535  0.70188  1.0000
  Mg  Mg10      1.0  0.62617  0.98630  0.84710  1.0000
  C  Sn21      1.0  0.70959  0.61926  0.81449  1.0000
  C   C41       1.0  0.79934  0.68231  0.78772  1.0000
  C  Sn22      1.0  0.87066  0.67011  0.72164  1.0000
  C  Sn23      1.0  0.85191  0.59334  0.68136  1.0000
  C   C42       1.0  0.76220  0.53036  0.70810  1.0000
  C  Sn24      1.0  0.69083  0.54249  0.77421  1.0000
  O  Te21      1.0  0.63935  0.63282  0.88066  1.0000
  O  Te22      1.0  0.95983  0.73405  0.69605  1.0000
  O  Te23      1.0  0.92223  0.57982  0.61515  1.0000
  O  Te24      1.0  0.60172  0.47861  0.79976  1.0000
  Mg  Mg11      1.0  0.03235  0.68579  0.60294  1.0000
  Mg  Mg12      1.0  0.52916  0.52683  0.89277  1.0000
