data_image0
_chemical_formula_structural       H24C36N12C2Sn2C2HTe2HMgC2Sn2C2HTe2HMgC2Sn2C2HTe2HMgC2Sn2C2HTe2HMgC2Sn2C2HTe2HMgC2Sn2C2HTe2HMg
_chemical_formula_sum              "H36 C60 N12 Sn12 Te12 Mg6"
_cell_length_a       22.6539
_cell_length_b       22.6088
_cell_length_c       8.23399
_cell_angle_alpha    117.688
_cell_angle_beta     58.2348
_cell_angle_gamma    120.182

_symmetry_space_group_name_H-M    'P1'
_space_group_IT_number       1

loop_
  _space_group_symop_operation_xyz
  'x, y, z'

loop_
  _atom_site_type_symbol
  _atom_site_label
  _atom_site_symmetry_multiplicity
  _atom_site_fract_x
  _atom_site_fract_y
  _atom_site_fract_z
  _atom_site_occupancy
  H   H1        1.0  0.81778  0.47893  0.22542  1.0000
  H   H2        1.0  0.51685  0.33304  0.24468  1.0000
  H   H3        1.0  0.65909  0.18504  0.27261  1.0000
  H   H4        1.0  0.17733  0.51921  0.27015  1.0000
  H   H5        1.0  0.47726  0.66242  0.25731  1.0000
  H   H6        1.0  0.33825  0.81362  0.23112  1.0000
  H   H7        1.0  0.83052  0.36050  0.27946  1.0000
  H   H8        1.0  0.64194  0.47835  0.23905  1.0000
  H   H9        1.0  0.51753  0.16106  0.24722  1.0000
  H   H10       1.0  0.16565  0.63890  0.21868  1.0000
  H   H11       1.0  0.35250  0.51681  0.25627  1.0000
  H   H12       1.0  0.47638  0.83854  0.27540  1.0000
  H   H13       1.0  0.82516  0.47853  0.71240  1.0000
  H   H14       1.0  0.52209  0.33524  0.74483  1.0000
  H   H15       1.0  0.66448  0.18693  0.77211  1.0000
  H   H16       1.0  0.18027  0.52125  0.77707  1.0000
  H   H17       1.0  0.48127  0.66469  0.75965  1.0000
  H   H18       1.0  0.33986  0.81519  0.73775  1.0000
  H   H19       1.0  0.83409  0.36286  0.78893  1.0000
  H   H20       1.0  0.64742  0.48033  0.73508  1.0000
  H   H21       1.0  0.52195  0.16276  0.75155  1.0000
  H   H22       1.0  0.17084  0.64019  0.71592  1.0000
  H   H23       1.0  0.35708  0.51871  0.75543  1.0000
  H   H24       1.0  0.48052  0.83858  0.76637  1.0000
  C   C1        1.0  0.85036  0.41305  0.26167  1.0000
  C   C2        1.0  0.58733  0.44089  0.24050  1.0000
  C   C3        1.0  0.55353  0.14514  0.25678  1.0000
  C   C4        1.0  0.14568  0.58614  0.23531  1.0000
  C   C5        1.0  0.40720  0.55412  0.25452  1.0000
  C   C6        1.0  0.44132  0.85401  0.26043  1.0000
  C   C7        1.0  0.80360  0.42815  0.24385  1.0000
  C   C8        1.0  0.56972  0.37459  0.24384  1.0000
  C   C9        1.0  0.61928  0.19548  0.26280  1.0000
  C   C10       1.0  0.19200  0.57038  0.25310  1.0000
  C   C11       1.0  0.42436  0.62115  0.25723  1.0000
  C   C12       1.0  0.37670  0.80326  0.24694  1.0000
  C   C13       1.0  0.73051  0.37766  0.24709  1.0000
  C   C14       1.0  0.61981  0.35333  0.24730  1.0000
  C   C15       1.0  0.64238  0.26748  0.25597  1.0000
  C   C16       1.0  0.26490  0.62041  0.25281  1.0000
  C   C17       1.0  0.37442  0.64358  0.25727  1.0000
  C   C18       1.0  0.35306  0.73081  0.25143  1.0000
  C   C19       1.0  0.85497  0.41436  0.76371  1.0000
  C   C20       1.0  0.59253  0.44284  0.73891  1.0000
  C   C21       1.0  0.55837  0.14685  0.75937  1.0000
  C   C22       1.0  0.15003  0.58787  0.73630  1.0000
  C   C23       1.0  0.41169  0.55606  0.75444  1.0000
  C   C24       1.0  0.44488  0.85489  0.75659  1.0000
  C   C25       1.0  0.80946  0.42873  0.73864  1.0000
  C   C26       1.0  0.57519  0.37659  0.74240  1.0000
  C   C27       1.0  0.62427  0.19722  0.76359  1.0000
  C   C28       1.0  0.19561  0.57209  0.75707  1.0000
  C   C29       1.0  0.42866  0.62313  0.75782  1.0000
  C   C30       1.0  0.37941  0.80463  0.74834  1.0000
  C   C31       1.0  0.73598  0.37886  0.74419  1.0000
  C   C32       1.0  0.62534  0.35500  0.74477  1.0000
  C   C33       1.0  0.64727  0.26913  0.75593  1.0000
  C   C34       1.0  0.26860  0.62187  0.75530  1.0000
  C   C35       1.0  0.37854  0.64538  0.75774  1.0000
  C   C36       1.0  0.35648  0.73228  0.75235  1.0000
  N   N1        1.0  0.68735  0.40154  0.24459  1.0000
  N   N2        1.0  0.59454  0.28603  0.25395  1.0000
  N   N3        1.0  0.71092  0.31084  0.25147  1.0000
  N   N4        1.0  0.30715  0.59570  0.25636  1.0000
  N   N5        1.0  0.39984  0.71162  0.25584  1.0000
  N   N6        1.0  0.28516  0.68762  0.25008  1.0000
  N   N7        1.0  0.69319  0.40284  0.74028  1.0000
  N   N8        1.0  0.59977  0.28770  0.75244  1.0000
  N   N9        1.0  0.71580  0.31235  0.75166  1.0000
  N   N10       1.0  0.31121  0.59736  0.75794  1.0000
  N   N11       1.0  0.40369  0.71333  0.75589  1.0000
  N   N12       1.0  0.28854  0.68893  0.75221  1.0000
  C   C37       1.0  0.98494  0.43059  0.25229  1.0000
  C   C38       1.0  0.93317  0.45129  0.26749  1.0000
  C  Sn1       1.0  0.95311  0.51948  0.25904  1.0000
  C  Sn2       1.0  0.02628  0.56771  0.23485  1.0000
  C   C39       1.0  0.07768  0.54648  0.21964  1.0000
  C   C40       1.0  0.05713  0.47813  0.22835  1.0000
  H   H25       1.0  0.96906  0.37770  0.25892  1.0000
  O  Te1       1.0  0.90069  0.53930  0.27454  1.0000
  O  Te2       1.0  0.04769  0.63617  0.22586  1.0000
  H   H26       1.0  0.09724  0.46210  0.21645  1.0000
  Mg  Mg1       1.0  0.95641  0.63837  0.25399  1.0000
  C   C41       1.0  0.42854  0.43906  0.24525  1.0000
  C   C42       1.0  0.44453  0.50918  0.25950  1.0000
  C  Sn3       1.0  0.51384  0.56011  0.25480  1.0000
  C  Sn4       1.0  0.56803  0.54030  0.23541  1.0000
  C   C43       1.0  0.55150  0.46999  0.22112  1.0000
  C   C44       1.0  0.48196  0.41947  0.22605  1.0000
  H   H27       1.0  0.37475  0.39995  0.24895  1.0000
  O  Te3       1.0  0.52889  0.62994  0.26928  1.0000
  O  Te4       1.0  0.63775  0.59012  0.23024  1.0000
  H   H28       1.0  0.46961  0.36517  0.21489  1.0000
  Mg  Mg2       1.0  0.63193  0.67864  0.25515  1.0000
  C   C45       1.0  0.55513  0.98934  0.26150  1.0000
  C   C46       1.0  0.48548  0.93866  0.26872  1.0000
  C  Sn5       1.0  0.43509  0.95475  0.26121  1.0000
  C  Sn6       1.0  0.45498  0.02290  0.24614  1.0000
  C   C47       1.0  0.02306  0.07322  0.23887  1.0000
  C   C48       1.0  0.07304  0.05656  0.24655  1.0000
  H   H29       1.0  0.59382  0.97644  0.26734  1.0000
  O  Te5       1.0  0.36572  0.90350  0.26867  1.0000
  O  Te6       1.0  0.90395  0.04039  0.23830  1.0000
  H   H30       1.0  0.12699  0.09580  0.24083  1.0000
  Mg  Mg3       1.0  0.31767  0.95259  0.25331  1.0000
  C   C49       1.0  0.97748  0.54765  0.74212  1.0000
  C   C50       1.0  0.93712  0.47657  0.74474  1.0000
  C  Sn7       1.0  0.96655  0.43745  0.75477  1.0000
  C  Sn8       1.0  0.03770  0.47026  0.76235  1.0000
  C   C51       1.0  0.07761  0.54141  0.75979  1.0000
  C   C52       1.0  0.04765  0.58005  0.74967  1.0000
  H   H31       1.0  0.95428  0.57756  0.73440  1.0000
  O  Te7       1.0  0.92549  0.36649  0.75719  1.0000
  O  Te8       1.0  0.06842  0.43240  0.77251  1.0000
  H   H32       1.0  0.07889  0.63509  0.74777  1.0000
  Mg  Mg4       1.0  0.99104  0.33704  0.77201  1.0000
  C   C53       1.0  0.57339  0.55531  0.72692  1.0000
  C   C54       1.0  0.55305  0.48895  0.74766  1.0000
  C  Sn9       1.0  0.48265  0.43889  0.76122  1.0000
  C  Sn10      1.0  0.43179  0.45573  0.75379  1.0000
  C   C55       1.0  0.45269  0.52225  0.73288  1.0000
  C   C56       1.0  0.52327  0.57196  0.71950  1.0000
  H   H33       1.0  0.62801  0.59376  0.71646  1.0000
  O  Te9       1.0  0.46323  0.37284  0.78197  1.0000
  O  Te10      1.0  0.36108  0.40668  0.76694  1.0000
  H   H34       1.0  0.53901  0.62332  0.70332  1.0000
  Mg  Mg5       1.0  0.36046  0.32377  0.79394  1.0000
  C   C57       1.0  0.07519  0.02879  0.76959  1.0000
  C   C58       1.0  0.04655  0.06659  0.75139  1.0000
  C  Sn11      1.0  0.97670  0.03434  0.74263  1.0000
  C  Sn12      1.0  0.93487  0.96293  0.75236  1.0000
  C   C59       1.0  0.96400  0.92559  0.77070  1.0000
  C   C60       1.0  0.03396  0.95836  0.77927  1.0000
  H   H35       1.0  0.12931  0.05416  0.77633  1.0000
  O  Te11      1.0  0.44717  0.07287  0.72436  1.0000
  O  Te12      1.0  0.86490  0.92942  0.74401  1.0000
  H   H36       1.0  0.05611  0.92910  0.79349  1.0000
  Mg  Mg6       1.0  0.85086  0.00401  0.71888  1.0000
