data_image0
_chemical_formula_structural       H18C30N6C2Sn2C2HTe2HMgC2Sn2C2HTe2HMgC2Sn2C2HTe2HMgC2Sn2C2HTe2HMgC2Sn2C2HTe2HMgC2Sn2C2HTe2HMg
_chemical_formula_sum              "H30 C54 N6 Sn12 Te12 Mg6"
_cell_length_a       18.7832
_cell_length_b       18.8068
_cell_length_c       8.10767
_cell_angle_alpha    82.5063
_cell_angle_beta     68.6103
_cell_angle_gamma    120.152

_symmetry_space_group_name_H-M    'P1'
_space_group_IT_number       1

loop_
  _space_group_symop_operation_xyz
  'x, y, z'

loop_
  _atom_site_type_symbol
  _atom_site_label
  _atom_site_symmetry_multiplicity
  _atom_site_fract_x
  _atom_site_fract_y
  _atom_site_fract_z
  _atom_site_occupancy
  H   H1        1.0  0.17912  0.15575  0.27838  1.0000
  H   H2        1.0  0.84072  0.01203  0.20610  1.0000
  H   H3        1.0  0.97986  0.79903  0.27192  1.0000
  H   H4        1.0  0.20190  0.00644  0.24539  1.0000
  H   H5        1.0  0.97196  0.16465  0.29234  1.0000
  H   H6        1.0  0.82615  0.79444  0.20839  1.0000
  H   H7        1.0  0.58941  0.39333  0.21746  1.0000
  H   H8        1.0  0.59501  0.16707  0.26639  1.0000
  H   H9        1.0  0.82419  0.41088  0.22586  1.0000
  H   H10       1.0  0.17643  0.17596  0.79136  1.0000
  H   H11       1.0  0.83752  0.03283  0.71860  1.0000
  H   H12       1.0  0.98139  0.82308  0.76593  1.0000
  H   H13       1.0  0.20220  0.02919  0.74810  1.0000
  H   H14       1.0  0.97389  0.18921  0.78829  1.0000
  H   H15       1.0  0.81976  0.81406  0.72940  1.0000
  H   H16       1.0  0.59171  0.41821  0.71299  1.0000
  H   H17       1.0  0.59953  0.19366  0.75280  1.0000
  H   H18       1.0  0.81146  0.42612  0.77922  1.0000
  C   C1        1.0  0.22258  0.06987  0.25939  1.0000
  C   C2        1.0  0.91373  0.12799  0.26405  1.0000
  C   C3        1.0  0.86279  0.76717  0.23045  1.0000
  C   C4        1.0  0.16369  0.09273  0.26998  1.0000
  C   C5        1.0  0.89686  0.05285  0.23625  1.0000
  C   C6        1.0  0.93803  0.81996  0.25220  1.0000
  C   C7        1.0  0.07688  0.03676  0.26363  1.0000
  C   C8        1.0  0.95117  0.01960  0.24579  1.0000
  C   C9        1.0  0.96983  0.90853  0.25112  1.0000
  C   C10       1.0  0.58322  0.27517  0.23596  1.0000
  C   C11       1.0  0.71646  0.28405  0.24540  1.0000
  C   C12       1.0  0.71005  0.41226  0.22906  1.0000
  C   C13       1.0  0.62456  0.36283  0.22688  1.0000
  C   C14       1.0  0.62920  0.23638  0.24920  1.0000
  C   C15       1.0  0.75604  0.37230  0.23244  1.0000
  C   C16       1.0  0.22171  0.09182  0.76544  1.0000
  C   C17       1.0  0.91396  0.15135  0.76548  1.0000
  C   C18       1.0  0.86041  0.78947  0.73847  1.0000
  C   C19       1.0  0.16206  0.11393  0.77834  1.0000
  C   C20       1.0  0.89544  0.07487  0.74306  1.0000
  C   C21       1.0  0.93771  0.84304  0.75384  1.0000
  C   C22       1.0  0.07584  0.05879  0.76935  1.0000
  C   C23       1.0  0.95020  0.04183  0.75107  1.0000
  C   C24       1.0  0.96855  0.93068  0.75745  1.0000
  C   C25       1.0  0.58331  0.29881  0.73912  1.0000
  C   C26       1.0  0.71464  0.30645  0.75728  1.0000
  C   C27       1.0  0.70658  0.43333  0.74642  1.0000
  C   C28       1.0  0.62416  0.38610  0.73238  1.0000
  C   C29       1.0  0.63054  0.26094  0.74864  1.0000
  C   C30       1.0  0.75009  0.39194  0.76032  1.0000
  N   N1        1.0  0.02987  0.07171  0.25798  1.0000
  N   N2        1.0  0.91805  0.93788  0.24152  1.0000
  N   N3        1.0  0.04964  0.95526  0.26161  1.0000
  N   N4        1.0  0.02979  0.09446  0.76027  1.0000
  N   N5        1.0  0.91631  0.95969  0.74946  1.0000
  N   N6        1.0  0.04815  0.97705  0.76854  1.0000
  C   C31       1.0  0.35912  0.21834  0.30781  1.0000
  C   C32       1.0  0.32100  0.14601  0.25433  1.0000
  C  Sn1       1.0  0.36859  0.10789  0.19823  1.0000
  C  Sn2       1.0  0.45593  0.14296  0.19582  1.0000
  C   C33       1.0  0.49344  0.21529  0.24971  1.0000
  C   C34       1.0  0.44525  0.25295  0.30555  1.0000
  H   H19       1.0  0.32182  0.24745  0.35111  1.0000
  O  Te1       1.0  0.32952  0.03567  0.14517  1.0000
  O  Te2       1.0  0.50495  0.10611  0.14043  1.0000
  H   H20       1.0  0.47475  0.30891  0.34706  1.0000
  Mg  Mg1       1.0  0.42296  0.00837  0.08057  1.0000
  C   C35       1.0  0.86407  0.28508  0.28561  1.0000
  C   C36       1.0  0.78691  0.25598  0.25569  1.0000
  C  Sn3       1.0  0.74215  0.17497  0.23383  1.0000
  C  Sn4       1.0  0.77539  0.12224  0.24220  1.0000
  C   C37       1.0  0.85259  0.15191  0.27232  1.0000
  C   C38       1.0  0.89688  0.23310  0.29395  1.0000
  H   H21       1.0  0.89831  0.34787  0.30245  1.0000
  O  Te3       1.0  0.66518  0.14690  0.20398  1.0000
  O  Te4       1.0  0.73195  0.04098  0.22088  1.0000
  H   H22       1.0  0.95658  0.25559  0.31724  1.0000
  Mg  Mg2       1.0  0.62953  0.03126  0.18303  1.0000
  C   C39       1.0  0.73419  0.61575  0.18624  1.0000
  C   C40       1.0  0.80203  0.66557  0.23690  1.0000
  C  Sn5       1.0  0.84906  0.63406  0.28012  1.0000
  C  Sn6       1.0  0.82766  0.55112  0.27229  1.0000
  C   C41       1.0  0.75973  0.50181  0.22132  1.0000
  C   C42       1.0  0.71306  0.53395  0.17842  1.0000
  H   H23       1.0  0.69812  0.64063  0.15294  1.0000
  O  Te5       1.0  0.91662  0.68467  0.33053  1.0000
  O  Te6       1.0  0.87363  0.51807  0.31472  1.0000
  H   H24       1.0  0.66059  0.49539  0.13908  1.0000
  Mg  Mg3       1.0  0.96020  0.61143  0.37591  1.0000
  C   C43       1.0  0.35789  0.24010  0.81607  1.0000
  C   C44       1.0  0.31943  0.16740  0.76383  1.0000
  C  Sn7       1.0  0.36747  0.12984  0.70581  1.0000
  C  Sn8       1.0  0.45563  0.16587  0.70019  1.0000
  C   C45       1.0  0.49348  0.23857  0.75287  1.0000
  C   C46       1.0  0.44482  0.27566  0.81064  1.0000
  H   H25       1.0  0.32022  0.26877  0.86087  1.0000
  O  Te7       1.0  0.32805  0.05723  0.65403  1.0000
  O  Te8       1.0  0.50513  0.12960  0.64284  1.0000
  H   H26       1.0  0.47459  0.33191  0.85120  1.0000
  Mg  Mg4       1.0  0.42239  0.03101  0.58580  1.0000
  C   C47       1.0  0.86878  0.31183  0.77422  1.0000
  C   C48       1.0  0.78850  0.28066  0.75471  1.0000
  C  Sn9       1.0  0.73895  0.19643  0.74850  1.0000
  C  Sn10      1.0  0.77052  0.14254  0.76217  1.0000
  C   C49       1.0  0.85088  0.17431  0.78180  1.0000
  C   C50       1.0  0.89995  0.25871  0.78779  1.0000
  H   H27       1.0  0.90672  0.37711  0.77896  1.0000
  O  Te9       1.0  0.65889  0.16633  0.72888  1.0000
  O  Te10      1.0  0.72230  0.05808  0.75644  1.0000
  H   H28       1.0  0.96207  0.28280  0.80302  1.0000
  Mg  Mg5       1.0  0.61707  0.04652  0.72807  1.0000
  C   C51       1.0  0.69286  0.57884  0.76636  1.0000
  C   C52       1.0  0.73343  0.53308  0.74372  1.0000
  C  Sn11      1.0  0.82376  0.57218  0.72274  1.0000
  C  Sn12      1.0  0.87423  0.65869  0.72458  1.0000
  C   C53       1.0  0.83299  0.70389  0.74745  1.0000
  C   C54       1.0  0.74257  0.66416  0.76826  1.0000
  H   H29       1.0  0.62288  0.54808  0.78257  1.0000
  O  Te11      1.0  0.86326  0.52555  0.70019  1.0000
  O  Te12      1.0  0.96461  0.69932  0.70397  1.0000
  H   H30       1.0  0.71116  0.69958  0.78591  1.0000
  Mg  Mg6       1.0  0.98842  0.60900  0.67729  1.0000
