data_image0
_chemical_formula_structural       H36C54N12SnCSn2CSnTe4Mg2SnCSn2CSnTe4Mg2SnCSn2CSnTe4Mg2
_chemical_formula_sum              "H36 C60 N12 Sn12 Te12 Mg6"
_cell_length_a       22.6539
_cell_length_b       22.6088
_cell_length_c       8.23399
_cell_angle_alpha    117.688
_cell_angle_beta     58.2348
_cell_angle_gamma    120.182

_symmetry_space_group_name_H-M    'P1'
_space_group_IT_number       1

loop_
  _space_group_symop_operation_xyz
  'x, y, z'

loop_
  _atom_site_type_symbol
  _atom_site_label
  _atom_site_symmetry_multiplicity
  _atom_site_fract_x
  _atom_site_fract_y
  _atom_site_fract_z
  _atom_site_occupancy
  H   H1        1.0  0.81778  0.47893  0.22542  1.0000
  H   H2        1.0  0.51685  0.33304  0.24468  1.0000
  H   H3        1.0  0.65909  0.18504  0.27261  1.0000
  H   H4        1.0  0.17733  0.51921  0.27015  1.0000
  H   H5        1.0  0.47726  0.66242  0.25731  1.0000
  H   H6        1.0  0.33825  0.81362  0.23112  1.0000
  H   H7        1.0  0.83052  0.36050  0.27946  1.0000
  H   H8        1.0  0.64194  0.47835  0.23905  1.0000
  H   H9        1.0  0.51753  0.16106  0.24722  1.0000
  H   H10       1.0  0.16565  0.63890  0.21868  1.0000
  H   H11       1.0  0.35250  0.51681  0.25627  1.0000
  H   H12       1.0  0.47638  0.83854  0.27540  1.0000
  H   H13       1.0  0.94231  0.37558  0.26780  1.0000
  H   H14       1.0  0.62518  0.57091  0.23080  1.0000
  H   H15       1.0  0.05374  0.62372  0.22858  1.0000
  H   H16       1.0  0.37042  0.42284  0.25494  1.0000
  H   H17       1.0  0.06990  0.44614  0.25185  1.0000
  H   H18       1.0  0.55026  0.62279  0.23774  1.0000
  H   H19       1.0  0.92582  0.55336  0.24660  1.0000
  H   H20       1.0  0.44556  0.37087  0.24674  1.0000
  H   H21       1.0  0.82516  0.47853  0.71240  1.0000
  H   H22       1.0  0.52209  0.33524  0.74483  1.0000
  H   H23       1.0  0.66448  0.18693  0.77211  1.0000
  H   H24       1.0  0.18027  0.52125  0.77707  1.0000
  H   H25       1.0  0.48127  0.66469  0.75965  1.0000
  H   H26       1.0  0.33986  0.81519  0.73775  1.0000
  H   H27       1.0  0.83409  0.36286  0.78893  1.0000
  H   H28       1.0  0.64742  0.48033  0.73508  1.0000
  H   H29       1.0  0.52195  0.16276  0.75155  1.0000
  H   H30       1.0  0.17084  0.64019  0.71592  1.0000
  H   H31       1.0  0.35708  0.51871  0.75543  1.0000
  H   H32       1.0  0.48052  0.83858  0.76637  1.0000
  H   H33       1.0  0.42889  0.05142  0.74947  1.0000
  H   H34       1.0  0.57476  0.95018  0.76597  1.0000
  H   H35       1.0  0.37717  0.92569  0.74651  1.0000
  H   H36       1.0  0.62617  0.07619  0.77144  1.0000
  C   C1        1.0  0.85036  0.41305  0.26167  1.0000
  C   C2        1.0  0.58733  0.44089  0.24050  1.0000
  C   C3        1.0  0.55353  0.14514  0.25678  1.0000
  C   C4        1.0  0.14568  0.58614  0.23531  1.0000
  C   C5        1.0  0.40720  0.55412  0.25452  1.0000
  C   C6        1.0  0.44132  0.85401  0.26043  1.0000
  C   C7        1.0  0.80360  0.42815  0.24385  1.0000
  C   C8        1.0  0.56972  0.37459  0.24384  1.0000
  C   C9        1.0  0.61928  0.19548  0.26280  1.0000
  C   C10       1.0  0.19200  0.57038  0.25310  1.0000
  C   C11       1.0  0.42436  0.62115  0.25723  1.0000
  C   C12       1.0  0.37670  0.80326  0.24694  1.0000
  C   C13       1.0  0.92427  0.45859  0.25766  1.0000
  C   C14       1.0  0.54099  0.46746  0.24046  1.0000
  C   C15       1.0  0.07175  0.54075  0.23896  1.0000
  C   C16       1.0  0.45405  0.52682  0.24951  1.0000
  C   C17       1.0  0.95692  0.52960  0.24828  1.0000
  C   C18       1.0  0.46852  0.42615  0.24595  1.0000
  C   C19       1.0  0.03898  0.46981  0.24904  1.0000
  C   C20       1.0  0.52689  0.56779  0.24123  1.0000
  C   C21       1.0  0.02893  0.56927  0.23805  1.0000
  C   C22       1.0  0.42626  0.45529  0.25087  1.0000
  C   C23       1.0  0.96708  0.43006  0.25858  1.0000
  C   C24       1.0  0.56912  0.53870  0.23655  1.0000
  C   C25       1.0  0.73051  0.37766  0.24709  1.0000
  C   C26       1.0  0.61981  0.35333  0.24730  1.0000
  C   C27       1.0  0.64238  0.26748  0.25597  1.0000
  C   C28       1.0  0.26490  0.62041  0.25281  1.0000
  C   C29       1.0  0.37442  0.64358  0.25727  1.0000
  C   C30       1.0  0.35306  0.73081  0.25143  1.0000
  C   C31       1.0  0.85497  0.41436  0.76371  1.0000
  C   C32       1.0  0.59253  0.44284  0.73891  1.0000
  C   C33       1.0  0.55837  0.14685  0.75937  1.0000
  C   C34       1.0  0.15003  0.58787  0.73630  1.0000
  C   C35       1.0  0.41169  0.55606  0.75444  1.0000
  C   C36       1.0  0.44488  0.85489  0.75659  1.0000
  C   C37       1.0  0.80946  0.42873  0.73864  1.0000
  C   C38       1.0  0.57519  0.37659  0.74240  1.0000
  C   C39       1.0  0.62427  0.19722  0.76359  1.0000
  C   C40       1.0  0.19561  0.57209  0.75707  1.0000
  C   C41       1.0  0.42866  0.62313  0.75782  1.0000
  C   C42       1.0  0.37941  0.80463  0.74834  1.0000
  C   C43       1.0  0.53120  0.07364  0.76127  1.0000
  C   C44       1.0  0.47231  0.92819  0.75548  1.0000
  C   C45       1.0  0.57195  0.04348  0.76413  1.0000
  C   C46       1.0  0.43153  0.95836  0.75291  1.0000
  C   C47       1.0  0.54312  0.97255  0.76106  1.0000
  C   C48       1.0  0.46043  0.02920  0.75536  1.0000
  C   C49       1.0  0.73598  0.37886  0.74419  1.0000
  C   C50       1.0  0.62534  0.35500  0.74477  1.0000
  C   C51       1.0  0.64727  0.26913  0.75593  1.0000
  C   C52       1.0  0.26860  0.62187  0.75530  1.0000
  C   C53       1.0  0.37854  0.64538  0.75774  1.0000
  C   C54       1.0  0.35648  0.73228  0.75235  1.0000
  N   N1        1.0  0.68735  0.40154  0.24459  1.0000
  N   N2        1.0  0.59454  0.28603  0.25395  1.0000
  N   N3        1.0  0.71092  0.31084  0.25147  1.0000
  N   N4        1.0  0.30715  0.59570  0.25636  1.0000
  N   N5        1.0  0.39984  0.71162  0.25584  1.0000
  N   N6        1.0  0.28516  0.68762  0.25008  1.0000
  N   N7        1.0  0.69319  0.40284  0.74028  1.0000
  N   N8        1.0  0.59977  0.28770  0.75244  1.0000
  N   N9        1.0  0.71580  0.31235  0.75166  1.0000
  N   N10       1.0  0.31121  0.59736  0.75794  1.0000
  N   N11       1.0  0.40369  0.71333  0.75589  1.0000
  N   N12       1.0  0.28854  0.68893  0.75221  1.0000
  C  Sn1       1.0  0.42777  0.45402  0.81621  1.0000
  C   C55       1.0  0.44844  0.52184  0.80394  1.0000
  C  Sn2       1.0  0.52293  0.56431  0.74039  1.0000
  C  Sn3       1.0  0.57792  0.53843  0.68790  1.0000
  C   C56       1.0  0.55724  0.47065  0.70015  1.0000
  C  Sn4       1.0  0.48276  0.42814  0.76372  1.0000
  O  Te1       1.0  0.35298  0.41248  0.88011  1.0000
  O  Te2       1.0  0.54224  0.63194  0.72940  1.0000
  O  Te3       1.0  0.65276  0.58004  0.62397  1.0000
  O  Te4       1.0  0.46344  0.36054  0.77469  1.0000
  Mg  Mg1       1.0  0.65143  0.66851  0.63368  1.0000
  Mg  Mg2       1.0  0.35428  0.32392  0.87029  1.0000
  C  Sn5       1.0  0.01078  0.57306  0.79254  1.0000
  C   C57       1.0  0.05972  0.55340  0.79484  1.0000
  C  Sn6       1.0  0.04584  0.48194  0.76131  1.0000
  C  Sn7       1.0  0.98172  0.42902  0.72457  1.0000
  C   C58       1.0  0.93283  0.44869  0.72225  1.0000
  C  Sn8       1.0  0.94666  0.52014  0.75580  1.0000
  O  Te5       1.0  0.02576  0.64482  0.82643  1.0000
  O  Te6       1.0  0.09557  0.46358  0.76441  1.0000
  O  Te7       1.0  0.96677  0.35722  0.69067  1.0000
  O  Te8       1.0  0.89698  0.53850  0.75268  1.0000
  Mg  Mg3       1.0  0.05106  0.35876  0.70981  1.0000
  Mg  Mg4       1.0  0.94145  0.64330  0.80716  1.0000
  C  Sn9       1.0  0.53983  0.99372  0.32616  1.0000
  C   C59       1.0  0.47293  0.94191  0.31262  1.0000
  C  Sn10      1.0  0.43293  0.95282  0.25172  1.0000
  C  Sn11      1.0  0.46040  0.01684  0.20321  1.0000
  C   C60       1.0  0.02552  0.06861  0.21672  1.0000
  C  Sn12      1.0  0.06555  0.05774  0.27765  1.0000
  O  Te9       1.0  0.57889  0.98168  0.38736  1.0000
  O  Te10      1.0  0.36617  0.90026  0.23939  1.0000
  O  Te11      1.0  0.91953  0.02885  0.14197  1.0000
  O  Te12      1.0  0.13227  0.11026  0.28995  1.0000
  Mg  Mg5       1.0  0.33313  0.94135  0.14845  1.0000
  Mg  Mg6       1.0  0.16538  0.06921  0.38076  1.0000
