data_image0
_chemical_formula_structural       H30C48N6SnCSn2CSnTe4Mg2SnCSn2CSnTe4Mg2SnCSn2CSnTe4Mg2
_chemical_formula_sum              "H30 C54 N6 Sn12 Te12 Mg6"
_cell_length_a       18.7832
_cell_length_b       18.8068
_cell_length_c       8.10767
_cell_angle_alpha    82.5063
_cell_angle_beta     68.6103
_cell_angle_gamma    120.152

_symmetry_space_group_name_H-M    'P1'
_space_group_IT_number       1

loop_
  _space_group_symop_operation_xyz
  'x, y, z'

loop_
  _atom_site_type_symbol
  _atom_site_label
  _atom_site_symmetry_multiplicity
  _atom_site_fract_x
  _atom_site_fract_y
  _atom_site_fract_z
  _atom_site_occupancy
  H   H1        1.0  0.17912  0.15575  0.27838  1.0000
  H   H2        1.0  0.84072  0.01203  0.20610  1.0000
  H   H3        1.0  0.97986  0.79903  0.27192  1.0000
  H   H4        1.0  0.20190  0.00644  0.24539  1.0000
  H   H5        1.0  0.97196  0.16465  0.29234  1.0000
  H   H6        1.0  0.82615  0.79444  0.20839  1.0000
  H   H7        1.0  0.35001  0.03638  0.18019  1.0000
  H   H8        1.0  0.95545  0.28187  0.29563  1.0000
  H   H9        1.0  0.44899  0.30625  0.32911  1.0000
  H   H10       1.0  0.67192  0.12397  0.22038  1.0000
  H   H11       1.0  0.50655  0.12490  0.15662  1.0000
  H   H12       1.0  0.87091  0.34713  0.29814  1.0000
  H   H13       1.0  0.29661  0.22117  0.33928  1.0000
  H   H14       1.0  0.75276  0.05686  0.23116  1.0000
  H   H15       1.0  0.58941  0.39333  0.21746  1.0000
  H   H16       1.0  0.59501  0.16707  0.26639  1.0000
  H   H17       1.0  0.82419  0.41088  0.22586  1.0000
  H   H18       1.0  0.17643  0.17596  0.79136  1.0000
  H   H19       1.0  0.83752  0.03283  0.71860  1.0000
  H   H20       1.0  0.98139  0.82308  0.76593  1.0000
  H   H21       1.0  0.20220  0.02919  0.74810  1.0000
  H   H22       1.0  0.97389  0.18921  0.78829  1.0000
  H   H23       1.0  0.81976  0.81406  0.72940  1.0000
  H   H24       1.0  0.96234  0.30969  0.77441  1.0000
  H   H25       1.0  0.66231  0.14064  0.75986  1.0000
  H   H26       1.0  0.88020  0.37704  0.77248  1.0000
  H   H27       1.0  0.74555  0.07532  0.75845  1.0000
  H   H28       1.0  0.59171  0.41821  0.71299  1.0000
  H   H29       1.0  0.59953  0.19366  0.75280  1.0000
  H   H30       1.0  0.81146  0.42612  0.77922  1.0000
  C   C1        1.0  0.22258  0.06987  0.25939  1.0000
  C   C2        1.0  0.91373  0.12799  0.26405  1.0000
  C   C3        1.0  0.86279  0.76717  0.23045  1.0000
  C   C4        1.0  0.16369  0.09273  0.26998  1.0000
  C   C5        1.0  0.89686  0.05285  0.23625  1.0000
  C   C6        1.0  0.93803  0.81996  0.25220  1.0000
  C   C7        1.0  0.31184  0.12249  0.25756  1.0000
  C   C8        1.0  0.86175  0.16452  0.26149  1.0000
  C   C9        1.0  0.34288  0.20043  0.29649  1.0000
  C   C10       1.0  0.77955  0.12093  0.24454  1.0000
  C   C11       1.0  0.42999  0.24909  0.28884  1.0000
  C   C12       1.0  0.73298  0.15904  0.24050  1.0000
  C   C13       1.0  0.49157  0.22370  0.23952  1.0000
  C   C14       1.0  0.76481  0.24247  0.25572  1.0000
  C   C15       1.0  0.46065  0.14600  0.20001  1.0000
  C   C16       1.0  0.84538  0.28463  0.27795  1.0000
  C   C17       1.0  0.37257  0.09620  0.21139  1.0000
  C   C18       1.0  0.89310  0.24724  0.27902  1.0000
  C   C19       1.0  0.07688  0.03676  0.26363  1.0000
  C   C20       1.0  0.95117  0.01960  0.24579  1.0000
  C   C21       1.0  0.96983  0.90853  0.25112  1.0000
  C   C22       1.0  0.58322  0.27517  0.23596  1.0000
  C   C23       1.0  0.71646  0.28405  0.24540  1.0000
  C   C24       1.0  0.71005  0.41226  0.22906  1.0000
  C   C25       1.0  0.62456  0.36283  0.22688  1.0000
  C   C26       1.0  0.62920  0.23638  0.24920  1.0000
  C   C27       1.0  0.75604  0.37230  0.23244  1.0000
  C   C28       1.0  0.22171  0.09182  0.76544  1.0000
  C   C29       1.0  0.91396  0.15135  0.76548  1.0000
  C   C30       1.0  0.86041  0.78947  0.73847  1.0000
  C   C31       1.0  0.16206  0.11393  0.77834  1.0000
  C   C32       1.0  0.89544  0.07487  0.74306  1.0000
  C   C33       1.0  0.93771  0.84304  0.75384  1.0000
  C   C34       1.0  0.86168  0.18773  0.76423  1.0000
  C   C35       1.0  0.77552  0.14148  0.76214  1.0000
  C   C36       1.0  0.72803  0.17911  0.76329  1.0000
  C   C37       1.0  0.76378  0.26535  0.76473  1.0000
  C   C38       1.0  0.84961  0.31105  0.76813  1.0000
  C   C39       1.0  0.89686  0.27313  0.76895  1.0000
  C   C40       1.0  0.07584  0.05879  0.76935  1.0000
  C   C41       1.0  0.95020  0.04183  0.75107  1.0000
  C   C42       1.0  0.96855  0.93068  0.75745  1.0000
  C   C43       1.0  0.58331  0.29881  0.73912  1.0000
  C   C44       1.0  0.71464  0.30645  0.75728  1.0000
  C   C45       1.0  0.70658  0.43333  0.74642  1.0000
  C   C46       1.0  0.62416  0.38610  0.73238  1.0000
  C   C47       1.0  0.63054  0.26094  0.74864  1.0000
  C   C48       1.0  0.75009  0.39194  0.76032  1.0000
  N   N1        1.0  0.02987  0.07171  0.25798  1.0000
  N   N2        1.0  0.91805  0.93788  0.24152  1.0000
  N   N3        1.0  0.04964  0.95526  0.26161  1.0000
  N   N4        1.0  0.02979  0.09446  0.76027  1.0000
  N   N5        1.0  0.91631  0.95969  0.74946  1.0000
  N   N6        1.0  0.04815  0.97705  0.76854  1.0000
  C  Sn1       1.0  0.88460  0.65665  0.66491  1.0000
  C   C49       1.0  0.84301  0.70149  0.68481  1.0000
  C  Sn2       1.0  0.74533  0.65464  0.75466  1.0000
  C  Sn3       1.0  0.68800  0.56100  0.80581  1.0000
  C   C50       1.0  0.72959  0.51620  0.78594  1.0000
  C  Sn4       1.0  0.82727  0.56301  0.71606  1.0000
  O  Te1       1.0  0.98240  0.70483  0.59480  1.0000
  O  Te2       1.0  0.70537  0.70094  0.77322  1.0000
  O  Te3       1.0  0.59014  0.51283  0.87596  1.0000
  O  Te4       1.0  0.86722  0.51676  0.69752  1.0000
  Mg  Mg1       1.0  0.56882  0.60576  0.87549  1.0000
  Mg  Mg2       1.0  0.00376  0.61185  0.59537  1.0000
  C  Sn5       1.0  0.37117  0.25186  0.75146  1.0000
  C   C51       1.0  0.32991  0.17373  0.71747  1.0000
  C  Sn6       1.0  0.36585  0.12406  0.71126  1.0000
  C  Sn7       1.0  0.44463  0.15306  0.73973  1.0000
  C   C52       1.0  0.48583  0.23114  0.77373  1.0000
  C  Sn8       1.0  0.44995  0.28086  0.77993  1.0000
  O  Te5       1.0  0.33407  0.30045  0.75707  1.0000
  O  Te6       1.0  0.32343  0.04619  0.67699  1.0000
  O  Te7       1.0  0.48171  0.10439  0.73409  1.0000
  O  Te8       1.0  0.49231  0.35867  0.81421  1.0000
  Mg  Mg3       1.0  0.39952  0.00283  0.68279  1.0000
  Mg  Mg4       1.0  0.41626  0.40206  0.80854  1.0000
  C  Sn9       1.0  0.73510  0.57807  0.13736  1.0000
  C   C53       1.0  0.76096  0.52246  0.17417  1.0000
  C  Sn10      1.0  0.81581  0.53991  0.26301  1.0000
  C  Sn11      1.0  0.84539  0.61446  0.31629  1.0000
  C   C54       1.0  0.81952  0.67001  0.27951  1.0000
  C  Sn12      1.0  0.76468  0.65262  0.19064  1.0000
  O  Te9       1.0  0.68023  0.55935  0.04840  1.0000
  O  Te10      1.0  0.84080  0.48338  0.29827  1.0000
  O  Te11      1.0  0.90030  0.63315  0.40531  1.0000
  O  Te12      1.0  0.73968  0.70909  0.15541  1.0000
  Mg  Mg5       1.0  0.91627  0.53660  0.42305  1.0000
  Mg  Mg6       1.0  0.66417  0.65591  0.03074  1.0000
