data_image0
_chemical_formula_structural       H36C54N12C2Sn2C2HTe2HMgC2Sn2C2HTe2HMgC2Sn2C2HTe2HMg
_chemical_formula_sum              "H42 C66 N12 Sn6 Te6 Mg3"
_cell_length_a       22.6539
_cell_length_b       22.6088
_cell_length_c       8.23399
_cell_angle_alpha    117.688
_cell_angle_beta     58.2348
_cell_angle_gamma    120.182

_symmetry_space_group_name_H-M    'P1'
_space_group_IT_number       1

loop_
  _space_group_symop_operation_xyz
  'x, y, z'

loop_
  _atom_site_type_symbol
  _atom_site_label
  _atom_site_symmetry_multiplicity
  _atom_site_fract_x
  _atom_site_fract_y
  _atom_site_fract_z
  _atom_site_occupancy
  H   H1        1.0  0.81778  0.47893  0.22542  1.0000
  H   H2        1.0  0.51685  0.33304  0.24468  1.0000
  H   H3        1.0  0.65909  0.18504  0.27261  1.0000
  H   H4        1.0  0.17733  0.51921  0.27015  1.0000
  H   H5        1.0  0.47726  0.66242  0.25731  1.0000
  H   H6        1.0  0.33825  0.81362  0.23112  1.0000
  H   H7        1.0  0.83052  0.36050  0.27946  1.0000
  H   H8        1.0  0.64194  0.47835  0.23905  1.0000
  H   H9        1.0  0.51753  0.16106  0.24722  1.0000
  H   H10       1.0  0.16565  0.63890  0.21868  1.0000
  H   H11       1.0  0.35250  0.51681  0.25627  1.0000
  H   H12       1.0  0.47638  0.83854  0.27540  1.0000
  H   H13       1.0  0.94231  0.37558  0.26780  1.0000
  H   H14       1.0  0.05374  0.62372  0.22858  1.0000
  H   H15       1.0  0.06990  0.44614  0.25185  1.0000
  H   H16       1.0  0.92582  0.55336  0.24660  1.0000
  H   H17       1.0  0.82516  0.47853  0.71240  1.0000
  H   H18       1.0  0.52209  0.33524  0.74483  1.0000
  H   H19       1.0  0.66448  0.18693  0.77211  1.0000
  H   H20       1.0  0.18027  0.52125  0.77707  1.0000
  H   H21       1.0  0.48127  0.66469  0.75965  1.0000
  H   H22       1.0  0.33986  0.81519  0.73775  1.0000
  H   H23       1.0  0.83409  0.36286  0.78893  1.0000
  H   H24       1.0  0.64742  0.48033  0.73508  1.0000
  H   H25       1.0  0.52195  0.16276  0.75155  1.0000
  H   H26       1.0  0.17084  0.64019  0.71592  1.0000
  H   H27       1.0  0.35708  0.51871  0.75543  1.0000
  H   H28       1.0  0.48052  0.83858  0.76637  1.0000
  H   H29       1.0  0.94555  0.37911  0.78440  1.0000
  H   H30       1.0  0.63081  0.57229  0.72294  1.0000
  H   H31       1.0  0.05938  0.62380  0.71699  1.0000
  H   H32       1.0  0.37384  0.42573  0.76451  1.0000
  H   H33       1.0  0.07337  0.44998  0.76588  1.0000
  H   H34       1.0  0.55559  0.62404  0.73104  1.0000
  H   H35       1.0  0.93182  0.55252  0.73265  1.0000
  H   H36       1.0  0.44877  0.37413  0.75851  1.0000
  C   C1        1.0  0.85036  0.41305  0.26167  1.0000
  C   C2        1.0  0.58733  0.44089  0.24050  1.0000
  C   C3        1.0  0.55353  0.14514  0.25678  1.0000
  C   C4        1.0  0.14568  0.58614  0.23531  1.0000
  C   C5        1.0  0.40720  0.55412  0.25452  1.0000
  C   C6        1.0  0.44132  0.85401  0.26043  1.0000
  C   C7        1.0  0.80360  0.42815  0.24385  1.0000
  C   C8        1.0  0.56972  0.37459  0.24384  1.0000
  C   C9        1.0  0.61928  0.19548  0.26280  1.0000
  C   C10       1.0  0.19200  0.57038  0.25310  1.0000
  C   C11       1.0  0.42436  0.62115  0.25723  1.0000
  C   C12       1.0  0.37670  0.80326  0.24694  1.0000
  C   C13       1.0  0.92427  0.45859  0.25766  1.0000
  C   C14       1.0  0.07175  0.54075  0.23896  1.0000
  C   C15       1.0  0.95692  0.52960  0.24828  1.0000
  C   C16       1.0  0.03898  0.46981  0.24904  1.0000
  C   C17       1.0  0.02893  0.56927  0.23805  1.0000
  C   C18       1.0  0.96708  0.43006  0.25858  1.0000
  C   C19       1.0  0.73051  0.37766  0.24709  1.0000
  C   C20       1.0  0.61981  0.35333  0.24730  1.0000
  C   C21       1.0  0.64238  0.26748  0.25597  1.0000
  C   C22       1.0  0.26490  0.62041  0.25281  1.0000
  C   C23       1.0  0.37442  0.64358  0.25727  1.0000
  C   C24       1.0  0.35306  0.73081  0.25143  1.0000
  C   C25       1.0  0.85497  0.41436  0.76371  1.0000
  C   C26       1.0  0.59253  0.44284  0.73891  1.0000
  C   C27       1.0  0.55837  0.14685  0.75937  1.0000
  C   C28       1.0  0.15003  0.58787  0.73630  1.0000
  C   C29       1.0  0.41169  0.55606  0.75444  1.0000
  C   C30       1.0  0.44488  0.85489  0.75659  1.0000
  C   C31       1.0  0.80946  0.42873  0.73864  1.0000
  C   C32       1.0  0.57519  0.37659  0.74240  1.0000
  C   C33       1.0  0.62427  0.19722  0.76359  1.0000
  C   C34       1.0  0.19561  0.57209  0.75707  1.0000
  C   C35       1.0  0.42866  0.62313  0.75782  1.0000
  C   C36       1.0  0.37941  0.80463  0.74834  1.0000
  C   C37       1.0  0.92897  0.45992  0.75877  1.0000
  C   C38       1.0  0.54577  0.46949  0.74066  1.0000
  C   C39       1.0  0.07616  0.54261  0.74026  1.0000
  C   C40       1.0  0.45856  0.52877  0.74974  1.0000
  C   C41       1.0  0.96233  0.52991  0.74109  1.0000
  C   C42       1.0  0.47253  0.42879  0.75182  1.0000
  C   C43       1.0  0.04285  0.47259  0.75748  1.0000
  C   C44       1.0  0.53190  0.56938  0.73768  1.0000
  C   C45       1.0  0.03415  0.57005  0.73189  1.0000
  C   C46       1.0  0.43026  0.45779  0.75608  1.0000
  C   C47       1.0  0.97093  0.43262  0.76781  1.0000
  C   C48       1.0  0.57425  0.54031  0.73266  1.0000
  C   C49       1.0  0.73598  0.37886  0.74419  1.0000
  C   C50       1.0  0.62534  0.35500  0.74477  1.0000
  C   C51       1.0  0.64727  0.26913  0.75593  1.0000
  C   C52       1.0  0.26860  0.62187  0.75530  1.0000
  C   C53       1.0  0.37854  0.64538  0.75774  1.0000
  C   C54       1.0  0.35648  0.73228  0.75235  1.0000
  N   N1        1.0  0.68735  0.40154  0.24459  1.0000
  N   N2        1.0  0.59454  0.28603  0.25395  1.0000
  N   N3        1.0  0.71092  0.31084  0.25147  1.0000
  N   N4        1.0  0.30715  0.59570  0.25636  1.0000
  N   N5        1.0  0.39984  0.71162  0.25584  1.0000
  N   N6        1.0  0.28516  0.68762  0.25008  1.0000
  N   N7        1.0  0.69319  0.40284  0.74028  1.0000
  N   N8        1.0  0.59977  0.28770  0.75244  1.0000
  N   N9        1.0  0.71580  0.31235  0.75166  1.0000
  N   N10       1.0  0.31121  0.59736  0.75794  1.0000
  N   N11       1.0  0.40369  0.71333  0.75589  1.0000
  N   N12       1.0  0.28854  0.68893  0.75221  1.0000
  C   C55       1.0  0.55941  0.98944  0.75747  1.0000
  C   C56       1.0  0.48944  0.93944  0.76533  1.0000
  C  Sn1       1.0  0.43917  0.95682  0.76148  1.0000
  C  Sn2       1.0  0.45950  0.02558  0.74949  1.0000
  C   C57       1.0  0.02790  0.07520  0.74156  1.0000
  C   C58       1.0  0.57951  0.05725  0.74556  1.0000
  H   H37       1.0  0.59801  0.97554  0.76046  1.0000
  O  Te1       1.0  0.36948  0.90624  0.76952  1.0000
  O  Te2       1.0  0.41034  0.04435  0.74534  1.0000
  H   H38       1.0  0.13195  0.09596  0.73935  1.0000
  Mg  Mg1       1.0  0.32176  0.95706  0.75971  1.0000
  C   C59       1.0  0.55513  0.98934  0.26150  1.0000
  C   C60       1.0  0.48548  0.93866  0.26872  1.0000
  C  Sn3       1.0  0.43509  0.95475  0.26121  1.0000
  C  Sn4       1.0  0.45498  0.02290  0.24614  1.0000
  C   C61       1.0  0.02306  0.07322  0.23887  1.0000
  C   C62       1.0  0.07304  0.05656  0.24655  1.0000
  H   H39       1.0  0.59382  0.97644  0.26734  1.0000
  O  Te3       1.0  0.36572  0.90350  0.26867  1.0000
  O  Te4       1.0  0.90395  0.04039  0.23830  1.0000
  H   H40       1.0  0.12699  0.09580  0.24083  1.0000
  Mg  Mg2       1.0  0.31767  0.95259  0.25331  1.0000
  C   C63       1.0  0.44999  0.42431  0.25307  1.0000
  C   C64       1.0  0.52403  0.45426  0.23052  1.0000
  C  Sn5       1.0  0.56424  0.52508  0.22512  1.0000
  C  Sn6       1.0  0.52953  0.56655  0.24271  1.0000
  C   C65       1.0  0.45543  0.53610  0.26536  1.0000
  C   C66       1.0  0.41571  0.46519  0.27051  1.0000
  H   H41       1.0  0.41924  0.36946  0.25716  1.0000
  O  Te5       1.0  0.63817  0.55416  0.20243  1.0000
  O  Te6       1.0  0.56843  0.63746  0.23787  1.0000
  H   H42       1.0  0.35838  0.44203  0.28809  1.0000
  Mg  Mg3       1.0  0.66799  0.65314  0.20431  1.0000
