data_image0
_chemical_formula_structural       H72C144N12SnCSn2CSnTe4Mg2SnCSn2CSnTe4Mg2SnCSn2CSnTe4Mg2SnCSn2CSnTe4Mg2SnCSn2CSnTe4Mg2SnCSn2CSnTe4Mg2SnCSn2CSnTe4Mg2SnCSn2CSnTe4Mg2SnCSn2CSnTe4Mg2SnCSn2CSnTe4Mg2SnCSn2CSnTe4Mg2SnCSn2CSnTe4Mg2
_chemical_formula_sum              "H72 C168 N12 Sn48 Te48 Mg24"
_cell_length_a       35.254
_cell_length_b       35.2894
_cell_length_c       8.01875
_cell_angle_alpha    76.3469
_cell_angle_beta     83.5794
_cell_angle_gamma    119.977

_symmetry_space_group_name_H-M    'P1'
_space_group_IT_number       1

loop_
  _space_group_symop_operation_xyz
  'x, y, z'

loop_
  _atom_site_type_symbol
  _atom_site_label
  _atom_site_symmetry_multiplicity
  _atom_site_fract_x
  _atom_site_fract_y
  _atom_site_fract_z
  _atom_site_occupancy
  H   H1        1.0  0.41931  0.42131  0.29059  1.0000
  H   H2        1.0  0.57293  0.99729  0.28672  1.0000
  H   H3        1.0  0.00425  0.58334  0.23163  1.0000
  H   H4        1.0  0.56094  0.56655  0.23473  1.0000
  H   H5        1.0  0.44370  0.01099  0.19714  1.0000
  H   H6        1.0  0.99648  0.43997  0.23211  1.0000
  H   H7        1.0  0.38420  0.94462  0.36391  1.0000
  H   H8        1.0  0.03996  0.44329  0.46838  1.0000
  H   H9        1.0  0.94712  0.57557  0.34380  1.0000
  H   H10       1.0  0.31042  0.87605  0.38553  1.0000
  H   H11       1.0  0.10574  0.43636  0.50272  1.0000
  H   H12       1.0  0.88056  0.58135  0.36478  1.0000
  H   H13       1.0  0.37885  0.82918  0.09674  1.0000
  H   H14       1.0  0.19157  0.55646  0.03085  1.0000
  H   H15       1.0  0.81100  0.46229  0.20064  1.0000
  H   H16       1.0  0.45319  0.89785  0.07607  1.0000
  H   H17       1.0  0.12644  0.56574  0.00610  1.0000
  H   H18       1.0  0.87871  0.45791  0.16815  1.0000
  H   H19       1.0  0.56718  0.20453  0.00551  1.0000
  H   H20       1.0  0.37667  0.55713  0.03705  1.0000
  H   H21       1.0  0.56757  0.27593  0.99654  1.0000
  H   H22       1.0  0.31223  0.56636  0.99610  1.0000
  H   H23       1.0  0.44071  0.19259  0.40700  1.0000
  H   H24       1.0  0.21880  0.43391  0.40644  1.0000
  H   H25       1.0  0.44027  0.12202  0.41706  1.0000
  H   H26       1.0  0.28258  0.42451  0.44892  1.0000
  H   H27       1.0  0.80065  0.54932  0.36112  1.0000
  H   H28       1.0  0.46167  0.25591  0.43620  1.0000
  H   H29       1.0  0.73112  0.18608  0.39415  1.0000
  H   H30       1.0  0.18630  0.47106  0.43378  1.0000
  H   H31       1.0  0.52799  0.71848  0.39687  1.0000
  H   H32       1.0  0.26646  0.80469  0.35145  1.0000
  H   H33       1.0  0.43759  0.43816  0.75270  1.0000
  H   H34       1.0  0.55850  0.99570  0.74293  1.0000
  H   H35       1.0  0.00427  0.56149  0.69178  1.0000
  H   H36       1.0  0.57836  0.57391  0.76725  1.0000
  H   H37       1.0  0.42345  0.00278  0.70902  1.0000
  H   H38       1.0  0.99719  0.41459  0.79075  1.0000
  H   H39       1.0  0.36560  0.93574  0.87923  1.0000
  H   H40       1.0  0.94647  0.54697  0.84724  1.0000
  H   H41       1.0  0.29172  0.86699  0.90075  1.0000
  H   H42       1.0  0.88051  0.55377  0.86991  1.0000
  H   H43       1.0  0.36050  0.81994  0.61569  1.0000
  H   H44       1.0  0.81541  0.44489  0.64900  1.0000
  H   H45       1.0  0.43476  0.89033  0.58332  1.0000
  H   H46       1.0  0.88281  0.43902  0.62033  1.0000
  H   H47       1.0  0.62727  0.43703  0.68192  1.0000
  H   H48       1.0  0.56155  0.19878  0.52804  1.0000
  H   H49       1.0  0.83124  0.37985  0.57045  1.0000
  H   H50       1.0  0.38330  0.55841  0.52122  1.0000
  H   H51       1.0  0.43567  0.81412  0.66367  1.0000
  H   H52       1.0  0.69418  0.42938  0.66552  1.0000
  H   H53       1.0  0.56954  0.27397  0.51363  1.0000
  H   H54       1.0  0.75894  0.31613  0.54630  1.0000
  H   H55       1.0  0.31277  0.55780  0.49960  1.0000
  H   H56       1.0  0.43920  0.74562  0.65554  1.0000
  H   H57       1.0  0.76966  0.55690  0.77460  1.0000
  H   H58       1.0  0.43912  0.19921  0.89889  1.0000
  H   H59       1.0  0.78398  0.21545  0.83538  1.0000
  H   H60       1.0  0.23367  0.42957  0.94328  1.0000
  H   H61       1.0  0.56621  0.80508  0.79380  1.0000
  H   H62       1.0  0.70348  0.56466  0.79117  1.0000
  H   H63       1.0  0.43148  0.12501  0.91601  1.0000
  H   H64       1.0  0.85575  0.27857  0.86169  1.0000
  H   H65       1.0  0.30328  0.43038  0.96747  1.0000
  H   H66       1.0  0.56322  0.87326  0.80026  1.0000
  H   H67       1.0  0.80225  0.52221  0.87547  1.0000
  H   H68       1.0  0.46347  0.26247  0.92255  1.0000
  H   H69       1.0  0.71261  0.17422  0.89194  1.0000
  H   H70       1.0  0.19271  0.45608  0.96614  1.0000
  H   H71       1.0  0.54264  0.73245  0.89120  1.0000
  H   H72       1.0  0.24762  0.79316  0.86030  1.0000
  C   C1        1.0  0.48906  0.53411  0.26915  1.0000
  C   C2        1.0  0.46803  0.96551  0.22604  1.0000
  C   C3        1.0  0.03963  0.50962  0.22946  1.0000
  C   C4        1.0  0.49067  0.45345  0.26867  1.0000
  C   C5        1.0  0.54810  0.04243  0.26130  1.0000
  C   C6        1.0  0.95959  0.51313  0.23754  1.0000
  C   C7        1.0  0.44851  0.49210  0.27897  1.0000
  C   C8        1.0  0.50614  0.96246  0.25040  1.0000
  C   C9        1.0  0.04142  0.55094  0.22816  1.0000
  C   C10       1.0  0.53148  0.49607  0.24880  1.0000
  C   C11       1.0  0.51011  0.04553  0.23593  1.0000
  C   C12       1.0  0.95868  0.47226  0.23347  1.0000
  C   C13       1.0  0.45056  0.45298  0.28184  1.0000
  C   C14       1.0  0.54448  0.00068  0.26927  1.0000
  C   C15       1.0  0.00157  0.55129  0.23218  1.0000
  C   C16       1.0  0.52922  0.53460  0.25043  1.0000
  C   C17       1.0  0.47167  0.00720  0.21921  1.0000
  C   C18       1.0  0.99847  0.47171  0.23284  1.0000
  C   C19       1.0  0.42465  0.92632  0.22041  1.0000
  C   C20       1.0  0.07891  0.50514  0.23669  1.0000
  C   C21       1.0  0.91905  0.51636  0.25186  1.0000
  C   C22       1.0  0.40655  0.48830  0.28130  1.0000
  C   C23       1.0  0.50719  0.92272  0.25551  1.0000
  C   C24       1.0  0.08170  0.59027  0.23130  1.0000
  C   C25       1.0  0.57396  0.50084  0.23567  1.0000
  C   C26       1.0  0.50817  0.08488  0.23144  1.0000
  C   C27       1.0  0.92079  0.43105  0.22903  1.0000
  C   C28       1.0  0.38347  0.92021  0.30116  1.0000
  C   C29       1.0  0.07309  0.46772  0.37205  1.0000
  C   C30       1.0  0.91820  0.55128  0.30642  1.0000
  C   C31       1.0  0.34180  0.88126  0.31505  1.0000
  C   C32       1.0  0.10995  0.46401  0.39139  1.0000
  C   C33       1.0  0.88010  0.55417  0.32141  1.0000
  C   C34       1.0  0.33944  0.84727  0.24599  1.0000
  C   C35       1.0  0.15305  0.49613  0.26919  1.0000
  C   C36       1.0  0.84080  0.52217  0.28330  1.0000
  C   C37       1.0  0.38045  0.85435  0.15707  1.0000
  C   C38       1.0  0.15839  0.53231  0.12753  1.0000
  C   C39       1.0  0.84111  0.48700  0.23141  1.0000
  C   C40       1.0  0.42205  0.89293  0.14584  1.0000
  C   C41       1.0  0.12205  0.53730  0.11360  1.0000
  C   C42       1.0  0.87934  0.48460  0.21426  1.0000
  C   C43       1.0  0.61071  0.50512  0.23128  1.0000
  C   C44       1.0  0.50474  0.11799  0.22516  1.0000
  C   C45       1.0  0.89110  0.39444  0.21752  1.0000
  C   C46       1.0  0.37121  0.48628  0.27206  1.0000
  C   C47       1.0  0.50911  0.88914  0.25323  1.0000
  C   C48       1.0  0.11702  0.62337  0.23655  1.0000
  C   C49       1.0  0.50424  0.15831  0.21557  1.0000
  C   C50       1.0  0.33414  0.49047  0.24864  1.0000
  C   C51       1.0  0.54011  0.20231  0.09555  1.0000
  C   C52       1.0  0.34219  0.53071  0.12017  1.0000
  C   C53       1.0  0.54036  0.24208  0.09019  1.0000
  C   C54       1.0  0.30646  0.53597  0.09700  1.0000
  C   C55       1.0  0.50542  0.23989  0.20463  1.0000
  C   C56       1.0  0.26160  0.50196  0.20314  1.0000
  C   C57       1.0  0.46882  0.19568  0.32001  1.0000
  C   C58       1.0  0.25342  0.46130  0.32798  1.0000
  C   C59       1.0  0.46825  0.15578  0.32553  1.0000
  C   C60       1.0  0.28900  0.45567  0.35082  1.0000
  C   C61       1.0  0.80125  0.52570  0.29436  1.0000
  C   C62       1.0  0.48548  0.28545  0.31423  1.0000
  C   C63       1.0  0.71653  0.19535  0.28960  1.0000
  C   C64       1.0  0.19081  0.49125  0.29706  1.0000
  C   C65       1.0  0.50940  0.70470  0.30192  1.0000
  C   C66       1.0  0.29487  0.80696  0.26730  1.0000
  C   C67       1.0  0.50765  0.54594  0.77898  1.0000
  C   C68       1.0  0.44991  0.95926  0.72246  1.0000
  C   C69       1.0  0.03947  0.48657  0.76362  1.0000
  C   C70       1.0  0.50710  0.46536  0.75374  1.0000
  C   C71       1.0  0.53161  0.03862  0.73445  1.0000
  C   C72       1.0  0.96038  0.48892  0.72815  1.0000
  C   C73       1.0  0.46746  0.50628  0.77091  1.0000
  C   C74       1.0  0.48971  0.95820  0.72951  1.0000
  C   C75       1.0  0.04107  0.52887  0.73228  1.0000
  C   C76       1.0  0.54790  0.50557  0.75336  1.0000
  C   C77       1.0  0.49214  0.04006  0.72433  1.0000
  C   C78       1.0  0.95953  0.44701  0.74921  1.0000
  C   C79       1.0  0.46858  0.46752  0.76002  1.0000
  C   C80       1.0  0.52885  0.99764  0.73687  1.0000
  C   C81       1.0  0.00178  0.52863  0.71530  1.0000
  C   C82       1.0  0.54668  0.54405  0.76734  1.0000
  C   C83       1.0  0.45282  0.00053  0.71864  1.0000
  C   C84       1.0  0.99884  0.44703  0.77077  1.0000
  C   C85       1.0  0.40615  0.91849  0.72942  1.0000
  C   C86       1.0  0.92022  0.49246  0.73116  1.0000
  C   C87       1.0  0.42547  0.50236  0.77170  1.0000
  C   C88       1.0  0.49219  0.91924  0.73466  1.0000
  C   C89       1.0  0.08005  0.57064  0.72655  1.0000
  C   C90       1.0  0.58874  0.50681  0.74602  1.0000
  C   C91       1.0  0.49104  0.07943  0.72672  1.0000
  C   C92       1.0  0.92124  0.40561  0.74756  1.0000
  C   C93       1.0  0.36483  0.91136  0.81607  1.0000
  C   C94       1.0  0.91875  0.52545  0.79742  1.0000
  C   C95       1.0  0.32318  0.87220  0.83093  1.0000
  C   C96       1.0  0.88100  0.52882  0.81332  1.0000
  C   C97       1.0  0.32119  0.83844  0.76109  1.0000
  C   C98       1.0  0.84290  0.49941  0.76256  1.0000
  C   C99       1.0  0.36224  0.84556  0.67333  1.0000
  C   C100      1.0  0.84440  0.46706  0.69203  1.0000
  C   C101      1.0  0.40371  0.88487  0.65693  1.0000
  C   C102      1.0  0.88223  0.46382  0.67643  1.0000
  C   C103      1.0  0.62298  0.50577  0.74318  1.0000
  C   C104      1.0  0.49154  0.11414  0.72998  1.0000
  C   C105      1.0  0.88861  0.37055  0.73800  1.0000
  C   C106      1.0  0.38846  0.49630  0.76398  1.0000
  C   C107      1.0  0.49693  0.88703  0.73738  1.0000
  C   C108      1.0  0.11302  0.60701  0.72455  1.0000
  C   C109      1.0  0.66077  0.50144  0.73783  1.0000
  C   C110      1.0  0.49607  0.15655  0.72462  1.0000
  C   C111      1.0  0.84837  0.33379  0.72113  1.0000
  C   C112      1.0  0.34821  0.49477  0.74807  1.0000
  C   C113      1.0  0.49904  0.84829  0.73425  1.0000
  C   C114      1.0  0.65839  0.46288  0.70355  1.0000
  C   C115      1.0  0.53530  0.19919  0.61129  1.0000
  C   C116      1.0  0.82036  0.34382  0.63182  1.0000
  C   C117      1.0  0.35056  0.53076  0.61497  1.0000
  C   C118      1.0  0.46383  0.81165  0.69416  1.0000
  C   C119      1.0  0.69543  0.45843  0.69527  1.0000
  C   C120      1.0  0.53975  0.24105  0.60235  1.0000
  C   C121      1.0  0.78001  0.30837  0.61806  1.0000
  C   C122      1.0  0.31144  0.53041  0.60214  1.0000
  C   C123      1.0  0.46564  0.77348  0.69014  1.0000
  C   C124      1.0  0.73588  0.49161  0.72378  1.0000
  C   C125      1.0  0.50571  0.24225  0.70648  1.0000
  C   C126      1.0  0.76544  0.26145  0.69450  1.0000
  C   C127      1.0  0.26884  0.49481  0.72261  1.0000
  C   C128      1.0  0.50182  0.76967  0.73023  1.0000
  C   C129      1.0  0.73842  0.53034  0.75617  1.0000
  C   C130      1.0  0.46630  0.19957  0.81822  1.0000
  C   C131      1.0  0.79380  0.25134  0.78025  1.0000
  C   C132      1.0  0.26633  0.45815  0.85181  1.0000
  C   C133      1.0  0.53735  0.80664  0.76702  1.0000
  C   C134      1.0  0.70154  0.53510  0.76363  1.0000
  C   C135      1.0  0.46165  0.15763  0.82758  1.0000
  C   C136      1.0  0.83438  0.28672  0.79362  1.0000
  C   C137      1.0  0.30526  0.45816  0.86486  1.0000
  C   C138      1.0  0.53602  0.84518  0.76927  1.0000
  C   C139      1.0  0.80352  0.50325  0.78603  1.0000
  C   C140      1.0  0.48947  0.29147  0.80311  1.0000
  C   C141      1.0  0.70150  0.18578  0.77855  1.0000
  C   C142      1.0  0.19548  0.47681  0.83401  1.0000
  C   C143      1.0  0.52199  0.71492  0.80825  1.0000
  C   C144      1.0  0.27754  0.79762  0.77728  1.0000
  N   N1        1.0  0.76903  0.50198  0.22720  1.0000
  N   N2        1.0  0.50962  0.28230  0.19048  1.0000
  N   N3        1.0  0.73431  0.23756  0.18506  1.0000
  N   N4        1.0  0.22750  0.50993  0.17080  1.0000
  N   N5        1.0  0.49273  0.72487  0.20893  1.0000
  N   N6        1.0  0.28892  0.77631  0.19276  1.0000
  N   N7        1.0  0.77179  0.48477  0.70884  1.0000
  N   N8        1.0  0.51348  0.28632  0.68673  1.0000
  N   N9        1.0  0.72422  0.22848  0.67231  1.0000
  N   N10       1.0  0.23155  0.49819  0.70156  1.0000
  N   N11       1.0  0.49996  0.72952  0.72397  1.0000
  N   N12       1.0  0.27485  0.76875  0.69742  1.0000
  C  Sn1       1.0  0.15699  0.69697  0.74166  1.0000
  C   C145      1.0  0.15342  0.66097  0.68567  1.0000
  C  Sn2       1.0  0.19078  0.65692  0.65368  1.0000
  C  Sn3       1.0  0.23259  0.68951  0.67827  1.0000
  C   C146      1.0  0.23614  0.72548  0.73425  1.0000
  C  Sn4       1.0  0.19879  0.72956  0.76624  1.0000
  O  Te1       1.0  0.11920  0.70035  0.77285  1.0000
  O  Te2       1.0  0.18639  0.62065  0.59774  1.0000
  O  Te3       1.0  0.27039  0.68611  0.64702  1.0000
  O  Te4       1.0  0.20317  0.76580  0.82219  1.0000
  Mg  Mg1       1.0  0.24754  0.63066  0.57254  1.0000
  Mg  Mg2       1.0  0.14204  0.75580  0.84751  1.0000
  C  Sn5       1.0  0.55011  0.83944  0.22044  1.0000
  C   C147      1.0  0.51915  0.85262  0.19764  1.0000
  C  Sn6       1.0  0.47485  0.82013  0.19951  1.0000
  C  Sn7       1.0  0.46119  0.77348  0.22480  1.0000
  C   C148      1.0  0.49214  0.76032  0.24760  1.0000
  C  Sn8       1.0  0.53646  0.79279  0.24573  1.0000
  O  Te5       1.0  0.59423  0.87250  0.21812  1.0000
  O  Te6       1.0  0.44451  0.83414  0.17638  1.0000
  O  Te7       1.0  0.41704  0.74042  0.22710  1.0000
  O  Te8       1.0  0.56678  0.77880  0.26887  1.0000
  Mg  Mg3       1.0  0.38811  0.77635  0.18990  1.0000
  Mg  Mg4       1.0  0.62318  0.83656  0.25546  1.0000
  C  Sn9       1.0  0.63159  0.15987  0.20987  1.0000
  C   C149      1.0  0.66249  0.15811  0.30132  1.0000
  C  Sn10      1.0  0.66009  0.11644  0.36839  1.0000
  C  Sn11      1.0  0.62611  0.07568  0.34344  1.0000
  C   C150      1.0  0.59524  0.07745  0.25202  1.0000
  C  Sn12      1.0  0.59761  0.11911  0.18493  1.0000
  O  Te9       1.0  0.63462  0.20191  0.14396  1.0000
  O  Te10      1.0  0.69134  0.11554  0.45942  1.0000
  O  Te11      1.0  0.62310  0.03362  0.40945  1.0000
  O  Te12      1.0  0.56638  0.12003  0.09392  1.0000
  Mg  Mg5       1.0  0.67339  0.04997  0.52426  1.0000
  Mg  Mg6       1.0  0.58432  0.18558  0.02894  1.0000
  C  Sn13      1.0  0.12966  0.51226  0.62487  1.0000
  C   C151      1.0  0.08527  0.48325  0.73675  1.0000
  C  Sn14      1.0  0.07628  0.45348  0.90642  1.0000
  C  Sn15      1.0  0.11241  0.45270  0.96555  1.0000
  C   C152      1.0  0.15676  0.48170  0.85372  1.0000
  C  Sn16      1.0  0.16578  0.51148  0.68401  1.0000
  O  Te13      1.0  0.13786  0.54175  0.45579  1.0000
  O  Te14      1.0  0.10127  0.51318  0.01585  1.0000
  O  Te15      1.0  0.17382  0.51158  0.13479  1.0000
  O  Te16      1.0  0.21041  0.54017  0.57462  1.0000
  Mg  Mg7       1.0  0.10728  0.47907  0.23492  1.0000
  Mg  Mg8       1.0  0.20444  0.57431  0.35558  1.0000
  C  Sn17      1.0  0.51822  0.40255  0.12015  1.0000
  C   C153      1.0  0.48928  0.40827  0.23053  1.0000
  C  Sn18      1.0  0.46040  0.37360  0.39401  1.0000
  C  Sn19      1.0  0.46047  0.33237  0.44836  1.0000
  C   C154      1.0  0.48940  0.32667  0.33804  1.0000
  C  Sn20      1.0  0.51828  0.36131  0.17451  1.0000
  O  Te17      1.0  0.47715  0.34926  0.95728  1.0000
  O  Te18      1.0  0.43177  0.38010  0.50205  1.0000
  O  Te19      1.0  0.43185  0.29724  0.61138  1.0000
  O  Te20      1.0  0.54691  0.35483  0.06652  1.0000
  Mg  Mg9       1.0  0.39905  0.32228  0.71196  1.0000
  Mg  Mg10      1.0  0.51001  0.32423  0.85663  1.0000
  C  Sn21      1.0  0.54283  0.39001  0.68474  1.0000
  C   C155      1.0  0.50748  0.34534  0.79514  1.0000
  C  Sn22      1.0  0.46618  0.33746  0.88085  1.0000
  C  Sn23      1.0  0.46006  0.37500  0.85561  1.0000
  C   C156      1.0  0.49539  0.41964  0.74525  1.0000
  C  Sn24      1.0  0.53672  0.42755  0.65951  1.0000
  O  Te21      1.0  0.58383  0.39708  0.60038  1.0000
  O  Te22      1.0  0.43134  0.29250  0.99062  1.0000
  O  Te23      1.0  0.41902  0.36789  0.94009  1.0000
  O  Te24      1.0  0.57153  0.47248  0.54977  1.0000
  Mg  Mg11      1.0  0.45138  0.38880  0.07650  1.0000
  Mg  Mg12      1.0  0.62115  0.46462  0.46376  1.0000
  C  Sn25      1.0  0.16990  0.71343  0.24545  1.0000
  C   C157      1.0  0.16131  0.67491  0.19710  1.0000
  C  Sn26      1.0  0.19540  0.66597  0.16728  1.0000
  C  Sn27      1.0  0.23898  0.69614  0.18628  1.0000
  C   C158      1.0  0.24755  0.73462  0.23464  1.0000
  C  Sn28      1.0  0.21348  0.74360  0.26446  1.0000
  O  Te25      1.0  0.13531  0.72169  0.27462  1.0000
  O  Te26      1.0  0.18600  0.62726  0.11900  1.0000
  O  Te27      1.0  0.27357  0.68785  0.15707  1.0000
  O  Te28      1.0  0.22285  0.78228  0.31274  1.0000
  Mg  Mg13      1.0  0.24423  0.63064  0.09376  1.0000
  Mg  Mg14      1.0  0.16465  0.77892  0.33810  1.0000
  C  Sn29      1.0  0.79759  0.33083  0.06317  1.0000
  C   C159      1.0  0.78375  0.28439  0.13729  1.0000
  C  Sn30      1.0  0.80338  0.27179  0.26342  1.0000
  C  Sn31      1.0  0.83754  0.30632  0.31668  1.0000
  C   C160      1.0  0.85135  0.35272  0.24260  1.0000
  C  Sn32      1.0  0.83175  0.36536  0.11643  1.0000
  O  Te29      1.0  0.70785  0.25423  0.93730  1.0000
  O  Te30      1.0  0.78899  0.22515  0.33559  1.0000
  O  Te31      1.0  0.85763  0.29448  0.44265  1.0000
  O  Te32      1.0  0.84611  0.41197  0.04430  1.0000
  Mg  Mg15      1.0  0.82658  0.22634  0.50265  1.0000
  Mg  Mg16      1.0  0.73889  0.32242  0.87731  1.0000
  C  Sn33      1.0  0.45629  0.61598  0.26712  1.0000
  C   C161      1.0  0.48878  0.64921  0.32625  1.0000
  C  Sn34      1.0  0.52706  0.64858  0.35133  1.0000
  C  Sn35      1.0  0.53303  0.61404  0.31649  1.0000
  C   C162      1.0  0.50056  0.58085  0.25737  1.0000
  C  Sn36      1.0  0.46226  0.58144  0.23228  1.0000
  O  Te33      1.0  0.41828  0.61727  0.24296  1.0000
  O  Te34      1.0  0.55907  0.68215  0.41059  1.0000
  O  Te35      1.0  0.57108  0.61278  0.34071  1.0000
  O  Te36      1.0  0.43028  0.54790  0.17303  1.0000
  Mg  Mg17      1.0  0.60519  0.66596  0.42335  1.0000
  Mg  Mg18      1.0  0.38415  0.56408  0.16013  1.0000
  C  Sn37      1.0  0.60233  0.07384  0.90011  1.0000
  C   C163      1.0  0.57437  0.07752  0.79553  1.0000
  C  Sn38      1.0  0.59082  0.11857  0.65477  1.0000
  C  Sn39      1.0  0.63617  0.15674  0.61768  1.0000
  C   C164      1.0  0.66411  0.15306  0.72220  1.0000
  C  Sn40      1.0  0.64768  0.11201  0.86302  1.0000
  O  Te37      1.0  0.65482  0.12087  0.04015  1.0000
  O  Te38      1.0  0.56222  0.12143  0.55212  1.0000
  O  Te39      1.0  0.65331  0.19814  0.47751  1.0000
  O  Te40      1.0  0.67626  0.10915  0.96561  1.0000
  Mg  Mg19      1.0  0.60123  0.18513  0.37573  1.0000
  Mg  Mg20      1.0  0.70694  0.13386  0.14196  1.0000
  C  Sn41      1.0  0.54010  0.62256  0.90995  1.0000
  C   C165      1.0  0.50856  0.58867  0.85047  1.0000
  C  Sn42      1.0  0.48304  0.59830  0.74705  1.0000
  C  Sn43      1.0  0.48920  0.64274  0.70205  1.0000
  C   C166      1.0  0.52073  0.67660  0.76149  1.0000
  C  Sn44      1.0  0.54625  0.66700  0.86494  1.0000
  O  Te41      1.0  0.63488  0.70057  0.01317  1.0000
  O  Te42      1.0  0.45171  0.56385  0.68919  1.0000
  O  Te43      1.0  0.46403  0.65310  0.59874  1.0000
  O  Te44      1.0  0.57758  0.70141  0.92276  1.0000
  Mg  Mg21      1.0  0.42553  0.59472  0.55161  1.0000
  Mg  Mg22      1.0  0.67344  0.75900  0.06027  1.0000
  C  Sn45      1.0  0.70396  0.55242  0.20857  1.0000
  C   C167      1.0  0.66341  0.51894  0.18502  1.0000
  C  Sn46      1.0  0.65456  0.47482  0.20055  1.0000
  C  Sn47      1.0  0.68689  0.46392  0.24057  1.0000
  C   C168      1.0  0.72740  0.49739  0.26413  1.0000
  C  Sn48      1.0  0.73629  0.54153  0.24859  1.0000
  O  Te45      1.0  0.71210  0.59631  0.19244  1.0000
  O  Te46      1.0  0.61379  0.44193  0.17636  1.0000
  O  Te47      1.0  0.67872  0.42000  0.25669  1.0000
  O  Te48      1.0  0.77703  0.57440  0.27279  1.0000
  Mg  Mg23      1.0  0.61823  0.38697  0.21200  1.0000
  Mg  Mg24      1.0  0.77260  0.62936  0.23727  1.0000
