data_image0
_chemical_formula_structural       H48C132N12SnCSn2CSnTe4Mg2SnCSn2CSnTe4Mg2SnCSn2CSnTe4Mg2SnCSn2CSnTe4Mg2SnCSn2CSnTe4Mg2SnCSn2CSnTe4Mg2SnCSn2CSnTe4Mg2SnCSn2CSnTe4Mg2SnCSn2CSnTe4Mg2SnCSn2CSnTe4Mg2SnCSn2CSnTe4Mg2SnCSn2CSnTe4Mg2SnCSn2CSnTe4Mg2SnCSn2CSnTe4Mg2SnCSn2CSnTe4Mg2SnCSn2CSnTe4Mg2SnCSn2CSnTe4Mg2SnCSn2CSnTe4Mg2SnCSn2CSnTe4Mg2SnCSn2CSnTe4Mg2SnCSn2CSnTe4Mg2SnCSn2CSnTe4Mg2SnCSn2CSnTe4Mg2SnCSn2CSnTe4Mg2
_chemical_formula_sum              "H48 C180 N12 Sn96 Te96 Mg48"
_cell_length_a       39.1724
_cell_length_b       39.05
_cell_length_c       7.94281
_cell_angle_alpha    89.7654
_cell_angle_beta     89.9134
_cell_angle_gamma    120.145

_symmetry_space_group_name_H-M    'P1'
_space_group_IT_number       1

loop_
  _space_group_symop_operation_xyz
  'x, y, z'

loop_
  _atom_site_type_symbol
  _atom_site_label
  _atom_site_symmetry_multiplicity
  _atom_site_fract_x
  _atom_site_fract_y
  _atom_site_fract_z
  _atom_site_occupancy
  H   H1        1.0  0.62094  0.61819  0.23289  1.0000
  H   H2        1.0  0.38235  0.99977  0.22168  1.0000
  H   H3        1.0  0.00160  0.38175  0.22965  1.0000
  H   H4        1.0  0.38319  0.38344  0.28332  1.0000
  H   H5        1.0  0.61781  0.00031  0.26771  1.0000
  H   H6        1.0  0.00170  0.61786  0.25445  1.0000
  H   H7        1.0  0.51374  0.42207  0.08299  1.0000
  H   H8        1.0  0.57825  0.09131  0.06722  1.0000
  H   H9        1.0  0.91352  0.48748  0.03788  1.0000
  H   H10       1.0  0.49124  0.57895  0.44529  1.0000
  H   H11       1.0  0.42196  0.90912  0.42630  1.0000
  H   H12       1.0  0.09065  0.51238  0.43230  1.0000
  H   H13       1.0  0.57709  0.48483  0.07281  1.0000
  H   H14       1.0  0.51489  0.09033  0.05166  1.0000
  H   H15       1.0  0.91331  0.42443  0.03738  1.0000
  H   H16       1.0  0.42765  0.51630  0.45407  1.0000
  H   H17       1.0  0.48526  0.90990  0.43993  1.0000
  H   H18       1.0  0.08999  0.57515  0.44048  1.0000
  H   H19       1.0  0.40685  0.23961  0.99238  1.0000
  H   H20       1.0  0.75853  0.16996  0.96129  1.0000
  H   H21       1.0  0.83651  0.59806  0.98873  1.0000
  H   H22       1.0  0.58628  0.75774  0.53486  1.0000
  H   H23       1.0  0.24000  0.83395  0.53374  1.0000
  H   H24       1.0  0.17003  0.41048  0.52977  1.0000
  H   H25       1.0  0.61797  0.61642  0.73679  1.0000
  H   H26       1.0  0.38263  0.00218  0.72535  1.0000
  H   H27       1.0  0.99923  0.38183  0.72574  1.0000
  H   H28       1.0  0.37932  0.38240  0.78899  1.0000
  H   H29       1.0  0.61615  0.99864  0.77268  1.0000
  H   H30       1.0  0.99912  0.61788  0.76187  1.0000
  H   H31       1.0  0.50896  0.42100  0.57640  1.0000
  H   H32       1.0  0.57738  0.08902  0.55636  1.0000
  H   H33       1.0  0.90975  0.48736  0.55490  1.0000
  H   H34       1.0  0.48807  0.57817  0.94638  1.0000
  H   H35       1.0  0.42125  0.91124  0.94313  1.0000
  H   H36       1.0  0.08979  0.51328  0.92354  1.0000
  H   H37       1.0  0.57244  0.48339  0.56630  1.0000
  H   H38       1.0  0.51473  0.08946  0.54395  1.0000
  H   H39       1.0  0.91035  0.42455  0.54491  1.0000
  H   H40       1.0  0.42469  0.51571  0.95861  1.0000
  H   H41       1.0  0.48341  0.91026  0.95131  1.0000
  H   H42       1.0  0.08950  0.57612  0.92875  1.0000
  H   H43       1.0  0.40388  0.23943  0.48029  1.0000
  H   H44       1.0  0.75887  0.16753  0.46885  1.0000
  H   H45       1.0  0.82559  0.58268  0.46448  1.0000
  H   H46       1.0  0.59246  0.76028  0.03271  1.0000
  H   H47       1.0  0.23462  0.83635  0.99220  1.0000
  H   H48       1.0  0.16666  0.40642  0.01782  1.0000
  C   C1        1.0  0.55932  0.59119  0.29699  1.0000
  C   C2        1.0  0.40963  0.96554  0.28210  1.0000
  C   C3        1.0  0.03564  0.44368  0.28688  1.0000
  C   C4        1.0  0.44494  0.41004  0.22484  1.0000
  C   C5        1.0  0.59052  0.03468  0.20871  1.0000
  C   C6        1.0  0.96774  0.55619  0.19071  1.0000
  C   C7        1.0  0.52294  0.55474  0.31396  1.0000
  C   C8        1.0  0.44596  0.96569  0.29686  1.0000
  C   C9        1.0  0.03523  0.47988  0.29827  1.0000
  C   C10       1.0  0.48157  0.44632  0.21053  1.0000
  C   C11       1.0  0.55414  0.03442  0.19411  1.0000
  C   C12       1.0  0.96818  0.51995  0.17776  1.0000
  C   C13       1.0  0.52061  0.51884  0.25794  1.0000
  C   C14       1.0  0.48168  0.99971  0.24009  1.0000
  C   C15       1.0  0.00182  0.48161  0.23617  1.0000
  C   C16       1.0  0.48387  0.48225  0.26633  1.0000
  C   C17       1.0  0.51844  0.00029  0.25022  1.0000
  C   C18       1.0  0.00141  0.51805  0.24147  1.0000
  C   C19       1.0  0.55484  0.51921  0.19416  1.0000
  C   C20       1.0  0.48102  0.03338  0.17415  1.0000
  C   C21       1.0  0.96866  0.44711  0.16944  1.0000
  C   C22       1.0  0.44967  0.48202  0.32992  1.0000
  C   C23       1.0  0.51911  0.96660  0.31600  1.0000
  C   C24       1.0  0.03445  0.55236  0.31011  1.0000
  C   C25       1.0  0.59174  0.55540  0.19411  1.0000
  C   C26       1.0  0.44480  0.03372  0.17440  1.0000
  C   C27       1.0  0.96820  0.41037  0.17570  1.0000
  C   C28       1.0  0.41262  0.44602  0.32758  1.0000
  C   C29       1.0  0.55533  0.96621  0.31454  1.0000
  C   C30       1.0  0.03481  0.58905  0.30683  1.0000
  C   C31       1.0  0.59288  0.59061  0.24155  1.0000
  C   C32       1.0  0.41000  0.99961  0.22612  1.0000
  C   C33       1.0  0.00190  0.40974  0.23146  1.0000
  C   C34       1.0  0.41139  0.41091  0.27801  1.0000
  C   C35       1.0  0.59014  0.00046  0.26333  1.0000
  C   C36       1.0  0.00134  0.58986  0.24968  1.0000
  C   C37       1.0  0.51596  0.44863  0.13683  1.0000
  C   C38       1.0  0.55163  0.06637  0.11903  1.0000
  C   C39       1.0  0.93723  0.48550  0.09933  1.0000
  C   C40       1.0  0.48875  0.55242  0.38975  1.0000
  C   C41       1.0  0.44849  0.93385  0.37279  1.0000
  C   C42       1.0  0.06649  0.51432  0.37511  1.0000
  C   C43       1.0  0.55120  0.48353  0.12997  1.0000
  C   C44       1.0  0.51652  0.06594  0.10997  1.0000
  C   C45       1.0  0.93721  0.45043  0.09707  1.0000
  C   C46       1.0  0.45346  0.51760  0.39605  1.0000
  C   C47       1.0  0.48359  0.93420  0.38108  1.0000
  C   C48       1.0  0.06615  0.54918  0.38046  1.0000
  C   C49       1.0  0.62705  0.55576  0.15357  1.0000
  C   C50       1.0  0.44387  0.06828  0.13165  1.0000
  C   C51       1.0  0.93401  0.37455  0.13352  1.0000
  C   C52       1.0  0.37719  0.44549  0.36738  1.0000
  C   C53       1.0  0.55594  0.93132  0.35565  1.0000
  C   C54       1.0  0.06863  0.62470  0.35358  1.0000
  C   C55       1.0  0.65795  0.55558  0.13317  1.0000
  C   C56       1.0  0.44335  0.09911  0.11188  1.0000
  C   C57       1.0  0.90365  0.34282  0.11331  1.0000
  C   C58       1.0  0.34593  0.44506  0.38628  1.0000
  C   C59       1.0  0.55546  0.89995  0.37471  1.0000
  C   C60       1.0  0.09849  0.65657  0.37857  1.0000
  C   C61       1.0  0.42870  0.25753  0.08856  1.0000
  C   C62       1.0  0.74205  0.17230  0.06859  1.0000
  C   C63       1.0  0.83205  0.57359  0.07227  1.0000
  C   C64       1.0  0.56815  0.74071  0.42719  1.0000
  C   C65       1.0  0.25706  0.83043  0.43180  1.0000
  C   C66       1.0  0.17285  0.43013  0.42431  1.0000
  C   C67       1.0  0.55644  0.59005  0.79983  1.0000
  C   C68       1.0  0.40897  0.96718  0.79111  1.0000
  C   C69       1.0  0.03362  0.44367  0.78471  1.0000
  C   C70       1.0  0.44074  0.40905  0.72428  1.0000
  C   C71       1.0  0.58939  0.03327  0.70834  1.0000
  C   C72       1.0  0.96547  0.55627  0.69796  1.0000
  C   C73       1.0  0.51978  0.55378  0.81620  1.0000
  C   C74       1.0  0.44512  0.96683  0.80575  1.0000
  C   C75       1.0  0.03369  0.48021  0.79428  1.0000
  C   C76       1.0  0.47743  0.44527  0.70938  1.0000
  C   C77       1.0  0.55317  0.03337  0.69298  1.0000
  C   C78       1.0  0.96601  0.52018  0.68261  1.0000
  C   C79       1.0  0.51703  0.51774  0.75882  1.0000
  C   C80       1.0  0.48090  0.00011  0.74465  1.0000
  C   C81       1.0  0.00022  0.48206  0.73340  1.0000
  C   C82       1.0  0.48021  0.48122  0.76825  1.0000
  C   C83       1.0  0.51738  0.00000  0.75343  1.0000
  C   C84       1.0  0.99980  0.51851  0.73995  1.0000
  C   C85       1.0  0.55096  0.51781  0.69311  1.0000
  C   C86       1.0  0.48067  0.03376  0.67538  1.0000
  C   C87       1.0  0.96665  0.44750  0.66920  1.0000
  C   C88       1.0  0.44628  0.48106  0.83443  1.0000
  C   C89       1.0  0.51773  0.96629  0.82117  1.0000
  C   C90       1.0  0.03317  0.55304  0.80503  1.0000
  C   C91       1.0  0.58812  0.55372  0.69421  1.0000
  C   C92       1.0  0.44488  0.03492  0.67683  1.0000
  C   C93       1.0  0.96599  0.41066  0.67428  1.0000
  C   C94       1.0  0.40919  0.44506  0.83421  1.0000
  C   C95       1.0  0.55371  0.96543  0.81995  1.0000
  C   C96       1.0  0.03330  0.58961  0.80517  1.0000
  C   C97       1.0  0.58972  0.58900  0.74396  1.0000
  C   C98       1.0  0.40994  0.00138  0.73175  1.0000
  C   C99       1.0  0.99967  0.40987  0.72904  1.0000
  C   C100      1.0  0.40752  0.40988  0.78241  1.0000
  C   C101      1.0  0.58870  0.99919  0.76685  1.0000
  C   C102      1.0  0.99922  0.59015  0.75424  1.0000
  C   C103      1.0  0.51143  0.44749  0.63218  1.0000
  C   C104      1.0  0.55090  0.06503  0.61366  1.0000
  C   C105      1.0  0.93438  0.48559  0.60795  1.0000
  C   C106      1.0  0.48570  0.55156  0.89250  1.0000
  C   C107      1.0  0.44755  0.93518  0.88459  1.0000
  C   C108      1.0  0.06538  0.51498  0.86768  1.0000
  C   C109      1.0  0.54683  0.48220  0.62576  1.0000
  C   C110      1.0  0.51614  0.06531  0.60587  1.0000
  C   C111      1.0  0.93461  0.45066  0.60229  1.0000
  C   C112      1.0  0.45035  0.51678  0.90020  1.0000
  C   C113      1.0  0.48223  0.93466  0.89041  1.0000
  C   C114      1.0  0.06530  0.54998  0.87130  1.0000
  C   C115      1.0  0.62320  0.55374  0.65311  1.0000
  C   C116      1.0  0.44449  0.06980  0.63245  1.0000
  C   C117      1.0  0.93137  0.37492  0.63438  1.0000
  C   C118      1.0  0.37412  0.44487  0.87604  1.0000
  C   C119      1.0  0.55439  0.93074  0.86367  1.0000
  C   C120      1.0  0.06773  0.62505  0.85010  1.0000
  C   C121      1.0  0.65406  0.55335  0.63500  1.0000
  C   C122      1.0  0.44355  0.10043  0.61261  1.0000
  C   C123      1.0  0.90068  0.34334  0.61706  1.0000
  C   C124      1.0  0.34322  0.44521  0.89219  1.0000
  C   C125      1.0  0.55514  0.90005  0.88436  1.0000
  C   C126      1.0  0.09873  0.65592  0.87460  1.0000
  C   C127      1.0  0.42492  0.25712  0.57945  1.0000
  C   C128      1.0  0.74145  0.17042  0.57082  1.0000
  C   C129      1.0  0.82459  0.56448  0.57259  1.0000
  C   C130      1.0  0.57240  0.74283  0.93033  1.0000
  C   C131      1.0  0.25540  0.83103  0.91921  1.0000
  C   C132      1.0  0.16987  0.42815  0.92121  1.0000
  N   N1        1.0  0.45056  0.24620  0.16469  1.0000
  N   N2        1.0  0.75495  0.20402  0.15793  1.0000
  N   N3        1.0  0.79902  0.55010  0.14761  1.0000
  N   N4        1.0  0.54883  0.75258  0.33498  1.0000
  N   N5        1.0  0.24492  0.79775  0.35046  1.0000
  N   N6        1.0  0.20481  0.44990  0.33637  1.0000
  N   N7        1.0  0.44612  0.24576  0.66104  1.0000
  N   N8        1.0  0.75331  0.20243  0.65734  1.0000
  N   N9        1.0  0.79365  0.54529  0.66706  1.0000
  N   N10       1.0  0.55221  0.75455  0.84330  1.0000
  N   N11       1.0  0.24647  0.79687  0.85772  1.0000
  N   N12       1.0  0.20268  0.45045  0.84217  1.0000
  C  Sn1       1.0  0.58793  0.66209  0.48567  1.0000
  C   C133      1.0  0.56130  0.63128  0.38283  1.0000
  C  Sn2       1.0  0.53792  0.63749  0.26815  1.0000
  C  Sn3       1.0  0.54124  0.67530  0.25593  1.0000
  C   C134      1.0  0.56786  0.70608  0.35870  1.0000
  C  Sn4       1.0  0.59125  0.69989  0.47344  1.0000
  O  Te1       1.0  0.61102  0.65521  0.59941  1.0000
  O  Te2       1.0  0.51150  0.60623  0.16672  1.0000
  O  Te3       1.0  0.51813  0.68216  0.14207  1.0000
  O  Te4       1.0  0.61767  0.73113  0.57481  1.0000
  Mg  Mg1       1.0  0.48647  0.63024  0.03107  1.0000
  Mg  Mg2       1.0  0.64272  0.70716  0.71043  1.0000
  C  Sn5       1.0  0.34804  0.88725  0.21565  1.0000
  C   C135      1.0  0.36463  0.92580  0.27730  1.0000
  C  Sn6       1.0  0.34764  0.93391  0.41497  1.0000
  C  Sn7       1.0  0.31336  0.90284  0.49272  1.0000
  C   C136      1.0  0.29679  0.86431  0.43109  1.0000
  C  Sn8       1.0  0.31376  0.85617  0.29340  1.0000
  O  Te5       1.0  0.36552  0.87982  0.07788  1.0000
  O  Te6       1.0  0.36476  0.97270  0.47432  1.0000
  O  Te7       1.0  0.29589  0.91030  0.63058  1.0000
  O  Te8       1.0  0.29666  0.81742  0.23407  1.0000
  Mg  Mg3       1.0  0.33011  0.96796  0.66544  1.0000
  Mg  Mg4       1.0  0.33129  0.82212  0.04302  1.0000
  C  Sn9       1.0  0.09033  0.39768  0.41582  1.0000
  C   C137      1.0  0.12925  0.42298  0.36381  1.0000
  C  Sn10      1.0  0.14060  0.46060  0.29991  1.0000
  C  Sn11      1.0  0.11247  0.47322  0.28783  1.0000
  C   C138      1.0  0.07358  0.44794  0.33985  1.0000
  C  Sn12      1.0  0.06220  0.41030  0.40375  1.0000
  O  Te9       1.0  0.07964  0.36019  0.47932  1.0000
  O  Te10      1.0  0.17968  0.48536  0.24865  1.0000
  O  Te11      1.0  0.12319  0.51075  0.22427  1.0000
  O  Te12      1.0  0.02315  0.38555  0.45501  1.0000
  Mg  Mg5       1.0  0.17994  0.53372  0.17079  1.0000
  Mg  Mg6       1.0  0.02286  0.33720  0.53297  1.0000
  C  Sn13      1.0  0.47666  0.35832  0.20986  1.0000
  C   C139      1.0  0.45207  0.37274  0.15883  1.0000
  C  Sn14      1.0  0.41416  0.34687  0.09900  1.0000
  C  Sn15      1.0  0.40053  0.30572  0.09010  1.0000
  C   C140      1.0  0.42510  0.29132  0.14113  1.0000
  C  Sn16      1.0  0.46303  0.31717  0.20095  1.0000
  O  Te13      1.0  0.51445  0.38473  0.26926  1.0000
  O  Te14      1.0  0.39012  0.36198  0.04865  1.0000
  O  Te15      1.0  0.36270  0.27931  0.03063  1.0000
  O  Te16      1.0  0.48705  0.30208  0.25131  1.0000
  Mg  Mg7       1.0  0.34002  0.31284  0.97684  1.0000
  Mg  Mg8       1.0  0.53619  0.34987  0.32322  1.0000
  C  Sn17      1.0  0.67034  0.07022  0.09882  1.0000
  C   C141      1.0  0.63939  0.06804  0.19490  1.0000
  C  Sn18      1.0  0.63894  0.10248  0.23762  1.0000
  C  Sn19      1.0  0.67008  0.13988  0.18308  1.0000
  C   C142      1.0  0.70100  0.14204  0.08705  1.0000
  C  Sn20      1.0  0.70147  0.10761  0.04429  1.0000
  O  Te17      1.0  0.67018  0.03540  0.05759  1.0000
  O  Te18      1.0  0.60769  0.09956  0.33383  1.0000
  O  Te19      1.0  0.67022  0.17470  0.22441  1.0000
  O  Te20      1.0  0.73173  0.10920  0.94812  1.0000
  Mg  Mg9       1.0  0.62114  0.15541  0.35778  1.0000
  Mg  Mg10      1.0  0.71830  0.05337  0.92402  1.0000
  C  Sn21      1.0  0.86939  0.53710  0.23624  1.0000
  C   C143      1.0  0.86796  0.56780  0.15161  1.0000
  C  Sn22      1.0  0.89936  0.59404  0.04905  1.0000
  C  Sn23      1.0  0.93289  0.58950  0.03060  1.0000
  C   C144      1.0  0.93431  0.55881  0.11517  1.0000
  C  Sn24      1.0  0.90291  0.53255  0.21779  1.0000
  O  Te21      1.0  0.83765  0.51121  0.33811  1.0000
  O  Te22      1.0  0.89629  0.62319  0.96575  1.0000
  O  Te23      1.0  0.96367  0.61410  0.92863  1.0000
  O  Te24      1.0  0.90500  0.50210  0.30103  1.0000
  Mg  Mg11      1.0  0.94696  0.65092  0.84105  1.0000
  Mg  Mg12      1.0  0.85434  0.47434  0.42569  1.0000
  C  Sn25      1.0  0.28017  0.47382  0.24510  1.0000
  C   C145      1.0  0.24333  0.44665  0.31291  1.0000
  C  Sn26      1.0  0.24023  0.42000  0.43816  1.0000
  C  Sn27      1.0  0.27466  0.42053  0.49694  1.0000
  C   C146      1.0  0.31146  0.44769  0.42916  1.0000
  C  Sn28      1.0  0.31460  0.47434  0.30388  1.0000
  O  Te25      1.0  0.28258  0.50018  0.11999  1.0000
  O  Te26      1.0  0.20307  0.39311  0.50399  1.0000
  O  Te27      1.0  0.27222  0.39413  0.62215  1.0000
  O  Te28      1.0  0.35172  0.50123  0.23808  1.0000
  Mg  Mg13      1.0  0.21500  0.36312  0.67252  1.0000
  Mg  Mg14      1.0  0.33983  0.53124  0.06962  1.0000
  C  Sn29      1.0  0.59294  0.85545  0.40024  1.0000
  C   C147      1.0  0.56410  0.86421  0.34815  1.0000
  C  Sn30      1.0  0.52589  0.83377  0.31234  1.0000
  C  Sn31      1.0  0.51630  0.79372  0.32903  1.0000
  C   C148      1.0  0.54513  0.78498  0.38112  1.0000
  C  Sn32      1.0  0.58335  0.81541  0.41693  1.0000
  O  Te29      1.0  0.63095  0.88636  0.43538  1.0000
  O  Te30      1.0  0.49756  0.84326  0.26042  1.0000
  O  Te31      1.0  0.47826  0.76281  0.29384  1.0000
  O  Te32      1.0  0.61167  0.80593  0.46885  1.0000
  Mg  Mg15      1.0  0.44990  0.79075  0.22733  1.0000
  Mg  Mg16      1.0  0.65933  0.85841  0.50205  1.0000
  C  Sn33      1.0  0.18077  0.69713  0.37187  1.0000
  C   C149      1.0  0.14409  0.69118  0.42417  1.0000
  C  Sn34      1.0  0.13789  0.72327  0.43994  1.0000
  C  Sn35      1.0  0.16899  0.76210  0.40255  1.0000
  C   C150      1.0  0.20564  0.76803  0.35026  1.0000
  C  Sn36      1.0  0.21187  0.73596  0.33448  1.0000
  O  Te33      1.0  0.18630  0.66462  0.35697  1.0000
  O  Te34      1.0  0.10097  0.71659  0.49251  1.0000
  O  Te35      1.0  0.16342  0.79462  0.41750  1.0000
  O  Te36      1.0  0.24875  0.74262  0.28192  1.0000
  Mg  Mg17      1.0  0.10789  0.77042  0.49357  1.0000
  Mg  Mg18      1.0  0.24187  0.68882  0.28073  1.0000
  C  Sn37      1.0  0.70625  0.52944  0.26497  1.0000
  C   C151      1.0  0.69755  0.55536  0.17861  1.0000
  C  Sn38      1.0  0.72227  0.57943  0.04927  1.0000
  C  Sn39      1.0  0.75638  0.57753  0.00524  1.0000
  C   C152      1.0  0.76506  0.55161  0.09155  1.0000
  C  Sn40      1.0  0.74036  0.52754  0.22093  1.0000
  O  Te37      1.0  0.68112  0.50565  0.39384  1.0000
  O  Te38      1.0  0.71200  0.60381  0.96480  1.0000
  O  Te39      1.0  0.78054  0.60003  0.87626  1.0000
  O  Te40      1.0  0.74964  0.50185  0.30536  1.0000
  Mg  Mg19      1.0  0.75534  0.63025  0.79825  1.0000
  Mg  Mg20      1.0  0.70632  0.47537  0.47187  1.0000
  C  Sn41      1.0  0.40591  0.16376  0.11880  1.0000
  C   C153      1.0  0.43747  0.20031  0.16817  1.0000
  C  Sn42      1.0  0.47575  0.20635  0.17348  1.0000
  C  Sn43      1.0  0.48264  0.17522  0.12840  1.0000
  C   C154      1.0  0.45110  0.13870  0.07904  1.0000
  C  Sn44      1.0  0.41280  0.13263  0.07372  1.0000
  O  Te41      1.0  0.36788  0.15838  0.11441  1.0000
  O  Te42      1.0  0.50682  0.24315  0.22330  1.0000
  O  Te43      1.0  0.52071  0.18063  0.13284  1.0000
  O  Te44      1.0  0.38174  0.09586  0.02391  1.0000
  Mg  Mg21      1.0  0.55336  0.23604  0.20904  1.0000
  Mg  Mg22      1.0  0.33520  0.10294  0.03804  1.0000
  C  Sn45      1.0  0.80099  0.28456  0.14922  1.0000
  C   C155      1.0  0.79128  0.24645  0.09940  1.0000
  C  Sn46      1.0  0.82094  0.23756  0.06474  1.0000
  C  Sn47      1.0  0.86115  0.26738  0.08029  1.0000
  C   C156      1.0  0.87084  0.30547  0.13011  1.0000
  C  Sn48      1.0  0.84119  0.31438  0.16477  1.0000
  O  Te45      1.0  0.77085  0.29278  0.18325  1.0000
  O  Te46      1.0  0.81051  0.19925  0.01508  1.0000
  O  Te47      1.0  0.89129  0.25913  0.04621  1.0000
  O  Te48      1.0  0.85161  0.35267  0.21443  1.0000
  Mg  Mg23      1.0  0.86124  0.20122  0.98279  1.0000
  Mg  Mg24      1.0  0.79994  0.34941  0.24684  1.0000
  C  Sn49      1.0  0.58947  0.66212  0.98215  1.0000
  C   C157      1.0  0.56069  0.63123  0.88603  1.0000
  C  Sn50      1.0  0.53649  0.63793  0.77809  1.0000
  C  Sn51      1.0  0.54117  0.67630  0.76588  1.0000
  C   C158      1.0  0.56993  0.70717  0.86194  1.0000
  C  Sn52      1.0  0.59414  0.70050  0.96994  1.0000
  O  Te49      1.0  0.61430  0.65608  0.08923  1.0000
  O  Te50      1.0  0.50792  0.60657  0.68330  1.0000
  O  Te51      1.0  0.51727  0.68365  0.65870  1.0000
  O  Te52      1.0  0.62367  0.73314  0.06467  1.0000
  Mg  Mg25      1.0  0.48257  0.63139  0.55530  1.0000
  Mg  Mg26      1.0  0.64905  0.70837  0.19264  1.0000
  C  Sn53      1.0  0.33651  0.86484  0.83708  1.0000
  C   C159      1.0  0.30421  0.86365  0.91793  1.0000
  C  Sn54      1.0  0.30329  0.89849  0.94513  1.0000
  C  Sn55      1.0  0.33531  0.93530  0.89029  1.0000
  C   C160      1.0  0.36758  0.93649  0.80947  1.0000
  C  Sn56      1.0  0.36853  0.90165  0.78224  1.0000
  O  Te53      1.0  0.33679  0.82963  0.81121  1.0000
  O  Te54      1.0  0.27166  0.89787  0.02629  1.0000
  O  Te55      1.0  0.33500  0.97052  0.91624  1.0000
  O  Te56      1.0  0.40110  0.90358  0.70111  1.0000
  Mg  Mg27      1.0  0.28497  0.95393  0.03249  1.0000
  Mg  Mg28      1.0  0.38781  0.84755  0.69476  1.0000
  C  Sn57      1.0  0.13583  0.47388  0.82258  1.0000
  C   C161      1.0  0.13729  0.44347  0.90966  1.0000
  C  Sn58      1.0  0.10263  0.40794  0.94495  1.0000
  C  Sn59      1.0  0.06573  0.40266  0.89202  1.0000
  C   C162      1.0  0.06428  0.43305  0.80497  1.0000
  C  Sn60      1.0  0.09893  0.46861  0.76964  1.0000
  O  Te57      1.0  0.17085  0.50916  0.78865  1.0000
  O  Te58      1.0  0.10580  0.37929  0.03223  1.0000
  O  Te59      1.0  0.03069  0.36735  0.92603  1.0000
  O  Te60      1.0  0.09674  0.49856  0.68239  1.0000
  Mg  Mg29      1.0  0.04992  0.33660  0.04848  1.0000
  Mg  Mg30      1.0  0.15260  0.54125  0.66600  1.0000
  C  Sn61      1.0  0.39478  0.32882  0.61881  1.0000
  C   C163      1.0  0.42471  0.36008  0.70926  1.0000
  C  Sn62      1.0  0.46004  0.36078  0.74307  1.0000
  C  Sn63      1.0  0.46559  0.32960  0.68519  1.0000
  C   C164      1.0  0.43568  0.29836  0.59478  1.0000
  C  Sn64      1.0  0.40033  0.29763  0.56093  1.0000
  O  Te61      1.0  0.35971  0.32872  0.58645  1.0000
  O  Te62      1.0  0.48952  0.39235  0.83379  1.0000
  O  Te63      1.0  0.50070  0.32971  0.71764  1.0000
  O  Te64      1.0  0.37087  0.26610  0.47025  1.0000
  Mg  Mg31      1.0  0.53210  0.37916  0.84614  1.0000
  Mg  Mg32      1.0  0.32828  0.27926  0.45776  1.0000
  C  Sn65      1.0  0.67001  0.13118  0.75651  1.0000
  C   C165      1.0  0.70105  0.13324  0.66155  1.0000
  C  Sn66      1.0  0.69445  0.10260  0.55217  1.0000
  C  Sn67      1.0  0.65600  0.06922  0.53730  1.0000
  C   C166      1.0  0.62497  0.06717  0.63219  1.0000
  C  Sn68      1.0  0.63156  0.09779  0.74164  1.0000
  O  Te65      1.0  0.67729  0.16215  0.86506  1.0000
  O  Te66      1.0  0.72596  0.10532  0.45858  1.0000
  O  Te67      1.0  0.64873  0.03823  0.42863  1.0000
  O  Te68      1.0  0.60007  0.09509  0.83516  1.0000
  Mg  Mg33      1.0  0.70121  0.05559  0.32775  1.0000
  Mg  Mg34      1.0  0.62478  0.14481  0.96596  1.0000
  C  Sn69      1.0  0.86771  0.53758  0.76358  1.0000
  C   C167      1.0  0.86335  0.56421  0.66047  1.0000
  C  Sn70      1.0  0.89216  0.58692  0.54060  1.0000
  C  Sn71      1.0  0.92603  0.58290  0.52334  1.0000
  C   C168      1.0  0.93037  0.55628  0.62638  1.0000
  C  Sn72      1.0  0.90157  0.53357  0.74632  1.0000
  O  Te69      1.0  0.83853  0.51518  0.88257  1.0000
  O  Te70      1.0  0.88716  0.61335  0.43900  1.0000
  O  Te71      1.0  0.95521  0.60533  0.40423  1.0000
  O  Te72      1.0  0.90656  0.50714  0.84786  1.0000
  Mg  Mg35      1.0  0.93504  0.63730  0.29519  1.0000
  Mg  Mg36      1.0  0.85869  0.48316  0.99164  1.0000
  C  Sn73      1.0  0.24317  0.41366  0.97578  1.0000
  C   C169      1.0  0.23760  0.44448  0.91977  1.0000
  C  Sn74      1.0  0.26779  0.47693  0.83424  1.0000
  C  Sn75      1.0  0.30429  0.47861  0.80395  1.0000
  C   C170      1.0  0.30984  0.44780  0.85992  1.0000
  C  Sn76      1.0  0.27967  0.41534  0.94549  1.0000
  O  Te73      1.0  0.21355  0.38282  0.06102  1.0000
  O  Te74      1.0  0.26154  0.50739  0.77950  1.0000
  O  Te75      1.0  0.33489  0.51080  0.71864  1.0000
  O  Te76      1.0  0.28688  0.38621  0.00018  1.0000
  Mg  Mg37      1.0  0.31216  0.54496  0.66881  1.0000
  Mg  Mg38      1.0  0.23627  0.34862  0.11081  1.0000
  C  Sn77      1.0  0.52814  0.80557  0.74598  1.0000
  C   C171      1.0  0.55541  0.79646  0.81530  1.0000
  C  Sn78      1.0  0.58148  0.82040  0.94011  1.0000
  C  Sn79      1.0  0.58024  0.85415  0.99691  1.0000
  C   C172      1.0  0.55298  0.86325  0.92763  1.0000
  C  Sn80      1.0  0.52691  0.83932  0.80278  1.0000
  O  Te77      1.0  0.50237  0.78122  0.62135  1.0000
  O  Te78      1.0  0.60945  0.81201  0.00747  1.0000
  O  Te79      1.0  0.60702  0.87983  0.12165  1.0000
  O  Te80      1.0  0.49991  0.84901  0.73546  1.0000
  Mg  Mg39      1.0  0.63846  0.85432  0.17462  1.0000
  Mg  Mg40      1.0  0.47088  0.80672  0.56838  1.0000
  C  Sn81      1.0  0.17262  0.75137  0.01833  1.0000
  C   C173      1.0  0.20618  0.75849  0.93224  1.0000
  C  Sn82      1.0  0.20512  0.73373  0.80345  1.0000
  C  Sn83      1.0  0.16878  0.69983  0.75969  1.0000
  C   C174      1.0  0.13428  0.69141  0.84573  1.0000
  C  Sn84      1.0  0.13532  0.71616  0.97457  1.0000
  O  Te81      1.0  0.17438  0.77654  0.14665  1.0000
  O  Te82      1.0  0.24003  0.74277  0.71924  1.0000
  O  Te83      1.0  0.16706  0.67466  0.63125  1.0000
  O  Te84      1.0  0.10141  0.70846  0.05874  1.0000
  Mg  Mg41      1.0  0.22252  0.69947  0.55342  1.0000
  Mg  Mg42      1.0  0.11888  0.75174  0.22450  1.0000
  C  Sn85      1.0  0.73196  0.58112  0.52264  1.0000
  C   C175      1.0  0.69439  0.55264  0.57895  1.0000
  C  Sn86      1.0  0.68969  0.52229  0.68736  1.0000
  C  Sn87      1.0  0.72324  0.52039  0.74070  1.0000
  C   C176      1.0  0.76078  0.54887  0.68442  1.0000
  C  Sn88      1.0  0.76551  0.57922  0.57598  1.0000
  O  Te85      1.0  0.73597  0.61119  0.41430  1.0000
  O  Te86      1.0  0.65183  0.49415  0.74192  1.0000
  O  Te87      1.0  0.71920  0.49029  0.84912  1.0000
  O  Te88      1.0  0.80334  0.60736  0.52145  1.0000
  Mg  Mg43      1.0  0.66154  0.45888  0.88891  1.0000
  Mg  Mg44      1.0  0.79367  0.64265  0.37454  1.0000
  C  Sn89      1.0  0.40482  0.16410  0.58283  1.0000
  C   C177      1.0  0.43274  0.19939  0.65861  1.0000
  C  Sn90      1.0  0.47009  0.20558  0.69954  1.0000
  C  Sn91      1.0  0.47975  0.17588  0.66388  1.0000
  C   C178      1.0  0.45184  0.14061  0.58812  1.0000
  C  Sn92      1.0  0.41448  0.13439  0.54718  1.0000
  O  Te89      1.0  0.36767  0.15855  0.54301  1.0000
  O  Te90      1.0  0.49750  0.24111  0.77529  1.0000
  O  Te91      1.0  0.51693  0.18146  0.70378  1.0000
  O  Te92      1.0  0.38708  0.09890  0.47145  1.0000
  Mg  Mg45      1.0  0.54421  0.23481  0.80566  1.0000
  Mg  Mg46      1.0  0.34037  0.10517  0.44094  1.0000
  C  Sn93      1.0  0.82587  0.29754  0.74841  1.0000
  C   C179      1.0  0.86048  0.30456  0.66713  1.0000
  C  Sn94      1.0  0.85966  0.27734  0.55129  1.0000
  C  Sn95      1.0  0.82349  0.24239  0.51588  1.0000
  C   C180      1.0  0.78890  0.23539  0.59711  1.0000
  C  Sn96      1.0  0.78969  0.26259  0.71299  1.0000
  O  Te93      1.0  0.82738  0.32517  0.86374  1.0000
  O  Te94      1.0  0.89465  0.28499  0.47166  1.0000
  O  Te95      1.0  0.82200  0.21476  0.40044  1.0000
  O  Te96      1.0  0.75473  0.25496  0.79258  1.0000
  Mg  Mg47      1.0  0.87749  0.23843  0.32429  1.0000
  Mg  Mg48      1.0  0.77185  0.30151  0.93989  1.0000
