data_image0
_chemical_formula_structural       H24C72N12C2Sn2C2HTe2HMgC2Sn2C2HTe2HMgC2Sn2C2HTe2HMgC2Sn2C2HTe2HMgC2Sn2C2HTe2HMgC2Sn2C2HTe2HMgC2Sn2C2HTe2HMgC2Sn2C2HTe2HMgC2Sn2C2HTe2HMgC2Sn2C2HTe2HMgC2Sn2C2HTe2HMgC2Sn2C2HTe2HMgC2Sn2C2HTe2HMgC2Sn2C2HTe2HMgC2Sn2C2HTe2HMgC2Sn2C2HTe2HMgC2Sn2C2HTe2HMgC2Sn2C2HTe2HMgC2Sn2C2HTe2HMgC2Sn2C2HTe2HMgC2Sn2C2HTe2HMgC2Sn2C2HTe2HMgC2Sn2C2HTe2HMgC2Sn2C2HTe2HMg
_chemical_formula_sum              "H72 C168 N12 Sn48 Te48 Mg24"
_cell_length_a       35.254
_cell_length_b       35.2894
_cell_length_c       8.01875
_cell_angle_alpha    76.3469
_cell_angle_beta     83.5794
_cell_angle_gamma    119.977

_symmetry_space_group_name_H-M    'P1'
_space_group_IT_number       1

loop_
  _space_group_symop_operation_xyz
  'x, y, z'

loop_
  _atom_site_type_symbol
  _atom_site_label
  _atom_site_symmetry_multiplicity
  _atom_site_fract_x
  _atom_site_fract_y
  _atom_site_fract_z
  _atom_site_occupancy
  H   H1        1.0  0.41931  0.42131  0.29059  1.0000
  H   H2        1.0  0.57293  0.99729  0.28672  1.0000
  H   H3        1.0  0.00425  0.58334  0.23163  1.0000
  H   H4        1.0  0.56094  0.56655  0.23473  1.0000
  H   H5        1.0  0.44370  0.01099  0.19714  1.0000
  H   H6        1.0  0.99648  0.43997  0.23211  1.0000
  H   H7        1.0  0.80065  0.54932  0.36112  1.0000
  H   H8        1.0  0.46167  0.25591  0.43620  1.0000
  H   H9        1.0  0.73112  0.18608  0.39415  1.0000
  H   H10       1.0  0.18630  0.47106  0.43378  1.0000
  H   H11       1.0  0.52799  0.71848  0.39687  1.0000
  H   H12       1.0  0.26646  0.80469  0.35145  1.0000
  H   H13       1.0  0.43759  0.43816  0.75270  1.0000
  H   H14       1.0  0.55850  0.99570  0.74293  1.0000
  H   H15       1.0  0.00427  0.56149  0.69178  1.0000
  H   H16       1.0  0.57836  0.57391  0.76725  1.0000
  H   H17       1.0  0.42345  0.00278  0.70902  1.0000
  H   H18       1.0  0.99719  0.41459  0.79075  1.0000
  H   H19       1.0  0.80225  0.52221  0.87547  1.0000
  H   H20       1.0  0.46347  0.26247  0.92255  1.0000
  H   H21       1.0  0.71261  0.17422  0.89194  1.0000
  H   H22       1.0  0.19271  0.45608  0.96614  1.0000
  H   H23       1.0  0.54264  0.73245  0.89120  1.0000
  H   H24       1.0  0.24762  0.79316  0.86030  1.0000
  C   C1        1.0  0.48906  0.53411  0.26915  1.0000
  C   C2        1.0  0.46803  0.96551  0.22604  1.0000
  C   C3        1.0  0.03963  0.50962  0.22946  1.0000
  C   C4        1.0  0.49067  0.45345  0.26867  1.0000
  C   C5        1.0  0.54810  0.04243  0.26130  1.0000
  C   C6        1.0  0.95959  0.51313  0.23754  1.0000
  C   C7        1.0  0.44851  0.49210  0.27897  1.0000
  C   C8        1.0  0.50614  0.96246  0.25040  1.0000
  C   C9        1.0  0.04142  0.55094  0.22816  1.0000
  C   C10       1.0  0.53148  0.49607  0.24880  1.0000
  C   C11       1.0  0.51011  0.04553  0.23593  1.0000
  C   C12       1.0  0.95868  0.47226  0.23347  1.0000
  C   C13       1.0  0.45056  0.45298  0.28184  1.0000
  C   C14       1.0  0.54448  0.00068  0.26927  1.0000
  C   C15       1.0  0.00157  0.55129  0.23218  1.0000
  C   C16       1.0  0.52922  0.53460  0.25043  1.0000
  C   C17       1.0  0.47167  0.00720  0.21921  1.0000
  C   C18       1.0  0.99847  0.47171  0.23284  1.0000
  C   C19       1.0  0.40655  0.48830  0.28130  1.0000
  C   C20       1.0  0.50719  0.92272  0.25551  1.0000
  C   C21       1.0  0.08170  0.59027  0.23130  1.0000
  C   C22       1.0  0.57396  0.50084  0.23567  1.0000
  C   C23       1.0  0.50817  0.08488  0.23144  1.0000
  C   C24       1.0  0.92079  0.43105  0.22903  1.0000
  C   C25       1.0  0.61071  0.50512  0.23128  1.0000
  C   C26       1.0  0.50474  0.11799  0.22516  1.0000
  C   C27       1.0  0.89110  0.39444  0.21752  1.0000
  C   C28       1.0  0.37121  0.48628  0.27206  1.0000
  C   C29       1.0  0.50911  0.88914  0.25323  1.0000
  C   C30       1.0  0.11702  0.62337  0.23655  1.0000
  C   C31       1.0  0.80125  0.52570  0.29436  1.0000
  C   C32       1.0  0.48548  0.28545  0.31423  1.0000
  C   C33       1.0  0.71653  0.19535  0.28960  1.0000
  C   C34       1.0  0.19081  0.49125  0.29706  1.0000
  C   C35       1.0  0.50940  0.70470  0.30192  1.0000
  C   C36       1.0  0.29487  0.80696  0.26730  1.0000
  C   C37       1.0  0.50765  0.54594  0.77898  1.0000
  C   C38       1.0  0.44991  0.95926  0.72246  1.0000
  C   C39       1.0  0.03947  0.48657  0.76362  1.0000
  C   C40       1.0  0.50710  0.46536  0.75374  1.0000
  C   C41       1.0  0.53161  0.03862  0.73445  1.0000
  C   C42       1.0  0.96038  0.48892  0.72815  1.0000
  C   C43       1.0  0.46746  0.50628  0.77091  1.0000
  C   C44       1.0  0.48971  0.95820  0.72951  1.0000
  C   C45       1.0  0.04107  0.52887  0.73228  1.0000
  C   C46       1.0  0.54790  0.50557  0.75336  1.0000
  C   C47       1.0  0.49214  0.04006  0.72433  1.0000
  C   C48       1.0  0.95953  0.44701  0.74921  1.0000
  C   C49       1.0  0.46858  0.46752  0.76002  1.0000
  C   C50       1.0  0.52885  0.99764  0.73687  1.0000
  C   C51       1.0  0.00178  0.52863  0.71530  1.0000
  C   C52       1.0  0.54668  0.54405  0.76734  1.0000
  C   C53       1.0  0.45282  0.00053  0.71864  1.0000
  C   C54       1.0  0.99884  0.44703  0.77077  1.0000
  C   C55       1.0  0.42547  0.50236  0.77170  1.0000
  C   C56       1.0  0.49219  0.91924  0.73466  1.0000
  C   C57       1.0  0.08005  0.57064  0.72655  1.0000
  C   C58       1.0  0.58874  0.50681  0.74602  1.0000
  C   C59       1.0  0.49104  0.07943  0.72672  1.0000
  C   C60       1.0  0.92124  0.40561  0.74756  1.0000
  C   C61       1.0  0.62298  0.50577  0.74318  1.0000
  C   C62       1.0  0.49154  0.11414  0.72998  1.0000
  C   C63       1.0  0.88861  0.37055  0.73800  1.0000
  C   C64       1.0  0.38846  0.49630  0.76398  1.0000
  C   C65       1.0  0.49693  0.88703  0.73738  1.0000
  C   C66       1.0  0.11302  0.60701  0.72455  1.0000
  C   C67       1.0  0.80352  0.50325  0.78603  1.0000
  C   C68       1.0  0.48947  0.29147  0.80311  1.0000
  C   C69       1.0  0.70150  0.18578  0.77855  1.0000
  C   C70       1.0  0.19548  0.47681  0.83401  1.0000
  C   C71       1.0  0.52199  0.71492  0.80825  1.0000
  C   C72       1.0  0.27754  0.79762  0.77728  1.0000
  N   N1        1.0  0.76903  0.50198  0.22720  1.0000
  N   N2        1.0  0.50962  0.28230  0.19048  1.0000
  N   N3        1.0  0.73431  0.23756  0.18506  1.0000
  N   N4        1.0  0.22750  0.50993  0.17080  1.0000
  N   N5        1.0  0.49273  0.72487  0.20893  1.0000
  N   N6        1.0  0.28892  0.77631  0.19276  1.0000
  N   N7        1.0  0.77179  0.48477  0.70884  1.0000
  N   N8        1.0  0.51348  0.28632  0.68673  1.0000
  N   N9        1.0  0.72422  0.22848  0.67231  1.0000
  N   N10       1.0  0.23155  0.49819  0.70156  1.0000
  N   N11       1.0  0.49996  0.72952  0.72397  1.0000
  N   N12       1.0  0.27485  0.76875  0.69742  1.0000
  C   C73       1.0  0.46335  0.62204  0.20806  1.0000
  C   C74       1.0  0.49235  0.65339  0.28309  1.0000
  C  Sn1       1.0  0.52381  0.64678  0.35463  1.0000
  C  Sn2       1.0  0.52621  0.60803  0.35075  1.0000
  C   C75       1.0  0.49707  0.57688  0.27528  1.0000
  C   C76       1.0  0.46570  0.58382  0.20412  1.0000
  H   H25       1.0  0.43909  0.62742  0.15291  1.0000
  O  Te1       1.0  0.55253  0.67842  0.42914  1.0000
  O  Te2       1.0  0.55736  0.60059  0.42125  1.0000
  H   H26       1.0  0.44327  0.55956  0.14593  1.0000
  Mg  Mg1       1.0  0.58925  0.65338  0.50839  1.0000
  C   C77       1.0  0.34826  0.89158  0.32928  1.0000
  C   C78       1.0  0.33887  0.85711  0.25336  1.0000
  C  Sn3       1.0  0.37440  0.85654  0.15998  1.0000
  C  Sn4       1.0  0.42014  0.89118  0.14256  1.0000
  C   C79       1.0  0.42918  0.92550  0.21911  1.0000
  C   C80       1.0  0.39337  0.92575  0.31222  1.0000
  H   H27       1.0  0.32056  0.89176  0.40141  1.0000
  O  Te3       1.0  0.36442  0.82186  0.08490  1.0000
  O  Te4       1.0  0.45630  0.89142  0.04999  1.0000
  H   H28       1.0  0.40065  0.95243  0.37109  1.0000
  Mg  Mg2       1.0  0.35572  0.74850  0.97127  1.0000
  C   C81       1.0  0.07729  0.46064  0.39525  1.0000
  C   C82       1.0  0.07639  0.49539  0.27220  1.0000
  C  Sn5       1.0  0.11555  0.53082  0.13627  1.0000
  C  Sn6       1.0  0.15629  0.53136  0.12360  1.0000
  C   C83       1.0  0.15683  0.49642  0.24728  1.0000
  C   C84       1.0  0.11746  0.46114  0.38281  1.0000
  H   H29       1.0  0.04683  0.43333  0.50006  1.0000
  O  Te5       1.0  0.11406  0.56528  0.01448  1.0000
  O  Te6       1.0  0.12626  0.47795  0.98902  1.0000
  H   H30       1.0  0.11816  0.43423  0.47799  1.0000
  Mg  Mg3       1.0  0.10720  0.51724  0.85477  1.0000
  C   C85       1.0  0.44882  0.35498  0.42637  1.0000
  C   C86       1.0  0.48144  0.40066  0.31561  1.0000
  C  Sn7       1.0  0.51781  0.41005  0.18575  1.0000
  C  Sn8       1.0  0.52149  0.37296  0.16670  1.0000
  C   C87       1.0  0.48865  0.32738  0.27808  1.0000
  C   C88       1.0  0.45240  0.31838  0.40763  1.0000
  H   H31       1.0  0.42075  0.34801  0.52654  1.0000
  O  Te7       1.0  0.55012  0.45589  0.07625  1.0000
  O  Te8       1.0  0.55748  0.38136  0.03797  1.0000
  H   H32       1.0  0.42713  0.28300  0.49328  1.0000
  Mg  Mg4       1.0  0.52333  0.36133  0.92053  1.0000
  C   C89       1.0  0.63785  0.16069  0.15571  1.0000
  C   C90       1.0  0.66689  0.16012  0.26008  1.0000
  C  Sn9       1.0  0.65840  0.11787  0.36854  1.0000
  C  Sn10      1.0  0.62011  0.07548  0.37227  1.0000
  C   C91       1.0  0.59129  0.07642  0.26726  1.0000
  C   C92       1.0  0.60009  0.11889  0.15925  1.0000
  H   H33       1.0  0.64468  0.19354  0.07206  1.0000
  O  Te9       1.0  0.68775  0.11793  0.47203  1.0000
  O  Te10      1.0  0.61084  0.03277  0.47942  1.0000
  H   H34       1.0  0.57762  0.11932  0.07837  1.0000
  Mg  Mg5       1.0  0.66080  0.05089  0.59654  1.0000
  C   C93       1.0  0.91313  0.55818  0.31207  1.0000
  C   C94       1.0  0.91855  0.52402  0.27635  1.0000
  C  Sn11      1.0  0.88416  0.48859  0.23192  1.0000
  C  Sn12      1.0  0.84364  0.48745  0.22315  1.0000
  C   C95       1.0  0.83857  0.52180  0.25901  1.0000
  C   C96       1.0  0.87319  0.55709  0.30339  1.0000
  H   H35       1.0  0.93993  0.58550  0.34632  1.0000
  O  Te11      1.0  0.89012  0.45472  0.19669  1.0000
  O  Te12      1.0  0.80874  0.45244  0.17901  1.0000
  H   H36       1.0  0.86899  0.58355  0.33093  1.0000
  Mg  Mg6       1.0  0.83283  0.41408  0.14237  1.0000
  C   C97       1.0  0.66034  0.46371  0.19376  1.0000
  C   C98       1.0  0.64940  0.49403  0.23487  1.0000
  C  Sn13      1.0  0.68188  0.53319  0.26805  1.0000
  C  Sn14      1.0  0.72612  0.54207  0.25976  1.0000
  C   C99       1.0  0.73673  0.51154  0.21840  1.0000
  C   C100      1.0  0.70396  0.47245  0.18550  1.0000
  H   H37       1.0  0.63499  0.43348  0.16820  1.0000
  O  Te13      1.0  0.67038  0.56312  0.30900  1.0000
  O  Te14      1.0  0.75924  0.58095  0.29227  1.0000
  H   H38       1.0  0.71245  0.44900  0.15356  1.0000
  Mg  Mg7       1.0  0.72721  0.61149  0.34280  1.0000
  C   C101      1.0  0.46315  0.16125  0.34618  1.0000
  C   C102      1.0  0.49309  0.15639  0.23716  1.0000
  C  Sn15      1.0  0.53161  0.19557  0.10906  1.0000
  C  Sn16      1.0  0.54024  0.24039  0.09010  1.0000
  C   C103      1.0  0.51009  0.24488  0.19990  1.0000
  C   C104      1.0  0.47164  0.20545  0.32761  1.0000
  H   H39       1.0  0.43341  0.13075  0.44506  1.0000
  O  Te15      1.0  0.56116  0.19008  0.00120  1.0000
  O  Te16      1.0  0.50884  0.19172  0.96319  1.0000
  H   H40       1.0  0.44848  0.20923  0.41207  1.0000
  Mg  Mg8       1.0  0.53905  0.16635  0.84754  1.0000
  C   C105      1.0  0.81811  0.27587  0.28492  1.0000
  C   C106      1.0  0.78142  0.27204  0.22172  1.0000
  C  Sn17      1.0  0.78197  0.31189  0.13808  1.0000
  C  Sn18      1.0  0.82001  0.35635  0.11750  1.0000
  C   C107      1.0  0.85657  0.35981  0.18108  1.0000
  C   C108      1.0  0.85566  0.31971  0.26461  1.0000
  H   H41       1.0  0.81743  0.24485  0.34947  1.0000
  O  Te17      1.0  0.74501  0.30743  0.07577  1.0000
  O  Te18      1.0  0.82145  0.39674  0.03436  1.0000
  H   H42       1.0  0.88409  0.32270  0.31343  1.0000
  Mg  Mg9       1.0  0.69322  0.28429  0.97170  1.0000
  C   C109      1.0  0.27672  0.45138  0.36737  1.0000
  C   C110      1.0  0.32250  0.47978  0.26972  1.0000
  C  Sn19      1.0  0.33836  0.52176  0.13537  1.0000
  C  Sn20      1.0  0.30775  0.53548  0.09843  1.0000
  C   C111      1.0  0.26202  0.50685  0.19696  1.0000
  C   C112      1.0  0.24650  0.46490  0.33107  1.0000
  H   H43       1.0  0.26471  0.41894  0.47120  1.0000
  O  Te19      1.0  0.38421  0.54970  0.03904  1.0000
  O  Te20      1.0  0.25305  0.48887  0.96492  1.0000
  H   H44       1.0  0.21106  0.44294  0.40673  1.0000
  Mg  Mg10      1.0  0.31866  0.51506  0.87016  1.0000
  C   C113      1.0  0.46321  0.80493  0.18526  1.0000
  C   C114      1.0  0.49521  0.83949  0.24083  1.0000
  C  Sn21      1.0  0.53253  0.83855  0.27870  1.0000
  C  Sn22      1.0  0.53782  0.80231  0.26043  1.0000
  C   C115      1.0  0.50563  0.76791  0.20463  1.0000
  C   C116      1.0  0.46841  0.76918  0.16714  1.0000
  H   H45       1.0  0.43443  0.80592  0.15616  1.0000
  O  Te21      1.0  0.56418  0.87335  0.33413  1.0000
  O  Te22      1.0  0.57480  0.80054  0.29734  1.0000
  H   H46       1.0  0.44365  0.74243  0.12401  1.0000
  Mg  Mg11      1.0  0.60884  0.85587  0.36873  1.0000
  C   C117      1.0  0.23547  0.69193  0.14697  1.0000
  C   C118      1.0  0.24501  0.73178  0.18647  1.0000
  C  Sn23      1.0  0.20959  0.73536  0.26003  1.0000
  C  Sn24      1.0  0.16379  0.69830  0.29459  1.0000
  C   C119      1.0  0.15459  0.65856  0.25471  1.0000
  C   C120      1.0  0.19030  0.65534  0.18108  1.0000
  H   H47       1.0  0.26309  0.68942  0.09009  1.0000
  O  Te23      1.0  0.21973  0.77544  0.29863  1.0000
  O  Te24      1.0  0.12773  0.70096  0.36810  1.0000
  H   H48       1.0  0.18290  0.62447  0.15062  1.0000
  Mg  Mg12      1.0  0.15886  0.76271  0.39761  1.0000
  C   C121      1.0  0.55186  0.63125  0.85992  1.0000
  C   C122      1.0  0.51794  0.59468  0.81863  1.0000
  C  Sn25      1.0  0.48381  0.59825  0.75812  1.0000
  C  Sn26      1.0  0.48374  0.63923  0.73867  1.0000
  C   C123      1.0  0.51784  0.67563  0.78020  1.0000
  C   C124      1.0  0.55182  0.67169  0.84070  1.0000
  H   H49       1.0  0.57817  0.62821  0.90664  1.0000
  O  Te25      1.0  0.45017  0.56138  0.71753  1.0000
  O  Te26      1.0  0.45004  0.64372  0.67839  1.0000
  H   H50       1.0  0.57810  0.70001  0.87255  1.0000
  Mg  Mg13      1.0  0.41148  0.58398  0.64016  1.0000
  C   C125      1.0  0.35214  0.90527  0.82774  1.0000
  C   C126      1.0  0.39604  0.91626  0.76015  1.0000
  C  Sn27      1.0  0.40251  0.88822  0.67890  1.0000
  C  Sn28      1.0  0.36426  0.84849  0.66521  1.0000
  C   C127      1.0  0.32048  0.83781  0.73313  1.0000
  C   C128      1.0  0.31439  0.86610  0.81423  1.0000
  H   H51       1.0  0.84727  0.92717  0.89040  1.0000
  O  Te27      1.0  0.44660  0.89969  0.61214  1.0000
  O  Te28      1.0  0.36975  0.81988  0.58459  1.0000
  H   H52       1.0  0.28040  0.85760  0.86645  1.0000
  Mg  Mg14      1.0  0.43661  0.84995  0.51389  1.0000
  C   C129      1.0  0.15523  0.52107  0.65081  1.0000
  C   C130      1.0  0.15878  0.49078  0.78619  1.0000
  C  Sn29      1.0  0.12020  0.45463  0.92296  1.0000
  C  Sn30      1.0  0.07732  0.44878  0.92381  1.0000
  C   C131      1.0  0.07412  0.47924  0.78770  1.0000
  C   C132      1.0  0.11294  0.51531  0.65152  1.0000
  H   H53       1.0  0.18526  0.54896  0.54539  1.0000
  O  Te29      1.0  0.19400  0.51309  0.05722  1.0000
  O  Te30      1.0  0.10786  0.50133  0.05886  1.0000
  H   H54       1.0  0.11018  0.53874  0.54666  1.0000
  Mg  Mg15      1.0  0.13089  0.46950  0.21249  1.0000
  C   C133      1.0  0.45748  0.34377  0.91166  1.0000
  C   C134      1.0  0.48447  0.33482  0.80723  1.0000
  C  Sn31      1.0  0.52374  0.37147  0.67467  1.0000
  C  Sn32      1.0  0.53615  0.41789  0.64648  1.0000
  C   C135      1.0  0.50893  0.42647  0.75174  1.0000
  C   C136      1.0  0.46969  0.38954  0.88399  1.0000
  H   H55       1.0  0.49678  0.40360  0.01405  1.0000
  O  Te31      1.0  0.55032  0.36191  0.57150  1.0000
  O  Te32      1.0  0.57523  0.45517  0.51495  1.0000
  H   H56       1.0  0.44882  0.39648  0.96490  1.0000
  Mg  Mg16      1.0  0.60042  0.42444  0.40860  1.0000
  C   C137      1.0  0.62433  0.15627  0.63151  1.0000
  C   C138      1.0  0.65214  0.15366  0.73888  1.0000
  C  Sn33      1.0  0.64133  0.11049  0.84857  1.0000
  C  Sn34      1.0  0.60193  0.06923  0.85050  1.0000
  C   C139      1.0  0.57434  0.07221  0.74250  1.0000
  C   C140      1.0  0.58547  0.11559  0.63328  1.0000
  H   H57       1.0  0.63295  0.18983  0.54693  1.0000
  O  Te33      1.0  0.66948  0.10851  0.95505  1.0000
  O  Te34      1.0  0.59034  0.02563  0.95882  1.0000
  H   H58       1.0  0.56394  0.11760  0.55008  1.0000
  Mg  Mg17      1.0  0.70905  0.12933  0.08015  1.0000
  C   C141      1.0  0.85067  0.46229  0.67377  1.0000
  C   C142      1.0  0.84115  0.48892  0.75333  1.0000
  C  Sn35      1.0  0.87366  0.52037  0.81829  1.0000
  C  Sn36      1.0  0.91646  0.52519  0.80308  1.0000
  C   C143      1.0  0.92566  0.49841  0.72315  1.0000
  C   C144      1.0  0.89288  0.46703  0.65865  1.0000
  H   H59       1.0  0.82532  0.43803  0.62377  1.0000
  O  Te35      1.0  0.86359  0.54670  0.89746  1.0000
  O  Te36      1.0  0.94957  0.55637  0.86681  1.0000
  H   H60       1.0  0.90026  0.44643  0.59695  1.0000
  Mg  Mg18      1.0  0.91979  0.58450  0.96413  1.0000
  C   C145      1.0  0.68309  0.45300  0.69707  1.0000
  C   C146      1.0  0.72686  0.48407  0.70514  1.0000
  C  Sn37      1.0  0.73698  0.52460  0.74003  1.0000
  C  Sn38      1.0  0.70257  0.53409  0.76733  1.0000
  C   C147      1.0  0.65888  0.50276  0.75911  1.0000
  C   C148      1.0  0.64912  0.46232  0.72405  1.0000
  H   H61       1.0  0.67553  0.42169  0.67005  1.0000
  O  Te37      1.0  0.78090  0.55528  0.74756  1.0000
  O  Te38      1.0  0.71175  0.57432  0.80248  1.0000
  H   H62       1.0  0.61522  0.43825  0.71793  1.0000
  Mg  Mg19      1.0  0.77678  0.60547  0.79946  1.0000
  C   C149      1.0  0.54171  0.21208  0.58843  1.0000
  C   C150      1.0  0.50770  0.16701  0.70044  1.0000
  C  Sn39      1.0  0.46977  0.15910  0.81599  1.0000
  C  Sn40      1.0  0.46591  0.19708  0.81913  1.0000
  C   C151      1.0  0.50010  0.24203  0.70646  1.0000
  C   C152      1.0  0.53792  0.24956  0.59139  1.0000
  H   H63       1.0  0.57095  0.21790  0.49932  1.0000
  O  Te39      1.0  0.43612  0.11386  0.92706  1.0000
  O  Te40      1.0  0.42836  0.19016  0.93328  1.0000
  H   H64       1.0  0.56423  0.28445  0.50460  1.0000
  Mg  Mg20      1.0  0.46106  0.21050  0.05934  1.0000
  C   C153      1.0  0.81058  0.34035  0.61149  1.0000
  C   C154      1.0  0.84078  0.33739  0.70455  1.0000
  C  Sn41      1.0  0.83398  0.29420  0.78916  1.0000
  C  Sn42      1.0  0.79623  0.25326  0.78014  1.0000
  C   C155      1.0  0.76623  0.25658  0.68660  1.0000
  C   C156      1.0  0.77335  0.29999  0.60247  1.0000
  H   H65       1.0  0.81610  0.37393  0.54631  1.0000
  O  Te41      1.0  0.86447  0.29187  0.88163  1.0000
  O  Te42      1.0  0.78864  0.20964  0.86343  1.0000
  H   H66       1.0  0.74998  0.30226  0.53033  1.0000
  Mg  Mg21      1.0  0.83968  0.22440  0.97335  1.0000
  C   C157      1.0  0.29287  0.45286  0.88491  1.0000
  C   C158      1.0  0.33719  0.48352  0.77345  1.0000
  C  Sn43      1.0  0.34756  0.52219  0.63264  1.0000
  C  Sn44      1.0  0.31285  0.53022  0.60323  1.0000
  C   C159      1.0  0.26862  0.49935  0.71557  1.0000
  C   C160      1.0  0.25861  0.46076  0.85604  1.0000
  H   H67       1.0  0.28512  0.42302  0.99366  1.0000
  O  Te43      1.0  0.39202  0.55246  0.52251  1.0000
  O  Te44      1.0  0.32228  0.56860  0.46352  1.0000
  H   H68       1.0  0.22429  0.43705  0.94239  1.0000
  Mg  Mg22      1.0  0.38805  0.59989  0.34973  1.0000
  C   C161      1.0  0.45885  0.77893  0.68963  1.0000
  C   C162      1.0  0.49368  0.77129  0.70753  1.0000
  C  Sn45      1.0  0.53197  0.80297  0.74912  1.0000
  C  Sn46      1.0  0.53535  0.84301  0.77320  1.0000
  C   C163      1.0  0.50030  0.85032  0.75512  1.0000
  C   C164      1.0  0.46214  0.81840  0.71342  1.0000
  H   H69       1.0  0.42931  0.75422  0.65746  1.0000
  O  Te45      1.0  0.56646  0.79482  0.76646  1.0000
  O  Te46      1.0  0.57323  0.87523  0.81490  1.0000
  H   H70       1.0  0.43517  0.82430  0.69968  1.0000
  Mg  Mg23      1.0  0.61135  0.84883  0.82449  1.0000
  C   C165      1.0  0.20866  0.66442  0.63428  1.0000
  C   C166      1.0  0.16329  0.64729  0.71359  1.0000
  C  Sn47      1.0  0.15231  0.67384  0.78746  1.0000
  C  Sn48      1.0  0.18747  0.71836  0.78158  1.0000
  C   C167      1.0  0.23276  0.73520  0.70182  1.0000
  C   C168      1.0  0.24336  0.70834  0.62836  1.0000
  H   H71       1.0  0.21686  0.64365  0.57735  1.0000
  O  Te47      1.0  0.10680  0.65620  0.86624  1.0000
  O  Te48      1.0  0.17746  0.74564  0.85433  1.0000
  H   H72       1.0  0.27849  0.72162  0.56686  1.0000
  Mg  Mg24      1.0  0.11030  0.70643  0.94722  1.0000
