data_image0
_chemical_formula_structural       H24C72N12SnCSn2CSnTe4Mg2SnCSn2CSnTe4Mg2SnCSn2CSnTe4Mg2SnCSn2CSnTe4Mg2SnCSn2CSnTe4Mg2SnCSn2CSnTe4Mg2SnCSn2CSnTe4Mg2SnCSn2CSnTe4Mg2SnCSn2CSnTe4Mg2SnCSn2CSnTe4Mg2SnCSn2CSnTe4Mg2SnCSn2CSnTe4Mg2SnCSn2CSnTe4Mg2SnCSn2CSnTe4Mg2SnCSn2CSnTe4Mg2SnCSn2CSnTe4Mg2SnCSn2CSnTe4Mg2SnCSn2CSnTe4Mg2SnCSn2CSnTe4Mg2SnCSn2CSnTe4Mg2SnCSn2CSnTe4Mg2SnCSn2CSnTe4Mg2SnCSn2CSnTe4Mg2SnCSn2CSnTe4Mg2
_chemical_formula_sum              "H24 C120 N12 Sn96 Te96 Mg48"
_cell_length_a       35.254
_cell_length_b       35.2894
_cell_length_c       8.01875
_cell_angle_alpha    76.3469
_cell_angle_beta     83.5794
_cell_angle_gamma    119.977

_symmetry_space_group_name_H-M    'P1'
_space_group_IT_number       1

loop_
  _space_group_symop_operation_xyz
  'x, y, z'

loop_
  _atom_site_type_symbol
  _atom_site_label
  _atom_site_symmetry_multiplicity
  _atom_site_fract_x
  _atom_site_fract_y
  _atom_site_fract_z
  _atom_site_occupancy
  H   H1        1.0  0.41931  0.42131  0.29059  1.0000
  H   H2        1.0  0.57293  0.99729  0.28672  1.0000
  H   H3        1.0  0.00425  0.58334  0.23163  1.0000
  H   H4        1.0  0.56094  0.56655  0.23473  1.0000
  H   H5        1.0  0.44370  0.01099  0.19714  1.0000
  H   H6        1.0  0.99648  0.43997  0.23211  1.0000
  H   H7        1.0  0.80065  0.54932  0.36112  1.0000
  H   H8        1.0  0.46167  0.25591  0.43620  1.0000
  H   H9        1.0  0.73112  0.18608  0.39415  1.0000
  H   H10       1.0  0.18630  0.47106  0.43378  1.0000
  H   H11       1.0  0.52799  0.71848  0.39687  1.0000
  H   H12       1.0  0.26646  0.80469  0.35145  1.0000
  H   H13       1.0  0.43759  0.43816  0.75270  1.0000
  H   H14       1.0  0.55850  0.99570  0.74293  1.0000
  H   H15       1.0  0.00427  0.56149  0.69178  1.0000
  H   H16       1.0  0.57836  0.57391  0.76725  1.0000
  H   H17       1.0  0.42345  0.00278  0.70902  1.0000
  H   H18       1.0  0.99719  0.41459  0.79075  1.0000
  H   H19       1.0  0.80225  0.52221  0.87547  1.0000
  H   H20       1.0  0.46347  0.26247  0.92255  1.0000
  H   H21       1.0  0.71261  0.17422  0.89194  1.0000
  H   H22       1.0  0.19271  0.45608  0.96614  1.0000
  H   H23       1.0  0.54264  0.73245  0.89120  1.0000
  H   H24       1.0  0.24762  0.79316  0.86030  1.0000
  C   C1        1.0  0.48906  0.53411  0.26915  1.0000
  C   C2        1.0  0.46803  0.96551  0.22604  1.0000
  C   C3        1.0  0.03963  0.50962  0.22946  1.0000
  C   C4        1.0  0.49067  0.45345  0.26867  1.0000
  C   C5        1.0  0.54810  0.04243  0.26130  1.0000
  C   C6        1.0  0.95959  0.51313  0.23754  1.0000
  C   C7        1.0  0.44851  0.49210  0.27897  1.0000
  C   C8        1.0  0.50614  0.96246  0.25040  1.0000
  C   C9        1.0  0.04142  0.55094  0.22816  1.0000
  C   C10       1.0  0.53148  0.49607  0.24880  1.0000
  C   C11       1.0  0.51011  0.04553  0.23593  1.0000
  C   C12       1.0  0.95868  0.47226  0.23347  1.0000
  C   C13       1.0  0.45056  0.45298  0.28184  1.0000
  C   C14       1.0  0.54448  0.00068  0.26927  1.0000
  C   C15       1.0  0.00157  0.55129  0.23218  1.0000
  C   C16       1.0  0.52922  0.53460  0.25043  1.0000
  C   C17       1.0  0.47167  0.00720  0.21921  1.0000
  C   C18       1.0  0.99847  0.47171  0.23284  1.0000
  C   C19       1.0  0.40655  0.48830  0.28130  1.0000
  C   C20       1.0  0.50719  0.92272  0.25551  1.0000
  C   C21       1.0  0.08170  0.59027  0.23130  1.0000
  C   C22       1.0  0.57396  0.50084  0.23567  1.0000
  C   C23       1.0  0.50817  0.08488  0.23144  1.0000
  C   C24       1.0  0.92079  0.43105  0.22903  1.0000
  C   C25       1.0  0.61071  0.50512  0.23128  1.0000
  C   C26       1.0  0.50474  0.11799  0.22516  1.0000
  C   C27       1.0  0.89110  0.39444  0.21752  1.0000
  C   C28       1.0  0.37121  0.48628  0.27206  1.0000
  C   C29       1.0  0.50911  0.88914  0.25323  1.0000
  C   C30       1.0  0.11702  0.62337  0.23655  1.0000
  C   C31       1.0  0.80125  0.52570  0.29436  1.0000
  C   C32       1.0  0.48548  0.28545  0.31423  1.0000
  C   C33       1.0  0.71653  0.19535  0.28960  1.0000
  C   C34       1.0  0.19081  0.49125  0.29706  1.0000
  C   C35       1.0  0.50940  0.70470  0.30192  1.0000
  C   C36       1.0  0.29487  0.80696  0.26730  1.0000
  C   C37       1.0  0.50765  0.54594  0.77898  1.0000
  C   C38       1.0  0.44991  0.95926  0.72246  1.0000
  C   C39       1.0  0.03947  0.48657  0.76362  1.0000
  C   C40       1.0  0.50710  0.46536  0.75374  1.0000
  C   C41       1.0  0.53161  0.03862  0.73445  1.0000
  C   C42       1.0  0.96038  0.48892  0.72815  1.0000
  C   C43       1.0  0.46746  0.50628  0.77091  1.0000
  C   C44       1.0  0.48971  0.95820  0.72951  1.0000
  C   C45       1.0  0.04107  0.52887  0.73228  1.0000
  C   C46       1.0  0.54790  0.50557  0.75336  1.0000
  C   C47       1.0  0.49214  0.04006  0.72433  1.0000
  C   C48       1.0  0.95953  0.44701  0.74921  1.0000
  C   C49       1.0  0.46858  0.46752  0.76002  1.0000
  C   C50       1.0  0.52885  0.99764  0.73687  1.0000
  C   C51       1.0  0.00178  0.52863  0.71530  1.0000
  C   C52       1.0  0.54668  0.54405  0.76734  1.0000
  C   C53       1.0  0.45282  0.00053  0.71864  1.0000
  C   C54       1.0  0.99884  0.44703  0.77077  1.0000
  C   C55       1.0  0.42547  0.50236  0.77170  1.0000
  C   C56       1.0  0.49219  0.91924  0.73466  1.0000
  C   C57       1.0  0.08005  0.57064  0.72655  1.0000
  C   C58       1.0  0.58874  0.50681  0.74602  1.0000
  C   C59       1.0  0.49104  0.07943  0.72672  1.0000
  C   C60       1.0  0.92124  0.40561  0.74756  1.0000
  C   C61       1.0  0.62298  0.50577  0.74318  1.0000
  C   C62       1.0  0.49154  0.11414  0.72998  1.0000
  C   C63       1.0  0.88861  0.37055  0.73800  1.0000
  C   C64       1.0  0.38846  0.49630  0.76398  1.0000
  C   C65       1.0  0.49693  0.88703  0.73738  1.0000
  C   C66       1.0  0.11302  0.60701  0.72455  1.0000
  C   C67       1.0  0.80352  0.50325  0.78603  1.0000
  C   C68       1.0  0.48947  0.29147  0.80311  1.0000
  C   C69       1.0  0.70150  0.18578  0.77855  1.0000
  C   C70       1.0  0.19548  0.47681  0.83401  1.0000
  C   C71       1.0  0.52199  0.71492  0.80825  1.0000
  C   C72       1.0  0.27754  0.79762  0.77728  1.0000
  N   N1        1.0  0.76903  0.50198  0.22720  1.0000
  N   N2        1.0  0.50962  0.28230  0.19048  1.0000
  N   N3        1.0  0.73431  0.23756  0.18506  1.0000
  N   N4        1.0  0.22750  0.50993  0.17080  1.0000
  N   N5        1.0  0.49273  0.72487  0.20893  1.0000
  N   N6        1.0  0.28892  0.77631  0.19276  1.0000
  N   N7        1.0  0.77179  0.48477  0.70884  1.0000
  N   N8        1.0  0.51348  0.28632  0.68673  1.0000
  N   N9        1.0  0.72422  0.22848  0.67231  1.0000
  N   N10       1.0  0.23155  0.49819  0.70156  1.0000
  N   N11       1.0  0.49996  0.72952  0.72397  1.0000
  N   N12       1.0  0.27485  0.76875  0.69742  1.0000
  C  Sn1       1.0  0.54168  0.64603  0.30871  1.0000
  C   C73       1.0  0.51622  0.66457  0.25618  1.0000
  C  Sn2       1.0  0.47407  0.63670  0.22747  1.0000
  C  Sn3       1.0  0.45700  0.58930  0.25187  1.0000
  C   C74       1.0  0.48245  0.57078  0.30440  1.0000
  C  Sn4       1.0  0.52461  0.59863  0.33311  1.0000
  O  Te1       1.0  0.58373  0.67453  0.33667  1.0000
  O  Te2       1.0  0.44924  0.65602  0.17494  1.0000
  O  Te3       1.0  0.41491  0.56080  0.22386  1.0000
  O  Te4       1.0  0.54943  0.57932  0.38563  1.0000
  Mg  Mg1       1.0  0.39374  0.60314  0.15338  1.0000
  Mg  Mg2       1.0  0.60492  0.63217  0.40732  1.0000
  C  Sn5       1.0  0.41441  0.89100  0.09529  1.0000
  C   C75       1.0  0.42286  0.92621  0.16589  1.0000
  C  Sn6       1.0  0.38855  0.92039  0.29522  1.0000
  C  Sn7       1.0  0.34488  0.87848  0.35534  1.0000
  C   C76       1.0  0.33645  0.84330  0.28477  1.0000
  C  Sn8       1.0  0.37074  0.84910  0.15540  1.0000
  O  Te5       1.0  0.37957  0.80918  0.96611  1.0000
  O  Te6       1.0  0.39781  0.95609  0.36378  1.0000
  O  Te7       1.0  0.31007  0.87193  0.48461  1.0000
  O  Te8       1.0  0.36151  0.81342  0.08688  1.0000
  Mg  Mg3       1.0  0.33929  0.93067  0.53755  1.0000
  Mg  Mg4       1.0  0.35035  0.75039  0.91319  1.0000
  C  Sn9       1.0  0.08212  0.47250  0.41701  1.0000
  C   C77       1.0  0.08103  0.50489  0.28172  1.0000
  C  Sn10      1.0  0.11623  0.53165  0.12359  1.0000
  C  Sn11      1.0  0.15329  0.52590  0.10014  1.0000
  C   C78       1.0  0.15437  0.49352  0.23536  1.0000
  C  Sn12      1.0  0.11919  0.46675  0.39356  1.0000
  O  Te9       1.0  0.04656  0.44612  0.57399  1.0000
  O  Te10      1.0  0.04473  0.47541  0.99025  1.0000
  O  Te11      1.0  0.11921  0.46391  0.94300  1.0000
  O  Te12      1.0  0.12102  0.43460  0.52682  1.0000
  Mg  Mg5       1.0  0.10129  0.50318  0.80028  1.0000
  Mg  Mg6       1.0  0.06447  0.40679  0.71680  1.0000
  C  Sn13      1.0  0.51822  0.40255  0.12015  1.0000
  C   C79       1.0  0.48928  0.40827  0.23053  1.0000
  C  Sn14      1.0  0.46040  0.37360  0.39401  1.0000
  C  Sn15      1.0  0.46047  0.33237  0.44836  1.0000
  C   C80       1.0  0.48940  0.32667  0.33804  1.0000
  C  Sn16      1.0  0.51828  0.36131  0.17451  1.0000
  O  Te13      1.0  0.47715  0.34926  0.95728  1.0000
  O  Te14      1.0  0.43177  0.38010  0.50205  1.0000
  O  Te15      1.0  0.43185  0.29724  0.61138  1.0000
  O  Te16      1.0  0.54691  0.35483  0.06652  1.0000
  Mg  Mg7       1.0  0.39905  0.32228  0.71196  1.0000
  Mg  Mg8       1.0  0.51001  0.32423  0.85663  1.0000
  C  Sn17      1.0  0.62166  0.13724  0.12384  1.0000
  C   C81       1.0  0.60086  0.08977  0.21502  1.0000
  C  Sn18      1.0  0.61489  0.07471  0.35843  1.0000
  C  Sn19      1.0  0.65045  0.10778  0.41189  1.0000
  C   C82       1.0  0.67122  0.15522  0.32075  1.0000
  C  Sn20      1.0  0.65721  0.17032  0.17730  1.0000
  O  Te17      1.0  0.53742  0.06311  0.98086  1.0000
  O  Te18      1.0  0.59359  0.02706  0.44749  1.0000
  O  Te19      1.0  0.66502  0.09347  0.55499  1.0000
  O  Te20      1.0  0.67849  0.21793  0.08829  1.0000
  Mg  Mg9       1.0  0.62546  0.02481  0.63423  1.0000
  Mg  Mg10      1.0  0.57698  0.13182  0.90160  1.0000
  C  Sn21      1.0  0.87442  0.49095  0.16299  1.0000
  C   C83       1.0  0.91561  0.51902  0.19798  1.0000
  C  Sn22      1.0  0.91889  0.54765  0.29721  1.0000
  C  Sn23      1.0  0.88019  0.54824  0.36295  1.0000
  C   C84       1.0  0.83904  0.52018  0.32799  1.0000
  C  Sn24      1.0  0.83572  0.49153  0.22874  1.0000
  O  Te21      1.0  0.87192  0.46259  0.06351  1.0000
  O  Te22      1.0  0.96043  0.57542  0.33041  1.0000
  O  Te23      1.0  0.88273  0.57663  0.46250  1.0000
  O  Te24      1.0  0.79421  0.46378  0.19556  1.0000
  Mg  Mg11      1.0  0.94680  0.60816  0.47255  1.0000
  Mg  Mg12      1.0  0.80780  0.43101  0.05352  1.0000
  C  Sn25      1.0  0.65586  0.45889  0.25401  1.0000
  C   C85       1.0  0.64739  0.49225  0.27734  1.0000
  C  Sn26      1.0  0.68332  0.53644  0.26193  1.0000
  C  Sn27      1.0  0.72865  0.54753  0.22225  1.0000
  C   C86       1.0  0.73711  0.51418  0.19892  1.0000
  C  Sn28      1.0  0.70120  0.46998  0.21434  1.0000
  O  Te25      1.0  0.61943  0.41494  0.27003  1.0000
  O  Te26      1.0  0.67400  0.56921  0.28588  1.0000
  O  Te27      1.0  0.76510  0.59153  0.20625  1.0000
  O  Te28      1.0  0.71050  0.43723  0.19038  1.0000
  Mg  Mg13      1.0  0.73510  0.62433  0.25052  1.0000
  Mg  Mg14      1.0  0.64944  0.38211  0.22561  1.0000
  C  Sn29      1.0  0.54991  0.21427  0.12292  1.0000
  C   C87       1.0  0.51668  0.16821  0.22775  1.0000
  C  Sn30      1.0  0.47354  0.15614  0.31401  1.0000
  C  Sn31      1.0  0.46338  0.19082  0.29501  1.0000
  C   C88       1.0  0.49659  0.23685  0.19021  1.0000
  C  Sn32      1.0  0.53975  0.24896  0.10392  1.0000
  O  Te29      1.0  0.59281  0.22555  0.03789  1.0000
  O  Te30      1.0  0.44088  0.10986  0.41815  1.0000
  O  Te31      1.0  0.42044  0.17950  0.38015  1.0000
  O  Te32      1.0  0.50274  0.20680  0.99981  1.0000
  Mg  Mg15      1.0  0.38737  0.11172  0.50745  1.0000
  Mg  Mg16      1.0  0.55626  0.20498  0.91038  1.0000
  C  Sn33      1.0  0.84527  0.30091  0.23752  1.0000
  C   C89       1.0  0.85778  0.34711  0.17236  1.0000
  C  Sn34      1.0  0.82609  0.35753  0.12740  1.0000
  C  Sn35      1.0  0.78094  0.32101  0.14810  1.0000
  C   C90       1.0  0.76845  0.27485  0.21325  1.0000
  C  Sn36      1.0  0.80012  0.26440  0.25822  1.0000
  O  Te33      1.0  0.87751  0.29130  0.28164  1.0000
  O  Te34      1.0  0.83940  0.40398  0.06246  1.0000
  O  Te35      1.0  0.74870  0.33066  0.10391  1.0000
  O  Te36      1.0  0.78683  0.21798  0.32315  1.0000
  Mg  Mg17      1.0  0.78319  0.39942  0.02080  1.0000
  Mg  Mg18      1.0  0.84300  0.22250  0.36494  1.0000
  C  Sn37      1.0  0.26071  0.46358  0.37932  1.0000
  C   C91       1.0  0.26230  0.50009  0.25622  1.0000
  C  Sn38      1.0  0.30068  0.53171  0.11148  1.0000
  C  Sn39      1.0  0.33823  0.52671  0.08923  1.0000
  C   C92       1.0  0.33663  0.49021  0.21226  1.0000
  C  Sn40      1.0  0.29827  0.45857  0.35707  1.0000
  O  Te37      1.0  0.22200  0.43237  0.52302  1.0000
  O  Te38      1.0  0.23183  0.47955  0.99020  1.0000
  O  Te39      1.0  0.30731  0.46955  0.94538  1.0000
  O  Te40      1.0  0.29745  0.42235  0.47828  1.0000
  Mg  Mg19      1.0  0.29222  0.51317  0.81595  1.0000
  Mg  Mg20      1.0  0.23708  0.38870  0.65252  1.0000
  C  Sn41      1.0  0.45872  0.79919  0.24558  1.0000
  C   C93       1.0  0.49360  0.83574  0.28359  1.0000
  C  Sn42      1.0  0.53573  0.84064  0.27328  1.0000
  C  Sn43      1.0  0.54315  0.80835  0.22384  1.0000
  C   C94       1.0  0.50828  0.77184  0.18583  1.0000
  C  Sn44      1.0  0.46614  0.76691  0.19614  1.0000
  O  Te41      1.0  0.41688  0.79497  0.25673  1.0000
  O  Te42      1.0  0.57008  0.87745  0.31195  1.0000
  O  Te43      1.0  0.58503  0.81261  0.21272  1.0000
  O  Te44      1.0  0.43181  0.73013  0.15747  1.0000
  Mg  Mg21      1.0  0.62121  0.86853  0.27801  1.0000
  Mg  Mg22      1.0  0.38067  0.73903  0.19128  1.0000
  C  Sn45      1.0  0.16990  0.71343  0.24545  1.0000
  C   C95       1.0  0.16131  0.67491  0.19710  1.0000
  C  Sn46      1.0  0.19540  0.66597  0.16728  1.0000
  C  Sn47      1.0  0.23898  0.69614  0.18628  1.0000
  C   C96       1.0  0.24755  0.73462  0.23464  1.0000
  C  Sn48      1.0  0.21348  0.74360  0.26446  1.0000
  O  Te45      1.0  0.13531  0.72169  0.27462  1.0000
  O  Te46      1.0  0.18600  0.62726  0.11900  1.0000
  O  Te47      1.0  0.27357  0.68785  0.15707  1.0000
  O  Te48      1.0  0.22285  0.78228  0.31274  1.0000
  Mg  Mg23      1.0  0.24423  0.63064  0.09376  1.0000
  Mg  Mg24      1.0  0.16465  0.77892  0.33810  1.0000
  C  Sn49      1.0  0.55912  0.65946  0.81251  1.0000
  C   C97       1.0  0.53177  0.67597  0.76507  1.0000
  C  Sn50      1.0  0.48908  0.64623  0.74464  1.0000
  C  Sn51      1.0  0.47339  0.59898  0.77231  1.0000
  C   C98       1.0  0.50072  0.58248  0.81975  1.0000
  C  Sn52      1.0  0.54342  0.61220  0.84018  1.0000
  O  Te49      1.0  0.60168  0.68981  0.83220  1.0000
  O  Te50      1.0  0.46236  0.66355  0.69709  1.0000
  O  Te51      1.0  0.43079  0.56862  0.75257  1.0000
  O  Te52      1.0  0.57014  0.59491  0.88773  1.0000
  Mg  Mg25      1.0  0.40687  0.60859  0.68639  1.0000
  Mg  Mg26      1.0  0.62562  0.64982  0.89855  1.0000
  C  Sn53      1.0  0.33002  0.88872  0.78870  1.0000
  C   C99       1.0  0.32172  0.85241  0.72517  1.0000
  C  Sn54      1.0  0.35675  0.84605  0.67391  1.0000
  C  Sn55      1.0  0.40099  0.87659  0.68652  1.0000
  C   C100      1.0  0.40928  0.91286  0.75004  1.0000
  C  Sn56      1.0  0.37427  0.91926  0.80130  1.0000
  O  Te53      1.0  0.29449  0.89442  0.83920  1.0000
  O  Te54      1.0  0.34763  0.80952  0.61075  1.0000
  O  Te55      1.0  0.43653  0.87086  0.63594  1.0000
  O  Te56      1.0  0.88322  0.95576  0.86445  1.0000
  Mg  Mg27      1.0  0.40722  0.81599  0.55831  1.0000
  Mg  Mg28      1.0  0.82366  0.94930  0.91702  1.0000
  C  Sn57      1.0  0.15703  0.52699  0.69570  1.0000
  C   C101      1.0  0.15871  0.49341  0.82225  1.0000
  C  Sn58      1.0  0.11866  0.45133  0.92634  1.0000
  C  Sn59      1.0  0.07605  0.44260  0.90339  1.0000
  C   C102      1.0  0.07439  0.47616  0.77689  1.0000
  C  Sn60      1.0  0.11441  0.51826  0.67276  1.0000
  O  Te57      1.0  0.19748  0.56882  0.59311  1.0000
  O  Te58      1.0  0.19085  0.50670  0.05203  1.0000
  O  Te59      1.0  0.10523  0.48914  0.00613  1.0000
  O  Te60      1.0  0.11189  0.55127  0.54711  1.0000
  Mg  Mg29      1.0  0.12631  0.45503  0.15980  1.0000
  Mg  Mg30      1.0  0.17641  0.60295  0.43921  1.0000
  C  Sn61      1.0  0.54283  0.39001  0.68474  1.0000
  C   C103      1.0  0.50748  0.34534  0.79514  1.0000
  C  Sn62      1.0  0.46618  0.33746  0.88085  1.0000
  C  Sn63      1.0  0.46006  0.37500  0.85561  1.0000
  C   C104      1.0  0.49539  0.41964  0.74525  1.0000
  C  Sn64      1.0  0.53672  0.42755  0.65951  1.0000
  O  Te61      1.0  0.58383  0.39708  0.60038  1.0000
  O  Te62      1.0  0.43134  0.29250  0.99062  1.0000
  O  Te63      1.0  0.41902  0.36789  0.94009  1.0000
  O  Te64      1.0  0.57153  0.47248  0.54977  1.0000
  Mg  Mg31      1.0  0.45138  0.38880  0.07650  1.0000
  Mg  Mg32      1.0  0.62115  0.46462  0.46376  1.0000
  C  Sn65      1.0  0.60233  0.07384  0.90011  1.0000
  C   C105      1.0  0.57437  0.07752  0.79553  1.0000
  C  Sn66      1.0  0.59082  0.11857  0.65477  1.0000
  C  Sn67      1.0  0.63617  0.15674  0.61768  1.0000
  C   C106      1.0  0.66411  0.15306  0.72220  1.0000
  C  Sn68      1.0  0.64768  0.11201  0.86302  1.0000
  O  Te65      1.0  0.65482  0.12087  0.04015  1.0000
  O  Te66      1.0  0.56222  0.12143  0.55212  1.0000
  O  Te67      1.0  0.65331  0.19814  0.47751  1.0000
  O  Te68      1.0  0.67626  0.10915  0.96561  1.0000
  Mg  Mg33      1.0  0.60123  0.18513  0.37573  1.0000
  Mg  Mg34      1.0  0.70694  0.13386  0.14196  1.0000
  C  Sn69      1.0  0.84533  0.45425  0.73301  1.0000
  C   C107      1.0  0.83857  0.48466  0.79641  1.0000
  C  Sn70      1.0  0.87527  0.52368  0.81489  1.0000
  C  Sn71      1.0  0.91967  0.53251  0.76894  1.0000
  C   C108      1.0  0.92641  0.50212  0.70555  1.0000
  C  Sn72      1.0  0.88972  0.46308  0.68705  1.0000
  O  Te69      1.0  0.80814  0.41545  0.71559  1.0000
  O  Te70      1.0  0.86767  0.55357  0.87862  1.0000
  O  Te71      1.0  0.95687  0.57135  0.78642  1.0000
  O  Te72      1.0  0.89731  0.43320  0.62334  1.0000
  Mg  Mg35      1.0  0.92923  0.60182  0.87891  1.0000
  Mg  Mg36      1.0  0.83578  0.38496  0.62291  1.0000
  C  Sn73      1.0  0.72756  0.52686  0.81361  1.0000
  C   C109      1.0  0.73171  0.49225  0.77525  1.0000
  C  Sn74      1.0  0.70064  0.46259  0.70057  1.0000
  C  Sn75      1.0  0.66469  0.46763  0.66334  1.0000
  C   C110      1.0  0.66056  0.50222  0.70167  1.0000
  C  Sn76      1.0  0.69162  0.53191  0.77639  1.0000
  O  Te73      1.0  0.75902  0.55613  0.88824  1.0000
  O  Te74      1.0  0.70547  0.42824  0.66344  1.0000
  O  Te75      1.0  0.63323  0.43832  0.58866  1.0000
  O  Te76      1.0  0.68681  0.56624  0.81348  1.0000
  Mg  Mg37      1.0  0.65410  0.39685  0.56194  1.0000
  Mg  Mg38      1.0  0.73817  0.59766  0.91489  1.0000
  C  Sn77      1.0  0.54533  0.21037  0.64089  1.0000
  C   C111      1.0  0.50868  0.16533  0.74081  1.0000
  C  Sn78      1.0  0.46661  0.15740  0.81663  1.0000
  C  Sn79      1.0  0.46103  0.19528  0.79199  1.0000
  C   C112      1.0  0.49766  0.24030  0.69210  1.0000
  C  Sn80      1.0  0.53975  0.24826  0.61625  1.0000
  O  Te77      1.0  0.58708  0.21749  0.56630  1.0000
  O  Te78      1.0  0.43048  0.11206  0.91603  1.0000
  O  Te79      1.0  0.41924  0.18813  0.86668  1.0000
  O  Te80      1.0  0.57586  0.29357  0.51688  1.0000
  Mg  Mg39      1.0  0.38023  0.12005  0.99095  1.0000
  Mg  Mg40      1.0  0.62611  0.28561  0.44182  1.0000
  C  Sn81      1.0  0.79481  0.31903  0.56800  1.0000
  C   C113      1.0  0.77537  0.27110  0.63784  1.0000
  C  Sn82      1.0  0.79071  0.25295  0.76818  1.0000
  C  Sn83      1.0  0.82620  0.28335  0.83011  1.0000
  C   C114      1.0  0.84561  0.33125  0.76031  1.0000
  C  Sn84      1.0  0.83030  0.34942  0.62993  1.0000
  O  Te81      1.0  0.77894  0.33640  0.43779  1.0000
  O  Te82      1.0  0.77076  0.20491  0.83595  1.0000
  O  Te83      1.0  0.84206  0.26593  0.96042  1.0000
  O  Te84      1.0  0.85022  0.39743  0.56220  1.0000
  Mg  Mg41      1.0  0.87373  0.28636  0.01167  1.0000
  Mg  Mg42      1.0  0.81692  0.40442  0.38655  1.0000
  C  Sn85      1.0  0.27479  0.46268  0.89854  1.0000
  C   C115      1.0  0.27061  0.49441  0.77318  1.0000
  C  Sn86      1.0  0.30582  0.52583  0.61765  1.0000
  C  Sn87      1.0  0.34605  0.52550  0.58669  1.0000
  C   C116      1.0  0.35021  0.49378  0.71198  1.0000
  C  Sn88      1.0  0.31502  0.46235  0.86758  1.0000
  O  Te85      1.0  0.30881  0.51999  0.05309  1.0000
  O  Te86      1.0  0.30086  0.55723  0.49431  1.0000
  O  Te87      1.0  0.38169  0.55663  0.43198  1.0000
  O  Te88      1.0  0.31996  0.43096  0.99085  1.0000
  Mg  Mg43      1.0  0.35885  0.59272  0.30390  1.0000
  Mg  Mg44      1.0  0.33164  0.48384  0.18125  1.0000
  C  Sn89      1.0  0.54608  0.84492  0.71915  1.0000
  C   C117      1.0  0.51197  0.85300  0.69074  1.0000
  C  Sn90      1.0  0.46931  0.81672  0.69421  1.0000
  C  Sn91      1.0  0.46055  0.77141  0.72687  1.0000
  C   C118      1.0  0.49465  0.76334  0.75529  1.0000
  C  Sn92      1.0  0.53732  0.79960  0.75181  1.0000
  O  Te89      1.0  0.58848  0.88170  0.71510  1.0000
  O  Te90      1.0  0.43575  0.82566  0.66538  1.0000
  O  Te91      1.0  0.41811  0.73462  0.73090  1.0000
  O  Te92      1.0  0.57087  0.79069  0.78065  1.0000
  Mg  Mg45      1.0  0.38341  0.76416  0.68404  1.0000
  Mg  Mg46      1.0  0.62321  0.85214  0.76212  1.0000
  C  Sn93      1.0  0.15699  0.69697  0.74166  1.0000
  C   C119      1.0  0.15342  0.66097  0.68567  1.0000
  C  Sn94      1.0  0.19078  0.65692  0.65368  1.0000
  C  Sn95      1.0  0.23259  0.68951  0.67827  1.0000
  C   C120      1.0  0.23614  0.72548  0.73425  1.0000
  C  Sn96      1.0  0.19879  0.72956  0.76624  1.0000
  O  Te93      1.0  0.11920  0.70035  0.77285  1.0000
  O  Te94      1.0  0.18639  0.62065  0.59774  1.0000
  O  Te95      1.0  0.27039  0.68611  0.64702  1.0000
  O  Te96      1.0  0.20317  0.76580  0.82219  1.0000
  Mg  Mg47      1.0  0.24754  0.63066  0.57254  1.0000
  Mg  Mg48      1.0  0.14204  0.75580  0.84751  1.0000
