data_image0
_chemical_formula_structural       H64C136N8SnCSn2CSnTe4Mg2SnCSn2CSnTe4Mg2SnCSn2CSnTe4Mg2SnCSn2CSnTe4Mg2SnCSn2CSnTe4Mg2SnCSn2CSnTe4Mg2SnCSn2CSnTe4Mg2SnCSn2CSnTe4Mg2
_chemical_formula_sum              "H64 C152 N8 Sn32 Te32 Mg16"
_cell_length_a       28.3305
_cell_length_b       28.754
_cell_length_c       8.05405
_cell_angle_alpha    87.6554
_cell_angle_beta     111.994
_cell_angle_gamma    90.5885

_symmetry_space_group_name_H-M    'P1'
_space_group_IT_number       1

loop_
  _space_group_symop_operation_xyz
  'x, y, z'

loop_
  _atom_site_type_symbol
  _atom_site_label
  _atom_site_symmetry_multiplicity
  _atom_site_fract_x
  _atom_site_fract_y
  _atom_site_fract_z
  _atom_site_occupancy
  H   H1        1.0  0.60821  0.44814  0.17214  1.0000
  H   H2        1.0  0.39374  0.74561  0.24283  1.0000
  H   H3        1.0  0.32463  0.79691  0.24615  1.0000
  H   H4        1.0  0.25926  0.68200  0.44256  1.0000
  H   H5        1.0  0.32864  0.62983  0.43700  1.0000
  H   H6        1.0  0.24672  0.81662  0.13761  1.0000
  H   H7        1.0  0.12918  0.96978  0.28018  1.0000
  H   H8        1.0  0.92940  0.17750  0.19724  1.0000
  H   H9        1.0  0.85295  0.22243  0.17380  1.0000
  H   H10       1.0  0.80327  0.10710  0.42199  1.0000
  H   H11       1.0  0.87943  0.06246  0.44776  1.0000
  H   H12       1.0  0.39669  0.55059  0.32227  1.0000
  H   H13       1.0  0.75818  0.18273  0.37043  1.0000
  H   H14       1.0  0.87654  0.02944  0.22596  1.0000
  H   H15       1.0  0.07761  0.82300  0.32259  1.0000
  H   H16       1.0  0.15396  0.77753  0.34667  1.0000
  H   H17       1.0  0.20229  0.89103  0.08578  1.0000
  H   H18       1.0  0.12613  0.93603  0.05828  1.0000
  H   H19       1.0  0.38911  0.46447  0.32406  1.0000
  H   H20       1.0  0.61316  0.71522  0.43824  1.0000
  H   H21       1.0  0.68408  0.76250  0.41994  1.0000
  H   H22       1.0  0.74971  0.78775  0.39461  1.0000
  H   H23       1.0  0.87794  0.94939  0.14151  1.0000
  H   H24       1.0  0.04634  0.17876  0.19889  1.0000
  H   H25       1.0  0.11817  0.23385  0.24277  1.0000
  H   H26       1.0  0.61561  0.53421  0.16868  1.0000
  H   H27       1.0  0.38291  0.28193  0.02607  1.0000
  H   H28       1.0  0.31225  0.23321  0.04322  1.0000
  H   H29       1.0  0.20824  0.33339  0.19068  1.0000
  H   H30       1.0  0.28075  0.38104  0.17483  1.0000
  H   H31       1.0  0.24733  0.21393  0.10340  1.0000
  H   H32       1.0  0.12753  0.05006  0.36081  1.0000
  H   H33       1.0  0.51520  0.65959  0.23879  1.0000
  H   H34       1.0  0.48970  0.33906  0.25397  1.0000
  H   H35       1.0  0.00080  0.15190  0.40660  1.0000
  H   H36       1.0  0.00450  0.84741  0.09701  1.0000
  H   H37       1.0  0.60343  0.45017  0.67350  1.0000
  H   H38       1.0  0.24285  0.81602  0.64515  1.0000
  H   H39       1.0  0.12485  0.97104  0.77929  1.0000
  H   H40       1.0  0.39194  0.55230  0.82583  1.0000
  H   H41       1.0  0.75436  0.18320  0.87403  1.0000
  H   H42       1.0  0.87251  0.02984  0.73125  1.0000
  H   H43       1.0  0.07130  0.82340  0.81682  1.0000
  H   H44       1.0  0.14738  0.77722  0.84352  1.0000
  H   H45       1.0  0.19847  0.89065  0.59042  1.0000
  H   H46       1.0  0.12309  0.93673  0.56384  1.0000
  H   H47       1.0  0.38399  0.46616  0.82403  1.0000
  H   H48       1.0  0.79109  0.67142  0.81751  1.0000
  H   H49       1.0  0.71929  0.62291  0.83381  1.0000
  H   H50       1.0  0.75267  0.78723  0.88934  1.0000
  H   H51       1.0  0.87407  0.94990  0.64745  1.0000
  H   H52       1.0  0.21515  0.14477  0.67421  1.0000
  H   H53       1.0  0.14416  0.08921  0.62705  1.0000
  H   H54       1.0  0.60990  0.53620  0.66564  1.0000
  H   H55       1.0  0.38603  0.28203  0.53863  1.0000
  H   H56       1.0  0.31440  0.23505  0.55363  1.0000
  H   H57       1.0  0.20390  0.33300  0.69950  1.0000
  H   H58       1.0  0.27516  0.38263  0.68383  1.0000
  H   H59       1.0  0.24925  0.21571  0.60143  1.0000
  H   H60       1.0  0.12285  0.05142  0.85804  1.0000
  H   H61       1.0  0.51020  0.66142  0.74280  1.0000
  H   H62       1.0  0.48505  0.34089  0.75881  1.0000
  H   H63       1.0  0.99679  0.15310  0.90526  1.0000
  H   H64       1.0  0.00030  0.84844  0.59756  1.0000
  C   C1        1.0  0.47091  0.60112  0.26971  1.0000
  C   C2        1.0  0.46621  0.55157  0.27082  1.0000
  C   C3        1.0  0.57991  0.46976  0.19361  1.0000
  C   C4        1.0  0.43441  0.62955  0.29659  1.0000
  C   C5        1.0  0.40281  0.65450  0.31954  1.0000
  C   C6        1.0  0.36519  0.68386  0.33454  1.0000
  C   C7        1.0  0.36405  0.73178  0.28545  1.0000
  C   C8        1.0  0.32490  0.76028  0.28586  1.0000
  C   C9        1.0  0.28548  0.74218  0.33596  1.0000
  C   C10       1.0  0.28843  0.69511  0.39568  1.0000
  C   C11       1.0  0.32704  0.66622  0.39276  1.0000
  C   C12       1.0  0.22825  0.80450  0.22970  1.0000
  C   C13       1.0  0.95590  0.09047  0.32679  1.0000
  C   C14       1.0  0.95641  0.04313  0.28127  1.0000
  C   C15       1.0  0.09371  0.98451  0.27683  1.0000
  C   C16       1.0  0.90994  0.11571  0.32014  1.0000
  C   C17       1.0  0.90206  0.16195  0.24804  1.0000
  C   C18       1.0  0.85906  0.18719  0.23254  1.0000
  C   C19       1.0  0.82200  0.16758  0.29099  1.0000
  C   C20       1.0  0.83025  0.12217  0.36816  1.0000
  C   C21       1.0  0.87315  0.09671  0.38125  1.0000
  C   C22       1.0  0.53368  0.39766  0.22171  1.0000
  C   C23       1.0  0.53822  0.44721  0.22018  1.0000
  C   C24       1.0  0.42469  0.52899  0.29862  1.0000
  C   C25       1.0  0.57041  0.36955  0.19506  1.0000
  C   C26       1.0  0.60255  0.34503  0.17337  1.0000
  C   C27       1.0  0.77746  0.19445  0.28036  1.0000
  C   C28       1.0  0.04962  0.90866  0.17960  1.0000
  C   C29       1.0  0.04918  0.95611  0.22420  1.0000
  C   C30       1.0  0.91191  0.01475  0.22849  1.0000
  C   C31       1.0  0.09591  0.88335  0.18962  1.0000
  C   C32       1.0  0.10438  0.83770  0.26742  1.0000
  C   C33       1.0  0.14732  0.81226  0.28345  1.0000
  C   C34       1.0  0.18384  0.83126  0.22110  1.0000
  C   C35       1.0  0.17541  0.87637  0.14099  1.0000
  C   C36       1.0  0.13248  0.90197  0.12658  1.0000
  C   C37       1.0  0.54989  0.59534  0.21377  1.0000
  C   C38       1.0  0.54663  0.54570  0.21759  1.0000
  C   C39       1.0  0.42056  0.48141  0.29972  1.0000
  C   C40       1.0  0.59040  0.61829  0.18345  1.0000
  C   C41       1.0  0.62484  0.63941  0.15711  1.0000
  C   C42       1.0  0.78679  0.78024  0.01063  1.0000
  C   C43       1.0  0.04656  0.09772  0.37127  1.0000
  C   C44       1.0  0.04797  0.05060  0.32689  1.0000
  C   C45       1.0  0.91254  0.96987  0.18007  1.0000
  C   C46       1.0  0.09034  0.12958  0.40713  1.0000
  C   C47       1.0  0.08335  0.17154  0.30377  1.0000
  C   C48       1.0  0.12312  0.20239  0.32750  1.0000
  C   C49       1.0  0.17148  0.19283  0.46021  1.0000
  C   C50       1.0  0.45468  0.40326  0.27767  1.0000
  C   C51       1.0  0.45776  0.45295  0.27325  1.0000
  C   C52       1.0  0.58403  0.51730  0.19223  1.0000
  C   C53       1.0  0.41415  0.38030  0.30814  1.0000
  C   C54       1.0  0.37946  0.35960  0.33447  1.0000
  C   C55       1.0  0.33853  0.33480  0.35519  1.0000
  C   C56       1.0  0.34708  0.29338  0.46330  1.0000
  C   C57       1.0  0.30661  0.26727  0.47238  1.0000
  C   C58       1.0  0.25583  0.28143  0.37401  1.0000
  C   C59       1.0  0.24740  0.32302  0.26825  1.0000
  C   C60       1.0  0.28775  0.34950  0.25985  1.0000
  C   C61       1.0  0.21478  0.22308  0.48171  1.0000
  C   C62       1.0  0.95857  0.90198  0.12993  1.0000
  C   C63       1.0  0.95748  0.94897  0.17603  1.0000
  C   C64       1.0  0.09294  0.02957  0.32349  1.0000
  C   C65       1.0  0.50431  0.52414  0.24466  1.0000
  C   C66       1.0  0.51224  0.62189  0.24006  1.0000
  C   C67       1.0  0.49998  0.47455  0.24562  1.0000
  C   C68       1.0  0.49246  0.37678  0.25181  1.0000
  C   C69       1.0  0.00250  0.02327  0.27878  1.0000
  C   C70       1.0  0.00099  0.11603  0.36940  1.0000
  C   C71       1.0  0.00304  0.97620  0.22541  1.0000
  C   C72       1.0  0.00430  0.88329  0.13435  1.0000
  C   C73       1.0  0.46654  0.60284  0.77673  1.0000
  C   C74       1.0  0.46180  0.55330  0.77646  1.0000
  C   C75       1.0  0.57514  0.47162  0.69584  1.0000
  C   C76       1.0  0.43033  0.63084  0.80721  1.0000
  C   C77       1.0  0.39860  0.65513  0.83245  1.0000
  C   C78       1.0  0.22297  0.80385  0.73276  1.0000
  C   C79       1.0  0.95176  0.09148  0.82741  1.0000
  C   C80       1.0  0.95225  0.04396  0.78350  1.0000
  C   C81       1.0  0.08942  0.98555  0.77687  1.0000
  C   C82       1.0  0.52939  0.39927  0.72669  1.0000
  C   C83       1.0  0.53384  0.44888  0.72446  1.0000
  C   C84       1.0  0.42006  0.53073  0.80273  1.0000
  C   C85       1.0  0.56609  0.37083  0.70062  1.0000
  C   C86       1.0  0.59796  0.34599  0.67853  1.0000
  C   C87       1.0  0.77303  0.19487  0.78217  1.0000
  C   C88       1.0  0.04546  0.90969  0.68053  1.0000
  C   C89       1.0  0.04500  0.95709  0.72533  1.0000
  C   C90       1.0  0.90786  0.01540  0.73250  1.0000
  C   C91       1.0  0.09154  0.88409  0.69069  1.0000
  C   C92       1.0  0.09889  0.83808  0.76526  1.0000
  C   C93       1.0  0.14156  0.81217  0.78207  1.0000
  C   C94       1.0  0.17870  0.83098  0.72221  1.0000
  C   C95       1.0  0.17116  0.87627  0.64408  1.0000
  C   C96       1.0  0.12870  0.90247  0.63020  1.0000
  C   C97       1.0  0.54483  0.59734  0.71571  1.0000
  C   C98       1.0  0.54176  0.54764  0.71993  1.0000
  C   C99       1.0  0.41574  0.48319  0.80187  1.0000
  C   C100      1.0  0.58525  0.62031  0.68411  1.0000
  C   C101      1.0  0.62008  0.64072  0.65755  1.0000
  C   C102      1.0  0.66100  0.66560  0.63674  1.0000
  C   C103      1.0  0.65218  0.70540  0.51989  1.0000
  C   C104      1.0  0.69234  0.73186  0.50995  1.0000
  C   C105      1.0  0.74322  0.71990  0.61734  1.0000
  C   C106      1.0  0.75193  0.67995  0.73230  1.0000
  C   C107      1.0  0.71190  0.65297  0.74108  1.0000
  C   C108      1.0  0.78434  0.77914  0.51209  1.0000
  C   C109      1.0  0.04250  0.09848  0.87236  1.0000
  C   C110      1.0  0.04366  0.05142  0.82737  1.0000
  C   C111      1.0  0.90853  0.97054  0.68379  1.0000
  C   C112      1.0  0.17822  0.15186  0.56824  1.0000
  C   C113      1.0  0.13846  0.12047  0.54111  1.0000
  C   C114      1.0  0.44996  0.40513  0.78019  1.0000
  C   C115      1.0  0.45317  0.45479  0.77639  1.0000
  C   C116      1.0  0.57885  0.51923  0.69251  1.0000
  C   C117      1.0  0.40921  0.38217  0.80874  1.0000
  C   C118      1.0  0.37436  0.36124  0.83287  1.0000
  C   C119      1.0  0.33404  0.33558  0.85357  1.0000
  C   C120      1.0  0.34367  0.29316  0.95595  1.0000
  C   C121      1.0  0.30393  0.26613  0.96624  1.0000
  C   C122      1.0  0.25286  0.28039  0.87433  1.0000
  C   C123      1.0  0.24336  0.32276  0.77285  1.0000
  C   C124      1.0  0.28299  0.35025  0.76419  1.0000
  C   C125      1.0  0.21277  0.22146  0.98423  1.0000
  C   C126      1.0  0.95449  0.90280  0.63161  1.0000
  C   C127      1.0  0.95333  0.94974  0.67828  1.0000
  C   C128      1.0  0.08853  0.03063  0.82258  1.0000
  C   C129      1.0  0.49981  0.52595  0.74916  1.0000
  C   C130      1.0  0.50742  0.62372  0.74437  1.0000
  C   C131      1.0  0.49558  0.47631  0.74990  1.0000
  C   C132      1.0  0.48795  0.37858  0.75600  1.0000
  C   C133      1.0  0.99825  0.02406  0.78030  1.0000
  C   C134      1.0  0.99689  0.11707  0.86935  1.0000
  C   C135      1.0  0.99883  0.97703  0.72687  1.0000
  C   C136      1.0  0.00017  0.88430  0.63523  1.0000
  N   N1        1.0  0.24343  0.76772  0.33428  1.0000
  N   N2        1.0  0.76312  0.23122  0.17523  1.0000
  N   N3        1.0  0.78854  0.74825  0.13062  1.0000
  N   N4        1.0  0.21267  0.25571  0.36351  1.0000
  N   N5        1.0  0.23669  0.76649  0.83474  1.0000
  N   N6        1.0  0.75811  0.23150  0.67666  1.0000
  N   N7        1.0  0.78634  0.74582  0.62775  1.0000
  N   N8        1.0  0.21028  0.25426  0.86631  1.0000
  C  Sn1       1.0  0.75011  0.66506  0.19472  1.0000
  C   C137      1.0  0.74676  0.70759  0.10052  1.0000
  C  Sn2       1.0  0.70080  0.73225  0.03198  1.0000
  C  Sn3       1.0  0.65729  0.71403  0.05823  1.0000
  C   C138      1.0  0.66066  0.67152  0.15240  1.0000
  C  Sn4       1.0  0.70660  0.64684  0.22097  1.0000
  O  Te1       1.0  0.79645  0.64100  0.26206  1.0000
  O  Te2       1.0  0.80474  0.76431  0.93820  1.0000
  O  Te3       1.0  0.71730  0.72774  0.99078  1.0000
  O  Te4       1.0  0.70904  0.60442  0.31472  1.0000
  Mg  Mg1       1.0  0.73308  0.78413  0.87226  1.0000
  Mg  Mg2       1.0  0.78068  0.58459  0.38079  1.0000
  C  Sn5       1.0  0.88319  0.80973  0.71801  1.0000
  C   C139      1.0  0.83378  0.81385  0.58951  1.0000
  C  Sn6       1.0  0.82301  0.84529  0.44304  1.0000
  C  Sn7       1.0  0.86247  0.87319  0.42453  1.0000
  C   C140      1.0  0.91185  0.86906  0.55295  1.0000
  C  Sn8       1.0  0.92265  0.83762  0.69950  1.0000
  O  Te5       1.0  0.89308  0.77806  0.86335  1.0000
  O  Te6       1.0  0.77331  0.84881  0.31634  1.0000
  O  Te7       1.0  0.85254  0.90487  0.27903  1.0000
  O  Te8       1.0  0.97231  0.83410  0.82612  1.0000
  Mg  Mg3       1.0  0.77881  0.89699  0.14180  1.0000
  Mg  Mg4       1.0  0.86050  0.79630  0.00066  1.0000
  C  Sn9       1.0  0.65472  0.26146  0.25951  1.0000
  C   C141      1.0  0.64802  0.30891  0.21175  1.0000
  C  Sn10      1.0  0.67575  0.33060  0.11923  1.0000
  C  Sn11      1.0  0.71088  0.30431  0.07340  1.0000
  C   C142      1.0  0.71755  0.25689  0.12113  1.0000
  C  Sn12      1.0  0.68985  0.23518  0.21368  1.0000
  O  Te9       1.0  0.62660  0.24050  0.35196  1.0000
  O  Te10      1.0  0.66841  0.37808  0.07298  1.0000
  O  Te11      1.0  0.84537  0.31494  0.98088  1.0000
  O  Te12      1.0  0.69717  0.18772  0.25990  1.0000
  Mg  Mg5       1.0  0.82197  0.38051  0.94738  1.0000
  Mg  Mg6       1.0  0.64997  0.17487  0.38540  1.0000
  C  Sn13      1.0  0.88526  0.81080  0.21909  1.0000
  C   C143      1.0  0.83620  0.81501  0.08822  1.0000
  C  Sn14      1.0  0.93277  0.83545  0.94040  1.0000
  C  Sn15      1.0  0.97284  0.86262  0.92295  1.0000
  C   C144      1.0  0.91551  0.86878  0.05374  1.0000
  C  Sn16      1.0  0.92534  0.83797  0.20164  1.0000
  O  Te13      1.0  0.89418  0.77976  0.36575  1.0000
  O  Te14      1.0  0.88340  0.83906  0.81133  1.0000
  O  Te15      1.0  0.96388  0.89367  0.77614  1.0000
  O  Te16      1.0  0.97466  0.83434  0.33063  1.0000
  Mg  Mg7       1.0  0.89027  0.88621  0.63574  1.0000
  Mg  Mg8       1.0  0.96785  0.78719  0.50622  1.0000
  C  Sn17      1.0  0.14105  0.13165  0.09388  1.0000
  C   C145      1.0  0.19850  0.12444  0.96155  1.0000
  C  Sn18      1.0  0.18839  0.15504  0.81292  1.0000
  C  Sn19      1.0  0.22800  0.18303  0.79613  1.0000
  C   C146      1.0  0.27688  0.17985  0.92839  1.0000
  C  Sn20      1.0  0.18066  0.15964  0.07709  1.0000
  O  Te17      1.0  0.15030  0.10082  0.24132  1.0000
  O  Te18      1.0  0.13918  0.15762  0.68239  1.0000
  O  Te19      1.0  0.21871  0.21388  0.64853  1.0000
  O  Te20      1.0  0.22984  0.15706  0.20755  1.0000
  Mg  Mg9       1.0  0.14548  0.20488  0.50617  1.0000
  Mg  Mg10      1.0  0.22359  0.10979  0.38376  1.0000
  C  Sn21      1.0  0.71601  0.31647  0.66608  1.0000
  C   C147      1.0  0.72137  0.26857  0.70548  1.0000
  C  Sn22      1.0  0.68011  0.24219  0.70962  1.0000
  C  Sn23      1.0  0.63249  0.26415  0.67352  1.0000
  C   C148      1.0  0.62715  0.31201  0.63412  1.0000
  C  Sn24      1.0  0.66839  0.33842  0.62998  1.0000
  O  Te21      1.0  0.75777  0.34215  0.66267  1.0000
  O  Te22      1.0  0.68640  0.19436  0.74940  1.0000
  O  Te23      1.0  0.59072  0.23842  0.67696  1.0000
  O  Te24      1.0  0.66212  0.38622  0.59020  1.0000
  Mg  Mg11      1.0  0.61822  0.17428  0.73783  1.0000
  Mg  Mg12      1.0  0.73026  0.40633  0.60164  1.0000
  C  Sn25      1.0  0.36191  0.74323  0.86201  1.0000
  C   C149      1.0  0.36680  0.69498  0.89165  1.0000
  C  Sn26      1.0  0.32491  0.66801  0.88521  1.0000
  C  Sn27      1.0  0.27711  0.68971  0.84827  1.0000
  C   C150      1.0  0.27223  0.73793  0.81862  1.0000
  C  Sn28      1.0  0.31412  0.76493  0.82506  1.0000
  O  Te25      1.0  0.40430  0.76951  0.86908  1.0000
  O  Te26      1.0  0.33073  0.61984  0.91535  1.0000
  O  Te27      1.0  0.23470  0.66338  0.84122  1.0000
  O  Te28      1.0  0.30830  0.81308  0.79492  1.0000
  Mg  Mg13      1.0  0.26175  0.59896  0.89141  1.0000
  Mg  Mg14      1.0  0.37725  0.83398  0.81874  1.0000
  C  Sn29      1.0  0.89666  0.17580  0.78289  1.0000
  C   C151      1.0  0.91070  0.13060  0.85375  1.0000
  C  Sn30      1.0  0.87533  0.10095  0.88532  1.0000
  C  Sn31      1.0  0.82485  0.11680  0.84512  1.0000
  C   C152      1.0  0.81084  0.16197  0.77428  1.0000
  C  Sn32      1.0  0.84619  0.19165  0.74269  1.0000
  O  Te29      1.0  0.93265  0.20484  0.75241  1.0000
  O  Te30      1.0  0.89026  0.05592  0.95630  1.0000
  O  Te31      1.0  0.78886  0.08772  0.87567  1.0000
  O  Te32      1.0  0.83127  0.23666  0.67173  1.0000
  Mg  Mg15      1.0  0.82748  0.02938  0.97402  1.0000
  Mg  Mg16      1.0  0.89402  0.26321  0.65387  1.0000
