data_image0
_chemical_formula_structural       H96C204N12C2Sn2C2HTe2HMgC2Sn2C2HTe2HMgC2Sn2C2HTe2HMgC2Sn2C2HTe2HMgC2Sn2C2HTe2HMgC2Sn2C2HTe2HMgC2Sn2C2HTe2HMgC2Sn2C2HTe2HMgC2Sn2C2HTe2HMgC2Sn2C2HTe2HMgC2Sn2C2HTe2HMgC2Sn2C2HTe2HMg
_chemical_formula_sum              "H120 C252 N12 Sn24 Te24 Mg12"
_cell_length_a       39.1724
_cell_length_b       39.05
_cell_length_c       7.94281
_cell_angle_alpha    89.7654
_cell_angle_beta     89.9134
_cell_angle_gamma    120.145

_symmetry_space_group_name_H-M    'P1'
_space_group_IT_number       1

loop_
  _space_group_symop_operation_xyz
  'x, y, z'

loop_
  _atom_site_type_symbol
  _atom_site_label
  _atom_site_symmetry_multiplicity
  _atom_site_fract_x
  _atom_site_fract_y
  _atom_site_fract_z
  _atom_site_occupancy
  H   H1        1.0  0.62094  0.61819  0.23289  1.0000
  H   H2        1.0  0.38235  0.99977  0.22168  1.0000
  H   H3        1.0  0.00160  0.38175  0.22965  1.0000
  H   H4        1.0  0.38319  0.38344  0.28332  1.0000
  H   H5        1.0  0.61781  0.00031  0.26771  1.0000
  H   H6        1.0  0.00170  0.61786  0.25445  1.0000
  H   H7        1.0  0.51374  0.42207  0.08299  1.0000
  H   H8        1.0  0.57825  0.09131  0.06722  1.0000
  H   H9        1.0  0.91352  0.48748  0.03788  1.0000
  H   H10       1.0  0.49124  0.57895  0.44529  1.0000
  H   H11       1.0  0.42196  0.90912  0.42630  1.0000
  H   H12       1.0  0.09065  0.51238  0.43230  1.0000
  H   H13       1.0  0.57709  0.48483  0.07281  1.0000
  H   H14       1.0  0.51489  0.09033  0.05166  1.0000
  H   H15       1.0  0.91331  0.42443  0.03738  1.0000
  H   H16       1.0  0.42765  0.51630  0.45407  1.0000
  H   H17       1.0  0.48526  0.90990  0.43993  1.0000
  H   H18       1.0  0.08999  0.57515  0.44048  1.0000
  H   H19       1.0  0.61383  0.65225  0.48734  1.0000
  H   H20       1.0  0.03951  0.38800  0.47816  1.0000
  H   H21       1.0  0.64978  0.03869  0.01881  1.0000
  H   H22       1.0  0.62108  0.71638  0.03472  1.0000
  H   H23       1.0  0.28155  0.90672  0.01549  1.0000
  H   H24       1.0  0.37622  0.28400  0.47842  1.0000
  H   H25       1.0  0.89743  0.61232  0.44314  1.0000
  H   H26       1.0  0.51456  0.68084  0.23712  1.0000
  H   H27       1.0  0.16946  0.48522  0.23138  1.0000
  H   H28       1.0  0.68412  0.16884  0.26300  1.0000
  H   H29       1.0  0.51064  0.61634  0.18373  1.0000
  H   H30       1.0  0.11049  0.49213  0.17889  1.0000
  H   H31       1.0  0.61824  0.10990  0.31980  1.0000
  H   H32       1.0  0.49700  0.83249  0.25563  1.0000
  H   H33       1.0  0.50483  0.16766  0.19779  1.0000
  H   H34       1.0  0.49592  0.76816  0.23614  1.0000
  H   H35       1.0  0.50599  0.23185  0.22831  1.0000
  H   H36       1.0  0.60884  0.82021  0.47989  1.0000
  H   H37       1.0  0.38666  0.17712  0.04664  1.0000
  H   H38       1.0  0.61040  0.88424  0.49781  1.0000
  H   H39       1.0  0.38502  0.11309  0.02184  1.0000
  H   H40       1.0  0.40685  0.23961  0.99238  1.0000
  H   H41       1.0  0.75853  0.16996  0.96129  1.0000
  H   H42       1.0  0.83651  0.59806  0.98873  1.0000
  H   H43       1.0  0.58628  0.75774  0.53486  1.0000
  H   H44       1.0  0.24000  0.83395  0.53374  1.0000
  H   H45       1.0  0.17003  0.41048  0.52977  1.0000
  H   H46       1.0  0.61797  0.61642  0.73679  1.0000
  H   H47       1.0  0.38263  0.00218  0.72535  1.0000
  H   H48       1.0  0.99923  0.38183  0.72574  1.0000
  H   H49       1.0  0.37932  0.38240  0.78899  1.0000
  H   H50       1.0  0.61615  0.99864  0.77268  1.0000
  H   H51       1.0  0.99912  0.61788  0.76187  1.0000
  H   H52       1.0  0.50896  0.42100  0.57640  1.0000
  H   H53       1.0  0.57738  0.08902  0.55636  1.0000
  H   H54       1.0  0.90975  0.48736  0.55490  1.0000
  H   H55       1.0  0.48807  0.57817  0.94638  1.0000
  H   H56       1.0  0.42125  0.91124  0.94313  1.0000
  H   H57       1.0  0.08979  0.51328  0.92354  1.0000
  H   H58       1.0  0.57244  0.48339  0.56630  1.0000
  H   H59       1.0  0.51473  0.08946  0.54395  1.0000
  H   H60       1.0  0.91035  0.42455  0.54491  1.0000
  H   H61       1.0  0.42469  0.51571  0.95861  1.0000
  H   H62       1.0  0.48341  0.91026  0.95131  1.0000
  H   H63       1.0  0.08950  0.57612  0.92875  1.0000
  H   H64       1.0  0.61449  0.65107  0.97585  1.0000
  H   H65       1.0  0.34766  0.96503  0.96274  1.0000
  H   H66       1.0  0.38303  0.34926  0.54214  1.0000
  H   H67       1.0  0.95822  0.60958  0.49893  1.0000
  H   H68       1.0  0.61691  0.71606  0.54558  1.0000
  H   H69       1.0  0.09864  0.38239  0.53817  1.0000
  H   H70       1.0  0.71491  0.09784  0.95729  1.0000
  H   H71       1.0  0.51530  0.68307  0.75396  1.0000
  H   H72       1.0  0.31658  0.83247  0.75957  1.0000
  H   H73       1.0  0.48149  0.31580  0.75959  1.0000
  H   H74       1.0  0.83169  0.51237  0.77170  1.0000
  H   H75       1.0  0.50747  0.61684  0.70218  1.0000
  H   H76       1.0  0.38271  0.89089  0.70508  1.0000
  H   H77       1.0  0.48887  0.38165  0.82070  1.0000
  H   H78       1.0  0.89219  0.50842  0.82088  1.0000
  H   H79       1.0  0.33563  0.50715  0.80640  1.0000
  H   H80       1.0  0.50069  0.83365  0.74374  1.0000
  H   H81       1.0  0.66175  0.49327  0.74354  1.0000
  H   H82       1.0  0.27218  0.50742  0.78340  1.0000
  H   H83       1.0  0.50170  0.77036  0.72377  1.0000
  H   H84       1.0  0.72450  0.49146  0.76055  1.0000
  H   H85       1.0  0.20825  0.38591  0.94638  1.0000
  H   H86       1.0  0.60897  0.82170  0.01109  1.0000
  H   H87       1.0  0.78760  0.60761  0.53748  1.0000
  H   H88       1.0  0.27117  0.38561  0.97281  1.0000
  H   H89       1.0  0.60861  0.88463  0.02776  1.0000
  H   H90       1.0  0.72557  0.60985  0.52354  1.0000
  H   H91       1.0  0.40388  0.23943  0.48029  1.0000
  H   H92       1.0  0.75887  0.16753  0.46885  1.0000
  H   H93       1.0  0.82559  0.58268  0.46448  1.0000
  H   H94       1.0  0.59246  0.76028  0.03271  1.0000
  H   H95       1.0  0.23462  0.83635  0.99220  1.0000
  H   H96       1.0  0.16666  0.40642  0.01782  1.0000
  C   C1        1.0  0.55932  0.59119  0.29699  1.0000
  C   C2        1.0  0.40963  0.96554  0.28210  1.0000
  C   C3        1.0  0.03564  0.44368  0.28688  1.0000
  C   C4        1.0  0.44494  0.41004  0.22484  1.0000
  C   C5        1.0  0.59052  0.03468  0.20871  1.0000
  C   C6        1.0  0.96774  0.55619  0.19071  1.0000
  C   C7        1.0  0.52294  0.55474  0.31396  1.0000
  C   C8        1.0  0.44596  0.96569  0.29686  1.0000
  C   C9        1.0  0.03523  0.47988  0.29827  1.0000
  C   C10       1.0  0.48157  0.44632  0.21053  1.0000
  C   C11       1.0  0.55414  0.03442  0.19411  1.0000
  C   C12       1.0  0.96818  0.51995  0.17776  1.0000
  C   C13       1.0  0.52061  0.51884  0.25794  1.0000
  C   C14       1.0  0.48168  0.99971  0.24009  1.0000
  C   C15       1.0  0.00182  0.48161  0.23617  1.0000
  C   C16       1.0  0.48387  0.48225  0.26633  1.0000
  C   C17       1.0  0.51844  0.00029  0.25022  1.0000
  C   C18       1.0  0.00141  0.51805  0.24147  1.0000
  C   C19       1.0  0.55484  0.51921  0.19416  1.0000
  C   C20       1.0  0.48102  0.03338  0.17415  1.0000
  C   C21       1.0  0.96866  0.44711  0.16944  1.0000
  C   C22       1.0  0.44967  0.48202  0.32992  1.0000
  C   C23       1.0  0.51911  0.96660  0.31600  1.0000
  C   C24       1.0  0.03445  0.55236  0.31011  1.0000
  C   C25       1.0  0.59174  0.55540  0.19411  1.0000
  C   C26       1.0  0.44480  0.03372  0.17440  1.0000
  C   C27       1.0  0.96820  0.41037  0.17570  1.0000
  C   C28       1.0  0.41262  0.44602  0.32758  1.0000
  C   C29       1.0  0.55533  0.96621  0.31454  1.0000
  C   C30       1.0  0.03481  0.58905  0.30683  1.0000
  C   C31       1.0  0.59288  0.59061  0.24155  1.0000
  C   C32       1.0  0.41000  0.99961  0.22612  1.0000
  C   C33       1.0  0.00190  0.40974  0.23146  1.0000
  C   C34       1.0  0.41139  0.41091  0.27801  1.0000
  C   C35       1.0  0.59014  0.00046  0.26333  1.0000
  C   C36       1.0  0.00134  0.58986  0.24968  1.0000
  C   C37       1.0  0.51596  0.44863  0.13683  1.0000
  C   C38       1.0  0.55163  0.06637  0.11903  1.0000
  C   C39       1.0  0.93723  0.48550  0.09933  1.0000
  C   C40       1.0  0.48875  0.55242  0.38975  1.0000
  C   C41       1.0  0.44849  0.93385  0.37279  1.0000
  C   C42       1.0  0.06649  0.51432  0.37511  1.0000
  C   C43       1.0  0.55120  0.48353  0.12997  1.0000
  C   C44       1.0  0.51652  0.06594  0.10997  1.0000
  C   C45       1.0  0.93721  0.45043  0.09707  1.0000
  C   C46       1.0  0.45346  0.51760  0.39605  1.0000
  C   C47       1.0  0.48359  0.93420  0.38108  1.0000
  C   C48       1.0  0.06615  0.54918  0.38046  1.0000
  C   C49       1.0  0.56184  0.62949  0.33274  1.0000
  C   C50       1.0  0.07092  0.44087  0.32693  1.0000
  C   C51       1.0  0.62893  0.07016  0.16982  1.0000
  C   C52       1.0  0.62705  0.55576  0.15357  1.0000
  C   C53       1.0  0.44387  0.06828  0.13165  1.0000
  C   C54       1.0  0.93401  0.37455  0.13352  1.0000
  C   C55       1.0  0.37719  0.44549  0.36738  1.0000
  C   C56       1.0  0.55594  0.93132  0.35565  1.0000
  C   C57       1.0  0.06863  0.62470  0.35358  1.0000
  C   C58       1.0  0.59231  0.65860  0.43094  1.0000
  C   C59       1.0  0.06796  0.40935  0.42417  1.0000
  C   C60       1.0  0.65728  0.06722  0.07220  1.0000
  C   C61       1.0  0.59399  0.69446  0.46377  1.0000
  C   C62       1.0  0.10118  0.40620  0.45757  1.0000
  C   C63       1.0  0.69381  0.10046  0.03755  1.0000
  C   C64       1.0  0.56601  0.70292  0.39421  1.0000
  C   C65       1.0  0.13819  0.43368  0.38917  1.0000
  C   C66       1.0  0.70369  0.13756  0.10470  1.0000
  C   C67       1.0  0.53594  0.67415  0.29266  1.0000
  C   C68       1.0  0.14103  0.46467  0.28774  1.0000
  C   C69       1.0  0.67587  0.14037  0.20709  1.0000
  C   C70       1.0  0.53376  0.63811  0.26409  1.0000
  C   C71       1.0  0.10816  0.46845  0.25931  1.0000
  C   C72       1.0  0.63910  0.10744  0.23748  1.0000
  C   C73       1.0  0.65795  0.55558  0.13317  1.0000
  C   C74       1.0  0.44335  0.09911  0.11188  1.0000
  C   C75       1.0  0.90365  0.34282  0.11331  1.0000
  C   C76       1.0  0.34593  0.44506  0.38628  1.0000
  C   C77       1.0  0.55546  0.89995  0.37471  1.0000
  C   C78       1.0  0.09849  0.65657  0.37857  1.0000
  C   C79       1.0  0.44471  0.13589  0.10899  1.0000
  C   C80       1.0  0.55371  0.86291  0.37887  1.0000
  C   C81       1.0  0.52096  0.82938  0.30770  1.0000
  C   C82       1.0  0.47929  0.17013  0.16349  1.0000
  C   C83       1.0  0.52030  0.79361  0.29667  1.0000
  C   C84       1.0  0.48003  0.20580  0.17969  1.0000
  C   C85       1.0  0.55158  0.78934  0.35988  1.0000
  C   C86       1.0  0.44699  0.20929  0.13646  1.0000
  C   C87       1.0  0.58402  0.82261  0.43318  1.0000
  C   C88       1.0  0.41278  0.17536  0.07765  1.0000
  C   C89       1.0  0.58512  0.85869  0.44233  1.0000
  C   C90       1.0  0.41162  0.13933  0.06453  1.0000
  C   C91       1.0  0.42870  0.25753  0.08856  1.0000
  C   C92       1.0  0.74205  0.17230  0.06859  1.0000
  C   C93       1.0  0.83205  0.57359  0.07227  1.0000
  C   C94       1.0  0.56815  0.74071  0.42719  1.0000
  C   C95       1.0  0.25706  0.83043  0.43180  1.0000
  C   C96       1.0  0.17285  0.43013  0.42431  1.0000
  C   C97       1.0  0.55644  0.59005  0.79983  1.0000
  C   C98       1.0  0.40897  0.96718  0.79111  1.0000
  C   C99       1.0  0.03362  0.44367  0.78471  1.0000
  C   C100      1.0  0.44074  0.40905  0.72428  1.0000
  C   C101      1.0  0.58939  0.03327  0.70834  1.0000
  C   C102      1.0  0.96547  0.55627  0.69796  1.0000
  C   C103      1.0  0.51978  0.55378  0.81620  1.0000
  C   C104      1.0  0.44512  0.96683  0.80575  1.0000
  C   C105      1.0  0.03369  0.48021  0.79428  1.0000
  C   C106      1.0  0.47743  0.44527  0.70938  1.0000
  C   C107      1.0  0.55317  0.03337  0.69298  1.0000
  C   C108      1.0  0.96601  0.52018  0.68261  1.0000
  C   C109      1.0  0.51703  0.51774  0.75882  1.0000
  C   C110      1.0  0.48090  0.00011  0.74465  1.0000
  C   C111      1.0  0.00022  0.48206  0.73340  1.0000
  C   C112      1.0  0.48021  0.48122  0.76825  1.0000
  C   C113      1.0  0.51738  0.00000  0.75343  1.0000
  C   C114      1.0  0.99980  0.51851  0.73995  1.0000
  C   C115      1.0  0.55096  0.51781  0.69311  1.0000
  C   C116      1.0  0.48067  0.03376  0.67538  1.0000
  C   C117      1.0  0.96665  0.44750  0.66920  1.0000
  C   C118      1.0  0.44628  0.48106  0.83443  1.0000
  C   C119      1.0  0.51773  0.96629  0.82117  1.0000
  C   C120      1.0  0.03317  0.55304  0.80503  1.0000
  C   C121      1.0  0.58812  0.55372  0.69421  1.0000
  C   C122      1.0  0.44488  0.03492  0.67683  1.0000
  C   C123      1.0  0.96599  0.41066  0.67428  1.0000
  C   C124      1.0  0.40919  0.44506  0.83421  1.0000
  C   C125      1.0  0.55371  0.96543  0.81995  1.0000
  C   C126      1.0  0.03330  0.58961  0.80517  1.0000
  C   C127      1.0  0.58972  0.58900  0.74396  1.0000
  C   C128      1.0  0.40994  0.00138  0.73175  1.0000
  C   C129      1.0  0.99967  0.40987  0.72904  1.0000
  C   C130      1.0  0.40752  0.40988  0.78241  1.0000
  C   C131      1.0  0.58870  0.99919  0.76685  1.0000
  C   C132      1.0  0.99922  0.59015  0.75424  1.0000
  C   C133      1.0  0.51143  0.44749  0.63218  1.0000
  C   C134      1.0  0.55090  0.06503  0.61366  1.0000
  C   C135      1.0  0.93438  0.48559  0.60795  1.0000
  C   C136      1.0  0.48570  0.55156  0.89250  1.0000
  C   C137      1.0  0.44755  0.93518  0.88459  1.0000
  C   C138      1.0  0.06538  0.51498  0.86768  1.0000
  C   C139      1.0  0.54683  0.48220  0.62576  1.0000
  C   C140      1.0  0.51614  0.06531  0.60587  1.0000
  C   C141      1.0  0.93461  0.45066  0.60229  1.0000
  C   C142      1.0  0.45035  0.51678  0.90020  1.0000
  C   C143      1.0  0.48223  0.93466  0.89041  1.0000
  C   C144      1.0  0.06530  0.54998  0.87130  1.0000
  C   C145      1.0  0.56028  0.62888  0.83670  1.0000
  C   C146      1.0  0.37032  0.93232  0.83174  1.0000
  C   C147      1.0  0.43683  0.37046  0.68293  1.0000
  C   C148      1.0  0.92955  0.55841  0.66167  1.0000
  C   C149      1.0  0.62320  0.55374  0.65311  1.0000
  C   C150      1.0  0.44449  0.06980  0.63245  1.0000
  C   C151      1.0  0.93137  0.37492  0.63438  1.0000
  C   C152      1.0  0.37412  0.44487  0.87604  1.0000
  C   C153      1.0  0.55439  0.93074  0.86367  1.0000
  C   C154      1.0  0.06773  0.62505  0.85010  1.0000
  C   C155      1.0  0.59281  0.65806  0.92627  1.0000
  C   C156      1.0  0.34085  0.93610  0.91662  1.0000
  C   C157      1.0  0.40455  0.34190  0.59045  1.0000
  C   C158      1.0  0.93057  0.58828  0.55905  1.0000
  C   C159      1.0  0.59656  0.69486  0.95882  1.0000
  C   C160      1.0  0.30366  0.90326  0.94636  1.0000
  C   C161      1.0  0.40078  0.30523  0.55477  1.0000
  C   C162      1.0  0.89633  0.58983  0.52797  1.0000
  C   C163      1.0  0.56860  0.70428  0.89712  1.0000
  C   C164      1.0  0.29450  0.86539  0.89099  1.0000
  C   C165      1.0  0.42862  0.29551  0.61516  1.0000
  C   C166      1.0  0.86024  0.56241  0.60370  1.0000
  C   C167      1.0  0.53648  0.67546  0.80415  1.0000
  C   C168      1.0  0.32391  0.86157  0.80536  1.0000
  C   C169      1.0  0.46048  0.32377  0.71089  1.0000
  C   C170      1.0  0.85936  0.53309  0.71024  1.0000
  C   C171      1.0  0.53230  0.63854  0.77572  1.0000
  C   C172      1.0  0.36085  0.89426  0.77624  1.0000
  C   C173      1.0  0.46457  0.36046  0.74341  1.0000
  C   C174      1.0  0.89321  0.53094  0.73678  1.0000
  C   C175      1.0  0.65406  0.55335  0.63500  1.0000
  C   C176      1.0  0.44355  0.10043  0.61261  1.0000
  C   C177      1.0  0.90068  0.34334  0.61706  1.0000
  C   C178      1.0  0.34322  0.44521  0.89219  1.0000
  C   C179      1.0  0.55514  0.90005  0.88436  1.0000
  C   C180      1.0  0.09873  0.65592  0.87460  1.0000
  C   C181      1.0  0.68919  0.55153  0.63043  1.0000
  C   C182      1.0  0.30779  0.44636  0.89310  1.0000
  C   C183      1.0  0.55449  0.86354  0.88784  1.0000
  C   C184      1.0  0.30782  0.48103  0.84084  1.0000
  C   C185      1.0  0.52384  0.83054  0.80446  1.0000
  C   C186      1.0  0.68924  0.51776  0.69524  1.0000
  C   C187      1.0  0.27266  0.48123  0.82697  1.0000
  C   C188      1.0  0.52435  0.79539  0.79329  1.0000
  C   C189      1.0  0.72401  0.51666  0.70440  1.0000
  C   C190      1.0  0.23624  0.44737  0.86752  1.0000
  C   C191      1.0  0.55464  0.79116  0.86816  1.0000
  C   C192      1.0  0.76000  0.54855  0.64520  1.0000
  C   C193      1.0  0.23615  0.41280  0.92051  1.0000
  C   C194      1.0  0.58499  0.82393  0.95343  1.0000
  C   C195      1.0  0.75999  0.58219  0.57951  1.0000
  C   C196      1.0  0.27128  0.41238  0.93369  1.0000
  C   C197      1.0  0.58496  0.85944  0.96289  1.0000
  C   C198      1.0  0.72530  0.58367  0.57245  1.0000
  C   C199      1.0  0.42492  0.25712  0.57945  1.0000
  C   C200      1.0  0.74145  0.17042  0.57082  1.0000
  C   C201      1.0  0.82459  0.56448  0.57259  1.0000
  C   C202      1.0  0.57240  0.74283  0.93033  1.0000
  C   C203      1.0  0.25540  0.83103  0.91921  1.0000
  C   C204      1.0  0.16987  0.42815  0.92121  1.0000
  N   N1        1.0  0.45056  0.24620  0.16469  1.0000
  N   N2        1.0  0.75495  0.20402  0.15793  1.0000
  N   N3        1.0  0.79902  0.55010  0.14761  1.0000
  N   N4        1.0  0.54883  0.75258  0.33498  1.0000
  N   N5        1.0  0.24492  0.79775  0.35046  1.0000
  N   N6        1.0  0.20481  0.44990  0.33637  1.0000
  N   N7        1.0  0.44612  0.24576  0.66104  1.0000
  N   N8        1.0  0.75331  0.20243  0.65734  1.0000
  N   N9        1.0  0.79365  0.54529  0.66706  1.0000
  N   N10       1.0  0.55221  0.75455  0.84330  1.0000
  N   N11       1.0  0.24647  0.79687  0.85772  1.0000
  N   N12       1.0  0.20268  0.45045  0.84217  1.0000
  C   C205      1.0  0.80372  0.28408  0.20419  1.0000
  C   C206      1.0  0.79226  0.24658  0.13993  1.0000
  C  Sn1       1.0  0.81996  0.23928  0.06188  1.0000
  C  Sn2       1.0  0.85984  0.27016  0.04813  1.0000
  C   C207      1.0  0.87102  0.30756  0.11293  1.0000
  C   C208      1.0  0.84306  0.31454  0.19074  1.0000
  H   H97       1.0  0.78210  0.28947  0.26448  1.0000
  O  Te1       1.0  0.80704  0.20033  0.99831  1.0000
  O  Te2       1.0  0.88716  0.26236  0.97078  1.0000
  H   H98       1.0  0.85195  0.34357  0.24058  1.0000
  Mg  Mg1       1.0  0.85646  0.20605  0.90370  1.0000
  C   C209      1.0  0.40918  0.16657  0.52894  1.0000
  C   C210      1.0  0.43445  0.20079  0.61852  1.0000
  C  Sn3       1.0  0.46732  0.20384  0.70114  1.0000
  C  Sn4       1.0  0.47497  0.17201  0.69367  1.0000
  C   C211      1.0  0.44952  0.13791  0.60361  1.0000
  C   C212      1.0  0.41671  0.13517  0.52145  1.0000
  H   H99       1.0  0.38380  0.16445  0.46528  1.0000
  O  Te3       1.0  0.49226  0.23823  0.79013  1.0000
  O  Te4       1.0  0.50762  0.17428  0.77503  1.0000
  H   H100      1.0  0.39716  0.10868  0.45201  1.0000
  Mg  Mg2       1.0  0.53296  0.22728  0.88030  1.0000
  C   C213      1.0  0.17983  0.69837  0.31567  1.0000
  C   C214      1.0  0.14380  0.69101  0.38340  1.0000
  C  Sn5       1.0  0.13952  0.72222  0.44351  1.0000
  C  Sn6       1.0  0.17195  0.76151  0.43544  1.0000
  C   C215      1.0  0.20787  0.76857  0.36735  1.0000
  C   C216      1.0  0.21184  0.73711  0.30761  1.0000
  H   H101      1.0  0.18290  0.67404  0.26937  1.0000
  O  Te5       1.0  0.10332  0.71434  0.51084  1.0000
  O  Te6       1.0  0.16848  0.79326  0.49455  1.0000
  H   H102      1.0  0.23973  0.74282  0.25508  1.0000
  Mg  Mg3       1.0  0.11315  0.76749  0.57524  1.0000
  C   C217      1.0  0.72155  0.52060  0.23607  1.0000
  C   C218      1.0  0.75633  0.54422  0.14557  1.0000
  C  Sn7       1.0  0.76002  0.57541  0.04537  1.0000
  C  Sn8       1.0  0.72826  0.58301  0.03588  1.0000
  C   C219      1.0  0.69360  0.55922  0.12700  1.0000
  C   C220      1.0  0.69022  0.52809  0.22684  1.0000
  H   H103      1.0  0.71894  0.49652  0.31340  1.0000
  O  Te7       1.0  0.79400  0.59739  0.95572  1.0000
  O  Te8       1.0  0.73019  0.61267  0.93675  1.0000
  H   H104      1.0  0.66330  0.50982  0.29698  1.0000
  Mg  Mg4       1.0  0.78379  0.63615  0.83796  1.0000
  C   C221      1.0  0.40416  0.33322  0.06941  1.0000
  C   C222      1.0  0.43122  0.36345  0.17335  1.0000
  C  Sn9       1.0  0.46130  0.36007  0.25176  1.0000
  C  Sn10      1.0  0.46429  0.32575  0.22535  1.0000
  C   C223      1.0  0.43709  0.29568  0.12104  1.0000
  C   C224      1.0  0.40709  0.29936  0.04324  1.0000
  H   H105      1.0  0.38096  0.33607  0.00914  1.0000
  O  Te9       1.0  0.48808  0.39056  0.35527  1.0000
  O  Te10      1.0  0.49408  0.32162  0.30211  1.0000
  H   H106      1.0  0.38519  0.27464  0.96268  1.0000
  Mg  Mg5       1.0  0.52351  0.37119  0.43209  1.0000
  C   C225      1.0  0.14729  0.73500  0.99003  1.0000
  C   C226      1.0  0.13570  0.70018  0.90023  1.0000
  C  Sn11      1.0  0.16302  0.69629  0.80087  1.0000
  C  Sn12      1.0  0.20265  0.72790  0.79154  1.0000
  C   C227      1.0  0.21395  0.76261  0.88196  1.0000
  C   C228      1.0  0.18637  0.76619  0.98095  1.0000
  H   H107      1.0  0.12693  0.73908  0.06670  1.0000
  O  Te11      1.0  0.15094  0.66131  0.71191  1.0000
  O  Te12      1.0  0.23055  0.72480  0.69325  1.0000
  H   H108      1.0  0.19632  0.79446  0.05055  1.0000
  Mg  Mg6       1.0  0.19983  0.67122  0.59517  1.0000
  C   C229      1.0  0.33195  0.86498  0.26405  1.0000
  C   C230      1.0  0.30257  0.86248  0.37205  1.0000
  C  Sn13      1.0  0.30742  0.89625  0.45373  1.0000
  C  Sn14      1.0  0.34234  0.93317  0.42648  1.0000
  C   C231      1.0  0.37155  0.93538  0.31810  1.0000
  C   C232      1.0  0.36641  0.90140  0.23706  1.0000
  H   H109      1.0  0.32797  0.83870  0.20127  1.0000
  O  Te13      1.0  0.27778  0.89321  0.56127  1.0000
  O  Te14      1.0  0.34794  0.96739  0.50645  1.0000
  H   H110      1.0  0.38914  0.90335  0.15336  1.0000
  Mg  Mg7       1.0  0.29908  0.94818  0.64141  1.0000
  C   C233      1.0  0.28476  0.48309  0.28597  1.0000
  C   C234      1.0  0.24687  0.45428  0.33745  1.0000
  C  Sn15      1.0  0.24116  0.42092  0.42700  1.0000
  C  Sn16      1.0  0.27404  0.41641  0.46559  1.0000
  C   C235      1.0  0.31183  0.44541  0.41363  1.0000
  C   C236      1.0  0.31721  0.47867  0.32404  1.0000
  H   H111      1.0  0.28893  0.50883  0.21674  1.0000
  O  Te15      1.0  0.20310  0.39241  0.47742  1.0000
  O  Te16      1.0  0.26917  0.38336  0.55498  1.0000
  H   H112      1.0  0.34655  0.50098  0.28429  1.0000
  Mg  Mg8       1.0  0.21153  0.35259  0.59634  1.0000
  C   C237      1.0  0.86609  0.52829  0.19391  1.0000
  C   C238      1.0  0.86455  0.56050  0.12534  1.0000
  C  Sn17      1.0  0.89866  0.59297  0.06016  1.0000
  C  Sn18      1.0  0.93494  0.59310  0.06384  1.0000
  C   C239      1.0  0.93617  0.56072  0.13260  1.0000
  C   C240      1.0  0.90186  0.52839  0.19753  1.0000
  H   H113      1.0  0.83955  0.50326  0.24406  1.0000
  O  Te17      1.0  0.89564  0.62359  0.99217  1.0000
  O  Te18      1.0  0.96851  0.62384  0.99951  1.0000
  H   H114      1.0  0.90306  0.50345  0.25051  1.0000
  Mg  Mg9       1.0  0.95070  0.66042  0.92000  1.0000
  C   C241      1.0  0.11725  0.47274  0.76150  1.0000
  C   C242      1.0  0.07763  0.44706  0.80251  1.0000
  C  Sn19      1.0  0.06679  0.41304  0.89861  1.0000
  C  Sn20      1.0  0.09621  0.40465  0.95455  1.0000
  C   C243      1.0  0.13577  0.43054  0.91295  1.0000
  C   C244      1.0  0.14630  0.46450  0.81667  1.0000
  H   H115      1.0  0.12540  0.49902  0.68709  1.0000
  O  Te19      1.0  0.02707  0.38770  0.93840  1.0000
  O  Te20      1.0  0.08716  0.37219  0.05082  1.0000
  H   H116      1.0  0.17698  0.48439  0.78503  1.0000
  Mg  Mg10      1.0  0.02907  0.34669  0.07260  1.0000
  C   C245      1.0  0.68691  0.08735  0.53982  1.0000
  C   C246      1.0  0.70054  0.12703  0.57816  1.0000
  C  Sn21      1.0  0.67741  0.13747  0.67517  1.0000
  C  Sn22      1.0  0.63996  0.10755  0.73475  1.0000
  C   C247      1.0  0.62660  0.06793  0.69580  1.0000
  C   C248      1.0  0.64998  0.05782  0.59859  1.0000
  H   H117      1.0  0.70501  0.07952  0.46468  1.0000
  O  Te21      1.0  0.69147  0.17726  0.71226  1.0000
  O  Te22      1.0  0.61624  0.11715  0.83200  1.0000
  H   H118      1.0  0.63943  0.02709  0.56901  1.0000
  Mg  Mg11      1.0  0.64831  0.17553  0.84913  1.0000
  C   C249      1.0  0.80159  0.28176  0.72044  1.0000
  C   C250      1.0  0.79039  0.24524  0.64624  1.0000
  C  Sn23      1.0  0.81795  0.23968  0.55681  1.0000
  C  Sn24      1.0  0.85745  0.27133  0.54164  1.0000
  C   C251      1.0  0.86837  0.30774  0.61643  1.0000
  C   C252      1.0  0.84054  0.31298  0.70559  1.0000
  H   H119      1.0  0.78007  0.28581  0.78951  1.0000
  O  Te23      1.0  0.80626  0.20301  0.48341  1.0000
  O  Te24      1.0  0.88560  0.26658  0.45302  1.0000
  H   H120      1.0  0.84923  0.34126  0.76312  1.0000
  Mg  Mg12      1.0  0.85537  0.21105  0.37527  1.0000
