data_image0
_chemical_formula_structural       H32C72N8C2Sn2C2HTe2HMgC2Sn2C2HTe2HMgC2Sn2C2HTe2HMgC2Sn2C2HTe2HMgC2Sn2C2HTe2HMgC2Sn2C2HTe2HMgC2Sn2C2HTe2HMgC2Sn2C2HTe2HMgC2Sn2C2HTe2HMgC2Sn2C2HTe2HMgC2Sn2C2HTe2HMgC2Sn2C2HTe2HMgC2Sn2C2HTe2HMgC2Sn2C2HTe2HMgC2Sn2C2HTe2HMgC2Sn2C2HTe2HMg
_chemical_formula_sum              "H64 C136 N8 Sn32 Te32 Mg16"
_cell_length_a       24.4835
_cell_length_b       26.0846
_cell_length_c       7.98976
_cell_angle_alpha    89.401
_cell_angle_beta     67.8827
_cell_angle_gamma    90.0539

_symmetry_space_group_name_H-M    'P1'
_space_group_IT_number       1

loop_
  _space_group_symop_operation_xyz
  'x, y, z'

loop_
  _atom_site_type_symbol
  _atom_site_label
  _atom_site_symmetry_multiplicity
  _atom_site_fract_x
  _atom_site_fract_y
  _atom_site_fract_z
  _atom_site_occupancy
  H   H1        1.0  0.44242  0.21010  0.42521  1.0000
  H   H2        1.0  0.55658  0.70914  0.07653  1.0000
  H   H3        1.0  0.23740  0.09440  0.24762  1.0000
  H   H4        1.0  0.75997  0.59481  0.27103  1.0000
  H   H5        1.0  0.11728  0.95651  0.18231  1.0000
  H   H6        1.0  0.88237  0.45649  0.31851  1.0000
  H   H7        1.0  0.12461  0.86317  0.17886  1.0000
  H   H8        1.0  0.87548  0.36308  0.31797  1.0000
  H   H9        1.0  0.38259  0.87997  0.30915  1.0000
  H   H10       1.0  0.61850  0.38132  0.18197  1.0000
  H   H11       1.0  0.37446  0.97336  0.31778  1.0000
  H   H12       1.0  0.62437  0.47491  0.18905  1.0000
  H   H13       1.0  0.26386  0.74235  0.23915  1.0000
  H   H14       1.0  0.73638  0.24279  0.25500  1.0000
  H   H15       1.0  0.94344  0.12579  0.41817  1.0000
  H   H16       1.0  0.05430  0.63207  0.06453  1.0000
  H   H17       1.0  0.44423  0.21252  0.91919  1.0000
  H   H18       1.0  0.55598  0.70957  0.57452  1.0000
  H   H19       1.0  0.23846  0.09673  0.74866  1.0000
  H   H20       1.0  0.76013  0.59702  0.76809  1.0000
  H   H21       1.0  0.11784  0.95907  0.68513  1.0000
  H   H22       1.0  0.88213  0.45963  0.82345  1.0000
  H   H23       1.0  0.12436  0.86566  0.68505  1.0000
  H   H24       1.0  0.87716  0.36594  0.81537  1.0000
  H   H25       1.0  0.38473  0.88198  0.80125  1.0000
  H   H26       1.0  0.61848  0.38223  0.68936  1.0000
  H   H27       1.0  0.37778  0.97551  0.80486  1.0000
  H   H28       1.0  0.62383  0.47582  0.69434  1.0000
  H   H29       1.0  0.26332  0.74455  0.74285  1.0000
  H   H30       1.0  0.74001  0.24492  0.74810  1.0000
  H   H31       1.0  0.94581  0.12858  0.90452  1.0000
  H   H32       1.0  0.05393  0.63516  0.56944  1.0000
  C   C1        1.0  0.48305  0.19837  0.31436  1.0000
  C   C2        1.0  0.51559  0.69714  0.18693  1.0000
  C   C3        1.0  0.29206  0.03072  0.24978  1.0000
  C   C4        1.0  0.70587  0.53099  0.26448  1.0000
  C   C5        1.0  0.24036  0.05282  0.24726  1.0000
  C   C6        1.0  0.75743  0.55323  0.26755  1.0000
  C   C7        1.0  0.19218  0.02438  0.24492  1.0000
  C   C8        1.0  0.80629  0.52472  0.26372  1.0000
  C   C9        1.0  0.19690  0.97004  0.23461  1.0000
  C   C10       1.0  0.80214  0.47030  0.26962  1.0000
  C   C11       1.0  0.15353  0.93834  0.20677  1.0000
  C   C12       1.0  0.84608  0.43846  0.29408  1.0000
  C   C13       1.0  0.15762  0.88606  0.20476  1.0000
  C   C14       1.0  0.84224  0.38617  0.29370  1.0000
  C   C15       1.0  0.34679  0.89839  0.28279  1.0000
  C   C16       1.0  0.65348  0.39935  0.21323  1.0000
  C   C17       1.0  0.34233  0.95061  0.28708  1.0000
  C   C18       1.0  0.65683  0.45160  0.21666  1.0000
  C   C19       1.0  0.29518  0.97632  0.25761  1.0000
  C   C20       1.0  0.70349  0.47680  0.25010  1.0000
  C   C21       1.0  0.24825  0.94594  0.24425  1.0000
  C   C22       1.0  0.75091  0.44624  0.25930  1.0000
  C   C23       1.0  0.26082  0.78396  0.23933  1.0000
  C   C24       1.0  0.73953  0.28439  0.25443  1.0000
  C   C25       1.0  0.30900  0.81270  0.24033  1.0000
  C   C26       1.0  0.69162  0.31305  0.25128  1.0000
  C   C27       1.0  0.30394  0.86696  0.25125  1.0000
  C   C28       1.0  0.69639  0.36743  0.24321  1.0000
  C   C29       1.0  0.25258  0.89107  0.24182  1.0000
  C   C30       1.0  0.74729  0.39139  0.25630  1.0000
  C   C31       1.0  0.20549  0.86050  0.23071  1.0000
  C   C32       1.0  0.79451  0.36080  0.26661  1.0000
  C   C33       1.0  0.20890  0.80614  0.23889  1.0000
  C   C34       1.0  0.79121  0.30650  0.25715  1.0000
  C   C35       1.0  0.98431  0.13972  0.31163  1.0000
  C   C36       1.0  0.01447  0.64220  0.18089  1.0000
  C   C37       1.0  0.48510  0.20019  0.81056  1.0000
  C   C38       1.0  0.51503  0.69771  0.68515  1.0000
  C   C39       1.0  0.29333  0.03282  0.74813  1.0000
  C   C40       1.0  0.70623  0.53285  0.76254  1.0000
  C   C41       1.0  0.24147  0.05513  0.74762  1.0000
  C   C42       1.0  0.75761  0.55540  0.76610  1.0000
  C   C43       1.0  0.19319  0.02662  0.74615  1.0000
  C   C44       1.0  0.80634  0.52718  0.76481  1.0000
  C   C45       1.0  0.19759  0.97230  0.73719  1.0000
  C   C46       1.0  0.80251  0.47277  0.77055  1.0000
  C   C47       1.0  0.15392  0.94077  0.71020  1.0000
  C   C48       1.0  0.84653  0.44128  0.79610  1.0000
  C   C49       1.0  0.15761  0.88850  0.70983  1.0000
  C   C50       1.0  0.84373  0.38900  0.79196  1.0000
  C   C51       1.0  0.34841  0.90041  0.77788  1.0000
  C   C52       1.0  0.65388  0.40058  0.71762  1.0000
  C   C53       1.0  0.34449  0.95270  0.78008  1.0000
  C   C54       1.0  0.65691  0.45288  0.72008  1.0000
  C   C55       1.0  0.29653  0.97844  0.75528  1.0000
  C   C56       1.0  0.70388  0.47856  0.75035  1.0000
  C   C57       1.0  0.24901  0.94807  0.74574  1.0000
  C   C58       1.0  0.75157  0.44836  0.75932  1.0000
  C   C59       1.0  0.26043  0.78616  0.74318  1.0000
  C   C60       1.0  0.74242  0.28652  0.74982  1.0000
  C   C61       1.0  0.30906  0.81458  0.74192  1.0000
  C   C62       1.0  0.69355  0.31462  0.75170  1.0000
  C   C63       1.0  0.30458  0.86893  0.75170  1.0000
  C   C64       1.0  0.69756  0.36905  0.74488  1.0000
  C   C65       1.0  0.25302  0.89320  0.74444  1.0000
  C   C66       1.0  0.74854  0.39350  0.75569  1.0000
  C   C67       1.0  0.20538  0.86285  0.73597  1.0000
  C   C68       1.0  0.79652  0.36340  0.76274  1.0000
  C   C69       1.0  0.20834  0.80849  0.74508  1.0000
  C   C70       1.0  0.79419  0.30919  0.74983  1.0000
  C   C71       1.0  0.98700  0.14220  0.79862  1.0000
  C   C72       1.0  0.01397  0.64505  0.68583  1.0000
  N   N1        1.0  0.48501  0.16108  0.20651  1.0000
  N   N2        1.0  0.51290  0.65941  0.29645  1.0000
  N   N3        1.0  0.98624  0.17884  0.20843  1.0000
  N   N4        1.0  0.01340  0.67810  0.29282  1.0000
  N   N5        1.0  0.48713  0.16258  0.70372  1.0000
  N   N6        1.0  0.51251  0.66020  0.79531  1.0000
  N   N7        1.0  0.98961  0.18134  0.69471  1.0000
  N   N8        1.0  0.01258  0.68077  0.79879  1.0000
  C   C73       1.0  0.41576  0.05781  0.10723  1.0000
  C   C74       1.0  0.35619  0.05941  0.22012  1.0000
  C  Sn1       1.0  0.33427  0.10068  0.33597  1.0000
  C  Sn2       1.0  0.37281  0.14106  0.33852  1.0000
  C   C75       1.0  0.43233  0.13912  0.22497  1.0000
  C   C76       1.0  0.45380  0.09763  0.10961  1.0000
  H   H33       1.0  0.43238  0.02572  0.01790  1.0000
  O  Te1       1.0  0.27464  0.10166  0.44791  1.0000
  O  Te2       1.0  0.35206  0.18278  0.45294  1.0000
  H   H34       1.0  0.49992  0.09642  0.02214  1.0000
  Mg  Mg1       1.0  0.26726  0.16670  0.58026  1.0000
  C   C77       1.0  0.66206  0.62075  0.14484  1.0000
  C   C78       1.0  0.66062  0.57823  0.25433  1.0000
  C  Sn3       1.0  0.60698  0.56028  0.38048  1.0000
  C  Sn4       1.0  0.55387  0.58544  0.39696  1.0000
  C   C79       1.0  0.55578  0.62792  0.28670  1.0000
  C   C80       1.0  0.60970  0.64557  0.16096  1.0000
  H   H35       1.0  0.70378  0.63439  0.04748  1.0000
  O  Te3       1.0  0.60634  0.51777  0.48886  1.0000
  O  Te4       1.0  0.49965  0.56829  0.52187  1.0000
  H   H36       1.0  0.61079  0.67847  0.07612  1.0000
  Mg  Mg2       1.0  0.52154  0.50882  0.63917  1.0000
  C   C81       1.0  0.10984  0.12626  0.15623  1.0000
  C   C82       1.0  0.05055  0.11457  0.25472  1.0000
  C  Sn5       1.0  0.03509  0.07105  0.36640  1.0000
  C  Sn6       1.0  0.07991  0.03871  0.37948  1.0000
  C   C83       1.0  0.13910  0.05075  0.28050  1.0000
  C   C84       1.0  0.15407  0.09439  0.16911  1.0000
  H   H37       1.0  0.12143  0.16003  0.07012  1.0000
  O  Te5       1.0  0.97565  0.05993  0.46381  1.0000
  O  Te6       1.0  0.06670  0.99498  0.49013  1.0000
  H   H38       1.0  0.19998  0.10344  0.09297  1.0000
  Mg  Mg3       1.0  0.97944  0.99599  0.59624  1.0000
  C   C85       1.0  0.93205  0.54120  0.09762  1.0000
  C   C86       1.0  0.87471  0.54630  0.22517  1.0000
  C  Sn7       1.0  0.86021  0.58763  0.34356  1.0000
  C  Sn8       1.0  0.90402  0.62447  0.33372  1.0000
  C   C87       1.0  0.96125  0.61904  0.20554  1.0000
  C   C88       1.0  0.97528  0.57753  0.08777  1.0000
  H   H39       1.0  0.94290  0.50910  0.00642  1.0000
  O  Te7       1.0  0.80272  0.59214  0.47023  1.0000
  O  Te8       1.0  0.89073  0.66616  0.45036  1.0000
  H   H40       1.0  0.89680  0.57029  0.98895  1.0000
  Mg  Mg4       1.0  0.80614  0.65564  0.59984  1.0000
  C   C89       1.0  0.46209  0.78156  0.07803  1.0000
  C   C90       1.0  0.46652  0.73934  0.18123  1.0000
  C  Sn9       1.0  0.41590  0.71777  0.31164  1.0000
  C  Sn10      1.0  0.35987  0.73894  0.33890  1.0000
  C   C91       1.0  0.35590  0.78116  0.23487  1.0000
  C   C92       1.0  0.40684  0.80245  0.10478  1.0000
  H   H41       1.0  0.37862  0.79471  0.97730  1.0000
  O  Te9       1.0  0.42112  0.67561  0.41361  1.0000
  O  Te10      1.0  0.30857  0.71813  0.46827  1.0000
  H   H42       1.0  0.40339  0.83511  0.02482  1.0000
  Mg  Mg5       1.0  0.33842  0.66077  0.57364  1.0000
  C   C93       1.0  0.53835  0.28264  0.41444  1.0000
  C   C94       1.0  0.53299  0.24011  0.31669  1.0000
  C  Sn11      1.0  0.58311  0.21804  0.18869  1.0000
  C  Sn12      1.0  0.63959  0.23900  0.15832  1.0000
  C   C95       1.0  0.64449  0.28153  0.25691  1.0000
  C   C96       1.0  0.59404  0.30333  0.38463  1.0000
  H   H43       1.0  0.49933  0.29949  0.51334  1.0000
  O  Te11      1.0  0.57696  0.17557  0.09215  1.0000
  O  Te12      1.0  0.69041  0.21768  0.03125  1.0000
  H   H44       1.0  0.59821  0.33624  0.46038  1.0000
  Mg  Mg6       1.0  0.53644  0.15675  0.93345  1.0000
  C   C97       1.0  0.08538  0.77974  0.39062  1.0000
  C   C98       1.0  0.14559  0.77436  0.28920  1.0000
  C  Sn13      1.0  0.16573  0.73412  0.16745  1.0000
  C  Sn14      1.0  0.12472  0.69869  0.14710  1.0000
  C   C99       1.0  0.06457  0.70443  0.24909  1.0000
  C   C100      1.0  0.04490  0.74482  0.37058  1.0000
  H   H45       1.0  0.07015  0.81101  0.48455  1.0000
  O  Te13      1.0  0.22604  0.72929  0.06723  1.0000
  O  Te14      1.0  0.14364  0.65814  0.02633  1.0000
  H   H46       1.0  0.99827  0.74900  0.44900  1.0000
  Mg  Mg7       1.0  0.10741  0.66437  0.92010  1.0000
  C   C101      1.0  0.91470  0.28114  0.10941  1.0000
  C   C102      1.0  0.85435  0.27498  0.20875  1.0000
  C  Sn15      1.0  0.83378  0.23385  0.32991  1.0000
  C  Sn16      1.0  0.87449  0.19830  0.35176  1.0000
  C   C103      1.0  0.93478  0.20482  0.25184  1.0000
  C   C104      1.0  0.95489  0.24611  0.13093  1.0000
  H   H47       1.0  0.93027  0.31310  0.01593  1.0000
  O  Te15      1.0  0.77333  0.22825  0.42804  1.0000
  O  Te16      1.0  0.85512  0.15686  0.47197  1.0000
  H   H48       1.0  0.00162  0.25089  0.05412  1.0000
  Mg  Mg8       1.0  0.76847  0.16557  0.57517  1.0000
  C   C105      1.0  0.33824  0.12098  0.87079  1.0000
  C   C106      1.0  0.33865  0.07983  0.75974  1.0000
  C  Sn17      1.0  0.39141  0.06418  0.62555  1.0000
  C  Sn18      1.0  0.44468  0.09027  0.60248  1.0000
  C   C107      1.0  0.44382  0.13137  0.71436  1.0000
  C   C108      1.0  0.39077  0.14673  0.84817  1.0000
  H   H49       1.0  0.29721  0.13285  0.97439  1.0000
  O  Te17      1.0  0.39102  0.02300  0.51573  1.0000
  O  Te18      1.0  0.49804  0.07541  0.46947  1.0000
  H   H50       1.0  0.39048  0.17857  0.93421  1.0000
  Mg  Mg9       1.0  0.47490  0.01708  0.35332  1.0000
  C   C109      1.0  0.55714  0.57512  0.90514  1.0000
  C   C110      1.0  0.55957  0.62233  0.81821  1.0000
  C  Sn19      1.0  0.61326  0.64125  0.69541  1.0000
  C  Sn20      1.0  0.66541  0.61228  0.65919  1.0000
  C   C111      1.0  0.66251  0.56508  0.74676  1.0000
  C   C112      1.0  0.60855  0.54652  0.86944  1.0000
  H   H51       1.0  0.51539  0.56074  0.99999  1.0000
  O  Te19      1.0  0.61491  0.68849  0.60980  1.0000
  O  Te20      1.0  0.71966  0.63028  0.53701  1.0000
  H   H52       1.0  0.60668  0.50995  0.93663  1.0000
  Mg  Mg10      1.0  0.69934  0.69680  0.45429  1.0000
  C   C113      1.0  0.11212  0.12667  0.64215  1.0000
  C   C114      1.0  0.05271  0.11610  0.74297  1.0000
  C  Sn21      1.0  0.03673  0.07418  0.86213  1.0000
  C  Sn22      1.0  0.08115  0.04233  0.88044  1.0000
  C   C115      1.0  0.14046  0.05325  0.77906  1.0000
  C   C116      1.0  0.15596  0.09529  0.66018  1.0000
  H   H53       1.0  0.12413  0.15921  0.55023  1.0000
  O  Te21      1.0  0.97717  0.06416  0.96179  1.0000
  O  Te22      1.0  0.06641  0.00020  0.99860  1.0000
  H   H54       1.0  0.20197  0.10348  0.58222  1.0000
  Mg  Mg11      1.0  0.10205  0.00558  0.10506  1.0000
  C   C117      1.0  0.95934  0.55911  0.59315  1.0000
  C   C118      1.0  0.96356  0.60562  0.67283  1.0000
  C  Sn23      1.0  0.91376  0.62678  0.80518  1.0000
  C  Sn24      1.0  0.85878  0.60080  0.85851  1.0000
  C   C119      1.0  0.85502  0.55427  0.77808  1.0000
  C   C120      1.0  0.90513  0.53345  0.64573  1.0000
  H   H55       1.0  0.99811  0.54299  0.49082  1.0000
  O  Te23      1.0  0.91875  0.67328  0.88335  1.0000
  O  Te24      1.0  0.80831  0.62107  0.99052  1.0000
  H   H56       1.0  0.90186  0.49743  0.58415  1.0000
  Mg  Mg12      1.0  0.96032  0.68879  0.05742  1.0000
  C   C121      1.0  0.46170  0.78221  0.57632  1.0000
  C   C122      1.0  0.46607  0.73977  0.67867  1.0000
  C  Sn25      1.0  0.41545  0.71825  0.80920  1.0000
  C  Sn26      1.0  0.35947  0.73970  0.83745  1.0000
  C   C123      1.0  0.35557  0.78214  0.73427  1.0000
  C   C124      1.0  0.40651  0.80338  0.60405  1.0000
  H   H57       1.0  0.50111  0.79863  0.47549  1.0000
  O  Te25      1.0  0.42060  0.67586  0.91031  1.0000
  O  Te26      1.0  0.30816  0.71895  0.96697  1.0000
  H   H58       1.0  0.40311  0.83622  0.52475  1.0000
  Mg  Mg13      1.0  0.46079  0.66451  0.07093  1.0000
  C   C125      1.0  0.54041  0.28317  0.91706  1.0000
  C   C126      1.0  0.53514  0.24138  0.81603  1.0000
  C  Sn27      1.0  0.58532  0.21978  0.68673  1.0000
  C  Sn28      1.0  0.64177  0.24047  0.65839  1.0000
  C   C127      1.0  0.64658  0.28225  0.76025  1.0000
  C   C128      1.0  0.59608  0.30359  0.88924  1.0000
  H   H59       1.0  0.62421  0.30297  0.01694  1.0000
  O  Te27      1.0  0.57926  0.17806  0.58692  1.0000
  O  Te28      1.0  0.69265  0.21961  0.53009  1.0000
  H   H60       1.0  0.60018  0.33592  0.96753  1.0000
  Mg  Mg14      1.0  0.66166  0.16295  0.42767  1.0000
  C   C129      1.0  0.13714  0.70109  0.64232  1.0000
  C   C130      1.0  0.07813  0.70295  0.76016  1.0000
  C  Sn29      1.0  0.05786  0.74373  0.87943  1.0000
  C  Sn30      1.0  0.09750  0.78333  0.88041  1.0000
  C   C131      1.0  0.15644  0.78114  0.76190  1.0000
  C   C132      1.0  0.17627  0.74015  0.64314  1.0000
  H   H61       1.0  0.15248  0.66940  0.55036  1.0000
  O  Te29      1.0  0.99877  0.74498  0.99631  1.0000
  O  Te30      1.0  0.07841  0.82454  0.99818  1.0000
  H   H62       1.0  0.22195  0.73874  0.55184  1.0000
  Mg  Mg15      1.0  0.11663  0.81241  0.13183  1.0000
  C   C133      1.0  0.86539  0.20225  0.85685  1.0000
  C   C134      1.0  0.92409  0.20386  0.73604  1.0000
  C  Sn31      1.0  0.94441  0.24453  0.61273  1.0000
  C  Sn32      1.0  0.90514  0.28429  0.61069  1.0000
  C   C135      1.0  0.84652  0.28235  0.73219  1.0000
  C   C136      1.0  0.82664  0.24146  0.85497  1.0000
  H   H63       1.0  0.85002  0.17063  0.95192  1.0000
  O  Te31      1.0  0.00317  0.24553  0.49292  1.0000
  O  Te32      1.0  0.92429  0.32540  0.48891  1.0000
  H   H64       1.0  0.78121  0.24024  0.94857  1.0000
  Mg  Mg16      1.0  0.00841  0.30961  0.35236  1.0000
