data_image0
_chemical_formula_structural       H96C204N12SnCSn2CSnTe4Mg2SnCSn2CSnTe4Mg2SnCSn2CSnTe4Mg2SnCSn2CSnTe4Mg2SnCSn2CSnTe4Mg2SnCSn2CSnTe4Mg2SnCSn2CSnTe4Mg2SnCSn2CSnTe4Mg2SnCSn2CSnTe4Mg2SnCSn2CSnTe4Mg2SnCSn2CSnTe4Mg2SnCSn2CSnTe4Mg2
_chemical_formula_sum              "H96 C228 N12 Sn48 Te48 Mg24"
_cell_length_a       39.1724
_cell_length_b       39.05
_cell_length_c       7.94281
_cell_angle_alpha    89.7654
_cell_angle_beta     89.9134
_cell_angle_gamma    120.145

_symmetry_space_group_name_H-M    'P1'
_space_group_IT_number       1

loop_
  _space_group_symop_operation_xyz
  'x, y, z'

loop_
  _atom_site_type_symbol
  _atom_site_label
  _atom_site_symmetry_multiplicity
  _atom_site_fract_x
  _atom_site_fract_y
  _atom_site_fract_z
  _atom_site_occupancy
  H   H1        1.0  0.62094  0.61819  0.23289  1.0000
  H   H2        1.0  0.38235  0.99977  0.22168  1.0000
  H   H3        1.0  0.00160  0.38175  0.22965  1.0000
  H   H4        1.0  0.38319  0.38344  0.28332  1.0000
  H   H5        1.0  0.61781  0.00031  0.26771  1.0000
  H   H6        1.0  0.00170  0.61786  0.25445  1.0000
  H   H7        1.0  0.51374  0.42207  0.08299  1.0000
  H   H8        1.0  0.57825  0.09131  0.06722  1.0000
  H   H9        1.0  0.91352  0.48748  0.03788  1.0000
  H   H10       1.0  0.49124  0.57895  0.44529  1.0000
  H   H11       1.0  0.42196  0.90912  0.42630  1.0000
  H   H12       1.0  0.09065  0.51238  0.43230  1.0000
  H   H13       1.0  0.57709  0.48483  0.07281  1.0000
  H   H14       1.0  0.51489  0.09033  0.05166  1.0000
  H   H15       1.0  0.91331  0.42443  0.03738  1.0000
  H   H16       1.0  0.42765  0.51630  0.45407  1.0000
  H   H17       1.0  0.48526  0.90990  0.43993  1.0000
  H   H18       1.0  0.08999  0.57515  0.44048  1.0000
  H   H19       1.0  0.03951  0.38800  0.47816  1.0000
  H   H20       1.0  0.38828  0.35024  0.04043  1.0000
  H   H21       1.0  0.64978  0.03869  0.01881  1.0000
  H   H22       1.0  0.28155  0.90672  0.01549  1.0000
  H   H23       1.0  0.09462  0.37906  0.02559  1.0000
  H   H24       1.0  0.37622  0.28400  0.47842  1.0000
  H   H25       1.0  0.89743  0.61232  0.44314  1.0000
  H   H26       1.0  0.16946  0.48522  0.23138  1.0000
  H   H27       1.0  0.48514  0.31628  0.27361  1.0000
  H   H28       1.0  0.68412  0.16884  0.26300  1.0000
  H   H29       1.0  0.11049  0.49213  0.17889  1.0000
  H   H30       1.0  0.49274  0.38230  0.32958  1.0000
  H   H31       1.0  0.61824  0.10990  0.31980  1.0000
  H   H32       1.0  0.49700  0.83249  0.25563  1.0000
  H   H33       1.0  0.67114  0.50288  0.28817  1.0000
  H   H34       1.0  0.50483  0.16766  0.19779  1.0000
  H   H35       1.0  0.49592  0.76816  0.23614  1.0000
  H   H36       1.0  0.73447  0.50231  0.29019  1.0000
  H   H37       1.0  0.50599  0.23185  0.22831  1.0000
  H   H38       1.0  0.60884  0.82021  0.47989  1.0000
  H   H39       1.0  0.78729  0.60545  0.96931  1.0000
  H   H40       1.0  0.38666  0.17712  0.04664  1.0000
  H   H41       1.0  0.61040  0.88424  0.49781  1.0000
  H   H42       1.0  0.72467  0.60567  0.96416  1.0000
  H   H43       1.0  0.38502  0.11309  0.02184  1.0000
  H   H44       1.0  0.40685  0.23961  0.99238  1.0000
  H   H45       1.0  0.75853  0.16996  0.96129  1.0000
  H   H46       1.0  0.83651  0.59806  0.98873  1.0000
  H   H47       1.0  0.58628  0.75774  0.53486  1.0000
  H   H48       1.0  0.24000  0.83395  0.53374  1.0000
  H   H49       1.0  0.17003  0.41048  0.52977  1.0000
  H   H50       1.0  0.61797  0.61642  0.73679  1.0000
  H   H51       1.0  0.38263  0.00218  0.72535  1.0000
  H   H52       1.0  0.99923  0.38183  0.72574  1.0000
  H   H53       1.0  0.37932  0.38240  0.78899  1.0000
  H   H54       1.0  0.61615  0.99864  0.77268  1.0000
  H   H55       1.0  0.99912  0.61788  0.76187  1.0000
  H   H56       1.0  0.50896  0.42100  0.57640  1.0000
  H   H57       1.0  0.57738  0.08902  0.55636  1.0000
  H   H58       1.0  0.90975  0.48736  0.55490  1.0000
  H   H59       1.0  0.48807  0.57817  0.94638  1.0000
  H   H60       1.0  0.42125  0.91124  0.94313  1.0000
  H   H61       1.0  0.08979  0.51328  0.92354  1.0000
  H   H62       1.0  0.57244  0.48339  0.56630  1.0000
  H   H63       1.0  0.51473  0.08946  0.54395  1.0000
  H   H64       1.0  0.91035  0.42455  0.54491  1.0000
  H   H65       1.0  0.42469  0.51571  0.95861  1.0000
  H   H66       1.0  0.48341  0.91026  0.95131  1.0000
  H   H67       1.0  0.08950  0.57612  0.92875  1.0000
  H   H68       1.0  0.34766  0.96503  0.96274  1.0000
  H   H69       1.0  0.03628  0.38591  0.96802  1.0000
  H   H70       1.0  0.38303  0.34926  0.54214  1.0000
  H   H71       1.0  0.95822  0.60958  0.49893  1.0000
  H   H72       1.0  0.09864  0.38239  0.53817  1.0000
  H   H73       1.0  0.38100  0.28464  0.98346  1.0000
  H   H74       1.0  0.71491  0.09784  0.95729  1.0000
  H   H75       1.0  0.31658  0.83247  0.75957  1.0000
  H   H76       1.0  0.16767  0.48545  0.74103  1.0000
  H   H77       1.0  0.48149  0.31580  0.75959  1.0000
  H   H78       1.0  0.83169  0.51237  0.77170  1.0000
  H   H79       1.0  0.38271  0.89089  0.70508  1.0000
  H   H80       1.0  0.10940  0.49279  0.68647  1.0000
  H   H81       1.0  0.48887  0.38165  0.82070  1.0000
  H   H82       1.0  0.89219  0.50842  0.82088  1.0000
  H   H83       1.0  0.50069  0.83365  0.74374  1.0000
  H   H84       1.0  0.49824  0.16686  0.75190  1.0000
  H   H85       1.0  0.50170  0.77036  0.72377  1.0000
  H   H86       1.0  0.49709  0.22988  0.77636  1.0000
  H   H87       1.0  0.60897  0.82170  0.01109  1.0000
  H   H88       1.0  0.38926  0.17876  0.49228  1.0000
  H   H89       1.0  0.60861  0.88463  0.02776  1.0000
  H   H90       1.0  0.39001  0.11622  0.47026  1.0000
  H   H91       1.0  0.40388  0.23943  0.48029  1.0000
  H   H92       1.0  0.75887  0.16753  0.46885  1.0000
  H   H93       1.0  0.82559  0.58268  0.46448  1.0000
  H   H94       1.0  0.59246  0.76028  0.03271  1.0000
  H   H95       1.0  0.23462  0.83635  0.99220  1.0000
  H   H96       1.0  0.16666  0.40642  0.01782  1.0000
  C   C1        1.0  0.55932  0.59119  0.29699  1.0000
  C   C2        1.0  0.40963  0.96554  0.28210  1.0000
  C   C3        1.0  0.03564  0.44368  0.28688  1.0000
  C   C4        1.0  0.44494  0.41004  0.22484  1.0000
  C   C5        1.0  0.59052  0.03468  0.20871  1.0000
  C   C6        1.0  0.96774  0.55619  0.19071  1.0000
  C   C7        1.0  0.52294  0.55474  0.31396  1.0000
  C   C8        1.0  0.44596  0.96569  0.29686  1.0000
  C   C9        1.0  0.03523  0.47988  0.29827  1.0000
  C   C10       1.0  0.48157  0.44632  0.21053  1.0000
  C   C11       1.0  0.55414  0.03442  0.19411  1.0000
  C   C12       1.0  0.96818  0.51995  0.17776  1.0000
  C   C13       1.0  0.52061  0.51884  0.25794  1.0000
  C   C14       1.0  0.48168  0.99971  0.24009  1.0000
  C   C15       1.0  0.00182  0.48161  0.23617  1.0000
  C   C16       1.0  0.48387  0.48225  0.26633  1.0000
  C   C17       1.0  0.51844  0.00029  0.25022  1.0000
  C   C18       1.0  0.00141  0.51805  0.24147  1.0000
  C   C19       1.0  0.55484  0.51921  0.19416  1.0000
  C   C20       1.0  0.48102  0.03338  0.17415  1.0000
  C   C21       1.0  0.96866  0.44711  0.16944  1.0000
  C   C22       1.0  0.44967  0.48202  0.32992  1.0000
  C   C23       1.0  0.51911  0.96660  0.31600  1.0000
  C   C24       1.0  0.03445  0.55236  0.31011  1.0000
  C   C25       1.0  0.59174  0.55540  0.19411  1.0000
  C   C26       1.0  0.44480  0.03372  0.17440  1.0000
  C   C27       1.0  0.96820  0.41037  0.17570  1.0000
  C   C28       1.0  0.41262  0.44602  0.32758  1.0000
  C   C29       1.0  0.55533  0.96621  0.31454  1.0000
  C   C30       1.0  0.03481  0.58905  0.30683  1.0000
  C   C31       1.0  0.59288  0.59061  0.24155  1.0000
  C   C32       1.0  0.41000  0.99961  0.22612  1.0000
  C   C33       1.0  0.00190  0.40974  0.23146  1.0000
  C   C34       1.0  0.41139  0.41091  0.27801  1.0000
  C   C35       1.0  0.59014  0.00046  0.26333  1.0000
  C   C36       1.0  0.00134  0.58986  0.24968  1.0000
  C   C37       1.0  0.51596  0.44863  0.13683  1.0000
  C   C38       1.0  0.55163  0.06637  0.11903  1.0000
  C   C39       1.0  0.93723  0.48550  0.09933  1.0000
  C   C40       1.0  0.48875  0.55242  0.38975  1.0000
  C   C41       1.0  0.44849  0.93385  0.37279  1.0000
  C   C42       1.0  0.06649  0.51432  0.37511  1.0000
  C   C43       1.0  0.55120  0.48353  0.12997  1.0000
  C   C44       1.0  0.51652  0.06594  0.10997  1.0000
  C   C45       1.0  0.93721  0.45043  0.09707  1.0000
  C   C46       1.0  0.45346  0.51760  0.39605  1.0000
  C   C47       1.0  0.48359  0.93420  0.38108  1.0000
  C   C48       1.0  0.06615  0.54918  0.38046  1.0000
  C   C49       1.0  0.07092  0.44087  0.32693  1.0000
  C   C50       1.0  0.44120  0.37129  0.18749  1.0000
  C   C51       1.0  0.62893  0.07016  0.16982  1.0000
  C   C52       1.0  0.62705  0.55576  0.15357  1.0000
  C   C53       1.0  0.44387  0.06828  0.13165  1.0000
  C   C54       1.0  0.93401  0.37455  0.13352  1.0000
  C   C55       1.0  0.37719  0.44549  0.36738  1.0000
  C   C56       1.0  0.55594  0.93132  0.35565  1.0000
  C   C57       1.0  0.06863  0.62470  0.35358  1.0000
  C   C58       1.0  0.06796  0.40935  0.42417  1.0000
  C   C59       1.0  0.40924  0.34269  0.09362  1.0000
  C   C60       1.0  0.65728  0.06722  0.07220  1.0000
  C   C61       1.0  0.10118  0.40620  0.45757  1.0000
  C   C62       1.0  0.40523  0.30581  0.06139  1.0000
  C   C63       1.0  0.69381  0.10046  0.03755  1.0000
  C   C64       1.0  0.13819  0.43368  0.38917  1.0000
  C   C65       1.0  0.43269  0.29594  0.12501  1.0000
  C   C66       1.0  0.70369  0.13756  0.10470  1.0000
  C   C67       1.0  0.14103  0.46467  0.28774  1.0000
  C   C68       1.0  0.46433  0.32422  0.22189  1.0000
  C   C69       1.0  0.67587  0.14037  0.20709  1.0000
  C   C70       1.0  0.10816  0.46845  0.25931  1.0000
  C   C71       1.0  0.46850  0.36108  0.25205  1.0000
  C   C72       1.0  0.63910  0.10744  0.23748  1.0000
  C   C73       1.0  0.65795  0.55558  0.13317  1.0000
  C   C74       1.0  0.44335  0.09911  0.11188  1.0000
  C   C75       1.0  0.90365  0.34282  0.11331  1.0000
  C   C76       1.0  0.34593  0.44506  0.38628  1.0000
  C   C77       1.0  0.55546  0.89995  0.37471  1.0000
  C   C78       1.0  0.09849  0.65657  0.37857  1.0000
  C   C79       1.0  0.69344  0.55443  0.12633  1.0000
  C   C80       1.0  0.44471  0.13589  0.10899  1.0000
  C   C81       1.0  0.55371  0.86291  0.37887  1.0000
  C   C82       1.0  0.52096  0.82938  0.30770  1.0000
  C   C83       1.0  0.69644  0.52478  0.21636  1.0000
  C   C84       1.0  0.47929  0.17013  0.16349  1.0000
  C   C85       1.0  0.52030  0.79361  0.29667  1.0000
  C   C86       1.0  0.73170  0.52452  0.21818  1.0000
  C   C87       1.0  0.48003  0.20580  0.17969  1.0000
  C   C88       1.0  0.55158  0.78934  0.35988  1.0000
  C   C89       1.0  0.76530  0.55344  0.13097  1.0000
  C   C90       1.0  0.44699  0.20929  0.13646  1.0000
  C   C91       1.0  0.58402  0.82261  0.43318  1.0000
  C   C92       1.0  0.76215  0.58280  0.03944  1.0000
  C   C93       1.0  0.41278  0.17536  0.07765  1.0000
  C   C94       1.0  0.58512  0.85869  0.44233  1.0000
  C   C95       1.0  0.72694  0.58322  0.03666  1.0000
  C   C96       1.0  0.41162  0.13933  0.06453  1.0000
  C   C97       1.0  0.42870  0.25753  0.08856  1.0000
  C   C98       1.0  0.74205  0.17230  0.06859  1.0000
  C   C99       1.0  0.83205  0.57359  0.07227  1.0000
  C   C100      1.0  0.56815  0.74071  0.42719  1.0000
  C   C101      1.0  0.25706  0.83043  0.43180  1.0000
  C   C102      1.0  0.17285  0.43013  0.42431  1.0000
  C   C103      1.0  0.55644  0.59005  0.79983  1.0000
  C   C104      1.0  0.40897  0.96718  0.79111  1.0000
  C   C105      1.0  0.03362  0.44367  0.78471  1.0000
  C   C106      1.0  0.44074  0.40905  0.72428  1.0000
  C   C107      1.0  0.58939  0.03327  0.70834  1.0000
  C   C108      1.0  0.96547  0.55627  0.69796  1.0000
  C   C109      1.0  0.51978  0.55378  0.81620  1.0000
  C   C110      1.0  0.44512  0.96683  0.80575  1.0000
  C   C111      1.0  0.03369  0.48021  0.79428  1.0000
  C   C112      1.0  0.47743  0.44527  0.70938  1.0000
  C   C113      1.0  0.55317  0.03337  0.69298  1.0000
  C   C114      1.0  0.96601  0.52018  0.68261  1.0000
  C   C115      1.0  0.51703  0.51774  0.75882  1.0000
  C   C116      1.0  0.48090  0.00011  0.74465  1.0000
  C   C117      1.0  0.00022  0.48206  0.73340  1.0000
  C   C118      1.0  0.48021  0.48122  0.76825  1.0000
  C   C119      1.0  0.51738  0.00000  0.75343  1.0000
  C   C120      1.0  0.99980  0.51851  0.73995  1.0000
  C   C121      1.0  0.55096  0.51781  0.69311  1.0000
  C   C122      1.0  0.48067  0.03376  0.67538  1.0000
  C   C123      1.0  0.96665  0.44750  0.66920  1.0000
  C   C124      1.0  0.44628  0.48106  0.83443  1.0000
  C   C125      1.0  0.51773  0.96629  0.82117  1.0000
  C   C126      1.0  0.03317  0.55304  0.80503  1.0000
  C   C127      1.0  0.58812  0.55372  0.69421  1.0000
  C   C128      1.0  0.44488  0.03492  0.67683  1.0000
  C   C129      1.0  0.96599  0.41066  0.67428  1.0000
  C   C130      1.0  0.40919  0.44506  0.83421  1.0000
  C   C131      1.0  0.55371  0.96543  0.81995  1.0000
  C   C132      1.0  0.03330  0.58961  0.80517  1.0000
  C   C133      1.0  0.58972  0.58900  0.74396  1.0000
  C   C134      1.0  0.40994  0.00138  0.73175  1.0000
  C   C135      1.0  0.99967  0.40987  0.72904  1.0000
  C   C136      1.0  0.40752  0.40988  0.78241  1.0000
  C   C137      1.0  0.58870  0.99919  0.76685  1.0000
  C   C138      1.0  0.99922  0.59015  0.75424  1.0000
  C   C139      1.0  0.51143  0.44749  0.63218  1.0000
  C   C140      1.0  0.55090  0.06503  0.61366  1.0000
  C   C141      1.0  0.93438  0.48559  0.60795  1.0000
  C   C142      1.0  0.48570  0.55156  0.89250  1.0000
  C   C143      1.0  0.44755  0.93518  0.88459  1.0000
  C   C144      1.0  0.06538  0.51498  0.86768  1.0000
  C   C145      1.0  0.54683  0.48220  0.62576  1.0000
  C   C146      1.0  0.51614  0.06531  0.60587  1.0000
  C   C147      1.0  0.93461  0.45066  0.60229  1.0000
  C   C148      1.0  0.45035  0.51678  0.90020  1.0000
  C   C149      1.0  0.48223  0.93466  0.89041  1.0000
  C   C150      1.0  0.06530  0.54998  0.87130  1.0000
  C   C151      1.0  0.37032  0.93232  0.83174  1.0000
  C   C152      1.0  0.06856  0.44028  0.82593  1.0000
  C   C153      1.0  0.43683  0.37046  0.68293  1.0000
  C   C154      1.0  0.92955  0.55841  0.66167  1.0000
  C   C155      1.0  0.62320  0.55374  0.65311  1.0000
  C   C156      1.0  0.44449  0.06980  0.63245  1.0000
  C   C157      1.0  0.93137  0.37492  0.63438  1.0000
  C   C158      1.0  0.37412  0.44487  0.87604  1.0000
  C   C159      1.0  0.55439  0.93074  0.86367  1.0000
  C   C160      1.0  0.06773  0.62505  0.85010  1.0000
  C   C161      1.0  0.34085  0.93610  0.91662  1.0000
  C   C162      1.0  0.06500  0.40773  0.91770  1.0000
  C   C163      1.0  0.40455  0.34190  0.59045  1.0000
  C   C164      1.0  0.93057  0.58828  0.55905  1.0000
  C   C165      1.0  0.30366  0.90326  0.94636  1.0000
  C   C166      1.0  0.09788  0.40388  0.94997  1.0000
  C   C167      1.0  0.40078  0.30523  0.55477  1.0000
  C   C168      1.0  0.89633  0.58983  0.52797  1.0000
  C   C169      1.0  0.29450  0.86539  0.89099  1.0000
  C   C170      1.0  0.13535  0.43198  0.88757  1.0000
  C   C171      1.0  0.42862  0.29551  0.61516  1.0000
  C   C172      1.0  0.86024  0.56241  0.60370  1.0000
  C   C173      1.0  0.32391  0.86157  0.80536  1.0000
  C   C174      1.0  0.13890  0.46418  0.79272  1.0000
  C   C175      1.0  0.46048  0.32377  0.71089  1.0000
  C   C176      1.0  0.85936  0.53309  0.71024  1.0000
  C   C177      1.0  0.36085  0.89426  0.77624  1.0000
  C   C178      1.0  0.10628  0.46830  0.76364  1.0000
  C   C179      1.0  0.46457  0.36046  0.74341  1.0000
  C   C180      1.0  0.89321  0.53094  0.73678  1.0000
  C   C181      1.0  0.65406  0.55335  0.63500  1.0000
  C   C182      1.0  0.44355  0.10043  0.61261  1.0000
  C   C183      1.0  0.90068  0.34334  0.61706  1.0000
  C   C184      1.0  0.34322  0.44521  0.89219  1.0000
  C   C185      1.0  0.55514  0.90005  0.88436  1.0000
  C   C186      1.0  0.09873  0.65592  0.87460  1.0000
  C   C187      1.0  0.44410  0.13694  0.61019  1.0000
  C   C188      1.0  0.55449  0.86354  0.88784  1.0000
  C   C189      1.0  0.52384  0.83054  0.80446  1.0000
  C   C190      1.0  0.47479  0.16987  0.69371  1.0000
  C   C191      1.0  0.52435  0.79539  0.79329  1.0000
  C   C192      1.0  0.47423  0.20496  0.70708  1.0000
  C   C193      1.0  0.55464  0.79116  0.86816  1.0000
  C   C194      1.0  0.44376  0.20926  0.63444  1.0000
  C   C195      1.0  0.58499  0.82393  0.95343  1.0000
  C   C196      1.0  0.41344  0.17661  0.54837  1.0000
  C   C197      1.0  0.58496  0.85944  0.96289  1.0000
  C   C198      1.0  0.41361  0.14121  0.53625  1.0000
  C   C199      1.0  0.42492  0.25712  0.57945  1.0000
  C   C200      1.0  0.74145  0.17042  0.57082  1.0000
  C   C201      1.0  0.82459  0.56448  0.57259  1.0000
  C   C202      1.0  0.57240  0.74283  0.93033  1.0000
  C   C203      1.0  0.25540  0.83103  0.91921  1.0000
  C   C204      1.0  0.16987  0.42815  0.92121  1.0000
  N   N1        1.0  0.45056  0.24620  0.16469  1.0000
  N   N2        1.0  0.75495  0.20402  0.15793  1.0000
  N   N3        1.0  0.79902  0.55010  0.14761  1.0000
  N   N4        1.0  0.54883  0.75258  0.33498  1.0000
  N   N5        1.0  0.24492  0.79775  0.35046  1.0000
  N   N6        1.0  0.20481  0.44990  0.33637  1.0000
  N   N7        1.0  0.44612  0.24576  0.66104  1.0000
  N   N8        1.0  0.75331  0.20243  0.65734  1.0000
  N   N9        1.0  0.79365  0.54529  0.66706  1.0000
  N   N10       1.0  0.55221  0.75455  0.84330  1.0000
  N   N11       1.0  0.24647  0.79687  0.85772  1.0000
  N   N12       1.0  0.20268  0.45045  0.84217  1.0000
  C  Sn1       1.0  0.34804  0.88725  0.21565  1.0000
  C   C205      1.0  0.36463  0.92580  0.27730  1.0000
  C  Sn2       1.0  0.34764  0.93391  0.41497  1.0000
  C  Sn3       1.0  0.31336  0.90284  0.49272  1.0000
  C   C206      1.0  0.29679  0.86431  0.43109  1.0000
  C  Sn4       1.0  0.31376  0.85617  0.29340  1.0000
  O  Te1       1.0  0.36552  0.87982  0.07788  1.0000
  O  Te2       1.0  0.36476  0.97270  0.47432  1.0000
  O  Te3       1.0  0.29589  0.91030  0.63058  1.0000
  O  Te4       1.0  0.29666  0.81742  0.23407  1.0000
  Mg  Mg1       1.0  0.33011  0.96796  0.66544  1.0000
  Mg  Mg2       1.0  0.33129  0.82212  0.04302  1.0000
  C  Sn5       1.0  0.26395  0.40729  0.42405  1.0000
  C   C207      1.0  0.30118  0.43545  0.36311  1.0000
  C  Sn6       1.0  0.30857  0.47288  0.31258  1.0000
  C  Sn7       1.0  0.27812  0.48238  0.32328  1.0000
  C   C208      1.0  0.24092  0.45424  0.38421  1.0000
  C  Sn8       1.0  0.23350  0.41679  0.43475  1.0000
  O  Te5       1.0  0.25722  0.37006  0.47388  1.0000
  O  Te6       1.0  0.34602  0.50053  0.25202  1.0000
  O  Te7       1.0  0.28488  0.51965  0.27338  1.0000
  O  Te8       1.0  0.19608  0.38915  0.49530  1.0000
  Mg  Mg3       1.0  0.34075  0.54727  0.19955  1.0000
  Mg  Mg4       1.0  0.20132  0.34242  0.54789  1.0000
  C  Sn9       1.0  0.60288  0.69254  0.42250  1.0000
  C   C209      1.0  0.57700  0.70515  0.36892  1.0000
  C  Sn10      1.0  0.54004  0.67802  0.30389  1.0000
  C  Sn11      1.0  0.52870  0.63744  0.29226  1.0000
  C   C210      1.0  0.55458  0.62485  0.34585  1.0000
  C  Sn12      1.0  0.59155  0.65196  0.41087  1.0000
  O  Te9       1.0  0.63969  0.72017  0.48710  1.0000
  O  Te10      1.0  0.51467  0.69133  0.25107  1.0000
  O  Te11      1.0  0.49187  0.60980  0.22758  1.0000
  O  Te12      1.0  0.61691  0.63866  0.46369  1.0000
  Mg  Mg5       1.0  0.46764  0.64234  0.17213  1.0000
  Mg  Mg6       1.0  0.66393  0.68762  0.54273  1.0000
  C  Sn13      1.0  0.86939  0.53710  0.23624  1.0000
  C   C211      1.0  0.86796  0.56780  0.15161  1.0000
  C  Sn14      1.0  0.89936  0.59404  0.04905  1.0000
  C  Sn15      1.0  0.93289  0.58950  0.03060  1.0000
  C   C212      1.0  0.93431  0.55881  0.11517  1.0000
  C  Sn16      1.0  0.90291  0.53255  0.21779  1.0000
  O  Te13      1.0  0.83765  0.51121  0.33811  1.0000
  O  Te14      1.0  0.89629  0.62319  0.96575  1.0000
  O  Te15      1.0  0.96367  0.61410  0.92863  1.0000
  O  Te16      1.0  0.90500  0.50210  0.30103  1.0000
  Mg  Mg7       1.0  0.94696  0.65092  0.84105  1.0000
  Mg  Mg8       1.0  0.85434  0.47434  0.42569  1.0000
  C  Sn17      1.0  0.83515  0.24098  0.58625  1.0000
  C   C213      1.0  0.79992  0.23445  0.65967  1.0000
  C  Sn18      1.0  0.79476  0.26636  0.69994  1.0000
  C  Sn19      1.0  0.82544  0.30560  0.66602  1.0000
  C   C214      1.0  0.86065  0.31211  0.59262  1.0000
  C  Sn20      1.0  0.86584  0.28022  0.55233  1.0000
  O  Te17      1.0  0.83967  0.20864  0.54704  1.0000
  O  Te18      1.0  0.75928  0.25909  0.77332  1.0000
  O  Te19      1.0  0.82090  0.33795  0.70531  1.0000
  O  Te20      1.0  0.90129  0.28747  0.47897  1.0000
  Mg  Mg9       1.0  0.76718  0.31290  0.80373  1.0000
  Mg  Mg10      1.0  0.89341  0.23369  0.44843  1.0000
  C  Sn21      1.0  0.85084  0.26374  0.99862  1.0000
  C   C215      1.0  0.86208  0.30273  0.05703  1.0000
  C  Sn22      1.0  0.83761  0.30758  0.17071  1.0000
  C  Sn23      1.0  0.80214  0.27408  0.22728  1.0000
  C   C216      1.0  0.79189  0.23643  0.16891  1.0000
  C  Sn24      1.0  0.81634  0.23155  0.05520  1.0000
  O  Te21      1.0  0.87575  0.25958  0.88501  1.0000
  O  Te22      1.0  0.84849  0.34555  0.22727  1.0000
  O  Te23      1.0  0.77723  0.27827  0.34098  1.0000
  O  Te24      1.0  0.80450  0.19230  0.99867  1.0000
  Mg  Mg11      1.0  0.80482  0.33602  0.38169  1.0000
  Mg  Mg12      1.0  0.84816  0.20179  0.84432  1.0000
  C  Sn25      1.0  0.28048  0.48027  0.77756  1.0000
  C   C217      1.0  0.24236  0.44975  0.81632  1.0000
  C  Sn26      1.0  0.23669  0.41713  0.91153  1.0000
  C  Sn27      1.0  0.26981  0.41497  0.96930  1.0000
  C   C218      1.0  0.30790  0.44548  0.93057  1.0000
  C  Sn28      1.0  0.31360  0.47811  0.83534  1.0000
  O  Te25      1.0  0.28546  0.51260  0.68221  1.0000
  O  Te26      1.0  0.19830  0.38697  0.94863  1.0000
  O  Te27      1.0  0.26577  0.38392  0.06472  1.0000
  O  Te28      1.0  0.35196  0.50826  0.79827  1.0000
  Mg  Mg13      1.0  0.20769  0.35032  0.08263  1.0000
  Mg  Mg14      1.0  0.34358  0.54625  0.66435  1.0000
  C  Sn29      1.0  0.75615  0.58992  0.61945  1.0000
  C   C219      1.0  0.76130  0.55891  0.67642  1.0000
  C  Sn30      1.0  0.72878  0.52094  0.69806  1.0000
  C  Sn31      1.0  0.69030  0.51381  0.66193  1.0000
  C   C220      1.0  0.68517  0.54480  0.60497  1.0000
  C  Sn32      1.0  0.71768  0.58279  0.58331  1.0000
  O  Te29      1.0  0.78909  0.62765  0.59871  1.0000
  O  Te30      1.0  0.73466  0.49041  0.75521  1.0000
  O  Te31      1.0  0.65736  0.47604  0.68272  1.0000
  O  Te32      1.0  0.71181  0.61330  0.52618  1.0000
  Mg  Mg15      1.0  0.68050  0.44412  0.76350  1.0000
  Mg  Mg16      1.0  0.76595  0.65960  0.51776  1.0000
  C  Sn33      1.0  0.66968  0.06838  0.60302  1.0000
  C   C221      1.0  0.63833  0.06648  0.69503  1.0000
  C  Sn34      1.0  0.63754  0.10101  0.73217  1.0000
  C  Sn35      1.0  0.66871  0.13821  0.67608  1.0000
  C   C222      1.0  0.70003  0.14010  0.58410  1.0000
  C  Sn36      1.0  0.70086  0.10559  0.54693  1.0000
  O  Te33      1.0  0.66987  0.03349  0.56734  1.0000
  O  Te34      1.0  0.60589  0.09836  0.82440  1.0000
  O  Te35      1.0  0.66850  0.17312  0.71185  1.0000
  O  Te36      1.0  0.73248  0.10822  0.45474  1.0000
  Mg  Mg17      1.0  0.61896  0.15423  0.84131  1.0000
  Mg  Mg18      1.0  0.71943  0.05238  0.43767  1.0000
  C  Sn37      1.0  0.60453  0.69226  0.91498  1.0000
  C   C223      1.0  0.57895  0.70590  0.86949  1.0000
  C  Sn38      1.0  0.54073  0.67939  0.81479  1.0000
  C  Sn39      1.0  0.52778  0.63839  0.80545  1.0000
  C   C224      1.0  0.55334  0.62477  0.85095  1.0000
  C  Sn40      1.0  0.59158  0.65126  0.90564  1.0000
  O  Te37      1.0  0.64261  0.71930  0.96931  1.0000
  O  Te38      1.0  0.51570  0.69373  0.76993  1.0000
  O  Te39      1.0  0.48966  0.61136  0.75106  1.0000
  O  Te40      1.0  0.61659  0.63694  0.95051  1.0000
  Mg  Mg19      1.0  0.46651  0.64526  0.70374  1.0000
  Mg  Mg20      1.0  0.66674  0.68670  0.01680  1.0000
  C  Sn41      1.0  0.18051  0.69665  0.82807  1.0000
  C   C225      1.0  0.14545  0.68877  0.90787  1.0000
  C  Sn42      1.0  0.14057  0.71979  0.96564  1.0000
  C  Sn43      1.0  0.17136  0.75952  0.94310  1.0000
  C   C226      1.0  0.20639  0.76739  0.86332  1.0000
  C  Sn44      1.0  0.21129  0.73639  0.80553  1.0000
  O  Te41      1.0  0.18474  0.66518  0.77131  1.0000
  O  Te42      1.0  0.10624  0.71249  0.04509  1.0000
  O  Te43      1.0  0.16710  0.79100  0.99994  1.0000
  O  Te44      1.0  0.24657  0.74499  0.72610  1.0000
  Mg  Mg21      1.0  0.11451  0.76551  0.10047  1.0000
  Mg  Mg22      1.0  0.23833  0.69199  0.67059  1.0000
  C  Sn45      1.0  0.19608  0.72117  0.27315  1.0000
  C   C227      1.0  0.20419  0.75873  0.32412  1.0000
  C  Sn46      1.0  0.17759  0.76295  0.42694  1.0000
  C  Sn47      1.0  0.14215  0.72893  0.48003  1.0000
  C   C228      1.0  0.13406  0.69140  0.42909  1.0000
  C  Sn48      1.0  0.16064  0.68715  0.32623  1.0000
  O  Te45      1.0  0.22310  0.71765  0.17035  1.0000
  O  Te46      1.0  0.18634  0.80081  0.47622  1.0000
  O  Te47      1.0  0.11512  0.73248  0.58290  1.0000
  O  Te48      1.0  0.15191  0.64932  0.27699  1.0000
  Mg  Mg23      1.0  0.14026  0.79033  0.61676  1.0000
  Mg  Mg24      1.0  0.19797  0.65976  0.13653  1.0000
