data_image0
_chemical_formula_structural       H64C120N8SnCSn2CSnTe4Mg2SnCSn2CSnTe4Mg2SnCSn2CSnTe4Mg2SnCSn2CSnTe4Mg2SnCSn2CSnTe4Mg2SnCSn2CSnTe4Mg2SnCSn2CSnTe4Mg2SnCSn2CSnTe4Mg2
_chemical_formula_sum              "H64 C136 N8 Sn32 Te32 Mg16"
_cell_length_a       24.4835
_cell_length_b       26.0846
_cell_length_c       7.98976
_cell_angle_alpha    89.401
_cell_angle_beta     67.8827
_cell_angle_gamma    90.0539

_symmetry_space_group_name_H-M    'P1'
_space_group_IT_number       1

loop_
  _space_group_symop_operation_xyz
  'x, y, z'

loop_
  _atom_site_type_symbol
  _atom_site_label
  _atom_site_symmetry_multiplicity
  _atom_site_fract_x
  _atom_site_fract_y
  _atom_site_fract_z
  _atom_site_occupancy
  H   H1        1.0  0.44242  0.21010  0.42521  1.0000
  H   H2        1.0  0.55658  0.70914  0.07653  1.0000
  H   H3        1.0  0.58867  0.52072  0.47694  1.0000
  H   H4        1.0  0.50736  0.57933  0.48672  1.0000
  H   H5        1.0  0.63196  0.67556  0.08029  1.0000
  H   H6        1.0  0.71197  0.61868  0.07519  1.0000
  H   H7        1.0  0.09418  0.81447  0.46307  1.0000
  H   H8        1.0  0.90635  0.31651  0.03697  1.0000
  H   H9        1.0  0.01074  0.75648  0.48187  1.0000
  H   H10       1.0  0.98933  0.25898  0.02068  1.0000
  H   H11       1.0  0.13067  0.66278  0.06614  1.0000
  H   H12       1.0  0.86828  0.16191  0.43300  1.0000
  H   H13       1.0  0.21246  0.71977  0.04795  1.0000
  H   H14       1.0  0.78707  0.21880  0.44977  1.0000
  H   H15       1.0  0.23740  0.09440  0.24762  1.0000
  H   H16       1.0  0.75997  0.59481  0.27103  1.0000
  H   H17       1.0  0.11728  0.95651  0.18231  1.0000
  H   H18       1.0  0.88237  0.45649  0.31851  1.0000
  H   H19       1.0  0.12461  0.86317  0.17886  1.0000
  H   H20       1.0  0.87548  0.36308  0.31797  1.0000
  H   H21       1.0  0.38259  0.87997  0.30915  1.0000
  H   H22       1.0  0.61850  0.38132  0.18197  1.0000
  H   H23       1.0  0.37446  0.97336  0.31778  1.0000
  H   H24       1.0  0.62437  0.47491  0.18905  1.0000
  H   H25       1.0  0.26386  0.74235  0.23915  1.0000
  H   H26       1.0  0.73638  0.24279  0.25500  1.0000
  H   H27       1.0  0.94344  0.12579  0.41817  1.0000
  H   H28       1.0  0.05430  0.63207  0.06453  1.0000
  H   H29       1.0  0.44423  0.21252  0.91919  1.0000
  H   H30       1.0  0.55598  0.70957  0.57452  1.0000
  H   H31       1.0  0.40896  0.02673  0.52204  1.0000
  H   H32       1.0  0.58962  0.52198  0.97426  1.0000
  H   H33       1.0  0.49065  0.08590  0.50650  1.0000
  H   H34       1.0  0.50744  0.57991  0.98374  1.0000
  H   H35       1.0  0.36885  0.17530  0.93388  1.0000
  H   H36       1.0  0.63131  0.67767  0.58226  1.0000
  H   H37       1.0  0.28876  0.11735  0.94770  1.0000
  H   H38       1.0  0.71196  0.62082  0.57419  1.0000
  H   H39       1.0  0.18802  0.11049  0.55347  1.0000
  H   H40       1.0  0.81367  0.61088  0.95328  1.0000
  H   H41       1.0  0.09938  0.16123  0.57494  1.0000
  H   H42       1.0  0.90301  0.66285  0.91541  1.0000
  H   H43       1.0  0.99071  0.05743  0.98645  1.0000
  H   H44       1.0  0.00808  0.56083  0.50145  1.0000
  H   H45       1.0  0.07835  0.00639  0.96277  1.0000
  H   H46       1.0  0.91981  0.50853  0.54049  1.0000
  H   H47       1.0  0.90992  0.31990  0.52607  1.0000
  H   H48       1.0  0.99274  0.26169  0.50636  1.0000
  H   H49       1.0  0.87205  0.16494  0.92033  1.0000
  H   H50       1.0  0.79084  0.22227  0.93972  1.0000
  H   H51       1.0  0.23846  0.09673  0.74866  1.0000
  H   H52       1.0  0.76013  0.59702  0.76809  1.0000
  H   H53       1.0  0.11784  0.95907  0.68513  1.0000
  H   H54       1.0  0.88213  0.45963  0.82345  1.0000
  H   H55       1.0  0.12436  0.86566  0.68505  1.0000
  H   H56       1.0  0.87716  0.36594  0.81537  1.0000
  H   H57       1.0  0.38473  0.88198  0.80125  1.0000
  H   H58       1.0  0.61848  0.38223  0.68936  1.0000
  H   H59       1.0  0.37778  0.97551  0.80486  1.0000
  H   H60       1.0  0.62383  0.47582  0.69434  1.0000
  H   H61       1.0  0.26332  0.74455  0.74285  1.0000
  H   H62       1.0  0.74001  0.24492  0.74810  1.0000
  H   H63       1.0  0.94581  0.12858  0.90452  1.0000
  H   H64       1.0  0.05393  0.63516  0.56944  1.0000
  C   C1        1.0  0.48305  0.19837  0.31436  1.0000
  C   C2        1.0  0.51559  0.69714  0.18693  1.0000
  C   C3        1.0  0.59802  0.55410  0.38762  1.0000
  C   C4        1.0  0.55238  0.58677  0.39405  1.0000
  C   C5        1.0  0.56282  0.63078  0.28264  1.0000
  C   C6        1.0  0.62161  0.64204  0.16910  1.0000
  C   C7        1.0  0.66710  0.60976  0.16585  1.0000
  C   C8        1.0  0.10168  0.78207  0.37266  1.0000
  C   C9        1.0  0.89841  0.28333  0.12679  1.0000
  C   C10       1.0  0.05511  0.74973  0.38468  1.0000
  C   C11       1.0  0.94480  0.25109  0.11600  1.0000
  C   C12       1.0  0.06396  0.70667  0.27305  1.0000
  C   C13       1.0  0.93563  0.20697  0.22636  1.0000
  C   C14       1.0  0.12193  0.69586  0.15393  1.0000
  C   C15       1.0  0.87744  0.19547  0.34457  1.0000
  C   C16       1.0  0.16831  0.72810  0.14370  1.0000
  C   C17       1.0  0.83126  0.22773  0.35403  1.0000
  C   C18       1.0  0.65654  0.56461  0.27168  1.0000
  C   C19       1.0  0.15924  0.77246  0.24940  1.0000
  C   C20       1.0  0.84062  0.27282  0.24824  1.0000
  C   C21       1.0  0.29206  0.03072  0.24978  1.0000
  C   C22       1.0  0.70587  0.53099  0.26448  1.0000
  C   C23       1.0  0.24036  0.05282  0.24726  1.0000
  C   C24       1.0  0.75743  0.55323  0.26755  1.0000
  C   C25       1.0  0.19218  0.02438  0.24492  1.0000
  C   C26       1.0  0.80629  0.52472  0.26372  1.0000
  C   C27       1.0  0.19690  0.97004  0.23461  1.0000
  C   C28       1.0  0.80214  0.47030  0.26962  1.0000
  C   C29       1.0  0.15353  0.93834  0.20677  1.0000
  C   C30       1.0  0.84608  0.43846  0.29408  1.0000
  C   C31       1.0  0.15762  0.88606  0.20476  1.0000
  C   C32       1.0  0.84224  0.38617  0.29370  1.0000
  C   C33       1.0  0.34679  0.89839  0.28279  1.0000
  C   C34       1.0  0.65348  0.39935  0.21323  1.0000
  C   C35       1.0  0.34233  0.95061  0.28708  1.0000
  C   C36       1.0  0.65683  0.45160  0.21666  1.0000
  C   C37       1.0  0.29518  0.97632  0.25761  1.0000
  C   C38       1.0  0.70349  0.47680  0.25010  1.0000
  C   C39       1.0  0.24825  0.94594  0.24425  1.0000
  C   C40       1.0  0.75091  0.44624  0.25930  1.0000
  C   C41       1.0  0.26082  0.78396  0.23933  1.0000
  C   C42       1.0  0.73953  0.28439  0.25443  1.0000
  C   C43       1.0  0.30900  0.81270  0.24033  1.0000
  C   C44       1.0  0.69162  0.31305  0.25128  1.0000
  C   C45       1.0  0.30394  0.86696  0.25125  1.0000
  C   C46       1.0  0.69639  0.36743  0.24321  1.0000
  C   C47       1.0  0.25258  0.89107  0.24182  1.0000
  C   C48       1.0  0.74729  0.39139  0.25630  1.0000
  C   C49       1.0  0.20549  0.86050  0.23071  1.0000
  C   C50       1.0  0.79451  0.36080  0.26661  1.0000
  C   C51       1.0  0.20890  0.80614  0.23889  1.0000
  C   C52       1.0  0.79121  0.30650  0.25715  1.0000
  C   C53       1.0  0.98431  0.13972  0.31163  1.0000
  C   C54       1.0  0.01447  0.64220  0.18089  1.0000
  C   C55       1.0  0.48510  0.20019  0.81056  1.0000
  C   C56       1.0  0.51503  0.69771  0.68515  1.0000
  C   C57       1.0  0.40047  0.05851  0.61540  1.0000
  C   C58       1.0  0.59841  0.55537  0.88508  1.0000
  C   C59       1.0  0.44629  0.09156  0.60546  1.0000
  C   C60       1.0  0.55246  0.58766  0.89171  1.0000
  C   C61       1.0  0.43681  0.13386  0.72081  1.0000
  C   C62       1.0  0.56264  0.63187  0.78138  1.0000
  C   C63       1.0  0.37863  0.14303  0.84224  1.0000
  C   C64       1.0  0.62137  0.64372  0.66893  1.0000
  C   C65       1.0  0.33297  0.11018  0.85015  1.0000
  C   C66       1.0  0.66712  0.61156  0.66435  1.0000
  C   C67       1.0  0.14470  0.09918  0.64906  1.0000
  C   C68       1.0  0.85628  0.60004  0.85361  1.0000
  C   C69       1.0  0.09566  0.12759  0.66018  1.0000
  C   C70       1.0  0.90578  0.62915  0.83365  1.0000
  C   C71       1.0  0.03924  0.11287  0.78210  1.0000
  C   C72       1.0  0.96148  0.61520  0.70748  1.0000
  C   C73       1.0  0.03397  0.06867  0.88933  1.0000
  C   C74       1.0  0.96563  0.57122  0.60343  1.0000
  C   C75       1.0  0.08322  0.03973  0.87535  1.0000
  C   C76       1.0  0.91599  0.54151  0.62629  1.0000
  C   C77       1.0  0.90193  0.28652  0.61508  1.0000
  C   C78       1.0  0.94829  0.25397  0.60259  1.0000
  C   C79       1.0  0.93919  0.20980  0.71268  1.0000
  C   C80       1.0  0.88113  0.19850  0.83212  1.0000
  C   C81       1.0  0.83497  0.23087  0.84291  1.0000
  C   C82       1.0  0.34274  0.06666  0.74007  1.0000
  C   C83       1.0  0.65682  0.56621  0.76904  1.0000
  C   C84       1.0  0.13978  0.05451  0.75475  1.0000
  C   C85       1.0  0.86012  0.55540  0.75182  1.0000
  C   C86       1.0  0.84424  0.27593  0.73732  1.0000
  C   C87       1.0  0.29333  0.03282  0.74813  1.0000
  C   C88       1.0  0.70623  0.53285  0.76254  1.0000
  C   C89       1.0  0.24147  0.05513  0.74762  1.0000
  C   C90       1.0  0.75761  0.55540  0.76610  1.0000
  C   C91       1.0  0.19319  0.02662  0.74615  1.0000
  C   C92       1.0  0.80634  0.52718  0.76481  1.0000
  C   C93       1.0  0.19759  0.97230  0.73719  1.0000
  C   C94       1.0  0.80251  0.47277  0.77055  1.0000
  C   C95       1.0  0.15392  0.94077  0.71020  1.0000
  C   C96       1.0  0.84653  0.44128  0.79610  1.0000
  C   C97       1.0  0.15761  0.88850  0.70983  1.0000
  C   C98       1.0  0.84373  0.38900  0.79196  1.0000
  C   C99       1.0  0.34841  0.90041  0.77788  1.0000
  C   C100      1.0  0.65388  0.40058  0.71762  1.0000
  C   C101      1.0  0.34449  0.95270  0.78008  1.0000
  C   C102      1.0  0.65691  0.45288  0.72008  1.0000
  C   C103      1.0  0.29653  0.97844  0.75528  1.0000
  C   C104      1.0  0.70388  0.47856  0.75035  1.0000
  C   C105      1.0  0.24901  0.94807  0.74574  1.0000
  C   C106      1.0  0.75157  0.44836  0.75932  1.0000
  C   C107      1.0  0.26043  0.78616  0.74318  1.0000
  C   C108      1.0  0.74242  0.28652  0.74982  1.0000
  C   C109      1.0  0.30906  0.81458  0.74192  1.0000
  C   C110      1.0  0.69355  0.31462  0.75170  1.0000
  C   C111      1.0  0.30458  0.86893  0.75170  1.0000
  C   C112      1.0  0.69756  0.36905  0.74488  1.0000
  C   C113      1.0  0.25302  0.89320  0.74444  1.0000
  C   C114      1.0  0.74854  0.39350  0.75569  1.0000
  C   C115      1.0  0.20538  0.86285  0.73597  1.0000
  C   C116      1.0  0.79652  0.36340  0.76274  1.0000
  C   C117      1.0  0.20834  0.80849  0.74508  1.0000
  C   C118      1.0  0.79419  0.30919  0.74983  1.0000
  C   C119      1.0  0.98700  0.14220  0.79862  1.0000
  C   C120      1.0  0.01397  0.64505  0.68583  1.0000
  N   N1        1.0  0.48501  0.16108  0.20651  1.0000
  N   N2        1.0  0.51290  0.65941  0.29645  1.0000
  N   N3        1.0  0.98624  0.17884  0.20843  1.0000
  N   N4        1.0  0.01340  0.67810  0.29282  1.0000
  N   N5        1.0  0.48713  0.16258  0.70372  1.0000
  N   N6        1.0  0.51251  0.66020  0.79531  1.0000
  N   N7        1.0  0.98961  0.18134  0.69471  1.0000
  N   N8        1.0  0.01258  0.68077  0.79879  1.0000
  C  Sn1       1.0  0.57083  0.28848  0.43116  1.0000
  C   C121      1.0  0.62897  0.28006  0.31386  1.0000
  C  Sn2       1.0  0.64113  0.24682  0.16844  1.0000
  C  Sn3       1.0  0.59419  0.22150  0.13958  1.0000
  C   C122      1.0  0.53609  0.22992  0.25681  1.0000
  C  Sn4       1.0  0.52390  0.26315  0.40229  1.0000
  O  Te1       1.0  0.55971  0.32187  0.57565  1.0000
  O  Te2       1.0  0.69961  0.23901  0.05304  1.0000
  O  Te3       1.0  0.48249  0.18477  0.99494  1.0000
  O  Te4       1.0  0.46546  0.27098  0.51762  1.0000
  Mg  Mg1       1.0  0.56947  0.18664  0.87505  1.0000
  Mg  Mg2       1.0  0.47267  0.32005  0.69559  1.0000
  C  Sn5       1.0  0.95482  0.56802  0.05874  1.0000
  C   C123      1.0  0.95902  0.61194  0.15197  1.0000
  C  Sn6       1.0  0.91321  0.62502  0.31287  1.0000
  C  Sn7       1.0  0.86214  0.59353  0.38210  1.0000
  C   C124      1.0  0.85796  0.54964  0.28891  1.0000
  C  Sn8       1.0  0.90375  0.53653  0.12797  1.0000
  O  Te5       1.0  0.87829  0.55237  0.89814  1.0000
  O  Te6       1.0  0.91841  0.66912  0.40363  1.0000
  O  Te7       1.0  0.81578  0.60591  0.54283  1.0000
  O  Te8       1.0  0.89857  0.49246  0.03725  1.0000
  Mg  Mg3       1.0  0.84352  0.66983  0.61729  1.0000
  Mg  Mg4       1.0  0.85057  0.48839  0.82364  1.0000
  C  Sn9       1.0  0.53976  0.28990  0.86545  1.0000
  C   C125      1.0  0.53638  0.24501  0.77584  1.0000
  C  Sn10      1.0  0.58704  0.21646  0.68588  1.0000
  C  Sn11      1.0  0.64224  0.23312  0.68557  1.0000
  C   C126      1.0  0.64560  0.27799  0.77517  1.0000
  C  Sn12      1.0  0.59496  0.30656  0.86514  1.0000
  O  Te9       1.0  0.48854  0.31783  0.95451  1.0000
  O  Te10      1.0  0.58256  0.17172  0.59719  1.0000
  O  Te11      1.0  0.69348  0.20515  0.59640  1.0000
  O  Te12      1.0  0.59942  0.35128  0.95382  1.0000
  Mg  Mg5       1.0  0.66481  0.14679  0.49503  1.0000
  Mg  Mg6       1.0  0.64007  0.37953  0.05609  1.0000
  C  Sn13      1.0  0.15790  0.72888  0.60978  1.0000
  C   C127      1.0  0.15628  0.77315  0.70855  1.0000
  C  Sn14      1.0  0.10717  0.78358  0.86444  1.0000
  C  Sn15      1.0  0.05867  0.74903  0.92292  1.0000
  C   C128      1.0  0.06030  0.70480  0.82419  1.0000
  C  Sn16      1.0  0.10940  0.69434  0.66825  1.0000
  O  Te13      1.0  0.20745  0.71922  0.45434  1.0000
  O  Te14      1.0  0.10656  0.82809  0.96091  1.0000
  O  Te15      1.0  0.13196  0.76204  0.07849  1.0000
  O  Te16      1.0  0.11002  0.64986  0.57183  1.0000
  Mg  Mg7       1.0  0.15196  0.82773  0.16407  1.0000
  Mg  Mg8       1.0  0.18748  0.65348  0.36871  1.0000
  C  Sn17      1.0  0.42953  0.78860  0.55941  1.0000
  C   C129      1.0  0.37116  0.78067  0.67716  1.0000
  C  Sn18      1.0  0.35813  0.74752  0.82571  1.0000
  C  Sn19      1.0  0.40440  0.72177  0.85732  1.0000
  C   C130      1.0  0.46273  0.72971  0.73963  1.0000
  C  Sn20      1.0  0.47580  0.76285  0.59101  1.0000
  O  Te17      1.0  0.44153  0.82191  0.41175  1.0000
  O  Te18      1.0  0.29943  0.74019  0.94151  1.0000
  O  Te19      1.0  0.51522  0.69175  0.00512  1.0000
  O  Te20      1.0  0.53445  0.77019  0.47528  1.0000
  Mg  Mg9       1.0  0.42827  0.69435  0.12429  1.0000
  Mg  Mg10      1.0  0.52853  0.81935  0.29253  1.0000
  C  Sn21      1.0  0.04250  0.06471  0.43708  1.0000
  C   C131      1.0  0.03905  0.10957  0.34445  1.0000
  C  Sn22      1.0  0.08637  0.12493  0.18895  1.0000
  C  Sn23      1.0  0.13822  0.09481  0.12462  1.0000
  C   C132      1.0  0.14164  0.04998  0.21721  1.0000
  C  Sn24      1.0  0.09434  0.03459  0.37275  1.0000
  O  Te21      1.0  0.99465  0.05009  0.59223  1.0000
  O  Te22      1.0  0.08190  0.16993  0.09868  1.0000
  O  Te23      1.0  0.06321  0.10616  0.96934  1.0000
  O  Te24      1.0  0.09980  0.98962  0.46298  1.0000
  Mg  Mg11      1.0  0.03598  0.17052  0.89335  1.0000
  Mg  Mg12      1.0  0.02287  0.98566  0.66826  1.0000
  C  Sn25      1.0  0.43640  0.08590  0.07245  1.0000
  C   C133      1.0  0.43312  0.13088  0.16920  1.0000
  C  Sn26      1.0  0.38278  0.14157  0.32110  1.0000
  C  Sn27      1.0  0.33472  0.10656  0.37755  1.0000
  C   C134      1.0  0.33802  0.06161  0.28085  1.0000
  C  Sn28      1.0  0.38834  0.05089  0.12890  1.0000
  O  Te25      1.0  0.36430  0.07267  0.92101  1.0000
  O  Te26      1.0  0.38052  0.18679  0.41561  1.0000
  O  Te27      1.0  0.28393  0.11651  0.52912  1.0000
  O  Te28      1.0  0.39062  0.00569  0.03444  1.0000
  Mg  Mg13      1.0  0.30184  0.18321  0.61333  1.0000
  Mg  Mg14      1.0  0.34641  0.00591  0.83677  1.0000
  C  Sn29      1.0  0.39190  0.70677  0.29802  1.0000
  C   C135      1.0  0.45078  0.71686  0.18933  1.0000
  C  Sn30      1.0  0.46760  0.76495  0.10730  1.0000
  C  Sn31      1.0  0.42469  0.80378  0.13456  1.0000
  C   C136      1.0  0.36586  0.79369  0.24321  1.0000
  C  Sn32      1.0  0.34899  0.74561  0.32528  1.0000
  O  Te29      1.0  0.37608  0.65842  0.37870  1.0000
  O  Te30      1.0  0.40385  0.77081  0.99917  1.0000
  O  Te31      1.0  0.44056  0.85216  0.05376  1.0000
  O  Te32      1.0  0.28991  0.73643  0.43337  1.0000
  Mg  Mg15      1.0  0.40370  0.84280  0.91838  1.0000
  Mg  Mg16      1.0  0.29003  0.66447  0.51430  1.0000
