data_image0
_chemical_formula_structural       H32C88N8SnCSn2CSnTe4Mg2SnCSn2CSnTe4Mg2SnCSn2CSnTe4Mg2SnCSn2CSnTe4Mg2SnCSn2CSnTe4Mg2SnCSn2CSnTe4Mg2SnCSn2CSnTe4Mg2SnCSn2CSnTe4Mg2SnCSn2CSnTe4Mg2SnCSn2CSnTe4Mg2SnCSn2CSnTe4Mg2SnCSn2CSnTe4Mg2SnCSn2CSnTe4Mg2SnCSn2CSnTe4Mg2SnCSn2CSnTe4Mg2SnCSn2CSnTe4Mg2
_chemical_formula_sum              "H32 C120 N8 Sn64 Te64 Mg32"
_cell_length_a       28.3305
_cell_length_b       28.754
_cell_length_c       8.05405
_cell_angle_alpha    87.6554
_cell_angle_beta     111.994
_cell_angle_gamma    90.5885

_symmetry_space_group_name_H-M    'P1'
_space_group_IT_number       1

loop_
  _space_group_symop_operation_xyz
  'x, y, z'

loop_
  _atom_site_type_symbol
  _atom_site_label
  _atom_site_symmetry_multiplicity
  _atom_site_fract_x
  _atom_site_fract_y
  _atom_site_fract_z
  _atom_site_occupancy
  H   H1        1.0  0.60821  0.44814  0.17214  1.0000
  H   H2        1.0  0.24672  0.81662  0.13761  1.0000
  H   H3        1.0  0.12918  0.96978  0.28018  1.0000
  H   H4        1.0  0.39669  0.55059  0.32227  1.0000
  H   H5        1.0  0.75818  0.18273  0.37043  1.0000
  H   H6        1.0  0.87654  0.02944  0.22596  1.0000
  H   H7        1.0  0.38911  0.46447  0.32406  1.0000
  H   H8        1.0  0.74971  0.78775  0.39461  1.0000
  H   H9        1.0  0.87794  0.94939  0.14151  1.0000
  H   H10       1.0  0.61561  0.53421  0.16868  1.0000
  H   H11       1.0  0.24733  0.21393  0.10340  1.0000
  H   H12       1.0  0.12753  0.05006  0.36081  1.0000
  H   H13       1.0  0.51520  0.65959  0.23879  1.0000
  H   H14       1.0  0.48970  0.33906  0.25397  1.0000
  H   H15       1.0  0.00080  0.15190  0.40660  1.0000
  H   H16       1.0  0.00450  0.84741  0.09701  1.0000
  H   H17       1.0  0.60343  0.45017  0.67350  1.0000
  H   H18       1.0  0.24285  0.81602  0.64515  1.0000
  H   H19       1.0  0.12485  0.97104  0.77929  1.0000
  H   H20       1.0  0.39194  0.55230  0.82583  1.0000
  H   H21       1.0  0.75436  0.18320  0.87403  1.0000
  H   H22       1.0  0.87251  0.02984  0.73125  1.0000
  H   H23       1.0  0.38399  0.46616  0.82403  1.0000
  H   H24       1.0  0.75267  0.78723  0.88934  1.0000
  H   H25       1.0  0.87407  0.94990  0.64745  1.0000
  H   H26       1.0  0.60990  0.53620  0.66564  1.0000
  H   H27       1.0  0.24925  0.21571  0.60143  1.0000
  H   H28       1.0  0.12285  0.05142  0.85804  1.0000
  H   H29       1.0  0.51020  0.66142  0.74280  1.0000
  H   H30       1.0  0.48505  0.34089  0.75881  1.0000
  H   H31       1.0  0.99679  0.15310  0.90526  1.0000
  H   H32       1.0  0.00030  0.84844  0.59756  1.0000
  C   C1        1.0  0.47091  0.60112  0.26971  1.0000
  C   C2        1.0  0.46621  0.55157  0.27082  1.0000
  C   C3        1.0  0.57991  0.46976  0.19361  1.0000
  C   C4        1.0  0.43441  0.62955  0.29659  1.0000
  C   C5        1.0  0.40281  0.65450  0.31954  1.0000
  C   C6        1.0  0.22825  0.80450  0.22970  1.0000
  C   C7        1.0  0.95590  0.09047  0.32679  1.0000
  C   C8        1.0  0.95641  0.04313  0.28127  1.0000
  C   C9        1.0  0.09371  0.98451  0.27683  1.0000
  C   C10       1.0  0.53368  0.39766  0.22171  1.0000
  C   C11       1.0  0.53822  0.44721  0.22018  1.0000
  C   C12       1.0  0.42469  0.52899  0.29862  1.0000
  C   C13       1.0  0.57041  0.36955  0.19506  1.0000
  C   C14       1.0  0.60255  0.34503  0.17337  1.0000
  C   C15       1.0  0.77746  0.19445  0.28036  1.0000
  C   C16       1.0  0.04962  0.90866  0.17960  1.0000
  C   C17       1.0  0.04918  0.95611  0.22420  1.0000
  C   C18       1.0  0.91191  0.01475  0.22849  1.0000
  C   C19       1.0  0.54989  0.59534  0.21377  1.0000
  C   C20       1.0  0.54663  0.54570  0.21759  1.0000
  C   C21       1.0  0.42056  0.48141  0.29972  1.0000
  C   C22       1.0  0.59040  0.61829  0.18345  1.0000
  C   C23       1.0  0.62484  0.63941  0.15711  1.0000
  C   C24       1.0  0.78679  0.78024  0.01063  1.0000
  C   C25       1.0  0.04656  0.09772  0.37127  1.0000
  C   C26       1.0  0.04797  0.05060  0.32689  1.0000
  C   C27       1.0  0.91254  0.96987  0.18007  1.0000
  C   C28       1.0  0.45468  0.40326  0.27767  1.0000
  C   C29       1.0  0.45776  0.45295  0.27325  1.0000
  C   C30       1.0  0.58403  0.51730  0.19223  1.0000
  C   C31       1.0  0.41415  0.38030  0.30814  1.0000
  C   C32       1.0  0.37946  0.35960  0.33447  1.0000
  C   C33       1.0  0.21478  0.22308  0.48171  1.0000
  C   C34       1.0  0.95857  0.90198  0.12993  1.0000
  C   C35       1.0  0.95748  0.94897  0.17603  1.0000
  C   C36       1.0  0.09294  0.02957  0.32349  1.0000
  C   C37       1.0  0.50431  0.52414  0.24466  1.0000
  C   C38       1.0  0.51224  0.62189  0.24006  1.0000
  C   C39       1.0  0.49998  0.47455  0.24562  1.0000
  C   C40       1.0  0.49246  0.37678  0.25181  1.0000
  C   C41       1.0  0.00250  0.02327  0.27878  1.0000
  C   C42       1.0  0.00099  0.11603  0.36940  1.0000
  C   C43       1.0  0.00304  0.97620  0.22541  1.0000
  C   C44       1.0  0.00430  0.88329  0.13435  1.0000
  C   C45       1.0  0.46654  0.60284  0.77673  1.0000
  C   C46       1.0  0.46180  0.55330  0.77646  1.0000
  C   C47       1.0  0.57514  0.47162  0.69584  1.0000
  C   C48       1.0  0.43033  0.63084  0.80721  1.0000
  C   C49       1.0  0.39860  0.65513  0.83245  1.0000
  C   C50       1.0  0.22297  0.80385  0.73276  1.0000
  C   C51       1.0  0.95176  0.09148  0.82741  1.0000
  C   C52       1.0  0.95225  0.04396  0.78350  1.0000
  C   C53       1.0  0.08942  0.98555  0.77687  1.0000
  C   C54       1.0  0.52939  0.39927  0.72669  1.0000
  C   C55       1.0  0.53384  0.44888  0.72446  1.0000
  C   C56       1.0  0.42006  0.53073  0.80273  1.0000
  C   C57       1.0  0.56609  0.37083  0.70062  1.0000
  C   C58       1.0  0.59796  0.34599  0.67853  1.0000
  C   C59       1.0  0.77303  0.19487  0.78217  1.0000
  C   C60       1.0  0.04546  0.90969  0.68053  1.0000
  C   C61       1.0  0.04500  0.95709  0.72533  1.0000
  C   C62       1.0  0.90786  0.01540  0.73250  1.0000
  C   C63       1.0  0.54483  0.59734  0.71571  1.0000
  C   C64       1.0  0.54176  0.54764  0.71993  1.0000
  C   C65       1.0  0.41574  0.48319  0.80187  1.0000
  C   C66       1.0  0.58525  0.62031  0.68411  1.0000
  C   C67       1.0  0.62008  0.64072  0.65755  1.0000
  C   C68       1.0  0.78434  0.77914  0.51209  1.0000
  C   C69       1.0  0.04250  0.09848  0.87236  1.0000
  C   C70       1.0  0.04366  0.05142  0.82737  1.0000
  C   C71       1.0  0.90853  0.97054  0.68379  1.0000
  C   C72       1.0  0.44996  0.40513  0.78019  1.0000
  C   C73       1.0  0.45317  0.45479  0.77639  1.0000
  C   C74       1.0  0.57885  0.51923  0.69251  1.0000
  C   C75       1.0  0.40921  0.38217  0.80874  1.0000
  C   C76       1.0  0.37436  0.36124  0.83287  1.0000
  C   C77       1.0  0.21277  0.22146  0.98423  1.0000
  C   C78       1.0  0.95449  0.90280  0.63161  1.0000
  C   C79       1.0  0.95333  0.94974  0.67828  1.0000
  C   C80       1.0  0.08853  0.03063  0.82258  1.0000
  C   C81       1.0  0.49981  0.52595  0.74916  1.0000
  C   C82       1.0  0.50742  0.62372  0.74437  1.0000
  C   C83       1.0  0.49558  0.47631  0.74990  1.0000
  C   C84       1.0  0.48795  0.37858  0.75600  1.0000
  C   C85       1.0  0.99825  0.02406  0.78030  1.0000
  C   C86       1.0  0.99689  0.11707  0.86935  1.0000
  C   C87       1.0  0.99883  0.97703  0.72687  1.0000
  C   C88       1.0  0.00017  0.88430  0.63523  1.0000
  N   N1        1.0  0.24343  0.76772  0.33428  1.0000
  N   N2        1.0  0.76312  0.23122  0.17523  1.0000
  N   N3        1.0  0.78854  0.74825  0.13062  1.0000
  N   N4        1.0  0.21267  0.25571  0.36351  1.0000
  N   N5        1.0  0.23669  0.76649  0.83474  1.0000
  N   N6        1.0  0.75811  0.23150  0.67666  1.0000
  N   N7        1.0  0.78634  0.74582  0.62775  1.0000
  N   N8        1.0  0.21028  0.25426  0.86631  1.0000
  C  Sn1       1.0  0.36576  0.74374  0.33248  1.0000
  C   C89       1.0  0.37248  0.69613  0.37698  1.0000
  C  Sn2       1.0  0.33259  0.66945  0.39123  1.0000
  C  Sn3       1.0  0.28496  0.69079  0.36024  1.0000
  C   C90       1.0  0.27826  0.73838  0.31574  1.0000
  C  Sn4       1.0  0.31814  0.76508  0.30149  1.0000
  O  Te1       1.0  0.40617  0.76973  0.31897  1.0000
  O  Te2       1.0  0.34023  0.62191  0.43594  1.0000
  O  Te3       1.0  0.24454  0.66475  0.37379  1.0000
  O  Te4       1.0  0.31051  0.81259  0.25677  1.0000
  Mg  Mg1       1.0  0.27359  0.60121  0.43813  1.0000
  Mg  Mg2       1.0  0.37712  0.83332  0.25446  1.0000
  C  Sn5       1.0  0.84592  0.11951  0.42555  1.0000
  C   C91       1.0  0.83109  0.16405  0.34840  1.0000
  C  Sn6       1.0  0.85392  0.18475  0.23751  1.0000
  C  Sn7       1.0  0.89235  0.16041  0.20291  1.0000
  C   C92       1.0  0.90715  0.11590  0.28001  1.0000
  C  Sn8       1.0  0.88435  0.09517  0.39094  1.0000
  O  Te5       1.0  0.82257  0.09950  0.53597  1.0000
  O  Te6       1.0  0.83848  0.22931  0.16196  1.0000
  O  Te7       1.0  0.91569  0.18047  0.09239  1.0000
  O  Te8       1.0  0.89977  0.05063  0.46645  1.0000
  Mg  Mg3       1.0  0.88161  0.24187  0.02056  1.0000
  Mg  Mg4       1.0  0.85665  0.03804  0.60778  1.0000
  C  Sn9       1.0  0.66174  0.23959  0.15801  1.0000
  C   C93       1.0  0.70505  0.25157  0.12245  1.0000
  C  Sn10      1.0  0.71938  0.29813  0.11927  1.0000
  C  Sn11      1.0  0.68981  0.33345  0.15244  1.0000
  C   C94       1.0  0.64653  0.32146  0.18801  1.0000
  C  Sn12      1.0  0.63217  0.27491  0.19118  1.0000
  O  Te9       1.0  0.64814  0.19282  0.16053  1.0000
  O  Te10      1.0  0.76282  0.30926  0.08334  1.0000
  O  Te11      1.0  0.70345  0.38025  0.14989  1.0000
  O  Te12      1.0  0.58876  0.26377  0.22711  1.0000
  Mg  Mg5       1.0  0.76582  0.37793  0.09469  1.0000
  Mg  Mg6       1.0  0.58574  0.19512  0.21589  1.0000
  C  Sn13      1.0  0.12020  0.83517  0.32440  1.0000
  C   C95       1.0  0.10532  0.87950  0.24506  1.0000
  C  Sn14      1.0  0.12761  0.89941  0.13118  1.0000
  C  Sn15      1.0  0.16554  0.87450  0.09576  1.0000
  C   C96       1.0  0.18039  0.83020  0.17503  1.0000
  C  Sn16      1.0  0.15813  0.81026  0.28897  1.0000
  O  Te13      1.0  0.09740  0.81594  0.43780  1.0000
  O  Te14      1.0  0.11212  0.94378  0.05349  1.0000
  O  Te15      1.0  0.29470  0.88339  0.98225  1.0000
  O  Te16      1.0  0.17359  0.76591  0.36661  1.0000
  Mg  Mg7       1.0  0.26077  0.94481  0.90832  1.0000
  Mg  Mg8       1.0  0.13131  0.75446  0.51171  1.0000
  C  Sn17      1.0  0.76780  0.69753  0.97762  1.0000
  C   C97       1.0  0.66473  0.66676  0.07998  1.0000
  C  Sn18      1.0  0.71010  0.65446  0.22108  1.0000
  C  Sn19      1.0  0.75309  0.68392  0.26079  1.0000
  C   C98       1.0  0.74978  0.72504  0.15849  1.0000
  C  Sn20      1.0  0.70442  0.73736  0.01733  1.0000
  O  Te17      1.0  0.72206  0.70913  0.83719  1.0000
  O  Te18      1.0  0.71248  0.61315  0.32148  1.0000
  O  Te19      1.0  0.79885  0.67228  0.40135  1.0000
  O  Te20      1.0  0.80840  0.76828  0.91699  1.0000
  Mg  Mg9       1.0  0.78324  0.61242  0.49945  1.0000
  Mg  Mg10      1.0  0.73766  0.76905  0.73906  1.0000
  C  Sn21      1.0  0.09377  0.17306  0.26406  1.0000
  C   C99       1.0  0.09346  0.13194  0.36236  1.0000
  C  Sn22      1.0  0.13243  0.12247  0.52835  1.0000
  C  Sn23      1.0  0.17254  0.15478  0.59762  1.0000
  C   C100      1.0  0.17283  0.19587  0.49937  1.0000
  C  Sn24      1.0  0.13388  0.20537  0.33333  1.0000
  O  Te21      1.0  0.05442  0.18181  0.09842  1.0000
  O  Te22      1.0  0.13130  0.08112  0.62412  1.0000
  O  Te23      1.0  0.21191  0.14600  0.76340  1.0000
  O  Te24      1.0  0.13499  0.24669  0.23760  1.0000
  Mg  Mg11      1.0  0.19350  0.08488  0.84358  1.0000
  Mg  Mg12      1.0  0.07280  0.24298  0.01819  1.0000
  C  Sn25      1.0  0.09127  0.17239  0.76505  1.0000
  C   C101      1.0  0.08994  0.13192  0.86533  1.0000
  C  Sn26      1.0  0.02220  0.13286  0.03214  1.0000
  C  Sn27      1.0  0.06300  0.16455  0.10022  1.0000
  C   C102      1.0  0.17069  0.19461  0.99999  1.0000
  C  Sn28      1.0  0.13208  0.20408  0.83313  1.0000
  O  Te25      1.0  0.05225  0.18112  0.59862  1.0000
  O  Te26      1.0  0.02004  0.09216  0.12990  1.0000
  O  Te27      1.0  0.10205  0.15578  0.26679  1.0000
  O  Te28      1.0  0.13422  0.24475  0.73541  1.0000
  Mg  Mg13      1.0  0.08217  0.09568  0.34975  1.0000
  Mg  Mg14      1.0  0.07210  0.24128  0.51560  1.0000
  C  Sn29      1.0  0.31760  0.27796  0.52085  1.0000
  C   C103      1.0  0.26551  0.28603  0.42955  1.0000
  C  Sn30      1.0  0.24834  0.31786  0.28344  1.0000
  C  Sn31      1.0  0.28398  0.34211  0.22732  1.0000
  C   C104      1.0  0.33604  0.33402  0.31857  1.0000
  C  Sn32      1.0  0.35325  0.30220  0.46473  1.0000
  O  Te29      1.0  0.33391  0.24598  0.66655  1.0000
  O  Te30      1.0  0.19607  0.32536  0.19432  1.0000
  O  Te31      1.0  0.26764  0.37410  0.08149  1.0000
  O  Te32      1.0  0.40548  0.29470  0.55380  1.0000
  Mg  Mg15      1.0  0.19258  0.37234  0.00331  1.0000
  Mg  Mg16      1.0  0.40901  0.24771  0.74475  1.0000
  C  Sn33      1.0  0.85125  0.88350  0.97281  1.0000
  C   C105      1.0  0.79438  0.88895  0.10015  1.0000
  C  Sn34      1.0  0.81149  0.84597  0.18855  1.0000
  C  Sn35      1.0  0.77845  0.80709  0.14877  1.0000
  C   C106      1.0  0.72899  0.81202  0.02148  1.0000
  C  Sn36      1.0  0.81821  0.84462  0.93303  1.0000
  O  Te33      1.0  0.83495  0.92680  0.88607  1.0000
  O  Te34      1.0  0.86112  0.84190  0.31538  1.0000
  O  Te35      1.0  0.79479  0.76377  0.23564  1.0000
  O  Te36      1.0  0.76861  0.84870  0.80625  1.0000
  Mg  Mg17      1.0  0.86572  0.77568  0.39778  1.0000
  Mg  Mg18      1.0  0.76398  0.91489  0.72370  1.0000
  C  Sn37      1.0  0.88319  0.80973  0.71801  1.0000
  C   C107      1.0  0.83378  0.81385  0.58951  1.0000
  C  Sn38      1.0  0.82301  0.84529  0.44304  1.0000
  C  Sn39      1.0  0.86247  0.87319  0.42453  1.0000
  C   C108      1.0  0.91185  0.86906  0.55295  1.0000
  C  Sn40      1.0  0.92265  0.83762  0.69950  1.0000
  O  Te37      1.0  0.89308  0.77806  0.86335  1.0000
  O  Te38      1.0  0.77331  0.84881  0.31634  1.0000
  O  Te39      1.0  0.85254  0.90487  0.27903  1.0000
  O  Te40      1.0  0.97231  0.83410  0.82612  1.0000
  Mg  Mg19      1.0  0.77881  0.89699  0.14180  1.0000
  Mg  Mg20      1.0  0.86050  0.79630  0.00066  1.0000
  C  Sn41      1.0  0.32362  0.75504  0.75362  1.0000
  C   C109      1.0  0.28102  0.74239  0.79261  1.0000
  C  Sn42      1.0  0.27960  0.69940  0.87787  1.0000
  C  Sn43      1.0  0.32164  0.66842  0.92527  1.0000
  C   C110      1.0  0.36422  0.68108  0.88632  1.0000
  C  Sn44      1.0  0.36567  0.72406  0.80102  1.0000
  O  Te41      1.0  0.32422  0.79819  0.66831  1.0000
  O  Te42      1.0  0.23658  0.68752  0.91541  1.0000
  O  Te43      1.0  0.21465  0.63563  0.01064  1.0000
  O  Te44      1.0  0.40866  0.73595  0.76352  1.0000
  Mg  Mg21      1.0  0.14747  0.63524  0.03348  1.0000
  Mg  Mg22      1.0  0.39145  0.79861  0.64554  1.0000
  C  Sn45      1.0  0.85617  0.17927  0.67729  1.0000
  C   C111      1.0  0.81815  0.16627  0.74098  1.0000
  C  Sn46      1.0  0.82589  0.12883  0.86453  1.0000
  C  Sn47      1.0  0.87260  0.10387  0.92578  1.0000
  C   C112      1.0  0.91059  0.11688  0.86212  1.0000
  C  Sn48      1.0  0.90289  0.15432  0.73854  1.0000
  O  Te45      1.0  0.84762  0.21682  0.55382  1.0000
  O  Te46      1.0  0.78731  0.11647  0.92623  1.0000
  O  Te47      1.0  0.77477  0.07668  0.04934  1.0000
  O  Te48      1.0  0.94144  0.16668  0.67687  1.0000
  Mg  Mg23      1.0  0.71068  0.07318  0.09394  1.0000
  Mg  Mg24      1.0  0.91176  0.22036  0.50924  1.0000
  C  Sn49      1.0  0.67769  0.32758  0.56160  1.0000
  C   C113      1.0  0.63610  0.31633  0.60864  1.0000
  C  Sn50      1.0  0.63571  0.27472  0.70385  1.0000
  C  Sn51      1.0  0.67778  0.24370  0.75320  1.0000
  C   C114      1.0  0.71934  0.25496  0.70620  1.0000
  C  Sn52      1.0  0.71976  0.29657  0.61095  1.0000
  O  Te49      1.0  0.67727  0.36938  0.46641  1.0000
  O  Te50      1.0  0.59369  0.26422  0.74931  1.0000
  O  Te51      1.0  0.67817  0.20188  0.84846  1.0000
  O  Te52      1.0  0.76175  0.30707  0.56552  1.0000
  Mg  Mg25      1.0  0.61212  0.20310  0.87955  1.0000
  Mg  Mg26      1.0  0.74337  0.36820  0.43538  1.0000
  C  Sn53      1.0  0.12362  0.80985  0.73594  1.0000
  C   C115      1.0  0.16402  0.82313  0.68505  1.0000
  C  Sn54      1.0  0.17120  0.86994  0.64755  1.0000
  C  Sn55      1.0  0.13732  0.90419  0.66130  1.0000
  C   C116      1.0  0.09696  0.89090  0.71219  1.0000
  C  Sn56      1.0  0.08974  0.84410  0.74969  1.0000
  O  Te53      1.0  0.11717  0.76285  0.77281  1.0000
  O  Te54      1.0  0.21185  0.88237  0.59687  1.0000
  O  Te55      1.0  0.14381  0.95121  0.62438  1.0000
  O  Te56      1.0  0.04913  0.83167  0.80038  1.0000
  Mg  Mg27      1.0  0.20481  0.95085  0.56055  1.0000
  Mg  Mg28      1.0  0.05615  0.76320  0.83681  1.0000
  C  Sn57      1.0  0.74659  0.66427  0.70356  1.0000
  C   C117      1.0  0.74420  0.70517  0.60076  1.0000
  C  Sn58      1.0  0.69839  0.72971  0.52173  1.0000
  C  Sn59      1.0  0.65403  0.71305  0.54605  1.0000
  C   C118      1.0  0.65642  0.67218  0.64883  1.0000
  C  Sn60      1.0  0.70223  0.64761  0.72789  1.0000
  O  Te57      1.0  0.79280  0.64030  0.78133  1.0000
  O  Te58      1.0  0.69694  0.77050  0.41948  1.0000
  O  Te59      1.0  0.60779  0.73706  0.46817  1.0000
  O  Te60      1.0  0.70369  0.60685  0.83011  1.0000
  Mg  Mg29      1.0  0.62506  0.79088  0.34077  1.0000
  Mg  Mg30      1.0  0.77555  0.58645  0.90894  1.0000
  C  Sn61      1.0  0.24903  0.32413  0.71969  1.0000
  C   C119      1.0  0.25205  0.28202  0.81619  1.0000
  C  Sn62      1.0  0.29784  0.26788  0.95148  1.0000
  C  Sn63      1.0  0.34152  0.29643  0.99123  1.0000
  C   C120      1.0  0.33848  0.33852  0.89478  1.0000
  C  Sn64      1.0  0.29270  0.35269  0.75944  1.0000
  O  Te61      1.0  0.20286  0.33758  0.58502  1.0000
  O  Te62      1.0  0.19357  0.23600  0.04608  1.0000
  O  Te63      1.0  0.28134  0.29333  0.12602  1.0000
  O  Te64      1.0  0.29059  0.39492  0.66490  1.0000
  Mg  Mg31      1.0  0.26512  0.23277  0.21746  1.0000
  Mg  Mg32      1.0  0.21907  0.39820  0.49356  1.0000
