data_image0
_chemical_formula_structural       H64C120N8C2Sn2C2HTe2HMgC2Sn2C2HTe2HMgC2Sn2C2HTe2HMgC2Sn2C2HTe2HMgC2Sn2C2HTe2HMgC2Sn2C2HTe2HMgC2Sn2C2HTe2HMgC2Sn2C2HTe2HMg
_chemical_formula_sum              "H80 C152 N8 Sn16 Te16 Mg8"
_cell_length_a       24.4835
_cell_length_b       26.0846
_cell_length_c       7.98976
_cell_angle_alpha    89.401
_cell_angle_beta     67.8827
_cell_angle_gamma    90.0539

_symmetry_space_group_name_H-M    'P1'
_space_group_IT_number       1

loop_
  _space_group_symop_operation_xyz
  'x, y, z'

loop_
  _atom_site_type_symbol
  _atom_site_label
  _atom_site_symmetry_multiplicity
  _atom_site_fract_x
  _atom_site_fract_y
  _atom_site_fract_z
  _atom_site_occupancy
  H   H1        1.0  0.44242  0.21010  0.42521  1.0000
  H   H2        1.0  0.55658  0.70914  0.07653  1.0000
  H   H3        1.0  0.18600  0.11126  0.06524  1.0000
  H   H4        1.0  0.09665  0.16193  0.09539  1.0000
  H   H5        1.0  0.98916  0.05244  0.48549  1.0000
  H   H6        1.0  0.07757  0.00177  0.45575  1.0000
  H   H7        1.0  0.31461  0.72871  0.43205  1.0000
  H   H8        1.0  0.68484  0.22825  0.06692  1.0000
  H   H9        1.0  0.40312  0.67819  0.40997  1.0000
  H   H10       1.0  0.59517  0.17848  0.09429  1.0000
  H   H11       1.0  0.51187  0.78219  0.99936  1.0000
  H   H12       1.0  0.48874  0.28351  0.49435  1.0000
  H   H13       1.0  0.42398  0.83344  0.02404  1.0000
  H   H14       1.0  0.57761  0.33434  0.46233  1.0000
  H   H15       1.0  0.90635  0.31651  0.03697  1.0000
  H   H16       1.0  0.98933  0.25898  0.02068  1.0000
  H   H17       1.0  0.86828  0.16191  0.43300  1.0000
  H   H18       1.0  0.78707  0.21880  0.44977  1.0000
  H   H19       1.0  0.23740  0.09440  0.24762  1.0000
  H   H20       1.0  0.75997  0.59481  0.27103  1.0000
  H   H21       1.0  0.11728  0.95651  0.18231  1.0000
  H   H22       1.0  0.88237  0.45649  0.31851  1.0000
  H   H23       1.0  0.12461  0.86317  0.17886  1.0000
  H   H24       1.0  0.87548  0.36308  0.31797  1.0000
  H   H25       1.0  0.38259  0.87997  0.30915  1.0000
  H   H26       1.0  0.61850  0.38132  0.18197  1.0000
  H   H27       1.0  0.37446  0.97336  0.31778  1.0000
  H   H28       1.0  0.62437  0.47491  0.18905  1.0000
  H   H29       1.0  0.26386  0.74235  0.23915  1.0000
  H   H30       1.0  0.73638  0.24279  0.25500  1.0000
  H   H31       1.0  0.94344  0.12579  0.41817  1.0000
  H   H32       1.0  0.05430  0.63207  0.06453  1.0000
  H   H33       1.0  0.44423  0.21252  0.91919  1.0000
  H   H34       1.0  0.55598  0.70957  0.57452  1.0000
  H   H35       1.0  0.58962  0.52198  0.97426  1.0000
  H   H36       1.0  0.50744  0.57991  0.98374  1.0000
  H   H37       1.0  0.63131  0.67767  0.58226  1.0000
  H   H38       1.0  0.71196  0.62082  0.57419  1.0000
  H   H39       1.0  0.81367  0.61088  0.95328  1.0000
  H   H40       1.0  0.90301  0.66285  0.91541  1.0000
  H   H41       1.0  0.00808  0.56083  0.50145  1.0000
  H   H42       1.0  0.91981  0.50853  0.54049  1.0000
  H   H43       1.0  0.68693  0.23005  0.56649  1.0000
  H   H44       1.0  0.59724  0.18059  0.59050  1.0000
  H   H45       1.0  0.49077  0.28395  0.99637  1.0000
  H   H46       1.0  0.57947  0.33423  0.96906  1.0000
  H   H47       1.0  0.90992  0.31990  0.52607  1.0000
  H   H48       1.0  0.99274  0.26169  0.50636  1.0000
  H   H49       1.0  0.87205  0.16494  0.92033  1.0000
  H   H50       1.0  0.79084  0.22227  0.93972  1.0000
  H   H51       1.0  0.23846  0.09673  0.74866  1.0000
  H   H52       1.0  0.76013  0.59702  0.76809  1.0000
  H   H53       1.0  0.11784  0.95907  0.68513  1.0000
  H   H54       1.0  0.88213  0.45963  0.82345  1.0000
  H   H55       1.0  0.12436  0.86566  0.68505  1.0000
  H   H56       1.0  0.87716  0.36594  0.81537  1.0000
  H   H57       1.0  0.38473  0.88198  0.80125  1.0000
  H   H58       1.0  0.61848  0.38223  0.68936  1.0000
  H   H59       1.0  0.37778  0.97551  0.80486  1.0000
  H   H60       1.0  0.62383  0.47582  0.69434  1.0000
  H   H61       1.0  0.26332  0.74455  0.74285  1.0000
  H   H62       1.0  0.74001  0.24492  0.74810  1.0000
  H   H63       1.0  0.94581  0.12858  0.90452  1.0000
  H   H64       1.0  0.05393  0.63516  0.56944  1.0000
  C   C1        1.0  0.48305  0.19837  0.31436  1.0000
  C   C2        1.0  0.51559  0.69714  0.18693  1.0000
  C   C3        1.0  0.14284  0.09856  0.15841  1.0000
  C   C4        1.0  0.09336  0.12701  0.17429  1.0000
  C   C5        1.0  0.03705  0.11071  0.29234  1.0000
  C   C6        1.0  0.03237  0.06503  0.39170  1.0000
  C   C7        1.0  0.08207  0.03619  0.37358  1.0000
  C   C8        1.0  0.35787  0.74030  0.33651  1.0000
  C   C9        1.0  0.64182  0.24040  0.16067  1.0000
  C   C10       1.0  0.40697  0.71191  0.32495  1.0000
  C   C11       1.0  0.59201  0.21242  0.17521  1.0000
  C   C12       1.0  0.46341  0.72667  0.20322  1.0000
  C   C13       1.0  0.53583  0.22766  0.29500  1.0000
  C   C14       1.0  0.46860  0.77103  0.09669  1.0000
  C   C15       1.0  0.53161  0.27207  0.39718  1.0000
  C   C16       1.0  0.41926  0.80006  0.11133  1.0000
  C   C17       1.0  0.58156  0.30079  0.37895  1.0000
  C   C18       1.0  0.89841  0.28333  0.12679  1.0000
  C   C19       1.0  0.94480  0.25109  0.11600  1.0000
  C   C20       1.0  0.93563  0.20697  0.22636  1.0000
  C   C21       1.0  0.87744  0.19547  0.34457  1.0000
  C   C22       1.0  0.83126  0.22773  0.35403  1.0000
  C   C23       1.0  0.13854  0.05235  0.25609  1.0000
  C   C24       1.0  0.36266  0.78511  0.23154  1.0000
  C   C25       1.0  0.63788  0.28546  0.26042  1.0000
  C   C26       1.0  0.84062  0.27282  0.24824  1.0000
  C   C27       1.0  0.29206  0.03072  0.24978  1.0000
  C   C28       1.0  0.70587  0.53099  0.26448  1.0000
  C   C29       1.0  0.24036  0.05282  0.24726  1.0000
  C   C30       1.0  0.75743  0.55323  0.26755  1.0000
  C   C31       1.0  0.19218  0.02438  0.24492  1.0000
  C   C32       1.0  0.80629  0.52472  0.26372  1.0000
  C   C33       1.0  0.19690  0.97004  0.23461  1.0000
  C   C34       1.0  0.80214  0.47030  0.26962  1.0000
  C   C35       1.0  0.15353  0.93834  0.20677  1.0000
  C   C36       1.0  0.84608  0.43846  0.29408  1.0000
  C   C37       1.0  0.15762  0.88606  0.20476  1.0000
  C   C38       1.0  0.84224  0.38617  0.29370  1.0000
  C   C39       1.0  0.34679  0.89839  0.28279  1.0000
  C   C40       1.0  0.65348  0.39935  0.21323  1.0000
  C   C41       1.0  0.34233  0.95061  0.28708  1.0000
  C   C42       1.0  0.65683  0.45160  0.21666  1.0000
  C   C43       1.0  0.29518  0.97632  0.25761  1.0000
  C   C44       1.0  0.70349  0.47680  0.25010  1.0000
  C   C45       1.0  0.24825  0.94594  0.24425  1.0000
  C   C46       1.0  0.75091  0.44624  0.25930  1.0000
  C   C47       1.0  0.26082  0.78396  0.23933  1.0000
  C   C48       1.0  0.73953  0.28439  0.25443  1.0000
  C   C49       1.0  0.30900  0.81270  0.24033  1.0000
  C   C50       1.0  0.69162  0.31305  0.25128  1.0000
  C   C51       1.0  0.30394  0.86696  0.25125  1.0000
  C   C52       1.0  0.69639  0.36743  0.24321  1.0000
  C   C53       1.0  0.25258  0.89107  0.24182  1.0000
  C   C54       1.0  0.74729  0.39139  0.25630  1.0000
  C   C55       1.0  0.20549  0.86050  0.23071  1.0000
  C   C56       1.0  0.79451  0.36080  0.26661  1.0000
  C   C57       1.0  0.20890  0.80614  0.23889  1.0000
  C   C58       1.0  0.79121  0.30650  0.25715  1.0000
  C   C59       1.0  0.98431  0.13972  0.31163  1.0000
  C   C60       1.0  0.01447  0.64220  0.18089  1.0000
  C   C61       1.0  0.48510  0.20019  0.81056  1.0000
  C   C62       1.0  0.51503  0.69771  0.68515  1.0000
  C   C63       1.0  0.59841  0.55537  0.88508  1.0000
  C   C64       1.0  0.55246  0.58766  0.89171  1.0000
  C   C65       1.0  0.56264  0.63187  0.78138  1.0000
  C   C66       1.0  0.62137  0.64372  0.66893  1.0000
  C   C67       1.0  0.66712  0.61156  0.66435  1.0000
  C   C68       1.0  0.85628  0.60004  0.85361  1.0000
  C   C69       1.0  0.90578  0.62915  0.83365  1.0000
  C   C70       1.0  0.96148  0.61520  0.70748  1.0000
  C   C71       1.0  0.96563  0.57122  0.60343  1.0000
  C   C72       1.0  0.91599  0.54151  0.62629  1.0000
  C   C73       1.0  0.64388  0.24194  0.66061  1.0000
  C   C74       1.0  0.59416  0.21407  0.67344  1.0000
  C   C75       1.0  0.53793  0.22903  0.79367  1.0000
  C   C76       1.0  0.53369  0.27278  0.89894  1.0000
  C   C77       1.0  0.58357  0.30133  0.88270  1.0000
  C   C78       1.0  0.90193  0.28652  0.61508  1.0000
  C   C79       1.0  0.94829  0.25397  0.60259  1.0000
  C   C80       1.0  0.93919  0.20980  0.71268  1.0000
  C   C81       1.0  0.88113  0.19850  0.83212  1.0000
  C   C82       1.0  0.83497  0.23087  0.84291  1.0000
  C   C83       1.0  0.65682  0.56621  0.76904  1.0000
  C   C84       1.0  0.86012  0.55540  0.75182  1.0000
  C   C85       1.0  0.63988  0.28661  0.76234  1.0000
  C   C86       1.0  0.84424  0.27593  0.73732  1.0000
  C   C87       1.0  0.29333  0.03282  0.74813  1.0000
  C   C88       1.0  0.70623  0.53285  0.76254  1.0000
  C   C89       1.0  0.24147  0.05513  0.74762  1.0000
  C   C90       1.0  0.75761  0.55540  0.76610  1.0000
  C   C91       1.0  0.19319  0.02662  0.74615  1.0000
  C   C92       1.0  0.80634  0.52718  0.76481  1.0000
  C   C93       1.0  0.19759  0.97230  0.73719  1.0000
  C   C94       1.0  0.80251  0.47277  0.77055  1.0000
  C   C95       1.0  0.15392  0.94077  0.71020  1.0000
  C   C96       1.0  0.84653  0.44128  0.79610  1.0000
  C   C97       1.0  0.15761  0.88850  0.70983  1.0000
  C   C98       1.0  0.84373  0.38900  0.79196  1.0000
  C   C99       1.0  0.34841  0.90041  0.77788  1.0000
  C   C100      1.0  0.65388  0.40058  0.71762  1.0000
  C   C101      1.0  0.34449  0.95270  0.78008  1.0000
  C   C102      1.0  0.65691  0.45288  0.72008  1.0000
  C   C103      1.0  0.29653  0.97844  0.75528  1.0000
  C   C104      1.0  0.70388  0.47856  0.75035  1.0000
  C   C105      1.0  0.24901  0.94807  0.74574  1.0000
  C   C106      1.0  0.75157  0.44836  0.75932  1.0000
  C   C107      1.0  0.26043  0.78616  0.74318  1.0000
  C   C108      1.0  0.74242  0.28652  0.74982  1.0000
  C   C109      1.0  0.30906  0.81458  0.74192  1.0000
  C   C110      1.0  0.69355  0.31462  0.75170  1.0000
  C   C111      1.0  0.30458  0.86893  0.75170  1.0000
  C   C112      1.0  0.69756  0.36905  0.74488  1.0000
  C   C113      1.0  0.25302  0.89320  0.74444  1.0000
  C   C114      1.0  0.74854  0.39350  0.75569  1.0000
  C   C115      1.0  0.20538  0.86285  0.73597  1.0000
  C   C116      1.0  0.79652  0.36340  0.76274  1.0000
  C   C117      1.0  0.20834  0.80849  0.74508  1.0000
  C   C118      1.0  0.79419  0.30919  0.74983  1.0000
  C   C119      1.0  0.98700  0.14220  0.79862  1.0000
  C   C120      1.0  0.01397  0.64505  0.68583  1.0000
  N   N1        1.0  0.48501  0.16108  0.20651  1.0000
  N   N2        1.0  0.51290  0.65941  0.29645  1.0000
  N   N3        1.0  0.98624  0.17884  0.20843  1.0000
  N   N4        1.0  0.01340  0.67810  0.29282  1.0000
  N   N5        1.0  0.48713  0.16258  0.70372  1.0000
  N   N6        1.0  0.51251  0.66020  0.79531  1.0000
  N   N7        1.0  0.98961  0.18134  0.69471  1.0000
  N   N8        1.0  0.01258  0.68077  0.79879  1.0000
  C   C121      1.0  0.63787  0.63982  0.15358  1.0000
  C   C122      1.0  0.57714  0.63376  0.24650  1.0000
  C  Sn1       1.0  0.55514  0.59260  0.36664  1.0000
  C  Sn2       1.0  0.59478  0.55693  0.39401  1.0000
  C   C123      1.0  0.65546  0.56335  0.30050  1.0000
  C   C124      1.0  0.67700  0.60466  0.18055  1.0000
  H   H65       1.0  0.65454  0.67180  0.06085  1.0000
  O  Te1       1.0  0.49433  0.58710  0.45832  1.0000
  O  Te2       1.0  0.57398  0.51546  0.51335  1.0000
  H   H66       1.0  0.72402  0.60937  0.10872  1.0000
  Mg  Mg1       1.0  0.48737  0.52434  0.60681  1.0000
  C   C125      1.0  0.11212  0.12667  0.64215  1.0000
  C   C126      1.0  0.05271  0.11610  0.74297  1.0000
  C  Sn3       1.0  0.03673  0.07418  0.86213  1.0000
  C  Sn4       1.0  0.08115  0.04233  0.88044  1.0000
  C   C127      1.0  0.14046  0.05325  0.77906  1.0000
  C   C128      1.0  0.15596  0.09529  0.66018  1.0000
  H   H67       1.0  0.12413  0.15921  0.55023  1.0000
  O  Te3       1.0  0.97717  0.06416  0.96179  1.0000
  O  Te4       1.0  0.06641  0.00020  0.99860  1.0000
  H   H68       1.0  0.20197  0.10348  0.58222  1.0000
  Mg  Mg2       1.0  0.10205  0.00558  0.10506  1.0000
  C   C129      1.0  0.41576  0.05781  0.10723  1.0000
  C   C130      1.0  0.35619  0.05941  0.22012  1.0000
  C  Sn5       1.0  0.33427  0.10068  0.33597  1.0000
  C  Sn6       1.0  0.37281  0.14106  0.33852  1.0000
  C   C131      1.0  0.43233  0.13912  0.22497  1.0000
  C   C132      1.0  0.45380  0.09763  0.10961  1.0000
  H   H69       1.0  0.43238  0.02572  0.01790  1.0000
  O  Te5       1.0  0.27464  0.10166  0.44791  1.0000
  O  Te6       1.0  0.35206  0.18278  0.45294  1.0000
  H   H70       1.0  0.49992  0.09642  0.02214  1.0000
  Mg  Mg3       1.0  0.26726  0.16670  0.58026  1.0000
  C   C133      1.0  0.16337  0.71571  0.13063  1.0000
  C   C134      1.0  0.16217  0.76199  0.21846  1.0000
  C  Sn7       1.0  0.10945  0.77964  0.34772  1.0000
  C  Sn8       1.0  0.05703  0.75033  0.38958  1.0000
  C   C135      1.0  0.05870  0.70406  0.30105  1.0000
  C   C136      1.0  0.11169  0.68676  0.17189  1.0000
  H   H71       1.0  0.20437  0.70230  0.03077  1.0000
  O  Te7       1.0  0.10903  0.82598  0.43414  1.0000
  O  Te8       1.0  0.00374  0.76707  0.51826  1.0000
  H   H72       1.0  0.11261  0.65091  0.10400  1.0000
  Mg  Mg4       1.0  0.02558  0.83269  0.59951  1.0000
  C   C137      1.0  0.86352  0.60814  0.36696  1.0000
  C   C138      1.0  0.85753  0.56639  0.26691  1.0000
  C  Sn9       1.0  0.90712  0.54537  0.13329  1.0000
  C  Sn10      1.0  0.96370  0.56661  0.09954  1.0000
  C   C139      1.0  0.96923  0.60836  0.20046  1.0000
  C   C140      1.0  0.91931  0.62911  0.33381  1.0000
  H   H73       1.0  0.82490  0.62418  0.47021  1.0000
  O  Te9       1.0  0.90034  0.50366  0.03453  1.0000
  O  Te10      1.0  0.89113  0.54303  0.96683  1.0000
  H   H74       1.0  0.92397  0.66141  0.41133  1.0000
  Mg  Mg5       1.0  0.85926  0.48616  0.86792  1.0000
  C   C141      1.0  0.36240  0.14036  0.86018  1.0000
  C   C142      1.0  0.42270  0.13646  0.75750  1.0000
  C  Sn11      1.0  0.44378  0.09731  0.63167  1.0000
  C  Sn12      1.0  0.40365  0.06146  0.60847  1.0000
  C   C143      1.0  0.34340  0.06572  0.71176  1.0000
  C   C144      1.0  0.32278  0.10503  0.83734  1.0000
  H   H75       1.0  0.34643  0.17080  0.95728  1.0000
  O  Te11      1.0  0.50416  0.09395  0.53024  1.0000
  O  Te12      1.0  0.42353  0.02196  0.48361  1.0000
  H   H76       1.0  0.27609  0.10807  0.91674  1.0000
  Mg  Mg6       1.0  0.50987  0.03338  0.37720  1.0000
  C   C145      1.0  0.08426  0.78315  0.89386  1.0000
  C   C146      1.0  0.14463  0.77705  0.79629  1.0000
  C  Sn13      1.0  0.16506  0.73578  0.67937  1.0000
  C  Sn14      1.0  0.12419  0.70002  0.66003  1.0000
  C   C147      1.0  0.06388  0.70647  0.75815  1.0000
  C   C148      1.0  0.04391  0.74790  0.87481  1.0000
  H   H77       1.0  0.06881  0.81521  0.98405  1.0000
  O  Te13      1.0  0.22552  0.73025  0.58295  1.0000
  O  Te14      1.0  0.14340  0.65843  0.54406  1.0000
  H   H78       1.0  0.99717  0.75263  0.95025  1.0000
  Mg  Mg7       1.0  0.23015  0.66732  0.44176  1.0000
  C   C149      1.0  0.43551  0.79988  0.59169  1.0000
  C   C150      1.0  0.37612  0.78986  0.69456  1.0000
  C  Sn15      1.0  0.36003  0.74776  0.81288  1.0000
  C  Sn16      1.0  0.40431  0.71516  0.82823  1.0000
  C   C151      1.0  0.46360  0.72553  0.72482  1.0000
  C   C152      1.0  0.47921  0.76776  0.60680  1.0000
  H   H79       1.0  0.44760  0.83257  0.50044  1.0000
  O  Te15      1.0  0.30049  0.73829  0.91461  1.0000
  O  Te16      1.0  0.38945  0.67283  0.94549  1.0000
  H   H80       1.0  0.52520  0.77552  0.52725  1.0000
  Mg  Mg8       1.0  0.42518  0.67916  0.05558  1.0000
