data_image0
_chemical_formula_structural       H32C72N8SnCSn2CSnTe4Mg2SnCSn2CSnTe4Mg2SnCSn2CSnTe4Mg2SnCSn2CSnTe4Mg2SnCSn2CSnTe4Mg2SnCSn2CSnTe4Mg2SnCSn2CSnTe4Mg2SnCSn2CSnTe4Mg2SnCSn2CSnTe4Mg2SnCSn2CSnTe4Mg2SnCSn2CSnTe4Mg2SnCSn2CSnTe4Mg2SnCSn2CSnTe4Mg2SnCSn2CSnTe4Mg2SnCSn2CSnTe4Mg2SnCSn2CSnTe4Mg2
_chemical_formula_sum              "H32 C104 N8 Sn64 Te64 Mg32"
_cell_length_a       24.4835
_cell_length_b       26.0846
_cell_length_c       7.98976
_cell_angle_alpha    89.401
_cell_angle_beta     67.8827
_cell_angle_gamma    90.0539

_symmetry_space_group_name_H-M    'P1'
_space_group_IT_number       1

loop_
  _space_group_symop_operation_xyz
  'x, y, z'

loop_
  _atom_site_type_symbol
  _atom_site_label
  _atom_site_symmetry_multiplicity
  _atom_site_fract_x
  _atom_site_fract_y
  _atom_site_fract_z
  _atom_site_occupancy
  H   H1        1.0  0.44242  0.21010  0.42521  1.0000
  H   H2        1.0  0.55658  0.70914  0.07653  1.0000
  H   H3        1.0  0.23740  0.09440  0.24762  1.0000
  H   H4        1.0  0.75997  0.59481  0.27103  1.0000
  H   H5        1.0  0.11728  0.95651  0.18231  1.0000
  H   H6        1.0  0.88237  0.45649  0.31851  1.0000
  H   H7        1.0  0.12461  0.86317  0.17886  1.0000
  H   H8        1.0  0.87548  0.36308  0.31797  1.0000
  H   H9        1.0  0.38259  0.87997  0.30915  1.0000
  H   H10       1.0  0.61850  0.38132  0.18197  1.0000
  H   H11       1.0  0.37446  0.97336  0.31778  1.0000
  H   H12       1.0  0.62437  0.47491  0.18905  1.0000
  H   H13       1.0  0.26386  0.74235  0.23915  1.0000
  H   H14       1.0  0.73638  0.24279  0.25500  1.0000
  H   H15       1.0  0.94344  0.12579  0.41817  1.0000
  H   H16       1.0  0.05430  0.63207  0.06453  1.0000
  H   H17       1.0  0.44423  0.21252  0.91919  1.0000
  H   H18       1.0  0.55598  0.70957  0.57452  1.0000
  H   H19       1.0  0.23846  0.09673  0.74866  1.0000
  H   H20       1.0  0.76013  0.59702  0.76809  1.0000
  H   H21       1.0  0.11784  0.95907  0.68513  1.0000
  H   H22       1.0  0.88213  0.45963  0.82345  1.0000
  H   H23       1.0  0.12436  0.86566  0.68505  1.0000
  H   H24       1.0  0.87716  0.36594  0.81537  1.0000
  H   H25       1.0  0.38473  0.88198  0.80125  1.0000
  H   H26       1.0  0.61848  0.38223  0.68936  1.0000
  H   H27       1.0  0.37778  0.97551  0.80486  1.0000
  H   H28       1.0  0.62383  0.47582  0.69434  1.0000
  H   H29       1.0  0.26332  0.74455  0.74285  1.0000
  H   H30       1.0  0.74001  0.24492  0.74810  1.0000
  H   H31       1.0  0.94581  0.12858  0.90452  1.0000
  H   H32       1.0  0.05393  0.63516  0.56944  1.0000
  C   C1        1.0  0.48305  0.19837  0.31436  1.0000
  C   C2        1.0  0.51559  0.69714  0.18693  1.0000
  C   C3        1.0  0.29206  0.03072  0.24978  1.0000
  C   C4        1.0  0.70587  0.53099  0.26448  1.0000
  C   C5        1.0  0.24036  0.05282  0.24726  1.0000
  C   C6        1.0  0.75743  0.55323  0.26755  1.0000
  C   C7        1.0  0.19218  0.02438  0.24492  1.0000
  C   C8        1.0  0.80629  0.52472  0.26372  1.0000
  C   C9        1.0  0.19690  0.97004  0.23461  1.0000
  C   C10       1.0  0.80214  0.47030  0.26962  1.0000
  C   C11       1.0  0.15353  0.93834  0.20677  1.0000
  C   C12       1.0  0.84608  0.43846  0.29408  1.0000
  C   C13       1.0  0.15762  0.88606  0.20476  1.0000
  C   C14       1.0  0.84224  0.38617  0.29370  1.0000
  C   C15       1.0  0.34679  0.89839  0.28279  1.0000
  C   C16       1.0  0.65348  0.39935  0.21323  1.0000
  C   C17       1.0  0.34233  0.95061  0.28708  1.0000
  C   C18       1.0  0.65683  0.45160  0.21666  1.0000
  C   C19       1.0  0.29518  0.97632  0.25761  1.0000
  C   C20       1.0  0.70349  0.47680  0.25010  1.0000
  C   C21       1.0  0.24825  0.94594  0.24425  1.0000
  C   C22       1.0  0.75091  0.44624  0.25930  1.0000
  C   C23       1.0  0.26082  0.78396  0.23933  1.0000
  C   C24       1.0  0.73953  0.28439  0.25443  1.0000
  C   C25       1.0  0.30900  0.81270  0.24033  1.0000
  C   C26       1.0  0.69162  0.31305  0.25128  1.0000
  C   C27       1.0  0.30394  0.86696  0.25125  1.0000
  C   C28       1.0  0.69639  0.36743  0.24321  1.0000
  C   C29       1.0  0.25258  0.89107  0.24182  1.0000
  C   C30       1.0  0.74729  0.39139  0.25630  1.0000
  C   C31       1.0  0.20549  0.86050  0.23071  1.0000
  C   C32       1.0  0.79451  0.36080  0.26661  1.0000
  C   C33       1.0  0.20890  0.80614  0.23889  1.0000
  C   C34       1.0  0.79121  0.30650  0.25715  1.0000
  C   C35       1.0  0.98431  0.13972  0.31163  1.0000
  C   C36       1.0  0.01447  0.64220  0.18089  1.0000
  C   C37       1.0  0.48510  0.20019  0.81056  1.0000
  C   C38       1.0  0.51503  0.69771  0.68515  1.0000
  C   C39       1.0  0.29333  0.03282  0.74813  1.0000
  C   C40       1.0  0.70623  0.53285  0.76254  1.0000
  C   C41       1.0  0.24147  0.05513  0.74762  1.0000
  C   C42       1.0  0.75761  0.55540  0.76610  1.0000
  C   C43       1.0  0.19319  0.02662  0.74615  1.0000
  C   C44       1.0  0.80634  0.52718  0.76481  1.0000
  C   C45       1.0  0.19759  0.97230  0.73719  1.0000
  C   C46       1.0  0.80251  0.47277  0.77055  1.0000
  C   C47       1.0  0.15392  0.94077  0.71020  1.0000
  C   C48       1.0  0.84653  0.44128  0.79610  1.0000
  C   C49       1.0  0.15761  0.88850  0.70983  1.0000
  C   C50       1.0  0.84373  0.38900  0.79196  1.0000
  C   C51       1.0  0.34841  0.90041  0.77788  1.0000
  C   C52       1.0  0.65388  0.40058  0.71762  1.0000
  C   C53       1.0  0.34449  0.95270  0.78008  1.0000
  C   C54       1.0  0.65691  0.45288  0.72008  1.0000
  C   C55       1.0  0.29653  0.97844  0.75528  1.0000
  C   C56       1.0  0.70388  0.47856  0.75035  1.0000
  C   C57       1.0  0.24901  0.94807  0.74574  1.0000
  C   C58       1.0  0.75157  0.44836  0.75932  1.0000
  C   C59       1.0  0.26043  0.78616  0.74318  1.0000
  C   C60       1.0  0.74242  0.28652  0.74982  1.0000
  C   C61       1.0  0.30906  0.81458  0.74192  1.0000
  C   C62       1.0  0.69355  0.31462  0.75170  1.0000
  C   C63       1.0  0.30458  0.86893  0.75170  1.0000
  C   C64       1.0  0.69756  0.36905  0.74488  1.0000
  C   C65       1.0  0.25302  0.89320  0.74444  1.0000
  C   C66       1.0  0.74854  0.39350  0.75569  1.0000
  C   C67       1.0  0.20538  0.86285  0.73597  1.0000
  C   C68       1.0  0.79652  0.36340  0.76274  1.0000
  C   C69       1.0  0.20834  0.80849  0.74508  1.0000
  C   C70       1.0  0.79419  0.30919  0.74983  1.0000
  C   C71       1.0  0.98700  0.14220  0.79862  1.0000
  C   C72       1.0  0.01397  0.64505  0.68583  1.0000
  N   N1        1.0  0.48501  0.16108  0.20651  1.0000
  N   N2        1.0  0.51290  0.65941  0.29645  1.0000
  N   N3        1.0  0.98624  0.17884  0.20843  1.0000
  N   N4        1.0  0.01340  0.67810  0.29282  1.0000
  N   N5        1.0  0.48713  0.16258  0.70372  1.0000
  N   N6        1.0  0.51251  0.66020  0.79531  1.0000
  N   N7        1.0  0.98961  0.18134  0.69471  1.0000
  N   N8        1.0  0.01258  0.68077  0.79879  1.0000
  C  Sn1       1.0  0.36589  0.13069  0.38528  1.0000
  C   C73       1.0  0.42580  0.12685  0.27773  1.0000
  C  Sn2       1.0  0.44480  0.09339  0.13181  1.0000
  C  Sn3       1.0  0.40304  0.06315  0.09249  1.0000
  C   C74       1.0  0.34317  0.06701  0.19998  1.0000
  C  Sn4       1.0  0.32413  0.10046  0.34596  1.0000
  O  Te1       1.0  0.34789  0.16441  0.53047  1.0000
  O  Te2       1.0  0.50493  0.09020  0.02626  1.0000
  O  Te3       1.0  0.29822  0.02611  0.94716  1.0000
  O  Te4       1.0  0.26404  0.10366  0.45145  1.0000
  Mg  Mg1       1.0  0.38488  0.03536  0.84301  1.0000
  Mg  Mg2       1.0  0.26117  0.15519  0.63466  1.0000
  C  Sn5       1.0  0.66255  0.62715  0.19665  1.0000
  C   C75       1.0  0.65911  0.58175  0.29461  1.0000
  C  Sn6       1.0  0.60491  0.55712  0.38150  1.0000
  C  Sn7       1.0  0.55306  0.57829  0.37017  1.0000
  C   C76       1.0  0.55651  0.62366  0.27223  1.0000
  C  Sn8       1.0  0.61070  0.64832  0.18532  1.0000
  O  Te5       1.0  0.71721  0.65113  0.11085  1.0000
  O  Te6       1.0  0.60258  0.51178  0.47868  1.0000
  O  Te7       1.0  0.49838  0.55428  0.45608  1.0000
  O  Te8       1.0  0.61305  0.69363  0.08816  1.0000
  Mg  Mg3       1.0  0.51782  0.49332  0.57214  1.0000
  Mg  Mg4       1.0  0.57491  0.70880  0.99458  1.0000
  C  Sn9       1.0  0.10443  0.11530  0.12164  1.0000
  C   C77       1.0  0.04601  0.10555  0.23549  1.0000
  C  Sn10      1.0  0.03314  0.07064  0.37917  1.0000
  C  Sn11      1.0  0.07963  0.04498  0.40979  1.0000
  C   C78       1.0  0.13801  0.05475  0.29601  1.0000
  C  Sn12      1.0  0.15093  0.08964  0.15226  1.0000
  O  Te9       1.0  0.99341  0.14704  0.97883  1.0000
  O  Te10      1.0  0.97438  0.06151  0.49112  1.0000
  O  Te11      1.0  0.06774  0.00991  0.55274  1.0000
  O  Te12      1.0  0.20964  0.09878  0.04038  1.0000
  Mg  Mg5       1.0  0.98063  0.01041  0.66793  1.0000
  Mg  Mg6       1.0  0.08057  0.14659  0.86360  1.0000
  C  Sn13      1.0  0.93209  0.53367  0.14882  1.0000
  C   C79       1.0  0.87392  0.54261  0.26486  1.0000
  C  Sn14      1.0  0.85756  0.59043  0.34506  1.0000
  C  Sn15      1.0  0.90022  0.63015  0.30843  1.0000
  C   C80       1.0  0.95834  0.62121  0.19243  1.0000
  C  Sn16      1.0  0.97475  0.57339  0.11219  1.0000
  O  Te13      1.0  0.94746  0.48557  0.07013  1.0000
  O  Te14      1.0  0.79915  0.59845  0.46065  1.0000
  O  Te15      1.0  0.88480  0.67828  0.38724  1.0000
  O  Te16      1.0  0.91025  0.56206  0.99664  1.0000
  Mg  Mg7       1.0  0.79971  0.67053  0.53517  1.0000
  Mg  Mg8       1.0  0.90973  0.49000  0.92198  1.0000
  C  Sn17      1.0  0.46287  0.78809  0.12930  1.0000
  C   C81       1.0  0.46535  0.74282  0.22124  1.0000
  C  Sn18      1.0  0.41411  0.71447  0.31266  1.0000
  C  Sn19      1.0  0.35925  0.73170  0.31210  1.0000
  C   C82       1.0  0.35680  0.77694  0.22017  1.0000
  C  Sn20      1.0  0.40802  0.80532  0.12873  1.0000
  O  Te17      1.0  0.51465  0.81582  0.03880  1.0000
  O  Te18      1.0  0.41769  0.66935  0.40368  1.0000
  O  Te19      1.0  0.30745  0.70393  0.40270  1.0000
  O  Te20      1.0  0.40446  0.85042  0.03773  1.0000
  Mg  Mg9       1.0  0.33494  0.64489  0.50710  1.0000
  Mg  Mg10      1.0  0.36430  0.87157  0.93419  1.0000
  C  Sn21      1.0  0.63161  0.24095  0.11552  1.0000
  C   C83       1.0  0.63560  0.28426  0.21188  1.0000
  C  Sn22      1.0  0.58855  0.29790  0.36905  1.0000
  C  Sn23      1.0  0.53644  0.26761  0.43128  1.0000
  C   C84       1.0  0.53248  0.22433  0.33496  1.0000
  C  Sn24      1.0  0.57950  0.21066  0.17775  1.0000
  O  Te21      1.0  0.55632  0.22472  0.95874  1.0000
  O  Te22      1.0  0.59356  0.34138  0.46306  1.0000
  O  Te23      1.0  0.48884  0.28057  0.58818  1.0000
  O  Te24      1.0  0.57451  0.16721  0.08378  1.0000
  Mg  Mg11      1.0  0.51681  0.34326  0.66935  1.0000
  Mg  Mg12      1.0  0.52838  0.16197  0.87754  1.0000
  C  Sn25      1.0  0.15811  0.72777  0.09852  1.0000
  C   C85       1.0  0.15678  0.77108  0.20146  1.0000
  C  Sn26      1.0  0.10826  0.78022  0.36037  1.0000
  C  Sn27      1.0  0.06008  0.74534  0.41768  1.0000
  C   C86       1.0  0.06144  0.70205  0.31479  1.0000
  C  Sn28      1.0  0.10994  0.69288  0.15582  1.0000
  O  Te25      1.0  0.08420  0.71608  0.94011  1.0000
  O  Te26      1.0  0.10792  0.82380  0.46099  1.0000
  O  Te27      1.0  0.01111  0.75375  0.57622  1.0000
  O  Te28      1.0  0.11029  0.64934  0.05526  1.0000
  Mg  Mg13      1.0  0.03127  0.81851  0.66705  1.0000
  Mg  Mg14      1.0  0.06406  0.65126  0.84923  1.0000
  C  Sn29      1.0  0.84129  0.22701  0.39962  1.0000
  C   C87       1.0  0.84293  0.27118  0.29732  1.0000
  C  Sn30      1.0  0.89174  0.28163  0.13939  1.0000
  C  Sn31      1.0  0.93991  0.24718  0.08243  1.0000
  C   C88       1.0  0.93825  0.20303  0.18467  1.0000
  C  Sn32      1.0  0.88946  0.19256  0.34265  1.0000
  O  Te29      1.0  0.79205  0.21733  0.55705  1.0000
  O  Te30      1.0  0.89237  0.32605  0.03941  1.0000
  O  Te31      1.0  0.86631  0.25358  0.92486  1.0000
  O  Te32      1.0  0.88881  0.14817  0.44259  1.0000
  Mg  Mg15      1.0  0.84648  0.31912  0.83461  1.0000
  Mg  Mg16      1.0  0.81185  0.15173  0.64734  1.0000
  C  Sn33      1.0  0.41628  0.05471  0.64098  1.0000
  C   C89       1.0  0.35664  0.05787  0.75220  1.0000
  C  Sn34      1.0  0.33373  0.10322  0.84281  1.0000
  C  Sn35      1.0  0.37120  0.14632  0.82173  1.0000
  C   C90       1.0  0.43080  0.14315  0.71055  1.0000
  C  Sn36      1.0  0.45375  0.09781  0.61991  1.0000
  O  Te33      1.0  0.43823  0.00899  0.55170  1.0000
  O  Te34      1.0  0.27397  0.10546  0.95331  1.0000
  O  Te35      1.0  0.34920  0.19206  0.91114  1.0000
  O  Te36      1.0  0.51347  0.09556  0.50945  1.0000
  Mg  Mg17      1.0  0.38765  0.17956  0.04660  1.0000
  Mg  Mg18      1.0  0.52269  0.02480  0.41602  1.0000
  C  Sn37      1.0  0.63159  0.63088  0.61923  1.0000
  C   C91       1.0  0.57179  0.62643  0.72824  1.0000
  C  Sn38      1.0  0.55329  0.59356  0.87858  1.0000
  C  Sn39      1.0  0.59544  0.56455  0.92094  1.0000
  C   C92       1.0  0.65520  0.56900  0.81199  1.0000
  C  Sn40      1.0  0.67374  0.60186  0.66159  1.0000
  O  Te37      1.0  0.64909  0.66398  0.46960  1.0000
  O  Te38      1.0  0.49326  0.58976  0.98550  1.0000
  O  Te39      1.0  0.70076  0.53474  0.07071  1.0000
  O  Te40      1.0  0.73373  0.60568  0.55473  1.0000
  Mg  Mg19      1.0  0.61405  0.54277  0.17513  1.0000
  Mg  Mg20      1.0  0.73586  0.65599  0.36513  1.0000
  C  Sn41      1.0  0.10651  0.11517  0.60965  1.0000
  C   C93       1.0  0.04801  0.10677  0.72543  1.0000
  C  Sn42      1.0  0.03478  0.07396  0.87496  1.0000
  C  Sn43      1.0  0.08099  0.04905  0.90955  1.0000
  C   C94       1.0  0.13945  0.05747  0.79383  1.0000
  C  Sn44      1.0  0.15273  0.09027  0.64424  1.0000
  O  Te41      1.0  0.11872  0.14813  0.46098  1.0000
  O  Te42      1.0  0.97595  0.06614  0.98875  1.0000
  O  Te43      1.0  0.19161  0.01938  0.05837  1.0000
  O  Te44      1.0  0.21151  0.09810  0.53052  1.0000
  Mg  Mg21      1.0  0.10454  0.02107  0.17396  1.0000
  Mg  Mg22      1.0  0.20585  0.14649  0.34532  1.0000
  C  Sn45      1.0  0.95444  0.57137  0.56090  1.0000
  C   C95       1.0  0.95854  0.61496  0.65579  1.0000
  C  Sn46      1.0  0.91282  0.62746  0.81767  1.0000
  C  Sn47      1.0  0.86196  0.59571  0.88621  1.0000
  C   C96       1.0  0.85788  0.55214  0.79136  1.0000
  C  Sn48      1.0  0.90358  0.53962  0.62944  1.0000
  O  Te45      1.0  0.00068  0.55961  0.39935  1.0000
  O  Te46      1.0  0.91792  0.67125  0.91009  1.0000
  O  Te47      1.0  0.93858  0.61082  0.04789  1.0000
  O  Te48      1.0  0.89850  0.49585  0.53706  1.0000
  Mg  Mg23      1.0  0.96611  0.67449  0.12454  1.0000
  Mg  Mg24      1.0  0.97317  0.49587  0.32265  1.0000
  C  Sn49      1.0  0.46260  0.78864  0.62760  1.0000
  C   C97       1.0  0.46497  0.74318  0.71868  1.0000
  C  Sn50      1.0  0.41364  0.71496  0.81019  1.0000
  C  Sn51      1.0  0.35878  0.73252  0.81059  1.0000
  C   C98       1.0  0.35642  0.77795  0.71953  1.0000
  C  Sn52      1.0  0.40774  0.80620  0.62799  1.0000
  O  Te49      1.0  0.51447  0.81624  0.53700  1.0000
  O  Te50      1.0  0.41712  0.66964  0.90034  1.0000
  O  Te51      1.0  0.30689  0.70488  0.90130  1.0000
  O  Te52      1.0  0.40428  0.85149  0.53787  1.0000
  Mg  Mg25      1.0  0.45713  0.64879  0.00429  1.0000
  Mg  Mg26      1.0  0.48710  0.87566  0.43380  1.0000
  C  Sn53      1.0  0.57277  0.28879  0.93405  1.0000
  C   C99       1.0  0.63096  0.28061  0.81675  1.0000
  C  Sn54      1.0  0.64324  0.24820  0.66909  1.0000
  C  Sn55      1.0  0.59637  0.22347  0.63795  1.0000
  C   C100      1.0  0.53822  0.23166  0.75519  1.0000
  C  Sn56      1.0  0.52590  0.26406  0.90291  1.0000
  O  Te53      1.0  0.68439  0.32466  0.08081  1.0000
  O  Te54      1.0  0.70177  0.24060  0.55373  1.0000
  O  Te55      1.0  0.60767  0.19088  0.49105  1.0000
  O  Te56      1.0  0.59028  0.27497  0.01820  1.0000
  Mg  Mg27      1.0  0.69467  0.19275  0.37218  1.0000
  Mg  Mg28      1.0  0.59732  0.32284  0.19973  1.0000
  C  Sn57      1.0  0.05849  0.77033  0.85628  1.0000
  C   C101      1.0  0.06057  0.72463  0.76437  1.0000
  C  Sn58      1.0  0.11425  0.69993  0.67673  1.0000
  C  Sn59      1.0  0.16697  0.72132  0.68115  1.0000
  C   C102      1.0  0.16487  0.76698  0.77305  1.0000
  C  Sn60      1.0  0.11120  0.79172  0.86070  1.0000
  O  Te57      1.0  0.00433  0.79437  0.94295  1.0000
  O  Te58      1.0  0.11522  0.65429  0.58567  1.0000
  O  Te59      1.0  0.22115  0.69724  0.59438  1.0000
  O  Te60      1.0  0.11022  0.83733  0.95174  1.0000
  Mg  Mg29      1.0  0.19978  0.63584  0.48828  1.0000
  Mg  Mg30      1.0  0.14855  0.85910  0.04925  1.0000
  C  Sn61      1.0  0.91138  0.27355  0.56513  1.0000
  C   C103      1.0  0.85224  0.26965  0.68111  1.0000
  C  Sn62      1.0  0.83546  0.23706  0.83209  1.0000
  C  Sn63      1.0  0.87870  0.20778  0.86797  1.0000
  C   C104      1.0  0.93780  0.21170  0.75205  1.0000
  C  Sn64      1.0  0.95462  0.24428  0.60101  1.0000
  O  Te61      1.0  0.92715  0.30638  0.41500  1.0000
  O  Te62      1.0  0.77607  0.23379  0.94605  1.0000
  O  Te63      1.0  0.98575  0.17825  0.01825  1.0000
  O  Te64      1.0  0.01398  0.24756  0.48712  1.0000
  Mg  Mg31      1.0  0.89930  0.18700  0.13349  1.0000
  Mg  Mg32      1.0  0.01367  0.29766  0.29970  1.0000
