data_image0
_chemical_formula_structural       H64C136N8C2Sn2C2HTe2HMgC2Sn2C2HTe2HMgC2Sn2C2HTe2HMgC2Sn2C2HTe2HMgC2Sn2C2HTe2HMgC2Sn2C2HTe2HMgC2Sn2C2HTe2HMgC2Sn2C2HTe2HMg
_chemical_formula_sum              "H80 C168 N8 Sn16 Te16 Mg8"
_cell_length_a       28.3305
_cell_length_b       28.754
_cell_length_c       8.05405
_cell_angle_alpha    87.6554
_cell_angle_beta     111.994
_cell_angle_gamma    90.5885

_symmetry_space_group_name_H-M    'P1'
_space_group_IT_number       1

loop_
  _space_group_symop_operation_xyz
  'x, y, z'

loop_
  _atom_site_type_symbol
  _atom_site_label
  _atom_site_symmetry_multiplicity
  _atom_site_fract_x
  _atom_site_fract_y
  _atom_site_fract_z
  _atom_site_occupancy
  H   H1        1.0  0.60821  0.44814  0.17214  1.0000
  H   H2        1.0  0.39374  0.74561  0.24283  1.0000
  H   H3        1.0  0.32463  0.79691  0.24615  1.0000
  H   H4        1.0  0.25926  0.68200  0.44256  1.0000
  H   H5        1.0  0.32864  0.62983  0.43700  1.0000
  H   H6        1.0  0.24672  0.81662  0.13761  1.0000
  H   H7        1.0  0.12918  0.96978  0.28018  1.0000
  H   H8        1.0  0.39669  0.55059  0.32227  1.0000
  H   H9        1.0  0.60867  0.25354  0.23584  1.0000
  H   H10       1.0  0.67845  0.20180  0.23930  1.0000
  H   H11       1.0  0.75008  0.31767  0.07545  1.0000
  H   H12       1.0  0.68011  0.37016  0.07382  1.0000
  H   H13       1.0  0.75818  0.18273  0.37043  1.0000
  H   H14       1.0  0.87654  0.02944  0.22596  1.0000
  H   H15       1.0  0.38911  0.46447  0.32406  1.0000
  H   H16       1.0  0.79518  0.67120  0.30555  1.0000
  H   H17       1.0  0.72434  0.62070  0.31934  1.0000
  H   H18       1.0  0.74971  0.78775  0.39461  1.0000
  H   H19       1.0  0.87794  0.94939  0.14151  1.0000
  H   H20       1.0  0.04634  0.17876  0.19889  1.0000
  H   H21       1.0  0.11817  0.23385  0.24277  1.0000
  H   H22       1.0  0.21175  0.14360  0.17858  1.0000
  H   H23       1.0  0.13982  0.08890  0.12941  1.0000
  H   H24       1.0  0.61561  0.53421  0.16868  1.0000
  H   H25       1.0  0.20824  0.33339  0.19068  1.0000
  H   H26       1.0  0.28075  0.38104  0.17483  1.0000
  H   H27       1.0  0.24733  0.21393  0.10340  1.0000
  H   H28       1.0  0.12753  0.05006  0.36081  1.0000
  H   H29       1.0  0.51520  0.65959  0.23879  1.0000
  H   H30       1.0  0.48970  0.33906  0.25397  1.0000
  H   H31       1.0  0.00080  0.15190  0.40660  1.0000
  H   H32       1.0  0.00450  0.84741  0.09701  1.0000
  H   H33       1.0  0.60343  0.45017  0.67350  1.0000
  H   H34       1.0  0.39287  0.74728  0.78442  1.0000
  H   H35       1.0  0.32262  0.79784  0.78409  1.0000
  H   H36       1.0  0.24853  0.67905  0.91778  1.0000
  H   H37       1.0  0.31952  0.62777  0.91919  1.0000
  H   H38       1.0  0.24285  0.81602  0.64515  1.0000
  H   H39       1.0  0.12485  0.97104  0.77929  1.0000
  H   H40       1.0  0.39194  0.55230  0.82583  1.0000
  H   H41       1.0  0.60471  0.25436  0.74526  1.0000
  H   H42       1.0  0.67433  0.20258  0.74888  1.0000
  H   H43       1.0  0.74534  0.31799  0.57943  1.0000
  H   H44       1.0  0.67538  0.37054  0.57642  1.0000
  H   H45       1.0  0.75436  0.18320  0.87403  1.0000
  H   H46       1.0  0.87251  0.02984  0.73125  1.0000
  H   H47       1.0  0.38399  0.46616  0.82403  1.0000
  H   H48       1.0  0.61583  0.71706  0.95367  1.0000
  H   H49       1.0  0.68602  0.76675  0.93915  1.0000
  H   H50       1.0  0.75267  0.78723  0.88934  1.0000
  H   H51       1.0  0.87407  0.94990  0.64745  1.0000
  H   H52       1.0  0.04393  0.17908  0.69923  1.0000
  H   H53       1.0  0.11711  0.23242  0.74177  1.0000
  H   H54       1.0  0.21515  0.14477  0.67421  1.0000
  H   H55       1.0  0.14416  0.08921  0.62705  1.0000
  H   H56       1.0  0.60990  0.53620  0.66564  1.0000
  H   H57       1.0  0.38603  0.28203  0.53863  1.0000
  H   H58       1.0  0.31440  0.23505  0.55363  1.0000
  H   H59       1.0  0.24925  0.21571  0.60143  1.0000
  H   H60       1.0  0.12285  0.05142  0.85804  1.0000
  H   H61       1.0  0.51020  0.66142  0.74280  1.0000
  H   H62       1.0  0.48505  0.34089  0.75881  1.0000
  H   H63       1.0  0.99679  0.15310  0.90526  1.0000
  H   H64       1.0  0.00030  0.84844  0.59756  1.0000
  C   C1        1.0  0.47091  0.60112  0.26971  1.0000
  C   C2        1.0  0.46621  0.55157  0.27082  1.0000
  C   C3        1.0  0.57991  0.46976  0.19361  1.0000
  C   C4        1.0  0.43441  0.62955  0.29659  1.0000
  C   C5        1.0  0.40281  0.65450  0.31954  1.0000
  C   C6        1.0  0.36519  0.68386  0.33454  1.0000
  C   C7        1.0  0.36405  0.73178  0.28545  1.0000
  C   C8        1.0  0.32490  0.76028  0.28586  1.0000
  C   C9        1.0  0.28548  0.74218  0.33596  1.0000
  C   C10       1.0  0.28843  0.69511  0.39568  1.0000
  C   C11       1.0  0.32704  0.66622  0.39276  1.0000
  C   C12       1.0  0.22825  0.80450  0.22970  1.0000
  C   C13       1.0  0.95590  0.09047  0.32679  1.0000
  C   C14       1.0  0.95641  0.04313  0.28127  1.0000
  C   C15       1.0  0.09371  0.98451  0.27683  1.0000
  C   C16       1.0  0.53368  0.39766  0.22171  1.0000
  C   C17       1.0  0.53822  0.44721  0.22018  1.0000
  C   C18       1.0  0.42469  0.52899  0.29862  1.0000
  C   C19       1.0  0.57041  0.36955  0.19506  1.0000
  C   C20       1.0  0.60255  0.34503  0.17337  1.0000
  C   C21       1.0  0.64061  0.31574  0.16153  1.0000
  C   C22       1.0  0.64013  0.26749  0.20333  1.0000
  C   C23       1.0  0.67954  0.23877  0.20689  1.0000
  C   C24       1.0  0.72087  0.25707  0.16861  1.0000
  C   C25       1.0  0.71953  0.30447  0.11476  1.0000
  C   C26       1.0  0.68060  0.33351  0.11350  1.0000
  C   C27       1.0  0.77746  0.19445  0.28036  1.0000
  C   C28       1.0  0.04962  0.90866  0.17960  1.0000
  C   C29       1.0  0.04918  0.95611  0.22420  1.0000
  C   C30       1.0  0.91191  0.01475  0.22849  1.0000
  C   C31       1.0  0.54989  0.59534  0.21377  1.0000
  C   C32       1.0  0.54663  0.54570  0.21759  1.0000
  C   C33       1.0  0.42056  0.48141  0.29972  1.0000
  C   C34       1.0  0.59040  0.61829  0.18345  1.0000
  C   C35       1.0  0.62484  0.63941  0.15711  1.0000
  C   C36       1.0  0.66507  0.66542  0.13703  1.0000
  C   C37       1.0  0.65519  0.70700  0.02944  1.0000
  C   C38       1.0  0.69477  0.73465  0.02124  1.0000
  C   C39       1.0  0.74594  0.72184  0.12055  1.0000
  C   C40       1.0  0.75569  0.68027  0.22688  1.0000
  C   C41       1.0  0.71627  0.65221  0.23385  1.0000
  C   C42       1.0  0.78679  0.78024  0.01063  1.0000
  C   C43       1.0  0.04656  0.09772  0.37127  1.0000
  C   C44       1.0  0.04797  0.05060  0.32689  1.0000
  C   C45       1.0  0.91254  0.96987  0.18007  1.0000
  C   C46       1.0  0.09034  0.12958  0.40713  1.0000
  C   C47       1.0  0.08335  0.17154  0.30377  1.0000
  C   C48       1.0  0.12312  0.20239  0.32750  1.0000
  C   C49       1.0  0.17148  0.19283  0.46021  1.0000
  C   C50       1.0  0.17509  0.15090  0.07144  1.0000
  C   C51       1.0  0.13475  0.12014  0.04368  1.0000
  C   C52       1.0  0.45468  0.40326  0.27767  1.0000
  C   C53       1.0  0.45776  0.45295  0.27325  1.0000
  C   C54       1.0  0.58403  0.51730  0.19223  1.0000
  C   C55       1.0  0.41415  0.38030  0.30814  1.0000
  C   C56       1.0  0.37946  0.35960  0.33447  1.0000
  C   C57       1.0  0.33853  0.33480  0.35519  1.0000
  C   C58       1.0  0.34708  0.29338  0.46330  1.0000
  C   C59       1.0  0.30661  0.26727  0.47238  1.0000
  C   C60       1.0  0.25583  0.28143  0.37401  1.0000
  C   C61       1.0  0.24740  0.32302  0.26825  1.0000
  C   C62       1.0  0.28775  0.34950  0.25985  1.0000
  C   C63       1.0  0.21478  0.22308  0.48171  1.0000
  C   C64       1.0  0.95857  0.90198  0.12993  1.0000
  C   C65       1.0  0.95748  0.94897  0.17603  1.0000
  C   C66       1.0  0.09294  0.02957  0.32349  1.0000
  C   C67       1.0  0.50431  0.52414  0.24466  1.0000
  C   C68       1.0  0.51224  0.62189  0.24006  1.0000
  C   C69       1.0  0.49998  0.47455  0.24562  1.0000
  C   C70       1.0  0.49246  0.37678  0.25181  1.0000
  C   C71       1.0  0.00250  0.02327  0.27878  1.0000
  C   C72       1.0  0.00099  0.11603  0.36940  1.0000
  C   C73       1.0  0.00304  0.97620  0.22541  1.0000
  C   C74       1.0  0.00430  0.88329  0.13435  1.0000
  C   C75       1.0  0.46654  0.60284  0.77673  1.0000
  C   C76       1.0  0.46180  0.55330  0.77646  1.0000
  C   C77       1.0  0.57514  0.47162  0.69584  1.0000
  C   C78       1.0  0.43033  0.63084  0.80721  1.0000
  C   C79       1.0  0.39860  0.65513  0.83245  1.0000
  C   C80       1.0  0.36038  0.68379  0.84661  1.0000
  C   C81       1.0  0.36102  0.73241  0.81224  1.0000
  C   C82       1.0  0.32119  0.76050  0.80943  1.0000
  C   C83       1.0  0.27915  0.74111  0.84050  1.0000
  C   C84       1.0  0.28001  0.69316  0.88571  1.0000
  C   C85       1.0  0.31950  0.66485  0.88686  1.0000
  C   C86       1.0  0.22297  0.80385  0.73276  1.0000
  C   C87       1.0  0.95176  0.09148  0.82741  1.0000
  C   C88       1.0  0.95225  0.04396  0.78350  1.0000
  C   C89       1.0  0.08942  0.98555  0.77687  1.0000
  C   C90       1.0  0.52939  0.39927  0.72669  1.0000
  C   C91       1.0  0.53384  0.44888  0.72446  1.0000
  C   C92       1.0  0.42006  0.53073  0.80273  1.0000
  C   C93       1.0  0.56609  0.37083  0.70062  1.0000
  C   C94       1.0  0.59796  0.34599  0.67853  1.0000
  C   C95       1.0  0.63590  0.31646  0.66616  1.0000
  C   C96       1.0  0.63579  0.26828  0.71030  1.0000
  C   C97       1.0  0.67517  0.23944  0.71371  1.0000
  C   C98       1.0  0.71613  0.25747  0.67247  1.0000
  C   C99       1.0  0.71470  0.30486  0.61826  1.0000
  C   C100      1.0  0.67582  0.33399  0.61702  1.0000
  C   C101      1.0  0.77303  0.19487  0.78217  1.0000
  C   C102      1.0  0.04546  0.90969  0.68053  1.0000
  C   C103      1.0  0.04500  0.95709  0.72533  1.0000
  C   C104      1.0  0.90786  0.01540  0.73250  1.0000
  C   C105      1.0  0.54483  0.59734  0.71571  1.0000
  C   C106      1.0  0.54176  0.54764  0.71993  1.0000
  C   C107      1.0  0.41574  0.48319  0.80187  1.0000
  C   C108      1.0  0.58525  0.62031  0.68411  1.0000
  C   C109      1.0  0.62008  0.64072  0.65755  1.0000
  C   C110      1.0  0.78434  0.77914  0.51209  1.0000
  C   C111      1.0  0.04250  0.09848  0.87236  1.0000
  C   C112      1.0  0.04366  0.05142  0.82737  1.0000
  C   C113      1.0  0.90853  0.97054  0.68379  1.0000
  C   C114      1.0  0.08682  0.12979  0.90916  1.0000
  C   C115      1.0  0.08076  0.17142  0.80453  1.0000
  C   C116      1.0  0.12122  0.20139  0.82795  1.0000
  C   C117      1.0  0.16921  0.19154  0.96241  1.0000
  C   C118      1.0  0.17822  0.15186  0.56824  1.0000
  C   C119      1.0  0.13846  0.12047  0.54111  1.0000
  C   C120      1.0  0.44996  0.40513  0.78019  1.0000
  C   C121      1.0  0.45317  0.45479  0.77639  1.0000
  C   C122      1.0  0.57885  0.51923  0.69251  1.0000
  C   C123      1.0  0.40921  0.38217  0.80874  1.0000
  C   C124      1.0  0.37436  0.36124  0.83287  1.0000
  C   C125      1.0  0.21277  0.22146  0.98423  1.0000
  C   C126      1.0  0.95449  0.90280  0.63161  1.0000
  C   C127      1.0  0.95333  0.94974  0.67828  1.0000
  C   C128      1.0  0.08853  0.03063  0.82258  1.0000
  C   C129      1.0  0.49981  0.52595  0.74916  1.0000
  C   C130      1.0  0.50742  0.62372  0.74437  1.0000
  C   C131      1.0  0.49558  0.47631  0.74990  1.0000
  C   C132      1.0  0.48795  0.37858  0.75600  1.0000
  C   C133      1.0  0.99825  0.02406  0.78030  1.0000
  C   C134      1.0  0.99689  0.11707  0.86935  1.0000
  C   C135      1.0  0.99883  0.97703  0.72687  1.0000
  C   C136      1.0  0.00017  0.88430  0.63523  1.0000
  N   N1        1.0  0.24343  0.76772  0.33428  1.0000
  N   N2        1.0  0.76312  0.23122  0.17523  1.0000
  N   N3        1.0  0.78854  0.74825  0.13062  1.0000
  N   N4        1.0  0.21267  0.25571  0.36351  1.0000
  N   N5        1.0  0.23669  0.76649  0.83474  1.0000
  N   N6        1.0  0.75811  0.23150  0.67666  1.0000
  N   N7        1.0  0.78634  0.74582  0.62775  1.0000
  N   N8        1.0  0.21028  0.25426  0.86631  1.0000
  C   C137      1.0  0.26898  0.34792  0.74666  1.0000
  C   C138      1.0  0.32138  0.34196  0.83875  1.0000
  C  Sn1       1.0  0.34030  0.30205  0.94764  1.0000
  C  Sn2       1.0  0.30605  0.26751  0.96434  1.0000
  C   C139      1.0  0.25370  0.27378  0.87155  1.0000
  C   C140      1.0  0.23517  0.31386  0.76300  1.0000
  H   H65       1.0  0.25464  0.37892  0.66259  1.0000
  O  Te1       1.0  0.28640  0.30704  0.03876  1.0000
  O  Te2       1.0  0.21758  0.23765  0.07221  1.0000
  H   H66       1.0  0.19460  0.31845  0.69163  1.0000
  Mg  Mg1       1.0  0.29232  0.24619  0.16963  1.0000
  C   C141      1.0  0.88850  0.17287  0.72426  1.0000
  C   C142      1.0  0.90603  0.12973  0.81063  1.0000
  C  Sn3       1.0  0.87693  0.10392  0.88792  1.0000
  C  Sn4       1.0  0.82942  0.12172  0.87832  1.0000
  C   C143      1.0  0.81220  0.16490  0.79151  1.0000
  C   C144      1.0  0.84163  0.19045  0.71467  1.0000
  H   H67       1.0  0.91126  0.19263  0.66472  1.0000
  O  Te3       1.0  0.89502  0.06088  0.97376  1.0000
  O  Te4       1.0  0.79956  0.09664  0.95437  1.0000
  H   H68       1.0  0.82804  0.22384  0.64771  1.0000
  Mg  Mg2       1.0  0.73418  0.05009  0.05694  1.0000
  C   C145      1.0  0.86170  0.09770  0.39349  1.0000
  C   C146      1.0  0.89971  0.10927  0.32797  1.0000
  C  Sn5       1.0  0.89970  0.15302  0.24583  1.0000
  C  Sn6       1.0  0.86087  0.18573  0.22921  1.0000
  C   C147      1.0  0.82303  0.17383  0.29531  1.0000
  C   C148      1.0  0.82339  0.12995  0.37722  1.0000
  H   H69       1.0  0.86199  0.06376  0.45695  1.0000
  O  Te5       1.0  0.93796  0.16401  0.18105  1.0000
  O  Te6       1.0  0.85996  0.22971  0.14776  1.0000
  H   H70       1.0  0.79398  0.12101  0.42803  1.0000
  Mg  Mg3       1.0  0.92036  0.22837  0.08051  1.0000
  C   C149      1.0  0.85328  0.87740  0.92501  1.0000
  C   C150      1.0  0.79502  0.88609  0.06255  1.0000
  C  Sn7       1.0  0.80891  0.84830  0.18600  1.0000
  C  Sn8       1.0  0.77391  0.81156  0.17110  1.0000
  C   C151      1.0  0.72589  0.81356  0.03295  1.0000
  C   C152      1.0  0.81874  0.84117  0.91018  1.0000
  H   H71       1.0  0.84283  0.90679  0.82995  1.0000
  O  Te7       1.0  0.85711  0.84717  0.32264  1.0000
  O  Te8       1.0  0.78681  0.77336  0.29263  1.0000
  H   H72       1.0  0.78151  0.84246  0.80363  1.0000
  Mg  Mg4       1.0  0.85699  0.78772  0.45570  1.0000
  C   C153      1.0  0.74754  0.67032  0.75568  1.0000
  C   C154      1.0  0.74645  0.70846  0.64100  1.0000
  C  Sn9       1.0  0.69997  0.72675  0.52261  1.0000
  C  Sn10      1.0  0.65380  0.70642  0.51933  1.0000
  C   C155      1.0  0.65530  0.66830  0.63468  1.0000
  C   C156      1.0  0.70201  0.65026  0.75257  1.0000
  H   H73       1.0  0.78368  0.65638  0.84697  1.0000
  O  Te9       1.0  0.69957  0.76485  0.40890  1.0000
  O  Te10      1.0  0.60682  0.72402  0.40238  1.0000
  H   H74       1.0  0.70284  0.62075  0.84143  1.0000
  Mg  Mg5       1.0  0.62603  0.77636  0.27335  1.0000
  C   C157      1.0  0.82668  0.86179  0.41839  1.0000
  C   C158      1.0  0.82640  0.81761  0.49710  1.0000
  C  Sn11      1.0  0.86996  0.80036  0.63580  1.0000
  C  Sn12      1.0  0.91458  0.82792  0.69657  1.0000
  C   C159      1.0  0.91446  0.87208  0.61703  1.0000
  C   C160      1.0  0.87066  0.88900  0.47829  1.0000
  H   H75       1.0  0.79278  0.87489  0.31111  1.0000
  O  Te11      1.0  0.86903  0.75615  0.71291  1.0000
  O  Te12      1.0  0.95865  0.81154  0.83502  1.0000
  H   H76       1.0  0.87088  0.92322  0.41745  1.0000
  Mg  Mg6       1.0  0.93858  0.74909  0.89754  1.0000
  C   C161      1.0  0.14146  0.90214  0.62638  1.0000
  C   C162      1.0  0.09948  0.88887  0.66810  1.0000
  C  Sn13      1.0  0.09845  0.84515  0.74895  1.0000
  C  Sn14      1.0  0.14029  0.81421  0.78866  1.0000
  C   C163      1.0  0.18213  0.82783  0.74650  1.0000
  C   C164      1.0  0.18276  0.87165  0.66556  1.0000
  H   H77       1.0  0.14196  0.93606  0.56384  1.0000
  O  Te13      1.0  0.05619  0.83244  0.78968  1.0000
  O  Te14      1.0  0.14026  0.77032  0.86950  1.0000
  H   H78       1.0  0.21529  0.88193  0.63338  1.0000
  Mg  Mg7       1.0  0.07397  0.76892  0.89925  1.0000
  C   C165      1.0  0.11127  0.82626  0.27809  1.0000
  C   C166      1.0  0.09828  0.87228  0.21633  1.0000
  C  Sn15      1.0  0.12831  0.89809  0.14293  1.0000
  C  Sn16      1.0  0.17213  0.87734  0.13128  1.0000
  C   C167      1.0  0.18479  0.83127  0.19333  1.0000
  C   C168      1.0  0.15448  0.80576  0.26659  1.0000
  H   H79       1.0  0.08781  0.80651  0.33469  1.0000
  O  Te15      1.0  0.11479  0.94403  0.08192  1.0000
  O  Te16      1.0  0.20281  0.90234  0.05846  1.0000
  H   H80       1.0  0.16453  0.77012  0.31430  1.0000
  Mg  Mg8       1.0  0.27501  0.95348  0.99349  1.0000
