data_image0
_chemical_formula_structural       H48C132N12C2Sn2C2HTe2HMgC2Sn2C2HTe2HMgC2Sn2C2HTe2HMgC2Sn2C2HTe2HMgC2Sn2C2HTe2HMgC2Sn2C2HTe2HMgC2Sn2C2HTe2HMgC2Sn2C2HTe2HMgC2Sn2C2HTe2HMgC2Sn2C2HTe2HMgC2Sn2C2HTe2HMgC2Sn2C2HTe2HMgC2Sn2C2HTe2HMgC2Sn2C2HTe2HMgC2Sn2C2HTe2HMgC2Sn2C2HTe2HMgC2Sn2C2HTe2HMgC2Sn2C2HTe2HMgC2Sn2C2HTe2HMgC2Sn2C2HTe2HMgC2Sn2C2HTe2HMgC2Sn2C2HTe2HMgC2Sn2C2HTe2HMgC2Sn2C2HTe2HMg
_chemical_formula_sum              "H96 C228 N12 Sn48 Te48 Mg24"
_cell_length_a       39.1724
_cell_length_b       39.05
_cell_length_c       7.94281
_cell_angle_alpha    89.7654
_cell_angle_beta     89.9134
_cell_angle_gamma    120.145

_symmetry_space_group_name_H-M    'P1'
_space_group_IT_number       1

loop_
  _space_group_symop_operation_xyz
  'x, y, z'

loop_
  _atom_site_type_symbol
  _atom_site_label
  _atom_site_symmetry_multiplicity
  _atom_site_fract_x
  _atom_site_fract_y
  _atom_site_fract_z
  _atom_site_occupancy
  H   H1        1.0  0.62094  0.61819  0.23289  1.0000
  H   H2        1.0  0.38235  0.99977  0.22168  1.0000
  H   H3        1.0  0.00160  0.38175  0.22965  1.0000
  H   H4        1.0  0.38319  0.38344  0.28332  1.0000
  H   H5        1.0  0.61781  0.00031  0.26771  1.0000
  H   H6        1.0  0.00170  0.61786  0.25445  1.0000
  H   H7        1.0  0.51374  0.42207  0.08299  1.0000
  H   H8        1.0  0.57825  0.09131  0.06722  1.0000
  H   H9        1.0  0.91352  0.48748  0.03788  1.0000
  H   H10       1.0  0.49124  0.57895  0.44529  1.0000
  H   H11       1.0  0.42196  0.90912  0.42630  1.0000
  H   H12       1.0  0.09065  0.51238  0.43230  1.0000
  H   H13       1.0  0.57709  0.48483  0.07281  1.0000
  H   H14       1.0  0.51489  0.09033  0.05166  1.0000
  H   H15       1.0  0.91331  0.42443  0.03738  1.0000
  H   H16       1.0  0.42765  0.51630  0.45407  1.0000
  H   H17       1.0  0.48526  0.90990  0.43993  1.0000
  H   H18       1.0  0.08999  0.57515  0.44048  1.0000
  H   H19       1.0  0.40685  0.23961  0.99238  1.0000
  H   H20       1.0  0.75853  0.16996  0.96129  1.0000
  H   H21       1.0  0.83651  0.59806  0.98873  1.0000
  H   H22       1.0  0.58628  0.75774  0.53486  1.0000
  H   H23       1.0  0.24000  0.83395  0.53374  1.0000
  H   H24       1.0  0.17003  0.41048  0.52977  1.0000
  H   H25       1.0  0.61797  0.61642  0.73679  1.0000
  H   H26       1.0  0.38263  0.00218  0.72535  1.0000
  H   H27       1.0  0.99923  0.38183  0.72574  1.0000
  H   H28       1.0  0.37932  0.38240  0.78899  1.0000
  H   H29       1.0  0.61615  0.99864  0.77268  1.0000
  H   H30       1.0  0.99912  0.61788  0.76187  1.0000
  H   H31       1.0  0.50896  0.42100  0.57640  1.0000
  H   H32       1.0  0.57738  0.08902  0.55636  1.0000
  H   H33       1.0  0.90975  0.48736  0.55490  1.0000
  H   H34       1.0  0.48807  0.57817  0.94638  1.0000
  H   H35       1.0  0.42125  0.91124  0.94313  1.0000
  H   H36       1.0  0.08979  0.51328  0.92354  1.0000
  H   H37       1.0  0.57244  0.48339  0.56630  1.0000
  H   H38       1.0  0.51473  0.08946  0.54395  1.0000
  H   H39       1.0  0.91035  0.42455  0.54491  1.0000
  H   H40       1.0  0.42469  0.51571  0.95861  1.0000
  H   H41       1.0  0.48341  0.91026  0.95131  1.0000
  H   H42       1.0  0.08950  0.57612  0.92875  1.0000
  H   H43       1.0  0.40388  0.23943  0.48029  1.0000
  H   H44       1.0  0.75887  0.16753  0.46885  1.0000
  H   H45       1.0  0.82559  0.58268  0.46448  1.0000
  H   H46       1.0  0.59246  0.76028  0.03271  1.0000
  H   H47       1.0  0.23462  0.83635  0.99220  1.0000
  H   H48       1.0  0.16666  0.40642  0.01782  1.0000
  C   C1        1.0  0.55932  0.59119  0.29699  1.0000
  C   C2        1.0  0.40963  0.96554  0.28210  1.0000
  C   C3        1.0  0.03564  0.44368  0.28688  1.0000
  C   C4        1.0  0.44494  0.41004  0.22484  1.0000
  C   C5        1.0  0.59052  0.03468  0.20871  1.0000
  C   C6        1.0  0.96774  0.55619  0.19071  1.0000
  C   C7        1.0  0.52294  0.55474  0.31396  1.0000
  C   C8        1.0  0.44596  0.96569  0.29686  1.0000
  C   C9        1.0  0.03523  0.47988  0.29827  1.0000
  C   C10       1.0  0.48157  0.44632  0.21053  1.0000
  C   C11       1.0  0.55414  0.03442  0.19411  1.0000
  C   C12       1.0  0.96818  0.51995  0.17776  1.0000
  C   C13       1.0  0.52061  0.51884  0.25794  1.0000
  C   C14       1.0  0.48168  0.99971  0.24009  1.0000
  C   C15       1.0  0.00182  0.48161  0.23617  1.0000
  C   C16       1.0  0.48387  0.48225  0.26633  1.0000
  C   C17       1.0  0.51844  0.00029  0.25022  1.0000
  C   C18       1.0  0.00141  0.51805  0.24147  1.0000
  C   C19       1.0  0.55484  0.51921  0.19416  1.0000
  C   C20       1.0  0.48102  0.03338  0.17415  1.0000
  C   C21       1.0  0.96866  0.44711  0.16944  1.0000
  C   C22       1.0  0.44967  0.48202  0.32992  1.0000
  C   C23       1.0  0.51911  0.96660  0.31600  1.0000
  C   C24       1.0  0.03445  0.55236  0.31011  1.0000
  C   C25       1.0  0.59174  0.55540  0.19411  1.0000
  C   C26       1.0  0.44480  0.03372  0.17440  1.0000
  C   C27       1.0  0.96820  0.41037  0.17570  1.0000
  C   C28       1.0  0.41262  0.44602  0.32758  1.0000
  C   C29       1.0  0.55533  0.96621  0.31454  1.0000
  C   C30       1.0  0.03481  0.58905  0.30683  1.0000
  C   C31       1.0  0.59288  0.59061  0.24155  1.0000
  C   C32       1.0  0.41000  0.99961  0.22612  1.0000
  C   C33       1.0  0.00190  0.40974  0.23146  1.0000
  C   C34       1.0  0.41139  0.41091  0.27801  1.0000
  C   C35       1.0  0.59014  0.00046  0.26333  1.0000
  C   C36       1.0  0.00134  0.58986  0.24968  1.0000
  C   C37       1.0  0.51596  0.44863  0.13683  1.0000
  C   C38       1.0  0.55163  0.06637  0.11903  1.0000
  C   C39       1.0  0.93723  0.48550  0.09933  1.0000
  C   C40       1.0  0.48875  0.55242  0.38975  1.0000
  C   C41       1.0  0.44849  0.93385  0.37279  1.0000
  C   C42       1.0  0.06649  0.51432  0.37511  1.0000
  C   C43       1.0  0.55120  0.48353  0.12997  1.0000
  C   C44       1.0  0.51652  0.06594  0.10997  1.0000
  C   C45       1.0  0.93721  0.45043  0.09707  1.0000
  C   C46       1.0  0.45346  0.51760  0.39605  1.0000
  C   C47       1.0  0.48359  0.93420  0.38108  1.0000
  C   C48       1.0  0.06615  0.54918  0.38046  1.0000
  C   C49       1.0  0.62705  0.55576  0.15357  1.0000
  C   C50       1.0  0.44387  0.06828  0.13165  1.0000
  C   C51       1.0  0.93401  0.37455  0.13352  1.0000
  C   C52       1.0  0.37719  0.44549  0.36738  1.0000
  C   C53       1.0  0.55594  0.93132  0.35565  1.0000
  C   C54       1.0  0.06863  0.62470  0.35358  1.0000
  C   C55       1.0  0.65795  0.55558  0.13317  1.0000
  C   C56       1.0  0.44335  0.09911  0.11188  1.0000
  C   C57       1.0  0.90365  0.34282  0.11331  1.0000
  C   C58       1.0  0.34593  0.44506  0.38628  1.0000
  C   C59       1.0  0.55546  0.89995  0.37471  1.0000
  C   C60       1.0  0.09849  0.65657  0.37857  1.0000
  C   C61       1.0  0.42870  0.25753  0.08856  1.0000
  C   C62       1.0  0.74205  0.17230  0.06859  1.0000
  C   C63       1.0  0.83205  0.57359  0.07227  1.0000
  C   C64       1.0  0.56815  0.74071  0.42719  1.0000
  C   C65       1.0  0.25706  0.83043  0.43180  1.0000
  C   C66       1.0  0.17285  0.43013  0.42431  1.0000
  C   C67       1.0  0.55644  0.59005  0.79983  1.0000
  C   C68       1.0  0.40897  0.96718  0.79111  1.0000
  C   C69       1.0  0.03362  0.44367  0.78471  1.0000
  C   C70       1.0  0.44074  0.40905  0.72428  1.0000
  C   C71       1.0  0.58939  0.03327  0.70834  1.0000
  C   C72       1.0  0.96547  0.55627  0.69796  1.0000
  C   C73       1.0  0.51978  0.55378  0.81620  1.0000
  C   C74       1.0  0.44512  0.96683  0.80575  1.0000
  C   C75       1.0  0.03369  0.48021  0.79428  1.0000
  C   C76       1.0  0.47743  0.44527  0.70938  1.0000
  C   C77       1.0  0.55317  0.03337  0.69298  1.0000
  C   C78       1.0  0.96601  0.52018  0.68261  1.0000
  C   C79       1.0  0.51703  0.51774  0.75882  1.0000
  C   C80       1.0  0.48090  0.00011  0.74465  1.0000
  C   C81       1.0  0.00022  0.48206  0.73340  1.0000
  C   C82       1.0  0.48021  0.48122  0.76825  1.0000
  C   C83       1.0  0.51738  0.00000  0.75343  1.0000
  C   C84       1.0  0.99980  0.51851  0.73995  1.0000
  C   C85       1.0  0.55096  0.51781  0.69311  1.0000
  C   C86       1.0  0.48067  0.03376  0.67538  1.0000
  C   C87       1.0  0.96665  0.44750  0.66920  1.0000
  C   C88       1.0  0.44628  0.48106  0.83443  1.0000
  C   C89       1.0  0.51773  0.96629  0.82117  1.0000
  C   C90       1.0  0.03317  0.55304  0.80503  1.0000
  C   C91       1.0  0.58812  0.55372  0.69421  1.0000
  C   C92       1.0  0.44488  0.03492  0.67683  1.0000
  C   C93       1.0  0.96599  0.41066  0.67428  1.0000
  C   C94       1.0  0.40919  0.44506  0.83421  1.0000
  C   C95       1.0  0.55371  0.96543  0.81995  1.0000
  C   C96       1.0  0.03330  0.58961  0.80517  1.0000
  C   C97       1.0  0.58972  0.58900  0.74396  1.0000
  C   C98       1.0  0.40994  0.00138  0.73175  1.0000
  C   C99       1.0  0.99967  0.40987  0.72904  1.0000
  C   C100      1.0  0.40752  0.40988  0.78241  1.0000
  C   C101      1.0  0.58870  0.99919  0.76685  1.0000
  C   C102      1.0  0.99922  0.59015  0.75424  1.0000
  C   C103      1.0  0.51143  0.44749  0.63218  1.0000
  C   C104      1.0  0.55090  0.06503  0.61366  1.0000
  C   C105      1.0  0.93438  0.48559  0.60795  1.0000
  C   C106      1.0  0.48570  0.55156  0.89250  1.0000
  C   C107      1.0  0.44755  0.93518  0.88459  1.0000
  C   C108      1.0  0.06538  0.51498  0.86768  1.0000
  C   C109      1.0  0.54683  0.48220  0.62576  1.0000
  C   C110      1.0  0.51614  0.06531  0.60587  1.0000
  C   C111      1.0  0.93461  0.45066  0.60229  1.0000
  C   C112      1.0  0.45035  0.51678  0.90020  1.0000
  C   C113      1.0  0.48223  0.93466  0.89041  1.0000
  C   C114      1.0  0.06530  0.54998  0.87130  1.0000
  C   C115      1.0  0.62320  0.55374  0.65311  1.0000
  C   C116      1.0  0.44449  0.06980  0.63245  1.0000
  C   C117      1.0  0.93137  0.37492  0.63438  1.0000
  C   C118      1.0  0.37412  0.44487  0.87604  1.0000
  C   C119      1.0  0.55439  0.93074  0.86367  1.0000
  C   C120      1.0  0.06773  0.62505  0.85010  1.0000
  C   C121      1.0  0.65406  0.55335  0.63500  1.0000
  C   C122      1.0  0.44355  0.10043  0.61261  1.0000
  C   C123      1.0  0.90068  0.34334  0.61706  1.0000
  C   C124      1.0  0.34322  0.44521  0.89219  1.0000
  C   C125      1.0  0.55514  0.90005  0.88436  1.0000
  C   C126      1.0  0.09873  0.65592  0.87460  1.0000
  C   C127      1.0  0.42492  0.25712  0.57945  1.0000
  C   C128      1.0  0.74145  0.17042  0.57082  1.0000
  C   C129      1.0  0.82459  0.56448  0.57259  1.0000
  C   C130      1.0  0.57240  0.74283  0.93033  1.0000
  C   C131      1.0  0.25540  0.83103  0.91921  1.0000
  C   C132      1.0  0.16987  0.42815  0.92121  1.0000
  N   N1        1.0  0.45056  0.24620  0.16469  1.0000
  N   N2        1.0  0.75495  0.20402  0.15793  1.0000
  N   N3        1.0  0.79902  0.55010  0.14761  1.0000
  N   N4        1.0  0.54883  0.75258  0.33498  1.0000
  N   N5        1.0  0.24492  0.79775  0.35046  1.0000
  N   N6        1.0  0.20481  0.44990  0.33637  1.0000
  N   N7        1.0  0.44612  0.24576  0.66104  1.0000
  N   N8        1.0  0.75331  0.20243  0.65734  1.0000
  N   N9        1.0  0.79365  0.54529  0.66706  1.0000
  N   N10       1.0  0.55221  0.75455  0.84330  1.0000
  N   N11       1.0  0.24647  0.79687  0.85772  1.0000
  N   N12       1.0  0.20268  0.45045  0.84217  1.0000
  C   C133      1.0  0.52901  0.64434  0.26054  1.0000
  C   C134      1.0  0.55507  0.63150  0.30852  1.0000
  C  Sn1       1.0  0.58723  0.65508  0.41179  1.0000
  C  Sn2       1.0  0.59333  0.69218  0.46792  1.0000
  C   C135      1.0  0.56707  0.70475  0.41932  1.0000
  C   C136      1.0  0.53499  0.68093  0.31589  1.0000
  H   H49       1.0  0.50417  0.62590  0.18059  1.0000
  O  Te1       1.0  0.61299  0.64180  0.45849  1.0000
  O  Te2       1.0  0.62522  0.71633  0.57128  1.0000
  H   H50       1.0  0.51480  0.69087  0.27886  1.0000
  Mg  Mg1       1.0  0.65217  0.68530  0.60090  1.0000
  C   C137      1.0  0.35280  0.88202  0.25344  1.0000
  C   C138      1.0  0.36852  0.92163  0.29925  1.0000
  C  Sn3       1.0  0.34714  0.93281  0.40392  1.0000
  C  Sn4       1.0  0.30932  0.90373  0.46368  1.0000
  C   C139      1.0  0.29387  0.86417  0.41722  1.0000
  C   C140      1.0  0.31551  0.85331  0.31237  1.0000
  H   H51       1.0  0.36955  0.87360  0.17239  1.0000
  O  Te3       1.0  0.36328  0.97252  0.44842  1.0000
  O  Te4       1.0  0.28732  0.91409  0.56851  1.0000
  H   H52       1.0  0.30334  0.82264  0.27701  1.0000
  Mg  Mg2       1.0  0.32194  0.97202  0.59406  1.0000
  C   C141      1.0  0.09058  0.40278  0.46713  1.0000
  C   C142      1.0  0.12887  0.42522  0.40273  1.0000
  C  Sn5       1.0  0.13879  0.45784  0.29854  1.0000
  C  Sn6       1.0  0.10978  0.46813  0.25833  1.0000
  C   C143      1.0  0.07157  0.44551  0.32349  1.0000
  C   C144      1.0  0.06195  0.41292  0.42759  1.0000
  H   H53       1.0  0.08314  0.37758  0.54775  1.0000
  O  Te5       1.0  0.17718  0.47993  0.23523  1.0000
  O  Te6       1.0  0.11890  0.50060  0.15454  1.0000
  H   H54       1.0  0.03231  0.39557  0.47752  1.0000
  Mg  Mg3       1.0  0.17528  0.52154  0.09903  1.0000
  C   C145      1.0  0.47167  0.35370  0.26178  1.0000
  C   C146      1.0  0.44992  0.37027  0.19804  1.0000
  C  Sn7       1.0  0.41690  0.34775  0.09739  1.0000
  C  Sn8       1.0  0.40551  0.30792  0.06011  1.0000
  C   C147      1.0  0.42745  0.29162  0.12458  1.0000
  C   C148      1.0  0.46045  0.31441  0.22513  1.0000
  H   H55       1.0  0.49719  0.37133  0.33965  1.0000
  O  Te7       1.0  0.39550  0.36477  0.03469  1.0000
  O  Te8       1.0  0.37165  0.28343  0.95989  1.0000
  H   H56       1.0  0.47727  0.30157  0.27454  1.0000
  Mg  Mg4       1.0  0.35198  0.31991  0.90383  1.0000
  C   C149      1.0  0.66565  0.13631  0.22438  1.0000
  C   C150      1.0  0.69800  0.13864  0.13920  1.0000
  C  Sn9       1.0  0.69475  0.10526  0.05994  1.0000
  C  Sn10      1.0  0.65841  0.06892  0.06624  1.0000
  C   C151      1.0  0.62621  0.06691  0.15167  1.0000
  C   C152      1.0  0.62979  0.10049  0.23059  1.0000
  H   H57       1.0  0.66841  0.16229  0.28537  1.0000
  O  Te9       1.0  0.72640  0.10678  0.97544  1.0000
  O  Te10      1.0  0.65338  0.03379  0.98805  1.0000
  H   H58       1.0  0.60473  0.09868  0.29644  1.0000
  Mg  Mg5       1.0  0.70627  0.05252  0.88850  1.0000
  C   C153      1.0  0.88411  0.52693  0.21506  1.0000
  C   C154      1.0  0.92294  0.55064  0.15845  1.0000
  C  Sn11      1.0  0.93403  0.58594  0.07188  1.0000
  C  Sn12      1.0  0.90566  0.59766  0.04165  1.0000
  C   C155      1.0  0.86689  0.57376  0.09890  1.0000
  C   C156      1.0  0.85611  0.53848  0.18535  1.0000
  H   H59       1.0  0.87577  0.49965  0.28203  1.0000
  O  Te11      1.0  0.97295  0.60926  0.01614  1.0000
  O  Te12      1.0  0.91498  0.63149  0.95550  1.0000
  H   H60       1.0  0.82605  0.52015  0.22926  1.0000
  Mg  Mg6       1.0  0.97169  0.65324  0.90442  1.0000
  C   C157      1.0  0.24530  0.41091  0.46320  1.0000
  C   C158      1.0  0.23840  0.43995  0.39525  1.0000
  C  Sn13      1.0  0.26887  0.47318  0.31480  1.0000
  C  Sn14      1.0  0.30691  0.47734  0.30231  1.0000
  C   C159      1.0  0.31350  0.44812  0.37059  1.0000
  C   C160      1.0  0.28281  0.41498  0.45087  1.0000
  H   H61       1.0  0.22156  0.38527  0.52523  1.0000
  O  Te13      1.0  0.26147  0.50192  0.24767  1.0000
  O  Te14      1.0  0.33788  0.51025  0.22251  1.0000
  H   H62       1.0  0.28816  0.39250  0.50337  1.0000
  Mg  Mg7       1.0  0.31319  0.54144  0.15088  1.0000
  C   C161      1.0  0.58983  0.83346  0.44245  1.0000
  C   C162      1.0  0.55950  0.79681  0.38698  1.0000
  C  Sn15      1.0  0.52518  0.79353  0.31823  1.0000
  C  Sn16      1.0  0.52124  0.82763  0.30488  1.0000
  C   C163      1.0  0.55177  0.86417  0.36062  1.0000
  C   C164      1.0  0.58598  0.86711  0.42927  1.0000
  H   H63       1.0  0.61631  0.83575  0.49548  1.0000
  O  Te15      1.0  0.49515  0.75669  0.26348  1.0000
  O  Te16      1.0  0.48726  0.82520  0.23661  1.0000
  H   H64       1.0  0.60947  0.89549  0.47210  1.0000
  Mg  Mg8       1.0  0.45450  0.76842  0.17955  1.0000
  C   C165      1.0  0.17983  0.69837  0.31567  1.0000
  C   C166      1.0  0.14380  0.69101  0.38340  1.0000
  C  Sn17      1.0  0.13952  0.72222  0.44351  1.0000
  C  Sn18      1.0  0.17195  0.76151  0.43544  1.0000
  C   C167      1.0  0.20787  0.76857  0.36735  1.0000
  C   C168      1.0  0.21184  0.73711  0.30761  1.0000
  H   H65       1.0  0.18290  0.67404  0.26937  1.0000
  O  Te17      1.0  0.10332  0.71434  0.51084  1.0000
  O  Te18      1.0  0.16848  0.79326  0.49455  1.0000
  H   H66       1.0  0.23973  0.74282  0.25508  1.0000
  Mg  Mg9       1.0  0.11315  0.76749  0.57524  1.0000
  C   C169      1.0  0.73774  0.58847  0.02645  1.0000
  C   C170      1.0  0.70105  0.56095  0.09441  1.0000
  C  Sn19      1.0  0.69714  0.52930  0.19189  1.0000
  C  Sn20      1.0  0.73062  0.52520  0.22172  1.0000
  C   C171      1.0  0.76719  0.55291  0.15327  1.0000
  C   C172      1.0  0.77078  0.58446  0.05586  1.0000
  H   H67       1.0  0.73955  0.61157  0.95116  1.0000
  O  Te19      1.0  0.66027  0.50207  0.25879  1.0000
  O  Te20      1.0  0.72753  0.49386  0.31874  1.0000
  H   H68       1.0  0.79919  0.60577  0.00335  1.0000
  Mg  Mg10      1.0  0.67099  0.46437  0.38272  1.0000
  C   C173      1.0  0.40606  0.14481  0.06368  1.0000
  C   C174      1.0  0.43644  0.13643  0.08822  1.0000
  C  Sn21      1.0  0.47320  0.16574  0.14696  1.0000
  C  Sn22      1.0  0.47956  0.20413  0.18171  1.0000
  C   C175      1.0  0.44897  0.21221  0.15686  1.0000
  C   C176      1.0  0.41231  0.18266  0.09799  1.0000
  H   H69       1.0  0.37769  0.12195  0.01821  1.0000
  O  Te21      1.0  0.50323  0.15687  0.17072  1.0000
  O  Te22      1.0  0.51600  0.23397  0.24059  1.0000
  H   H70       1.0  0.38878  0.18915  0.07910  1.0000
  Mg  Mg11      1.0  0.54774  0.20745  0.25301  1.0000
  C   C177      1.0  0.85559  0.26047  0.04298  1.0000
  C   C178      1.0  0.86556  0.29913  0.08448  1.0000
  C  Sn23      1.0  0.83770  0.30656  0.15992  1.0000
  C  Sn24      1.0  0.79917  0.27463  0.19434  1.0000
  C   C179      1.0  0.78950  0.23605  0.15245  1.0000
  C   C180      1.0  0.81761  0.22896  0.07694  1.0000
  H   H71       1.0  0.87638  0.25365  0.98464  1.0000
  O  Te23      1.0  0.84814  0.34537  0.20051  1.0000
  O  Te24      1.0  0.77075  0.28121  0.26971  1.0000
  H   H72       1.0  0.80989  0.19902  0.04492  1.0000
  Mg  Mg12      1.0  0.79913  0.33932  0.30156  1.0000
  C   C181      1.0  0.53118  0.66580  0.78133  1.0000
  C   C182      1.0  0.55918  0.69685  0.87931  1.0000
  C  Sn25      1.0  0.59003  0.69411  0.95370  1.0000
  C  Sn26      1.0  0.59283  0.65963  0.92929  1.0000
  C   C183      1.0  0.56469  0.62875  0.83095  1.0000
  C   C184      1.0  0.53393  0.63179  0.75714  1.0000
  H   H73       1.0  0.50740  0.66816  0.72414  1.0000
  O  Te25      1.0  0.61871  0.72672  0.05125  1.0000
  O  Te26      1.0  0.62434  0.65745  0.00213  1.0000
  H   H74       1.0  0.51227  0.60776  0.68120  1.0000
  Mg  Mg13      1.0  0.65492  0.70801  0.12444  1.0000
  C   C185      1.0  0.33362  0.86586  0.78284  1.0000
  C   C186      1.0  0.30233  0.86319  0.87803  1.0000
  C  Sn27      1.0  0.30478  0.89721  0.94707  1.0000
  C  Sn28      1.0  0.33923  0.93454  0.92005  1.0000
  C   C187      1.0  0.37036  0.93690  0.82453  1.0000
  C   C188      1.0  0.36760  0.90267  0.75607  1.0000
  H   H75       1.0  0.33147  0.83938  0.72978  1.0000
  O  Te27      1.0  0.27423  0.89533  0.04191  1.0000
  O  Te28      1.0  0.34246  0.96901  0.98755  1.0000
  H   H76       1.0  0.39181  0.90475  0.68228  1.0000
  Mg  Mg14      1.0  0.29261  0.95076  0.10785  1.0000
  C   C189      1.0  0.08726  0.40049  0.95904  1.0000
  C   C190      1.0  0.12587  0.42317  0.89829  1.0000
  C  Sn29      1.0  0.13660  0.45686  0.80001  1.0000
  C  Sn30      1.0  0.10810  0.46799  0.76211  1.0000
  C   C191      1.0  0.06957  0.44512  0.82359  1.0000
  C   C192      1.0  0.05914  0.41146  0.92177  1.0000
  H   H77       1.0  0.08016  0.37578  0.03508  1.0000
  O  Te29      1.0  0.17529  0.47917  0.74028  1.0000
  O  Te30      1.0  0.11804  0.50153  0.66422  1.0000
  H   H78       1.0  0.02926  0.39392  0.96888  1.0000
  Mg  Mg15      1.0  0.17455  0.52237  0.61183  1.0000
  C   C193      1.0  0.39627  0.31171  0.55400  1.0000
  C   C194      1.0  0.42209  0.29781  0.59051  1.0000
  C  Sn31      1.0  0.45586  0.32065  0.68664  1.0000
  C  Sn32      1.0  0.46384  0.35808  0.74720  1.0000
  C   C195      1.0  0.43781  0.37171  0.71008  1.0000
  C   C196      1.0  0.40411  0.34862  0.61374  1.0000
  H   H79       1.0  0.37018  0.29384  0.47953  1.0000
  O  Te31      1.0  0.48135  0.30632  0.72190  1.0000
  O  Te32      1.0  0.49737  0.38151  0.84361  1.0000
  H   H80       1.0  0.38411  0.35938  0.58558  1.0000
  Mg  Mg16      1.0  0.52321  0.34914  0.85822  1.0000
  C   C197      1.0  0.66414  0.13487  0.71713  1.0000
  C   C198      1.0  0.69696  0.13689  0.63766  1.0000
  C  Sn33      1.0  0.69420  0.10321  0.56358  1.0000
  C  Sn34      1.0  0.65785  0.06686  0.56932  1.0000
  C   C199      1.0  0.62518  0.06515  0.64902  1.0000
  C   C200      1.0  0.62827  0.09903  0.72280  1.0000
  H   H81       1.0  0.66652  0.16109  0.77414  1.0000
  O  Te33      1.0  0.72728  0.10575  0.48475  1.0000
  O  Te34      1.0  0.65426  0.03274  0.49624  1.0000
  H   H82       1.0  0.60285  0.09746  0.78422  1.0000
  Mg  Mg17      1.0  0.70769  0.05113  0.40342  1.0000
  C   C201      1.0  0.92555  0.59253  0.53346  1.0000
  C   C202      1.0  0.93132  0.56831  0.64600  1.0000
  C  Sn35      1.0  0.89945  0.53865  0.73621  1.0000
  C  Sn36      1.0  0.86112  0.53319  0.71304  1.0000
  C   C203      1.0  0.85565  0.55756  0.60007  1.0000
  C   C204      1.0  0.88775  0.58716  0.51048  1.0000
  H   H83       1.0  0.95038  0.61542  0.46407  1.0000
  O  Te35      1.0  0.90574  0.51472  0.84819  1.0000
  O  Te36      1.0  0.82875  0.50376  0.80154  1.0000
  H   H84       1.0  0.88327  0.60589  0.42328  1.0000
  Mg  Mg18      1.0  0.85229  0.47865  0.93985  1.0000
  C   C205      1.0  0.24120  0.40692  0.92721  1.0000
  C   C206      1.0  0.23520  0.43844  0.88835  1.0000
  C  Sn37      1.0  0.26714  0.47541  0.84440  1.0000
  C  Sn38      1.0  0.30576  0.48084  0.83932  1.0000
  C   C207      1.0  0.31145  0.44911  0.87829  1.0000
  C   C208      1.0  0.27928  0.41224  0.92216  1.0000
  H   H85       1.0  0.21631  0.37839  0.96107  1.0000
  O  Te37      1.0  0.26063  0.50659  0.80600  1.0000
  O  Te38      1.0  0.33821  0.51748  0.79573  1.0000
  H   H86       1.0  0.28393  0.38784  0.95214  1.0000
  Mg  Mg19      1.0  0.31429  0.55092  0.75390  1.0000
  C   C209      1.0  0.51964  0.82051  0.78503  1.0000
  C   C210      1.0  0.54464  0.85470  0.87531  1.0000
  C  Sn39      1.0  0.57728  0.85774  0.96003  1.0000
  C  Sn40      1.0  0.58495  0.82591  0.95400  1.0000
  C   C211      1.0  0.55977  0.79184  0.86323  1.0000
  C   C212      1.0  0.52719  0.78911  0.77896  1.0000
  H   H87       1.0  0.49444  0.81840  0.71975  1.0000
  O  Te39      1.0  0.60292  0.89343  0.04969  1.0000
  O  Te40      1.0  0.61833  0.82949  0.03747  1.0000
  H   H88       1.0  0.50785  0.76264  0.70898  1.0000
  Mg  Mg20      1.0  0.64335  0.88246  0.14289  1.0000
  C   C213      1.0  0.16625  0.75469  0.98078  1.0000
  C   C214      1.0  0.20222  0.76259  0.91028  1.0000
  C  Sn41      1.0  0.20450  0.73380  0.81503  1.0000
  C  Sn42      1.0  0.17009  0.69644  0.79007  1.0000
  C   C215      1.0  0.13424  0.68883  0.86104  1.0000
  C   C216      1.0  0.13229  0.71784  0.95618  1.0000
  H   H89       1.0  0.16571  0.77846  0.05431  1.0000
  O  Te41      1.0  0.24067  0.74219  0.74554  1.0000
  O  Te42      1.0  0.17153  0.66713  0.69537  1.0000
  H   H90       1.0  0.10541  0.71304  0.01065  1.0000
  Mg  Mg21      1.0  0.22767  0.69266  0.62634  1.0000
  C   C217      1.0  0.69414  0.51180  0.70350  1.0000
  C   C218      1.0  0.68848  0.54292  0.65318  1.0000
  C  Sn43      1.0  0.72008  0.57803  0.59005  1.0000
  C  Sn44      1.0  0.75803  0.58197  0.57717  1.0000
  C   C219      1.0  0.76338  0.55066  0.62774  1.0000
  C   C220      1.0  0.73155  0.51565  0.69078  1.0000
  H   H91       1.0  0.66951  0.48471  0.75220  1.0000
  O  Te43      1.0  0.71391  0.60884  0.54040  1.0000
  O  Te44      1.0  0.79013  0.61674  0.51447  1.0000
  H   H92       1.0  0.73594  0.49156  0.72964  1.0000
  Mg  Mg22      1.0  0.76689  0.65039  0.46305  1.0000
  C   C221      1.0  0.40918  0.16657  0.52894  1.0000
  C   C222      1.0  0.43445  0.20079  0.61852  1.0000
  C  Sn45      1.0  0.46732  0.20384  0.70114  1.0000
  C  Sn46      1.0  0.47497  0.17201  0.69367  1.0000
  C   C223      1.0  0.44952  0.13791  0.60361  1.0000
  C   C224      1.0  0.41671  0.13517  0.52145  1.0000
  H   H93       1.0  0.38380  0.16445  0.46528  1.0000
  O  Te45      1.0  0.49226  0.23823  0.79013  1.0000
  O  Te46      1.0  0.50762  0.17428  0.77503  1.0000
  H   H94       1.0  0.39716  0.10868  0.45201  1.0000
  Mg  Mg23      1.0  0.53296  0.22728  0.88030  1.0000
  C   C225      1.0  0.83311  0.24314  0.53218  1.0000
  C   C226      1.0  0.79880  0.23494  0.61949  1.0000
  C  Sn47      1.0  0.79641  0.26524  0.70166  1.0000
  C  Sn48      1.0  0.82902  0.30445  0.69607  1.0000
  C   C227      1.0  0.86321  0.31236  0.60829  1.0000
  C   C228      1.0  0.86528  0.28181  0.52655  1.0000
  H   H95       1.0  0.83471  0.21952  0.46885  1.0000
  O  Te47      1.0  0.76191  0.25653  0.78837  1.0000
  O  Te48      1.0  0.82743  0.33530  0.77704  1.0000
  H   H96       1.0  0.89184  0.28818  0.45887  1.0000
  Mg  Mg24      1.0  0.77398  0.30860  0.87889  1.0000
