data_image0
_chemical_formula_structural       H72C144N12C2Sn2C2HTe2HMgC2Sn2C2HTe2HMgC2Sn2C2HTe2HMgC2Sn2C2HTe2HMgC2Sn2C2HTe2HMgC2Sn2C2HTe2HMgC2Sn2C2HTe2HMgC2Sn2C2HTe2HMgC2Sn2C2HTe2HMgC2Sn2C2HTe2HMgC2Sn2C2HTe2HMgC2Sn2C2HTe2HMg
_chemical_formula_sum              "H96 C192 N12 Sn24 Te24 Mg12"
_cell_length_a       35.254
_cell_length_b       35.2894
_cell_length_c       8.01875
_cell_angle_alpha    76.3469
_cell_angle_beta     83.5794
_cell_angle_gamma    119.977

_symmetry_space_group_name_H-M    'P1'
_space_group_IT_number       1

loop_
  _space_group_symop_operation_xyz
  'x, y, z'

loop_
  _atom_site_type_symbol
  _atom_site_label
  _atom_site_symmetry_multiplicity
  _atom_site_fract_x
  _atom_site_fract_y
  _atom_site_fract_z
  _atom_site_occupancy
  H   H1        1.0  0.41931  0.42131  0.29059  1.0000
  H   H2        1.0  0.57293  0.99729  0.28672  1.0000
  H   H3        1.0  0.00425  0.58334  0.23163  1.0000
  H   H4        1.0  0.56094  0.56655  0.23473  1.0000
  H   H5        1.0  0.44370  0.01099  0.19714  1.0000
  H   H6        1.0  0.99648  0.43997  0.23211  1.0000
  H   H7        1.0  0.38420  0.94462  0.36391  1.0000
  H   H8        1.0  0.03996  0.44329  0.46838  1.0000
  H   H9        1.0  0.42970  0.36695  0.50078  1.0000
  H   H10       1.0  0.60652  0.03840  0.44904  1.0000
  H   H11       1.0  0.94712  0.57557  0.34380  1.0000
  H   H12       1.0  0.31042  0.87605  0.38553  1.0000
  H   H13       1.0  0.10574  0.43636  0.50272  1.0000
  H   H14       1.0  0.42830  0.29493  0.52236  1.0000
  H   H15       1.0  0.67926  0.10402  0.45674  1.0000
  H   H16       1.0  0.88056  0.58135  0.36478  1.0000
  H   H17       1.0  0.37885  0.82918  0.09674  1.0000
  H   H18       1.0  0.19157  0.55646  0.03085  1.0000
  H   H19       1.0  0.54796  0.37202  0.07837  1.0000
  H   H20       1.0  0.65944  0.20045  0.10064  1.0000
  H   H21       1.0  0.81100  0.46229  0.20064  1.0000
  H   H22       1.0  0.45319  0.89785  0.07607  1.0000
  H   H23       1.0  0.12644  0.56574  0.00610  1.0000
  H   H24       1.0  0.55064  0.44441  0.06086  1.0000
  H   H25       1.0  0.58691  0.13471  0.09045  1.0000
  H   H26       1.0  0.87871  0.45791  0.16815  1.0000
  H   H27       1.0  0.37667  0.55713  0.03705  1.0000
  H   H28       1.0  0.44275  0.82180  0.17343  1.0000
  H   H29       1.0  0.19844  0.63852  0.11268  1.0000
  H   H30       1.0  0.31223  0.56636  0.99610  1.0000
  H   H31       1.0  0.43757  0.75019  0.14985  1.0000
  H   H32       1.0  0.27361  0.70746  0.09401  1.0000
  H   H33       1.0  0.21880  0.43391  0.40644  1.0000
  H   H34       1.0  0.56428  0.79408  0.28454  1.0000
  H   H35       1.0  0.20472  0.76220  0.32768  1.0000
  H   H36       1.0  0.28258  0.42451  0.44892  1.0000
  H   H37       1.0  0.57035  0.86582  0.30477  1.0000
  H   H38       1.0  0.13080  0.69440  0.34705  1.0000
  H   H39       1.0  0.80065  0.54932  0.36112  1.0000
  H   H40       1.0  0.46167  0.25591  0.43620  1.0000
  H   H41       1.0  0.73112  0.18608  0.39415  1.0000
  H   H42       1.0  0.18630  0.47106  0.43378  1.0000
  H   H43       1.0  0.52799  0.71848  0.39687  1.0000
  H   H44       1.0  0.26646  0.80469  0.35145  1.0000
  H   H45       1.0  0.43759  0.43816  0.75270  1.0000
  H   H46       1.0  0.55850  0.99570  0.74293  1.0000
  H   H47       1.0  0.00427  0.56149  0.69178  1.0000
  H   H48       1.0  0.57836  0.57391  0.76725  1.0000
  H   H49       1.0  0.42345  0.00278  0.70902  1.0000
  H   H50       1.0  0.99719  0.41459  0.79075  1.0000
  H   H51       1.0  0.36560  0.93574  0.87923  1.0000
  H   H52       1.0  0.94647  0.54697  0.84724  1.0000
  H   H53       1.0  0.29172  0.86699  0.90075  1.0000
  H   H54       1.0  0.88051  0.55377  0.86991  1.0000
  H   H55       1.0  0.36050  0.81994  0.61569  1.0000
  H   H56       1.0  0.81541  0.44489  0.64900  1.0000
  H   H57       1.0  0.43476  0.89033  0.58332  1.0000
  H   H58       1.0  0.88281  0.43902  0.62033  1.0000
  H   H59       1.0  0.62727  0.43703  0.68192  1.0000
  H   H60       1.0  0.38330  0.55841  0.52122  1.0000
  H   H61       1.0  0.69418  0.42938  0.66552  1.0000
  H   H62       1.0  0.31277  0.55780  0.49960  1.0000
  H   H63       1.0  0.76966  0.55690  0.77460  1.0000
  H   H64       1.0  0.23367  0.42957  0.94328  1.0000
  H   H65       1.0  0.70348  0.56466  0.79117  1.0000
  H   H66       1.0  0.30328  0.43038  0.96747  1.0000
  H   H67       1.0  0.80225  0.52221  0.87547  1.0000
  H   H68       1.0  0.46347  0.26247  0.92255  1.0000
  H   H69       1.0  0.71261  0.17422  0.89194  1.0000
  H   H70       1.0  0.19271  0.45608  0.96614  1.0000
  H   H71       1.0  0.54264  0.73245  0.89120  1.0000
  H   H72       1.0  0.24762  0.79316  0.86030  1.0000
  C   C1        1.0  0.48906  0.53411  0.26915  1.0000
  C   C2        1.0  0.46803  0.96551  0.22604  1.0000
  C   C3        1.0  0.03963  0.50962  0.22946  1.0000
  C   C4        1.0  0.49067  0.45345  0.26867  1.0000
  C   C5        1.0  0.54810  0.04243  0.26130  1.0000
  C   C6        1.0  0.95959  0.51313  0.23754  1.0000
  C   C7        1.0  0.44851  0.49210  0.27897  1.0000
  C   C8        1.0  0.50614  0.96246  0.25040  1.0000
  C   C9        1.0  0.04142  0.55094  0.22816  1.0000
  C   C10       1.0  0.53148  0.49607  0.24880  1.0000
  C   C11       1.0  0.51011  0.04553  0.23593  1.0000
  C   C12       1.0  0.95868  0.47226  0.23347  1.0000
  C   C13       1.0  0.45056  0.45298  0.28184  1.0000
  C   C14       1.0  0.54448  0.00068  0.26927  1.0000
  C   C15       1.0  0.00157  0.55129  0.23218  1.0000
  C   C16       1.0  0.52922  0.53460  0.25043  1.0000
  C   C17       1.0  0.47167  0.00720  0.21921  1.0000
  C   C18       1.0  0.99847  0.47171  0.23284  1.0000
  C   C19       1.0  0.42465  0.92632  0.22041  1.0000
  C   C20       1.0  0.07891  0.50514  0.23669  1.0000
  C   C21       1.0  0.48993  0.41081  0.27800  1.0000
  C   C22       1.0  0.59077  0.08148  0.27109  1.0000
  C   C23       1.0  0.91905  0.51636  0.25186  1.0000
  C   C24       1.0  0.40655  0.48830  0.28130  1.0000
  C   C25       1.0  0.50719  0.92272  0.25551  1.0000
  C   C26       1.0  0.08170  0.59027  0.23130  1.0000
  C   C27       1.0  0.57396  0.50084  0.23567  1.0000
  C   C28       1.0  0.50817  0.08488  0.23144  1.0000
  C   C29       1.0  0.92079  0.43105  0.22903  1.0000
  C   C30       1.0  0.38347  0.92021  0.30116  1.0000
  C   C31       1.0  0.07309  0.46772  0.37205  1.0000
  C   C32       1.0  0.45515  0.36795  0.40634  1.0000
  C   C33       1.0  0.61825  0.07378  0.37040  1.0000
  C   C34       1.0  0.91820  0.55128  0.30642  1.0000
  C   C35       1.0  0.34180  0.88126  0.31505  1.0000
  C   C36       1.0  0.10995  0.46401  0.39139  1.0000
  C   C37       1.0  0.45457  0.32762  0.41887  1.0000
  C   C38       1.0  0.65918  0.11074  0.37502  1.0000
  C   C39       1.0  0.88010  0.55417  0.32141  1.0000
  C   C40       1.0  0.33944  0.84727  0.24599  1.0000
  C   C41       1.0  0.15305  0.49613  0.26919  1.0000
  C   C42       1.0  0.48797  0.32856  0.30098  1.0000
  C   C43       1.0  0.67444  0.15693  0.27862  1.0000
  C   C44       1.0  0.84080  0.52217  0.28330  1.0000
  C   C45       1.0  0.38045  0.85435  0.15707  1.0000
  C   C46       1.0  0.15839  0.53231  0.12753  1.0000
  C   C47       1.0  0.52255  0.37139  0.17156  1.0000
  C   C48       1.0  0.64745  0.16481  0.17700  1.0000
  C   C49       1.0  0.84111  0.48700  0.23141  1.0000
  C   C50       1.0  0.42205  0.89293  0.14584  1.0000
  C   C51       1.0  0.12205  0.53730  0.11360  1.0000
  C   C52       1.0  0.52377  0.41178  0.16213  1.0000
  C   C53       1.0  0.60669  0.12793  0.17294  1.0000
  C   C54       1.0  0.87934  0.48460  0.21426  1.0000
  C   C55       1.0  0.61071  0.50512  0.23128  1.0000
  C   C56       1.0  0.50474  0.11799  0.22516  1.0000
  C   C57       1.0  0.89110  0.39444  0.21752  1.0000
  C   C58       1.0  0.37121  0.48628  0.27206  1.0000
  C   C59       1.0  0.50911  0.88914  0.25323  1.0000
  C   C60       1.0  0.11702  0.62337  0.23655  1.0000
  C   C61       1.0  0.33414  0.49047  0.24864  1.0000
  C   C62       1.0  0.50676  0.84869  0.24235  1.0000
  C   C63       1.0  0.15928  0.66145  0.23255  1.0000
  C   C64       1.0  0.34219  0.53071  0.12017  1.0000
  C   C65       1.0  0.46906  0.81544  0.19902  1.0000
  C   C66       1.0  0.20021  0.66547  0.16151  1.0000
  C   C67       1.0  0.30646  0.53597  0.09700  1.0000
  C   C68       1.0  0.46590  0.77549  0.18685  1.0000
  C   C69       1.0  0.24197  0.70377  0.15085  1.0000
  C   C70       1.0  0.26160  0.50196  0.20314  1.0000
  C   C71       1.0  0.49935  0.76643  0.22242  1.0000
  C   C72       1.0  0.24489  0.73930  0.21132  1.0000
  C   C73       1.0  0.25342  0.46130  0.32798  1.0000
  C   C74       1.0  0.53745  0.79990  0.26221  1.0000
  C   C75       1.0  0.20392  0.73535  0.28097  1.0000
  C   C76       1.0  0.28900  0.45567  0.35082  1.0000
  C   C77       1.0  0.54112  0.84033  0.27224  1.0000
  C   C78       1.0  0.16209  0.69722  0.29184  1.0000
  C   C79       1.0  0.80125  0.52570  0.29436  1.0000
  C   C80       1.0  0.48548  0.28545  0.31423  1.0000
  C   C81       1.0  0.71653  0.19535  0.28960  1.0000
  C   C82       1.0  0.19081  0.49125  0.29706  1.0000
  C   C83       1.0  0.50940  0.70470  0.30192  1.0000
  C   C84       1.0  0.29487  0.80696  0.26730  1.0000
  C   C85       1.0  0.50765  0.54594  0.77898  1.0000
  C   C86       1.0  0.44991  0.95926  0.72246  1.0000
  C   C87       1.0  0.03947  0.48657  0.76362  1.0000
  C   C88       1.0  0.50710  0.46536  0.75374  1.0000
  C   C89       1.0  0.53161  0.03862  0.73445  1.0000
  C   C90       1.0  0.96038  0.48892  0.72815  1.0000
  C   C91       1.0  0.46746  0.50628  0.77091  1.0000
  C   C92       1.0  0.48971  0.95820  0.72951  1.0000
  C   C93       1.0  0.04107  0.52887  0.73228  1.0000
  C   C94       1.0  0.54790  0.50557  0.75336  1.0000
  C   C95       1.0  0.49214  0.04006  0.72433  1.0000
  C   C96       1.0  0.95953  0.44701  0.74921  1.0000
  C   C97       1.0  0.46858  0.46752  0.76002  1.0000
  C   C98       1.0  0.52885  0.99764  0.73687  1.0000
  C   C99       1.0  0.00178  0.52863  0.71530  1.0000
  C   C100      1.0  0.54668  0.54405  0.76734  1.0000
  C   C101      1.0  0.45282  0.00053  0.71864  1.0000
  C   C102      1.0  0.99884  0.44703  0.77077  1.0000
  C   C103      1.0  0.40615  0.91849  0.72942  1.0000
  C   C104      1.0  0.92022  0.49246  0.73116  1.0000
  C   C105      1.0  0.42547  0.50236  0.77170  1.0000
  C   C106      1.0  0.49219  0.91924  0.73466  1.0000
  C   C107      1.0  0.08005  0.57064  0.72655  1.0000
  C   C108      1.0  0.58874  0.50681  0.74602  1.0000
  C   C109      1.0  0.49104  0.07943  0.72672  1.0000
  C   C110      1.0  0.92124  0.40561  0.74756  1.0000
  C   C111      1.0  0.36483  0.91136  0.81607  1.0000
  C   C112      1.0  0.91875  0.52545  0.79742  1.0000
  C   C113      1.0  0.32318  0.87220  0.83093  1.0000
  C   C114      1.0  0.88100  0.52882  0.81332  1.0000
  C   C115      1.0  0.32119  0.83844  0.76109  1.0000
  C   C116      1.0  0.84290  0.49941  0.76256  1.0000
  C   C117      1.0  0.36224  0.84556  0.67333  1.0000
  C   C118      1.0  0.84440  0.46706  0.69203  1.0000
  C   C119      1.0  0.40371  0.88487  0.65693  1.0000
  C   C120      1.0  0.88223  0.46382  0.67643  1.0000
  C   C121      1.0  0.62298  0.50577  0.74318  1.0000
  C   C122      1.0  0.49154  0.11414  0.72998  1.0000
  C   C123      1.0  0.88861  0.37055  0.73800  1.0000
  C   C124      1.0  0.38846  0.49630  0.76398  1.0000
  C   C125      1.0  0.49693  0.88703  0.73738  1.0000
  C   C126      1.0  0.11302  0.60701  0.72455  1.0000
  C   C127      1.0  0.66077  0.50144  0.73783  1.0000
  C   C128      1.0  0.34821  0.49477  0.74807  1.0000
  C   C129      1.0  0.65839  0.46288  0.70355  1.0000
  C   C130      1.0  0.35056  0.53076  0.61497  1.0000
  C   C131      1.0  0.69543  0.45843  0.69527  1.0000
  C   C132      1.0  0.31144  0.53041  0.60214  1.0000
  C   C133      1.0  0.73588  0.49161  0.72378  1.0000
  C   C134      1.0  0.26884  0.49481  0.72261  1.0000
  C   C135      1.0  0.73842  0.53034  0.75617  1.0000
  C   C136      1.0  0.26633  0.45815  0.85181  1.0000
  C   C137      1.0  0.70154  0.53510  0.76363  1.0000
  C   C138      1.0  0.30526  0.45816  0.86486  1.0000
  C   C139      1.0  0.80352  0.50325  0.78603  1.0000
  C   C140      1.0  0.48947  0.29147  0.80311  1.0000
  C   C141      1.0  0.70150  0.18578  0.77855  1.0000
  C   C142      1.0  0.19548  0.47681  0.83401  1.0000
  C   C143      1.0  0.52199  0.71492  0.80825  1.0000
  C   C144      1.0  0.27754  0.79762  0.77728  1.0000
  N   N1        1.0  0.76903  0.50198  0.22720  1.0000
  N   N2        1.0  0.50962  0.28230  0.19048  1.0000
  N   N3        1.0  0.73431  0.23756  0.18506  1.0000
  N   N4        1.0  0.22750  0.50993  0.17080  1.0000
  N   N5        1.0  0.49273  0.72487  0.20893  1.0000
  N   N6        1.0  0.28892  0.77631  0.19276  1.0000
  N   N7        1.0  0.77179  0.48477  0.70884  1.0000
  N   N8        1.0  0.51348  0.28632  0.68673  1.0000
  N   N9        1.0  0.72422  0.22848  0.67231  1.0000
  N   N10       1.0  0.23155  0.49819  0.70156  1.0000
  N   N11       1.0  0.49996  0.72952  0.72397  1.0000
  N   N12       1.0  0.27485  0.76875  0.69742  1.0000
  C   C145      1.0  0.20866  0.66442  0.63428  1.0000
  C   C146      1.0  0.16329  0.64729  0.71359  1.0000
  C  Sn1       1.0  0.15231  0.67384  0.78746  1.0000
  C  Sn2       1.0  0.18747  0.71836  0.78158  1.0000
  C   C147      1.0  0.23276  0.73520  0.70182  1.0000
  C   C148      1.0  0.24336  0.70834  0.62836  1.0000
  H   H73       1.0  0.21686  0.64365  0.57735  1.0000
  O  Te1       1.0  0.10680  0.65620  0.86624  1.0000
  O  Te2       1.0  0.17746  0.74564  0.85433  1.0000
  H   H74       1.0  0.27849  0.72162  0.56686  1.0000
  Mg  Mg1       1.0  0.11030  0.70643  0.94722  1.0000
  C   C149      1.0  0.46315  0.16125  0.34618  1.0000
  C   C150      1.0  0.49309  0.15639  0.23716  1.0000
  C  Sn3       1.0  0.53161  0.19557  0.10906  1.0000
  C  Sn4       1.0  0.54024  0.24039  0.09010  1.0000
  C   C151      1.0  0.51009  0.24488  0.19990  1.0000
  C   C152      1.0  0.47164  0.20545  0.32761  1.0000
  H   H75       1.0  0.43341  0.13075  0.44506  1.0000
  O  Te3       1.0  0.56116  0.19008  0.00120  1.0000
  O  Te4       1.0  0.50884  0.19172  0.96319  1.0000
  H   H76       1.0  0.44848  0.20923  0.41207  1.0000
  Mg  Mg2       1.0  0.53905  0.16635  0.84754  1.0000
  C   C153      1.0  0.53319  0.61750  0.35429  1.0000
  C   C154      1.0  0.49965  0.58270  0.30436  1.0000
  C  Sn5       1.0  0.46766  0.58892  0.23572  1.0000
  C  Sn6       1.0  0.46937  0.63079  0.21684  1.0000
  C   C155      1.0  0.50307  0.66540  0.26706  1.0000
  C   C156      1.0  0.53491  0.65881  0.33564  1.0000
  H   H77       1.0  0.55783  0.61241  0.40726  1.0000
  O  Te5       1.0  0.43438  0.55380  0.18655  1.0000
  O  Te6       1.0  0.43783  0.63792  0.14856  1.0000
  H   H78       1.0  0.56089  0.68577  0.37418  1.0000
  Mg  Mg3       1.0  0.39892  0.57981  0.10025  1.0000
  C   C157      1.0  0.13530  0.52382  0.64828  1.0000
  C   C158      1.0  0.08979  0.49262  0.74715  1.0000
  C  Sn7       1.0  0.07758  0.45432  0.89399  1.0000
  C  Sn8       1.0  0.11162  0.44723  0.94246  1.0000
  C   C159      1.0  0.15706  0.47866  0.84276  1.0000
  C   C160      1.0  0.16891  0.51686  0.69603  1.0000
  H   H79       1.0  0.14448  0.55339  0.53480  1.0000
  O  Te7       1.0  0.03195  0.42348  0.99128  1.0000
  O  Te8       1.0  0.17001  0.49766  0.08865  1.0000
  H   H80       1.0  0.20415  0.54102  0.61957  1.0000
  Mg  Mg4       1.0  0.10318  0.46530  0.17956  1.0000
  C   C161      1.0  0.60058  0.13718  0.63539  1.0000
  C   C162      1.0  0.57906  0.08907  0.71266  1.0000
  C  Sn9       1.0  0.59750  0.07075  0.82680  1.0000
  C  Sn10      1.0  0.63823  0.10124  0.86406  1.0000
  C   C163      1.0  0.65949  0.14931  0.78619  1.0000
  C   C164      1.0  0.64076  0.16728  0.67213  1.0000
  H   H81       1.0  0.58608  0.15108  0.54721  1.0000
  O  Te9       1.0  0.57556  0.02259  0.90281  1.0000
  O  Te10      1.0  0.65739  0.08386  0.97770  1.0000
  H   H82       1.0  0.65741  0.20453  0.61242  1.0000
  Mg  Mg5       1.0  0.68454  0.10405  0.04898  1.0000
  C   C165      1.0  0.68087  0.46260  0.20321  1.0000
  C   C166      1.0  0.72280  0.49718  0.21352  1.0000
  C  Sn11      1.0  0.72792  0.53677  0.24273  1.0000
  C  Sn12      1.0  0.69030  0.54175  0.26198  1.0000
  C   C167      1.0  0.64849  0.50695  0.25158  1.0000
  C   C168      1.0  0.64374  0.46748  0.22225  1.0000
  H   H83       1.0  0.67719  0.43205  0.18061  1.0000
  O  Te11      1.0  0.77005  0.57099  0.25260  1.0000
  O  Te12      1.0  0.69447  0.58096  0.29135  1.0000
  H   H84       1.0  0.61127  0.44070  0.21440  1.0000
  Mg  Mg6       1.0  0.75881  0.61808  0.29443  1.0000
  C   C169      1.0  0.81058  0.34035  0.61149  1.0000
  C   C170      1.0  0.84078  0.33739  0.70455  1.0000
  C  Sn13      1.0  0.83398  0.29420  0.78916  1.0000
  C  Sn14      1.0  0.79623  0.25326  0.78014  1.0000
  C   C171      1.0  0.76623  0.25658  0.68660  1.0000
  C   C172      1.0  0.77335  0.29999  0.60247  1.0000
  H   H85       1.0  0.81610  0.37393  0.54631  1.0000
  O  Te13      1.0  0.86447  0.29187  0.88163  1.0000
  O  Te14      1.0  0.78864  0.20964  0.86343  1.0000
  H   H86       1.0  0.74998  0.30226  0.53033  1.0000
  Mg  Mg7       1.0  0.83968  0.22440  0.97335  1.0000
  C   C173      1.0  0.54162  0.41382  0.63510  1.0000
  C   C174      1.0  0.51145  0.42209  0.72310  1.0000
  C  Sn15      1.0  0.47184  0.38537  0.85391  1.0000
  C  Sn16      1.0  0.46234  0.33957  0.89716  1.0000
  C   C175      1.0  0.49275  0.33167  0.80843  1.0000
  C   C176      1.0  0.53228  0.36866  0.67772  1.0000
  H   H87       1.0  0.57222  0.44244  0.53403  1.0000
  O  Te15      1.0  0.44206  0.39424  0.94049  1.0000
  O  Te16      1.0  0.49265  0.39064  0.02739  1.0000
  H   H88       1.0  0.55564  0.36226  0.60968  1.0000
  Mg  Mg8       1.0  0.46254  0.42031  0.10824  1.0000
  C   C177      1.0  0.45885  0.77893  0.68963  1.0000
  C   C178      1.0  0.49368  0.77129  0.70753  1.0000
  C  Sn17      1.0  0.53197  0.80297  0.74912  1.0000
  C  Sn18      1.0  0.53535  0.84301  0.77320  1.0000
  C   C179      1.0  0.50030  0.85032  0.75512  1.0000
  C   C180      1.0  0.46214  0.81840  0.71342  1.0000
  H   H89       1.0  0.42931  0.75422  0.65746  1.0000
  O  Te17      1.0  0.56646  0.79482  0.76646  1.0000
  O  Te18      1.0  0.57323  0.87523  0.81490  1.0000
  H   H90       1.0  0.43517  0.82430  0.69968  1.0000
  Mg  Mg9       1.0  0.61135  0.84883  0.82449  1.0000
  C   C181      1.0  0.55186  0.63125  0.85992  1.0000
  C   C182      1.0  0.51794  0.59468  0.81863  1.0000
  C  Sn19      1.0  0.48381  0.59825  0.75812  1.0000
  C  Sn20      1.0  0.48374  0.63923  0.73867  1.0000
  C   C183      1.0  0.51784  0.67563  0.78020  1.0000
  C   C184      1.0  0.55182  0.67169  0.84070  1.0000
  H   H91       1.0  0.57817  0.62821  0.90664  1.0000
  O  Te19      1.0  0.45017  0.56138  0.71753  1.0000
  O  Te20      1.0  0.45004  0.64372  0.67839  1.0000
  H   H92       1.0  0.57810  0.70001  0.87255  1.0000
  Mg  Mg10      1.0  0.41148  0.58398  0.64016  1.0000
  C   C185      1.0  0.45726  0.16389  0.84636  1.0000
  C   C186      1.0  0.48567  0.15576  0.74570  1.0000
  C  Sn21      1.0  0.52668  0.19302  0.62388  1.0000
  C  Sn22      1.0  0.53941  0.23926  0.60278  1.0000
  C   C187      1.0  0.51077  0.24704  0.70421  1.0000
  C   C188      1.0  0.46980  0.20949  0.82568  1.0000
  H   H93       1.0  0.42557  0.13485  0.94041  1.0000
  O  Te21      1.0  0.55465  0.18427  0.52434  1.0000
  O  Te22      1.0  0.58023  0.27715  0.48204  1.0000
  H   H94       1.0  0.44783  0.21580  0.90368  1.0000
  Mg  Mg11      1.0  0.60688  0.24742  0.37684  1.0000
  C   C189      1.0  0.81811  0.27587  0.28492  1.0000
  C   C190      1.0  0.78142  0.27204  0.22172  1.0000
  C  Sn23      1.0  0.78197  0.31189  0.13808  1.0000
  C  Sn24      1.0  0.82001  0.35635  0.11750  1.0000
  C   C191      1.0  0.85657  0.35981  0.18108  1.0000
  C   C192      1.0  0.85566  0.31971  0.26461  1.0000
  H   H95       1.0  0.81743  0.24485  0.34947  1.0000
  O  Te23      1.0  0.74501  0.30743  0.07577  1.0000
  O  Te24      1.0  0.82145  0.39674  0.03436  1.0000
  H   H96       1.0  0.88409  0.32270  0.31343  1.0000
  Mg  Mg12      1.0  0.69322  0.28429  0.97170  1.0000
