data_image0
_chemical_formula_structural       H32C88N8C2Sn2C2HTe2HMgC2Sn2C2HTe2HMgC2Sn2C2HTe2HMgC2Sn2C2HTe2HMgC2Sn2C2HTe2HMgC2Sn2C2HTe2HMgC2Sn2C2HTe2HMgC2Sn2C2HTe2HMgC2Sn2C2HTe2HMgC2Sn2C2HTe2HMgC2Sn2C2HTe2HMgC2Sn2C2HTe2HMgC2Sn2C2HTe2HMgC2Sn2C2HTe2HMgC2Sn2C2HTe2HMgC2Sn2C2HTe2HMg
_chemical_formula_sum              "H64 C152 N8 Sn32 Te32 Mg16"
_cell_length_a       28.3305
_cell_length_b       28.754
_cell_length_c       8.05405
_cell_angle_alpha    87.6554
_cell_angle_beta     111.994
_cell_angle_gamma    90.5885

_symmetry_space_group_name_H-M    'P1'
_space_group_IT_number       1

loop_
  _space_group_symop_operation_xyz
  'x, y, z'

loop_
  _atom_site_type_symbol
  _atom_site_label
  _atom_site_symmetry_multiplicity
  _atom_site_fract_x
  _atom_site_fract_y
  _atom_site_fract_z
  _atom_site_occupancy
  H   H1        1.0  0.60821  0.44814  0.17214  1.0000
  H   H2        1.0  0.24672  0.81662  0.13761  1.0000
  H   H3        1.0  0.12918  0.96978  0.28018  1.0000
  H   H4        1.0  0.39669  0.55059  0.32227  1.0000
  H   H5        1.0  0.75818  0.18273  0.37043  1.0000
  H   H6        1.0  0.87654  0.02944  0.22596  1.0000
  H   H7        1.0  0.38911  0.46447  0.32406  1.0000
  H   H8        1.0  0.74971  0.78775  0.39461  1.0000
  H   H9        1.0  0.87794  0.94939  0.14151  1.0000
  H   H10       1.0  0.61561  0.53421  0.16868  1.0000
  H   H11       1.0  0.24733  0.21393  0.10340  1.0000
  H   H12       1.0  0.12753  0.05006  0.36081  1.0000
  H   H13       1.0  0.51520  0.65959  0.23879  1.0000
  H   H14       1.0  0.48970  0.33906  0.25397  1.0000
  H   H15       1.0  0.00080  0.15190  0.40660  1.0000
  H   H16       1.0  0.00450  0.84741  0.09701  1.0000
  H   H17       1.0  0.60343  0.45017  0.67350  1.0000
  H   H18       1.0  0.24285  0.81602  0.64515  1.0000
  H   H19       1.0  0.12485  0.97104  0.77929  1.0000
  H   H20       1.0  0.39194  0.55230  0.82583  1.0000
  H   H21       1.0  0.75436  0.18320  0.87403  1.0000
  H   H22       1.0  0.87251  0.02984  0.73125  1.0000
  H   H23       1.0  0.38399  0.46616  0.82403  1.0000
  H   H24       1.0  0.75267  0.78723  0.88934  1.0000
  H   H25       1.0  0.87407  0.94990  0.64745  1.0000
  H   H26       1.0  0.60990  0.53620  0.66564  1.0000
  H   H27       1.0  0.24925  0.21571  0.60143  1.0000
  H   H28       1.0  0.12285  0.05142  0.85804  1.0000
  H   H29       1.0  0.51020  0.66142  0.74280  1.0000
  H   H30       1.0  0.48505  0.34089  0.75881  1.0000
  H   H31       1.0  0.99679  0.15310  0.90526  1.0000
  H   H32       1.0  0.00030  0.84844  0.59756  1.0000
  C   C1        1.0  0.47091  0.60112  0.26971  1.0000
  C   C2        1.0  0.46621  0.55157  0.27082  1.0000
  C   C3        1.0  0.57991  0.46976  0.19361  1.0000
  C   C4        1.0  0.43441  0.62955  0.29659  1.0000
  C   C5        1.0  0.40281  0.65450  0.31954  1.0000
  C   C6        1.0  0.22825  0.80450  0.22970  1.0000
  C   C7        1.0  0.95590  0.09047  0.32679  1.0000
  C   C8        1.0  0.95641  0.04313  0.28127  1.0000
  C   C9        1.0  0.09371  0.98451  0.27683  1.0000
  C   C10       1.0  0.53368  0.39766  0.22171  1.0000
  C   C11       1.0  0.53822  0.44721  0.22018  1.0000
  C   C12       1.0  0.42469  0.52899  0.29862  1.0000
  C   C13       1.0  0.57041  0.36955  0.19506  1.0000
  C   C14       1.0  0.60255  0.34503  0.17337  1.0000
  C   C15       1.0  0.77746  0.19445  0.28036  1.0000
  C   C16       1.0  0.04962  0.90866  0.17960  1.0000
  C   C17       1.0  0.04918  0.95611  0.22420  1.0000
  C   C18       1.0  0.91191  0.01475  0.22849  1.0000
  C   C19       1.0  0.54989  0.59534  0.21377  1.0000
  C   C20       1.0  0.54663  0.54570  0.21759  1.0000
  C   C21       1.0  0.42056  0.48141  0.29972  1.0000
  C   C22       1.0  0.59040  0.61829  0.18345  1.0000
  C   C23       1.0  0.62484  0.63941  0.15711  1.0000
  C   C24       1.0  0.78679  0.78024  0.01063  1.0000
  C   C25       1.0  0.04656  0.09772  0.37127  1.0000
  C   C26       1.0  0.04797  0.05060  0.32689  1.0000
  C   C27       1.0  0.91254  0.96987  0.18007  1.0000
  C   C28       1.0  0.45468  0.40326  0.27767  1.0000
  C   C29       1.0  0.45776  0.45295  0.27325  1.0000
  C   C30       1.0  0.58403  0.51730  0.19223  1.0000
  C   C31       1.0  0.41415  0.38030  0.30814  1.0000
  C   C32       1.0  0.37946  0.35960  0.33447  1.0000
  C   C33       1.0  0.21478  0.22308  0.48171  1.0000
  C   C34       1.0  0.95857  0.90198  0.12993  1.0000
  C   C35       1.0  0.95748  0.94897  0.17603  1.0000
  C   C36       1.0  0.09294  0.02957  0.32349  1.0000
  C   C37       1.0  0.50431  0.52414  0.24466  1.0000
  C   C38       1.0  0.51224  0.62189  0.24006  1.0000
  C   C39       1.0  0.49998  0.47455  0.24562  1.0000
  C   C40       1.0  0.49246  0.37678  0.25181  1.0000
  C   C41       1.0  0.00250  0.02327  0.27878  1.0000
  C   C42       1.0  0.00099  0.11603  0.36940  1.0000
  C   C43       1.0  0.00304  0.97620  0.22541  1.0000
  C   C44       1.0  0.00430  0.88329  0.13435  1.0000
  C   C45       1.0  0.46654  0.60284  0.77673  1.0000
  C   C46       1.0  0.46180  0.55330  0.77646  1.0000
  C   C47       1.0  0.57514  0.47162  0.69584  1.0000
  C   C48       1.0  0.43033  0.63084  0.80721  1.0000
  C   C49       1.0  0.39860  0.65513  0.83245  1.0000
  C   C50       1.0  0.22297  0.80385  0.73276  1.0000
  C   C51       1.0  0.95176  0.09148  0.82741  1.0000
  C   C52       1.0  0.95225  0.04396  0.78350  1.0000
  C   C53       1.0  0.08942  0.98555  0.77687  1.0000
  C   C54       1.0  0.52939  0.39927  0.72669  1.0000
  C   C55       1.0  0.53384  0.44888  0.72446  1.0000
  C   C56       1.0  0.42006  0.53073  0.80273  1.0000
  C   C57       1.0  0.56609  0.37083  0.70062  1.0000
  C   C58       1.0  0.59796  0.34599  0.67853  1.0000
  C   C59       1.0  0.77303  0.19487  0.78217  1.0000
  C   C60       1.0  0.04546  0.90969  0.68053  1.0000
  C   C61       1.0  0.04500  0.95709  0.72533  1.0000
  C   C62       1.0  0.90786  0.01540  0.73250  1.0000
  C   C63       1.0  0.54483  0.59734  0.71571  1.0000
  C   C64       1.0  0.54176  0.54764  0.71993  1.0000
  C   C65       1.0  0.41574  0.48319  0.80187  1.0000
  C   C66       1.0  0.58525  0.62031  0.68411  1.0000
  C   C67       1.0  0.62008  0.64072  0.65755  1.0000
  C   C68       1.0  0.78434  0.77914  0.51209  1.0000
  C   C69       1.0  0.04250  0.09848  0.87236  1.0000
  C   C70       1.0  0.04366  0.05142  0.82737  1.0000
  C   C71       1.0  0.90853  0.97054  0.68379  1.0000
  C   C72       1.0  0.44996  0.40513  0.78019  1.0000
  C   C73       1.0  0.45317  0.45479  0.77639  1.0000
  C   C74       1.0  0.57885  0.51923  0.69251  1.0000
  C   C75       1.0  0.40921  0.38217  0.80874  1.0000
  C   C76       1.0  0.37436  0.36124  0.83287  1.0000
  C   C77       1.0  0.21277  0.22146  0.98423  1.0000
  C   C78       1.0  0.95449  0.90280  0.63161  1.0000
  C   C79       1.0  0.95333  0.94974  0.67828  1.0000
  C   C80       1.0  0.08853  0.03063  0.82258  1.0000
  C   C81       1.0  0.49981  0.52595  0.74916  1.0000
  C   C82       1.0  0.50742  0.62372  0.74437  1.0000
  C   C83       1.0  0.49558  0.47631  0.74990  1.0000
  C   C84       1.0  0.48795  0.37858  0.75600  1.0000
  C   C85       1.0  0.99825  0.02406  0.78030  1.0000
  C   C86       1.0  0.99689  0.11707  0.86935  1.0000
  C   C87       1.0  0.99883  0.97703  0.72687  1.0000
  C   C88       1.0  0.00017  0.88430  0.63523  1.0000
  N   N1        1.0  0.24343  0.76772  0.33428  1.0000
  N   N2        1.0  0.76312  0.23122  0.17523  1.0000
  N   N3        1.0  0.78854  0.74825  0.13062  1.0000
  N   N4        1.0  0.21267  0.25571  0.36351  1.0000
  N   N5        1.0  0.23669  0.76649  0.83474  1.0000
  N   N6        1.0  0.75811  0.23150  0.67666  1.0000
  N   N7        1.0  0.78634  0.74582  0.62775  1.0000
  N   N8        1.0  0.21028  0.25426  0.86631  1.0000
  C   C89       1.0  0.31602  0.66787  0.40691  1.0000
  C   C90       1.0  0.35466  0.67765  0.34255  1.0000
  C  Sn1       1.0  0.36062  0.72277  0.28241  1.0000
  C  Sn2       1.0  0.32723  0.75870  0.28700  1.0000
  C   C91       1.0  0.28871  0.74857  0.35175  1.0000
  C   C92       1.0  0.28308  0.70329  0.41155  1.0000
  H   H33       1.0  0.31167  0.63284  0.45327  1.0000
  O  Te1       1.0  0.39942  0.73193  0.21847  1.0000
  O  Te2       1.0  0.33235  0.80411  0.22778  1.0000
  H   H34       1.0  0.25318  0.69574  0.46148  1.0000
  Mg  Mg1       1.0  0.39105  0.79931  0.15246  1.0000
  C   C93       1.0  0.86170  0.09770  0.39349  1.0000
  C   C94       1.0  0.89971  0.10927  0.32797  1.0000
  C  Sn3       1.0  0.89970  0.15302  0.24583  1.0000
  C  Sn4       1.0  0.86087  0.18573  0.22921  1.0000
  C   C95       1.0  0.82303  0.17383  0.29531  1.0000
  C   C96       1.0  0.82339  0.12995  0.37722  1.0000
  H   H35       1.0  0.86199  0.06376  0.45695  1.0000
  O  Te3       1.0  0.93796  0.16401  0.18105  1.0000
  O  Te4       1.0  0.85996  0.22971  0.14776  1.0000
  H   H36       1.0  0.79398  0.12101  0.42803  1.0000
  Mg  Mg2       1.0  0.92036  0.22837  0.08051  1.0000
  C   C97       1.0  0.71320  0.31616  0.10264  1.0000
  C   C98       1.0  0.72188  0.26921  0.15705  1.0000
  C  Sn5       1.0  0.68656  0.24416  0.20758  1.0000
  C  Sn6       1.0  0.64174  0.26663  0.20337  1.0000
  C   C99       1.0  0.63339  0.31360  0.14861  1.0000
  C   C100      1.0  0.66900  0.33834  0.09838  1.0000
  H   H37       1.0  0.74073  0.33530  0.06369  1.0000
  O  Te5       1.0  0.69584  0.19728  0.26166  1.0000
  O  Te6       1.0  0.60580  0.24241  0.25310  1.0000
  H   H38       1.0  0.66225  0.37469  0.05615  1.0000
  Mg  Mg3       1.0  0.63553  0.17908  0.31695  1.0000
  C   C101      1.0  0.11127  0.82626  0.27809  1.0000
  C   C102      1.0  0.09828  0.87228  0.21633  1.0000
  C  Sn7       1.0  0.12831  0.89809  0.14293  1.0000
  C  Sn8       1.0  0.17213  0.87734  0.13128  1.0000
  C   C103      1.0  0.18479  0.83127  0.19333  1.0000
  C   C104      1.0  0.15448  0.80576  0.26659  1.0000
  H   H39       1.0  0.08781  0.80651  0.33469  1.0000
  O  Te7       1.0  0.11479  0.94403  0.08192  1.0000
  O  Te8       1.0  0.20281  0.90234  0.05846  1.0000
  H   H40       1.0  0.16453  0.77012  0.31430  1.0000
  Mg  Mg4       1.0  0.27501  0.95348  0.99349  1.0000
  C   C105      1.0  0.75159  0.67014  0.24884  1.0000
  C   C106      1.0  0.74938  0.71018  0.14179  1.0000
  C  Sn9       1.0  0.70237  0.72933  0.03197  1.0000
  C  Sn10      1.0  0.65679  0.70792  0.02960  1.0000
  C   C107      1.0  0.65940  0.66789  0.13729  1.0000
  C   C108      1.0  0.70664  0.64901  0.24664  1.0000
  H   H41       1.0  0.78814  0.65554  0.33353  1.0000
  O  Te9       1.0  0.80722  0.75896  0.92581  1.0000
  O  Te10      1.0  0.71566  0.71596  0.92115  1.0000
  H   H42       1.0  0.70834  0.61802  0.32959  1.0000
  Mg  Mg5       1.0  0.73334  0.77095  0.80038  1.0000
  C   C109      1.0  0.08771  0.18319  0.29286  1.0000
  C   C110      1.0  0.08782  0.13966  0.37678  1.0000
  C  Sn11      1.0  0.13172  0.12319  0.51597  1.0000
  C  Sn12      1.0  0.17627  0.15089  0.57192  1.0000
  C   C111      1.0  0.17576  0.19441  0.48719  1.0000
  C   C112      1.0  0.13163  0.21055  0.34801  1.0000
  H   H43       1.0  0.05357  0.19570  0.18524  1.0000
  O  Te11      1.0  0.13118  0.07961  0.59831  1.0000
  O  Te12      1.0  0.22065  0.13528  0.71073  1.0000
  H   H44       1.0  0.13155  0.24427  0.28315  1.0000
  Mg  Mg6       1.0  0.20106  0.07350  0.78130  1.0000
  C   C113      1.0  0.16987  0.14043  0.08775  1.0000
  C   C114      1.0  0.27876  0.17032  0.98831  1.0000
  C  Sn13      1.0  0.23548  0.18682  0.84647  1.0000
  C  Sn14      1.0  0.18886  0.16247  0.80374  1.0000
  C   C115      1.0  0.18672  0.12224  0.90412  1.0000
  C   C116      1.0  0.12390  0.11641  0.04574  1.0000
  H   H45       1.0  0.20356  0.12789  0.19739  1.0000
  O  Te13      1.0  0.23868  0.22710  0.74845  1.0000
  O  Te14      1.0  0.14502  0.17821  0.66270  1.0000
  H   H46       1.0  0.12192  0.08524  0.12278  1.0000
  Mg  Mg7       1.0  0.16854  0.23476  0.56847  1.0000
  C   C117      1.0  0.25184  0.33418  0.25349  1.0000
  C   C118      1.0  0.25270  0.29080  0.33942  1.0000
  C  Sn15      1.0  0.29905  0.26986  0.44576  1.0000
  C  Sn16      1.0  0.34533  0.29286  0.46624  1.0000
  C   C119      1.0  0.34406  0.33627  0.37982  1.0000
  C   C120      1.0  0.29747  0.35690  0.27367  1.0000
  H   H47       1.0  0.21579  0.35016  0.17144  1.0000
  O  Te15      1.0  0.29922  0.22649  0.53061  1.0000
  O  Te16      1.0  0.39219  0.27273  0.57180  1.0000
  H   H48       1.0  0.29682  0.39051  0.20725  1.0000
  Mg  Mg8       1.0  0.37268  0.21320  0.66035  1.0000
  C   C121      1.0  0.85328  0.87740  0.92501  1.0000
  C   C122      1.0  0.79502  0.88609  0.06255  1.0000
  C  Sn17      1.0  0.80891  0.84830  0.18600  1.0000
  C  Sn18      1.0  0.77391  0.81156  0.17110  1.0000
  C   C123      1.0  0.72589  0.81356  0.03295  1.0000
  C   C124      1.0  0.81874  0.84117  0.91018  1.0000
  H   H49       1.0  0.84283  0.90679  0.82995  1.0000
  O  Te17      1.0  0.85711  0.84717  0.32264  1.0000
  O  Te18      1.0  0.78681  0.77336  0.29263  1.0000
  H   H50       1.0  0.78151  0.84246  0.80363  1.0000
  Mg  Mg9       1.0  0.85699  0.78772  0.45570  1.0000
  C   C125      1.0  0.84930  0.87754  0.42798  1.0000
  C   C126      1.0  0.89771  0.87597  0.56382  1.0000
  C  Sn19      1.0  0.91247  0.83777  0.68519  1.0000
  C  Sn20      1.0  0.87805  0.80051  0.66990  1.0000
  C   C127      1.0  0.82973  0.80240  0.53345  1.0000
  C   C128      1.0  0.81535  0.84079  0.41276  1.0000
  H   H51       1.0  0.83818  0.90724  0.33453  1.0000
  O  Te19      1.0  0.96096  0.83677  0.82015  1.0000
  O  Te20      1.0  0.89183  0.76190  0.78935  1.0000
  H   H52       1.0  0.77788  0.84199  0.30752  1.0000
  Mg  Mg10      1.0  0.96210  0.77663  0.95067  1.0000
  C   C129      1.0  0.33421  0.75962  0.80799  1.0000
  C   C130      1.0  0.28880  0.74716  0.82824  1.0000
  C  Sn21      1.0  0.28004  0.70087  0.86771  1.0000
  C  Sn22      1.0  0.31752  0.66649  0.88724  1.0000
  C   C131      1.0  0.36284  0.67931  0.86685  1.0000
  C   C132      1.0  0.37120  0.72573  0.82731  1.0000
  H   H53       1.0  0.34069  0.79554  0.77749  1.0000
  O  Te21      1.0  0.23445  0.68903  0.88743  1.0000
  O  Te22      1.0  0.30976  0.61997  0.92674  1.0000
  H   H54       1.0  0.40638  0.73537  0.81175  1.0000
  Mg  Mg11      1.0  0.24151  0.62103  0.94100  1.0000
  C   C133      1.0  0.85821  0.09882  0.89756  1.0000
  C   C134      1.0  0.89532  0.11007  0.82732  1.0000
  C  Sn23      1.0  0.89438  0.15342  0.74116  1.0000
  C  Sn24      1.0  0.85555  0.18605  0.72528  1.0000
  C   C135      1.0  0.81862  0.17447  0.79611  1.0000
  C   C136      1.0  0.81991  0.13099  0.88202  1.0000
  H   H55       1.0  0.85922  0.06519  0.96412  1.0000
  O  Te23      1.0  0.93173  0.16408  0.67168  1.0000
  O  Te24      1.0  0.85372  0.22963  0.63988  1.0000
  H   H56       1.0  0.79119  0.12231  0.93649  1.0000
  Mg  Mg12      1.0  0.91309  0.22795  0.56693  1.0000
  C   C137      1.0  0.66371  0.24107  0.72547  1.0000
  C   C138      1.0  0.70430  0.25097  0.67122  1.0000
  C  Sn25      1.0  0.71191  0.29633  0.61767  1.0000
  C  Sn26      1.0  0.67821  0.33239  0.61862  1.0000
  C   C139      1.0  0.63775  0.32215  0.67324  1.0000
  C   C140      1.0  0.63047  0.27663  0.72651  1.0000
  H   H57       1.0  0.65810  0.20586  0.76678  1.0000
  O  Te25      1.0  0.75263  0.30560  0.56381  1.0000
  O  Te26      1.0  0.68495  0.37804  0.56582  1.0000
  H   H58       1.0  0.59907  0.26899  0.76861  1.0000
  Mg  Mg13      1.0  0.74600  0.37332  0.50360  1.0000
  C   C141      1.0  0.10564  0.82657  0.77587  1.0000
  C   C142      1.0  0.09338  0.87277  0.71528  1.0000
  C  Sn27      1.0  0.12419  0.89841  0.64479  1.0000
  C  Sn28      1.0  0.16807  0.87731  0.63489  1.0000
  C   C143      1.0  0.17999  0.83106  0.69575  1.0000
  C   C144      1.0  0.14890  0.80573  0.76610  1.0000
  H   H59       1.0  0.08157  0.80695  0.83021  1.0000
  O  Te27      1.0  0.11139  0.94453  0.58491  1.0000
  O  Te28      1.0  0.19952  0.90213  0.56498  1.0000
  H   H60       1.0  0.15839  0.76995  0.81289  1.0000
  Mg  Mg14      1.0  0.16616  0.96402  0.50057  1.0000
  C   C145      1.0  0.74754  0.67032  0.75568  1.0000
  C   C146      1.0  0.74645  0.70846  0.64100  1.0000
  C  Sn29      1.0  0.69997  0.72675  0.52261  1.0000
  C  Sn30      1.0  0.65380  0.70642  0.51933  1.0000
  C   C147      1.0  0.65530  0.66830  0.63468  1.0000
  C   C148      1.0  0.70201  0.65026  0.75257  1.0000
  H   H61       1.0  0.78368  0.65638  0.84697  1.0000
  O  Te29      1.0  0.69957  0.76485  0.40890  1.0000
  O  Te30      1.0  0.60682  0.72402  0.40238  1.0000
  H   H62       1.0  0.70284  0.62075  0.84143  1.0000
  Mg  Mg15      1.0  0.62603  0.77636  0.27335  1.0000
  C   C149      1.0  0.24755  0.33419  0.75922  1.0000
  C   C150      1.0  0.24943  0.28985  0.83931  1.0000
  C  Sn31      1.0  0.29629  0.26880  0.93909  1.0000
  C  Sn32      1.0  0.34204  0.29268  0.95887  1.0000
  C   C151      1.0  0.33975  0.33705  0.87833  1.0000
  C   C152      1.0  0.29266  0.35778  0.77872  1.0000
  H   H63       1.0  0.21111  0.35025  0.68223  1.0000
  O  Te31      1.0  0.19112  0.23486  0.01815  1.0000
  O  Te32      1.0  0.28303  0.28285  0.05793  1.0000
  H   H64       1.0  0.29121  0.39212  0.71683  1.0000
  Mg  Mg16      1.0  0.26491  0.22184  0.14014  1.0000
