data_image0
_chemical_formula_structural       H24C36N12C2Sn2C2HTe2HMgC2Sn2C2HTe2HMgC2Sn2C2HTe2HMgC2Sn2C2HTe2HMgC2Sn2C2HTe2HMgC2Sn2C2HTe2HMgC2Sn2C2HTe2HMgC2Sn2C2HTe2HMgC2Sn2C2HTe2HMgC2Sn2C2HTe2HMgC2Sn2C2HTe2HMgC2Sn2C2HTe2HMgC2Sn2C2HTe2HMgC2Sn2C2HTe2HMgC2Sn2C2HTe2HMgC2Sn2C2HTe2HMgC2Sn2C2HTe2HMgC2Sn2C2HTe2HMg
_chemical_formula_sum              "H60 C108 N12 Sn36 Te36 Mg18"
_cell_length_a       37.1577
_cell_length_b       37.4279
_cell_length_c       8.02529
_cell_angle_alpha    111.935
_cell_angle_beta     71.1233
_cell_angle_gamma    120.385

_symmetry_space_group_name_H-M    'P1'
_space_group_IT_number       1

loop_
  _space_group_symop_operation_xyz
  'x, y, z'

loop_
  _atom_site_type_symbol
  _atom_site_label
  _atom_site_symmetry_multiplicity
  _atom_site_fract_x
  _atom_site_fract_y
  _atom_site_fract_z
  _atom_site_occupancy
  H   H1        1.0  0.69649  0.40689  0.23701  1.0000
  H   H2        1.0  0.58537  0.28685  0.22183  1.0000
  H   H3        1.0  0.70380  0.29527  0.23273  1.0000
  H   H4        1.0  0.30199  0.58848  0.24109  1.0000
  H   H5        1.0  0.40894  0.71115  0.23585  1.0000
  H   H6        1.0  0.28440  0.69378  0.25054  1.0000
  H   H7        1.0  0.89375  0.41850  0.35640  1.0000
  H   H8        1.0  0.58404  0.48870  0.28582  1.0000
  H   H9        1.0  0.51117  0.09612  0.20016  1.0000
  H   H10       1.0  0.09940  0.57733  0.23305  1.0000
  H   H11       1.0  0.42223  0.51585  0.17568  1.0000
  H   H12       1.0  0.47986  0.89964  0.23118  1.0000
  H   H13       1.0  0.69613  0.41072  0.74026  1.0000
  H   H14       1.0  0.58909  0.28719  0.71570  1.0000
  H   H15       1.0  0.71120  0.30171  0.71155  1.0000
  H   H16       1.0  0.30286  0.59242  0.74835  1.0000
  H   H17       1.0  0.41353  0.71207  0.73222  1.0000
  H   H18       1.0  0.29078  0.70136  0.76266  1.0000
  H   H19       1.0  0.89883  0.42665  0.83031  1.0000
  H   H20       1.0  0.58061  0.48464  0.77507  1.0000
  H   H21       1.0  0.52182  0.09927  0.69945  1.0000
  H   H22       1.0  0.10352  0.58880  0.74602  1.0000
  H   H23       1.0  0.42083  0.51578  0.67600  1.0000
  H   H24       1.0  0.49120  0.90685  0.77508  1.0000
  C   C1        1.0  0.70657  0.35474  0.23549  1.0000
  C   C2        1.0  0.63840  0.34935  0.22793  1.0000
  C   C3        1.0  0.64276  0.28620  0.22525  1.0000
  C   C4        1.0  0.28848  0.63836  0.24639  1.0000
  C   C5        1.0  0.35900  0.64808  0.24185  1.0000
  C   C6        1.0  0.34916  0.70833  0.24204  1.0000
  C   C7        1.0  0.68186  0.37321  0.23426  1.0000
  C   C8        1.0  0.61915  0.30572  0.22408  1.0000
  C   C9        1.0  0.68621  0.31093  0.22968  1.0000
  C   C10       1.0  0.31538  0.62201  0.24279  1.0000
  C   C11       1.0  0.37519  0.69092  0.23964  1.0000
  C   C12       1.0  0.30557  0.68152  0.24847  1.0000
  C   C13       1.0  0.90748  0.44556  0.29589  1.0000
  C   C14       1.0  0.55102  0.46608  0.26847  1.0000
  C   C15       1.0  0.53194  0.08550  0.21948  1.0000
  C   C16       1.0  0.08712  0.54447  0.24357  1.0000
  C   C17       1.0  0.45395  0.53932  0.20870  1.0000
  C   C18       1.0  0.45665  0.90947  0.22957  1.0000
  C   C19       1.0  0.70983  0.35996  0.72630  1.0000
  C   C20       1.0  0.63972  0.35117  0.72638  1.0000
  C   C21       1.0  0.64839  0.28957  0.71229  1.0000
  C   C22       1.0  0.29212  0.64422  0.75606  1.0000
  C   C23       1.0  0.36162  0.65026  0.74252  1.0000
  C   C24       1.0  0.35495  0.71263  0.74680  1.0000
  C   C25       1.0  0.68312  0.37687  0.73192  1.0000
  C   C26       1.0  0.62273  0.30751  0.71758  1.0000
  C   C27       1.0  0.69172  0.31598  0.71464  1.0000
  C   C28       1.0  0.31771  0.62600  0.74857  1.0000
  C   C29       1.0  0.37952  0.69326  0.73984  1.0000
  C   C30       1.0  0.31092  0.68756  0.75735  1.0000
  C   C31       1.0  0.91119  0.45572  0.78518  1.0000
  C   C32       1.0  0.54764  0.46196  0.75731  1.0000
  C   C33       1.0  0.54361  0.08940  0.71532  1.0000
  C   C34       1.0  0.09085  0.55525  0.74884  1.0000
  C   C35       1.0  0.45260  0.53845  0.71005  1.0000
  C   C36       1.0  0.46924  0.91538  0.75174  1.0000
  N   N1        1.0  0.88495  0.45443  0.23795  1.0000
  N   N2        1.0  0.53632  0.42548  0.24974  1.0000
  N   N3        1.0  0.57141  0.11089  0.22974  1.0000
  N   N4        1.0  0.11218  0.52985  0.24177  1.0000
  N   N5        1.0  0.46759  0.57982  0.22862  1.0000
  N   N6        1.0  0.41694  0.88328  0.22948  1.0000
  N   N7        1.0  0.88740  0.46580  0.74190  1.0000
  N   N8        1.0  0.53316  0.42145  0.73960  1.0000
  N   N9        1.0  0.58335  0.11516  0.71638  1.0000
  N   N10       1.0  0.11517  0.53970  0.74619  1.0000
  N   N11       1.0  0.46707  0.57912  0.73169  1.0000
  N   N12       1.0  0.43031  0.88851  0.73451  1.0000
  C   C37       1.0  0.80819  0.44465  0.21018  1.0000
  C   C38       1.0  0.83559  0.43471  0.24942  1.0000
  C  Sn1       1.0  0.82104  0.39480  0.27980  1.0000
  C  Sn2       1.0  0.77824  0.36435  0.27057  1.0000
  C   C39       1.0  0.75108  0.37459  0.23108  1.0000
  C   C40       1.0  0.76597  0.41462  0.20097  1.0000
  H   H25       1.0  0.81971  0.47561  0.18678  1.0000
  O  Te1       1.0  0.84884  0.38540  0.31892  1.0000
  O  Te2       1.0  0.76287  0.32422  0.30028  1.0000
  H   H26       1.0  0.74475  0.42229  0.17047  1.0000
  Mg  Mg1       1.0  0.81298  0.32642  0.34911  1.0000
  C   C41       1.0  0.55461  0.35629  0.13711  1.0000
  C   C42       1.0  0.55734  0.39686  0.23859  1.0000
  C  Sn3       1.0  0.59067  0.42592  0.33568  1.0000
  C  Sn4       1.0  0.62179  0.41405  0.33077  1.0000
  C   C43       1.0  0.61879  0.37340  0.22873  1.0000
  C   C44       1.0  0.58530  0.34457  0.13214  1.0000
  H   H27       1.0  0.52871  0.33399  0.06228  1.0000
  O  Te3       1.0  0.59291  0.46632  0.43643  1.0000
  O  Te4       1.0  0.65544  0.44248  0.42648  1.0000
  H   H28       1.0  0.58321  0.31317  0.05348  1.0000
  Mg  Mg2       1.0  0.64475  0.49386  0.54415  1.0000
  C   C45       1.0  0.57400  0.21232  0.34555  1.0000
  C   C46       1.0  0.61376  0.23713  0.25952  1.0000
  C  Sn5       1.0  0.64068  0.21851  0.14700  1.0000
  C  Sn6       1.0  0.62745  0.17423  0.12034  1.0000
  C   C47       1.0  0.58760  0.14968  0.20691  1.0000
  C   C48       1.0  0.56092  0.16864  0.31927  1.0000
  H   H29       1.0  0.55334  0.22698  0.43241  1.0000
  O  Te5       1.0  0.68031  0.24376  0.06215  1.0000
  O  Te6       1.0  0.65372  0.15480  0.00854  1.0000
  H   H30       1.0  0.53012  0.14942  0.38576  1.0000
  Mg  Mg3       1.0  0.66575  0.26311  0.92261  1.0000
  C   C49       1.0  0.19628  0.54481  0.10465  1.0000
  C   C50       1.0  0.16204  0.55173  0.22259  1.0000
  C  Sn7       1.0  0.16885  0.59084  0.35280  1.0000
  C  Sn8       1.0  0.21075  0.62356  0.36479  1.0000
  C   C51       1.0  0.24479  0.61633  0.24608  1.0000
  C   C52       1.0  0.23762  0.57707  0.11633  1.0000
  H   H31       1.0  0.19073  0.51444  0.00419  1.0000
  O  Te7       1.0  0.13428  0.59722  0.46962  1.0000
  O  Te8       1.0  0.21845  0.66296  0.49361  1.0000
  H   H32       1.0  0.26413  0.57173  0.02495  1.0000
  Mg  Mg4       1.0  0.16097  0.65633  0.62250  1.0000
  C   C53       1.0  0.38590  0.57703  0.31722  1.0000
  C   C54       1.0  0.42824  0.58758  0.23688  1.0000
  C  Sn9       1.0  0.45161  0.62217  0.15783  1.0000
  C  Sn10      1.0  0.43213  0.64659  0.15951  1.0000
  C   C55       1.0  0.38976  0.63579  0.24034  1.0000
  C   C56       1.0  0.36667  0.60111  0.31899  1.0000
  H   H33       1.0  0.36803  0.55021  0.37817  1.0000
  O  Te9       1.0  0.49388  0.63226  0.07808  1.0000
  O  Te10      1.0  0.45476  0.68133  0.08155  1.0000
  H   H34       1.0  0.33389  0.59297  0.38129  1.0000
  Mg  Mg5       1.0  0.47247  0.74298  0.98934  1.0000
  C   C57       1.0  0.34329  0.77743  0.18729  1.0000
  C   C58       1.0  0.36146  0.75604  0.21746  1.0000
  C  Sn11      1.0  0.40112  0.77884  0.27140  1.0000
  C  Sn12      1.0  0.42292  0.82390  0.29552  1.0000
  C   C59       1.0  0.40446  0.84501  0.26513  1.0000
  C   C60       1.0  0.36476  0.82187  0.21113  1.0000
  H   H35       1.0  0.31257  0.75954  0.14561  1.0000
  O  Te11      1.0  0.41882  0.75696  0.30089  1.0000
  O  Te12      1.0  0.46259  0.84748  0.34942  1.0000
  H   H36       1.0  0.35069  0.83845  0.18790  1.0000
  Mg  Mg6       1.0  0.47361  0.80319  0.37293  1.0000
  C   C61       1.0  0.46304  0.46689  0.19096  1.0000
  C   C62       1.0  0.47289  0.51013  0.22822  1.0000
  C  Sn13      1.0  0.51206  0.54196  0.27629  1.0000
  C  Sn14      1.0  0.54186  0.53017  0.28709  1.0000
  C   C63       1.0  0.53171  0.48681  0.24942  1.0000
  C   C64       1.0  0.49242  0.45523  0.20151  1.0000
  H   H37       1.0  0.43265  0.44245  0.15379  1.0000
  O  Te13      1.0  0.52138  0.58501  0.31314  1.0000
  O  Te14      1.0  0.58124  0.56132  0.33475  1.0000
  H   H38       1.0  0.48481  0.42175  0.17255  1.0000
  Mg  Mg7       1.0  0.57924  0.61571  0.37245  1.0000
  C   C65       1.0  0.04553  0.01542  0.26736  1.0000
  C   C66       1.0  0.52002  0.03709  0.22498  1.0000
  C  Sn15      1.0  0.47869  0.01627  0.18966  1.0000
  C  Sn16      1.0  0.96248  0.97295  0.19706  1.0000
  C   C67       1.0  0.97879  0.95156  0.23972  1.0000
  C   C68       1.0  0.02020  0.97270  0.27476  1.0000
  H   H39       1.0  0.56807  0.03178  0.29458  1.0000
  O  Te15      1.0  0.46319  0.03838  0.14746  1.0000
  O  Te16      1.0  0.92106  0.95137  0.16243  1.0000
  H   H40       1.0  0.03258  0.95593  0.30769  1.0000
  Mg  Mg8       1.0  0.91423  0.99518  0.11084  1.0000
  C   C69       1.0  0.98274  0.52210  0.24483  1.0000
  C   C70       1.0  0.95769  0.48010  0.26163  1.0000
  C  Sn17      1.0  0.97564  0.45773  0.28567  1.0000
  C  Sn18      1.0  0.01949  0.47787  0.29304  1.0000
  C   C71       1.0  0.04428  0.51991  0.27623  1.0000
  C   C72       1.0  0.02599  0.54200  0.25215  1.0000
  H   H41       1.0  0.96860  0.53920  0.22630  1.0000
  O  Te17      1.0  0.95015  0.41577  0.30215  1.0000
  O  Te18      1.0  0.03824  0.45625  0.31703  1.0000
  H   H42       1.0  0.04540  0.57453  0.23927  1.0000
  Mg  Mg9       1.0  0.99034  0.39956  0.33275  1.0000
  C   C73       1.0  0.78643  0.43868  0.69934  1.0000
  C   C74       1.0  0.76061  0.39668  0.71521  1.0000
  C  Sn19      1.0  0.77650  0.37518  0.75956  1.0000
  C  Sn20      1.0  0.81902  0.39622  0.78852  1.0000
  C   C75       1.0  0.84458  0.43826  0.77244  1.0000
  C   C76       1.0  0.82837  0.45946  0.72795  1.0000
  H   H43       1.0  0.77388  0.45509  0.66501  1.0000
  O  Te19      1.0  0.75028  0.33322  0.77481  1.0000
  O  Te20      1.0  0.83570  0.37550  0.83306  1.0000
  H   H44       1.0  0.84836  0.49199  0.71579  1.0000
  Mg  Mg10      1.0  0.78752  0.31841  0.83817  1.0000
  C   C77       1.0  0.56672  0.34374  0.63569  1.0000
  C   C78       1.0  0.60443  0.36338  0.70351  1.0000
  C  Sn21      1.0  0.61921  0.40592  0.80754  1.0000
  C  Sn22      1.0  0.59572  0.42912  0.84417  1.0000
  C   C79       1.0  0.55801  0.40917  0.77580  1.0000
  C   C80       1.0  0.54352  0.36660  0.67181  1.0000
  H   H45       1.0  0.55549  0.31079  0.55531  1.0000
  O  Te21      1.0  0.65696  0.42506  0.87420  1.0000
  O  Te22      1.0  0.60975  0.47167  0.94782  1.0000
  H   H46       1.0  0.51430  0.35139  0.61941  1.0000
  Mg  Mg11      1.0  0.70211  0.42325  0.00863  1.0000
  C   C81       1.0  0.65435  0.20955  0.58957  1.0000
  C   C82       1.0  0.63571  0.23774  0.67418  1.0000
  C  Sn23      1.0  0.59726  0.22584  0.79406  1.0000
  C  Sn24      1.0  0.57718  0.18496  0.82964  1.0000
  C   C83       1.0  0.59610  0.15701  0.74441  1.0000
  C   C84       1.0  0.63457  0.16923  0.62465  1.0000
  H   H47       1.0  0.68413  0.21901  0.49698  1.0000
  O  Te23      1.0  0.57907  0.25439  0.87738  1.0000
  O  Te24      1.0  0.53875  0.17227  0.94891  1.0000
  H   H48       1.0  0.64901  0.14741  0.55924  1.0000
  Mg  Mg12      1.0  0.56549  0.16192  0.02928  1.0000
  C   C85       1.0  0.19884  0.55296  0.61295  1.0000
  C   C86       1.0  0.16487  0.55999  0.73341  1.0000
  C  Sn25      1.0  0.17216  0.59847  0.86852  1.0000
  C  Sn26      1.0  0.21427  0.63045  0.88294  1.0000
  C   C87       1.0  0.24803  0.62312  0.76169  1.0000
  C   C88       1.0  0.24038  0.58449  0.62704  1.0000
  H   H49       1.0  0.19292  0.52308  0.50870  1.0000
  O  Te25      1.0  0.13787  0.60497  0.98779  1.0000
  O  Te26      1.0  0.26152  0.60872  0.01667  1.0000
  H   H50       1.0  0.26668  0.57907  0.53372  1.0000
  Mg  Mg13      1.0  0.20425  0.60255  0.14733  1.0000
  C   C89       1.0  0.44280  0.64924  0.65790  1.0000
  C   C90       1.0  0.39897  0.63458  0.70858  1.0000
  C  Sn27      1.0  0.37488  0.59977  0.78616  1.0000
  C  Sn28      1.0  0.39514  0.57933  0.81339  1.0000
  C   C91       1.0  0.43901  0.59426  0.76235  1.0000
  C   C92       1.0  0.46281  0.62911  0.68477  1.0000
  H   H51       1.0  0.46122  0.67622  0.59797  1.0000
  O  Te27      1.0  0.33112  0.58553  0.83595  1.0000
  O  Te28      1.0  0.37182  0.54449  0.89071  1.0000
  H   H52       1.0  0.49674  0.64047  0.64566  1.0000
  Mg  Mg14      1.0  0.31301  0.53685  0.93617  1.0000
  C   C93       1.0  0.43478  0.82073  0.80258  1.0000
  C   C94       1.0  0.42158  0.84216  0.74275  1.0000
  C  Sn29      1.0  0.38218  0.82106  0.68759  1.0000
  C  Sn30      1.0  0.35555  0.77770  0.69263  1.0000
  C   C95       1.0  0.36903  0.75655  0.75284  1.0000
  C   C96       1.0  0.40853  0.77796  0.80767  1.0000
  H   H53       1.0  0.46533  0.83730  0.84510  1.0000
  O  Te29      1.0  0.36949  0.84295  0.62812  1.0000
  O  Te30      1.0  0.31601  0.75585  0.63835  1.0000
  H   H54       1.0  0.41873  0.76136  0.85410  1.0000
  Mg  Mg15      1.0  0.31280  0.79942  0.56796  1.0000
  C   C97       1.0  0.52709  0.54646  0.78691  1.0000
  C   C98       1.0  0.48799  0.52698  0.73068  1.0000
  C  Sn31      1.0  0.46488  0.48241  0.68874  1.0000
  C  Sn32      1.0  0.48130  0.45695  0.70355  1.0000
  C   C99       1.0  0.52043  0.47675  0.76005  1.0000
  C   C100      1.0  0.54330  0.52138  0.80162  1.0000
  H   H55       1.0  0.54478  0.58099  0.81917  1.0000
  O  Te31      1.0  0.42587  0.46346  0.63271  1.0000
  O  Te32      1.0  0.45885  0.41234  0.66255  1.0000
  H   H56       1.0  0.57356  0.53646  0.84527  1.0000
  Mg  Mg16      1.0  0.40713  0.40145  0.59194  1.0000
  C   C101      1.0  0.05801  0.02147  0.78001  1.0000
  C   C102      1.0  0.04210  0.04186  0.72853  1.0000
  C  Sn33      1.0  0.00106  0.02008  0.68914  1.0000
  C  Sn34      1.0  0.97554  0.97710  0.70170  1.0000
  C   C103      1.0  0.99175  0.95700  0.75344  1.0000
  C   C104      1.0  0.03287  0.97908  0.79249  1.0000
  H   H57       1.0  0.08982  0.03856  0.81032  1.0000
  O  Te33      1.0  0.47617  0.04093  0.63785  1.0000
  O  Te34      1.0  0.93441  0.95459  0.66316  1.0000
  H   H58       1.0  0.04517  0.96330  0.83246  1.0000
  Mg  Mg17      1.0  0.92762  0.99680  0.59895  1.0000
  C   C105      1.0  0.01508  0.47870  0.79434  1.0000
  C   C106      1.0  0.04126  0.51770  0.74771  1.0000
  C  Sn35      1.0  0.02371  0.54007  0.72079  1.0000
  C  Sn36      1.0  0.97912  0.52302  0.74108  1.0000
  C   C107      1.0  0.95319  0.48399  0.78789  1.0000
  C   C108      1.0  0.97109  0.46186  0.81444  1.0000
  H   H59       1.0  0.02892  0.46159  0.81498  1.0000
  O  Te35      1.0  0.05033  0.57899  0.67420  1.0000
  O  Te36      1.0  0.96074  0.54472  0.71504  1.0000
  H   H60       1.0  0.95081  0.43168  0.85066  1.0000
  Mg  Mg18      1.0  0.01026  0.59661  0.65292  1.0000
