data_image0
_chemical_formula_structural       H36C72S12N12C2Sn2C2HTe2HMgC2Sn2C2HTe2HMgC2Sn2C2HTe2HMgC2Sn2C2HTe2HMgC2Sn2C2HTe2HMgC2Sn2C2HTe2HMgC2Sn2C2HTe2HMgC2Sn2C2HTe2HMgC2Sn2C2HTe2HMgC2Sn2C2HTe2HMgC2Sn2C2HTe2HMgC2Sn2C2HTe2HMg
_chemical_formula_sum              "H60 C120 S12 N12 Sn24 Te24 Mg12"
_cell_length_a       40.1322
_cell_length_b       40.2416
_cell_length_c       7.98222
_cell_angle_alpha    104.661
_cell_angle_beta     94.5702
_cell_angle_gamma    120.048

_symmetry_space_group_name_H-M    'P1'
_space_group_IT_number       1

loop_
  _space_group_symop_operation_xyz
  'x, y, z'

loop_
  _atom_site_type_symbol
  _atom_site_label
  _atom_site_symmetry_multiplicity
  _atom_site_fract_x
  _atom_site_fract_y
  _atom_site_fract_z
  _atom_site_occupancy
  H   H1        1.0  0.70041  0.40500  0.24825  1.0000
  H   H2        1.0  0.59600  0.29475  0.23391  1.0000
  H   H3        1.0  0.70433  0.29842  0.21091  1.0000
  H   H4        1.0  0.30236  0.59570  0.23368  1.0000
  H   H5        1.0  0.40602  0.70598  0.23323  1.0000
  H   H6        1.0  0.29636  0.69963  0.25007  1.0000
  H   H7        1.0  0.89216  0.41437  0.35725  1.0000
  H   H8        1.0  0.59306  0.47514  0.24770  1.0000
  H   H9        1.0  0.52509  0.12135  0.32089  1.0000
  H   H10       1.0  0.11907  0.59290  0.25094  1.0000
  H   H11       1.0  0.41115  0.52849  0.35312  1.0000
  H   H12       1.0  0.47733  0.88211  0.22196  1.0000
  H   H13       1.0  0.42655  0.47205  0.36441  1.0000
  H   H14       1.0  0.53076  0.95190  0.18232  1.0000
  H   H15       1.0  0.04553  0.57474  0.22230  1.0000
  H   H16       1.0  0.57641  0.53003  0.23196  1.0000
  H   H17       1.0  0.47207  0.05197  0.35541  1.0000
  H   H18       1.0  0.96505  0.43168  0.38190  1.0000
  H   H19       1.0  0.69630  0.40437  0.74708  1.0000
  H   H20       1.0  0.59217  0.29382  0.73567  1.0000
  H   H21       1.0  0.70076  0.29830  0.70847  1.0000
  H   H22       1.0  0.29959  0.59574  0.73953  1.0000
  H   H23       1.0  0.40160  0.70587  0.72624  1.0000
  H   H24       1.0  0.29198  0.69866  0.75032  1.0000
  H   H25       1.0  0.88668  0.41116  0.84087  1.0000
  H   H26       1.0  0.59397  0.47813  0.74595  1.0000
  H   H27       1.0  0.52432  0.11986  0.82060  1.0000
  H   H28       1.0  0.11553  0.59008  0.75660  1.0000
  H   H29       1.0  0.41318  0.53326  0.85855  1.0000
  H   H30       1.0  0.47608  0.88059  0.72233  1.0000
  H   H31       1.0  0.42901  0.47783  0.87186  1.0000
  H   H32       1.0  0.53077  0.95092  0.68352  1.0000
  H   H33       1.0  0.04308  0.57313  0.73138  1.0000
  H   H34       1.0  0.57755  0.53413  0.72556  1.0000
  H   H35       1.0  0.47243  0.05127  0.85611  1.0000
  H   H36       1.0  0.95949  0.42806  0.87254  1.0000
  C   C1        1.0  0.70766  0.35437  0.22879  1.0000
  C   C2        1.0  0.64568  0.35174  0.23995  1.0000
  C   C3        1.0  0.64788  0.29128  0.22324  1.0000
  C   C4        1.0  0.29456  0.64471  0.24022  1.0000
  C   C5        1.0  0.35735  0.64829  0.23399  1.0000
  C   C6        1.0  0.35333  0.70746  0.24055  1.0000
  C   C7        1.0  0.68601  0.37327  0.24049  1.0000
  C   C8        1.0  0.62714  0.31101  0.23175  1.0000
  C   C9        1.0  0.68800  0.31340  0.21969  1.0000
  C   C10       1.0  0.31696  0.62687  0.23419  1.0000
  C   C11       1.0  0.37497  0.68869  0.23598  1.0000
  C   C12       1.0  0.31318  0.68514  0.24351  1.0000
  C   C13       1.0  0.89915  0.43952  0.30628  1.0000
  C   C14       1.0  0.56348  0.45622  0.26925  1.0000
  C   C15       1.0  0.54210  0.10801  0.27194  1.0000
  C   C16       1.0  0.11010  0.56398  0.27329  1.0000
  C   C17       1.0  0.43818  0.54413  0.30676  1.0000
  C   C18       1.0  0.45838  0.89433  0.24814  1.0000
  C   C19       1.0  0.93994  0.46442  0.30483  1.0000
  C   C20       1.0  0.53952  0.47340  0.28465  1.0000
  C   C21       1.0  0.52721  0.06756  0.27382  1.0000
  C   C22       1.0  0.07017  0.54093  0.29048  1.0000
  C   C23       1.0  0.46304  0.52814  0.30696  1.0000
  C   C24       1.0  0.47494  0.93589  0.25807  1.0000
  C   C25       1.0  0.45415  0.49203  0.33458  1.0000
  C   C26       1.0  0.51076  0.96141  0.22198  1.0000
  C   C27       1.0  0.04056  0.54886  0.26037  1.0000
  C   C28       1.0  0.54891  0.51013  0.26298  1.0000
  C   C29       1.0  0.49190  0.04232  0.31461  1.0000
  C   C30       1.0  0.96991  0.45734  0.34227  1.0000
  C   C31       1.0  0.48515  0.48529  0.31716  1.0000
  C   C32       1.0  0.51673  0.99986  0.23990  1.0000
  C   C33       1.0  0.00412  0.51837  0.27747  1.0000
  C   C34       1.0  0.51787  0.51680  0.28035  1.0000
  C   C35       1.0  0.48579  0.00377  0.29472  1.0000
  C   C36       1.0  0.00628  0.48769  0.32376  1.0000
  C   C37       1.0  0.70366  0.35391  0.72628  1.0000
  C   C38       1.0  0.64165  0.35108  0.74052  1.0000
  C   C39       1.0  0.64427  0.29082  0.72338  1.0000
  C   C40       1.0  0.29096  0.64416  0.74251  1.0000
  C   C41       1.0  0.35385  0.64815  0.73262  1.0000
  C   C42       1.0  0.34901  0.70682  0.73809  1.0000
  C   C43       1.0  0.68191  0.37266  0.73937  1.0000
  C   C44       1.0  0.62327  0.31032  0.73257  1.0000
  C   C45       1.0  0.68422  0.31305  0.71806  1.0000
  C   C46       1.0  0.31369  0.62663  0.73651  1.0000
  C   C47       1.0  0.37081  0.68826  0.73189  1.0000
  C   C48       1.0  0.30904  0.68443  0.74365  1.0000
  C   C49       1.0  0.89457  0.43751  0.79778  1.0000
  C   C50       1.0  0.56425  0.45995  0.76776  1.0000
  C   C51       1.0  0.54197  0.10726  0.77253  1.0000
  C   C52       1.0  0.10655  0.56100  0.77732  1.0000
  C   C53       1.0  0.43969  0.54878  0.80868  1.0000
  C   C54       1.0  0.45760  0.89342  0.74764  1.0000
  C   C55       1.0  0.93563  0.46226  0.80044  1.0000
  C   C56       1.0  0.54098  0.47794  0.78250  1.0000
  C   C57       1.0  0.52751  0.06687  0.77424  1.0000
  C   C58       1.0  0.06653  0.53789  0.79351  1.0000
  C   C59       1.0  0.46482  0.53310  0.80754  1.0000
  C   C60       1.0  0.47486  0.93512  0.75828  1.0000
  C   C61       1.0  0.45619  0.49727  0.83742  1.0000
  C   C62       1.0  0.51086  0.96057  0.72295  1.0000
  C   C63       1.0  0.03748  0.54670  0.76610  1.0000
  C   C64       1.0  0.55024  0.51444  0.75831  1.0000
  C   C65       1.0  0.49223  0.04163  0.81511  1.0000
  C   C66       1.0  0.96507  0.45438  0.83695  1.0000
  C   C67       1.0  0.48691  0.49023  0.81681  1.0000
  C   C68       1.0  0.51703  0.99912  0.74071  1.0000
  C   C69       1.0  0.00069  0.51635  0.78098  1.0000
  C   C70       1.0  0.51930  0.52129  0.77627  1.0000
  C   C71       1.0  0.48611  0.00311  0.79535  1.0000
  C   C72       1.0  0.00194  0.48481  0.82277  1.0000
  S   S1        1.0  0.49266  0.44695  0.32713  1.0000
  S   S2        1.0  0.55336  0.04410  0.21309  1.0000
  S   S3        1.0  0.95652  0.50895  0.25255  1.0000
  S   S4        1.0  0.50975  0.55430  0.26290  1.0000
  S   S5        1.0  0.44865  0.95921  0.31706  1.0000
  S   S6        1.0  0.05342  0.49616  0.34068  1.0000
  S   S7        1.0  0.49450  0.45209  0.82885  1.0000
  S   S8        1.0  0.55363  0.04340  0.71344  1.0000
  S   S9        1.0  0.95337  0.50766  0.75468  1.0000
  S   S10       1.0  0.51109  0.55876  0.75846  1.0000
  S   S11       1.0  0.44869  0.95859  0.81637  1.0000
  S   S12       1.0  0.04881  0.49245  0.83900  1.0000
  N   N1        1.0  0.87324  0.44718  0.25112  1.0000
  N   N2        1.0  0.55035  0.41990  0.27387  1.0000
  N   N3        1.0  0.57342  0.12664  0.21314  1.0000
  N   N4        1.0  0.13347  0.55060  0.27699  1.0000
  N   N5        1.0  0.44798  0.57502  0.25329  1.0000
  N   N6        1.0  0.42257  0.87235  0.26447  1.0000
  N   N7        1.0  0.86922  0.44628  0.74725  1.0000
  N   N8        1.0  0.55010  0.42358  0.77413  1.0000
  N   N9        1.0  0.57334  0.12659  0.71533  1.0000
  N   N10       1.0  0.13006  0.54776  0.77949  1.0000
  N   N11       1.0  0.44831  0.57903  0.75203  1.0000
  N   N12       1.0  0.42149  0.87197  0.76178  1.0000
  C   C73       1.0  0.80723  0.37876  0.30477  1.0000
  C   C74       1.0  0.82900  0.41167  0.24639  1.0000
  C  Sn1       1.0  0.81089  0.42958  0.18317  1.0000
  C  Sn2       1.0  0.77024  0.41420  0.17851  1.0000
  C   C75       1.0  0.74873  0.38128  0.23733  1.0000
  C   C76       1.0  0.76714  0.36358  0.30028  1.0000
  H   H37       1.0  0.82147  0.36508  0.35357  1.0000
  O  Te1       1.0  0.83307  0.46243  0.12529  1.0000
  O  Te2       1.0  0.75142  0.43154  0.11603  1.0000
  H   H38       1.0  0.75029  0.33811  0.34558  1.0000
  Mg  Mg1       1.0  0.79416  0.47576  0.05161  1.0000
  C   C77       1.0  0.56165  0.35722  0.12195  1.0000
  C   C78       1.0  0.56948  0.39361  0.24320  1.0000
  C  Sn3       1.0  0.60626  0.42055  0.36686  1.0000
  C  Sn4       1.0  0.63569  0.41081  0.36881  1.0000
  C   C79       1.0  0.62758  0.37434  0.24687  1.0000
  C   C80       1.0  0.59067  0.34759  0.12374  1.0000
  H   H39       1.0  0.53310  0.33654  0.02661  1.0000
  O  Te3       1.0  0.61359  0.45677  0.48710  1.0000
  O  Te4       1.0  0.67271  0.43719  0.49093  1.0000
  H   H40       1.0  0.58462  0.31944  0.02980  1.0000
  Mg  Mg2       1.0  0.66858  0.48287  0.62803  1.0000
  C   C81       1.0  0.57617  0.20188  0.30210  1.0000
  C   C82       1.0  0.58254  0.17111  0.22133  1.0000
  C  Sn5       1.0  0.61403  0.17974  0.13946  1.0000
  C  Sn6       1.0  0.63957  0.21994  0.13870  1.0000
  C   C83       1.0  0.63297  0.25051  0.21999  1.0000
  C   C84       1.0  0.60136  0.24154  0.30148  1.0000
  H   H41       1.0  0.55172  0.19495  0.36525  1.0000
  O  Te5       1.0  0.61996  0.14864  0.05931  1.0000
  O  Te6       1.0  0.67128  0.22940  0.05788  1.0000
  H   H42       1.0  0.59645  0.26537  0.36411  1.0000
  Mg  Mg3       1.0  0.72199  0.25417  0.96626  1.0000
  C   C85       1.0  0.19748  0.55634  0.14546  1.0000
  C   C86       1.0  0.17712  0.56882  0.25239  1.0000
  C  Sn7       1.0  0.19498  0.60989  0.35520  1.0000
  C  Sn8       1.0  0.23394  0.63893  0.35054  1.0000
  C   C87       1.0  0.25404  0.62615  0.24303  1.0000
  C   C88       1.0  0.23590  0.58497  0.14074  1.0000
  H   H43       1.0  0.18343  0.52449  0.06623  1.0000
  O  Te7       1.0  0.17423  0.62183  0.46135  1.0000
  O  Te8       1.0  0.25248  0.68018  0.45191  1.0000
  H   H44       1.0  0.25165  0.57533  0.05787  1.0000
  Mg  Mg4       1.0  0.21210  0.68150  0.57566  1.0000
  C   C89       1.0  0.36498  0.58330  0.27942  1.0000
  C   C90       1.0  0.37673  0.62048  0.25518  1.0000
  C  Sn9       1.0  0.41305  0.64260  0.21385  1.0000
  C  Sn10      1.0  0.43801  0.62713  0.19652  1.0000
  C   C91       1.0  0.42598  0.58989  0.22091  1.0000
  C   C92       1.0  0.38958  0.56802  0.26228  1.0000
  H   H45       1.0  0.33681  0.56636  0.31133  1.0000
  O  Te9       1.0  0.42434  0.67970  0.19014  1.0000
  O  Te10      1.0  0.47446  0.64861  0.15524  1.0000
  H   H46       1.0  0.38048  0.53922  0.28092  1.0000
  Mg  Mg5       1.0  0.47678  0.69775  0.13546  1.0000
  C   C93       1.0  0.42129  0.79016  0.34935  1.0000
  C   C94       1.0  0.38171  0.75772  0.27886  1.0000
  C  Sn11      1.0  0.35439  0.76252  0.18529  1.0000
  C  Sn12      1.0  0.36702  0.80053  0.16204  1.0000
  C   C95       1.0  0.40669  0.83278  0.23296  1.0000
  C   C96       1.0  0.43378  0.82765  0.32642  1.0000
  H   H47       1.0  0.44226  0.78619  0.42158  1.0000
  O  Te11      1.0  0.31495  0.72980  0.11580  1.0000
  O  Te12      1.0  0.34033  0.80615  0.06903  1.0000
  H   H48       1.0  0.46443  0.85276  0.38088  1.0000
  Mg  Mg6       1.0  0.34452  0.83001  0.99927  1.0000
  C   C97       1.0  0.77250  0.42138  0.67561  1.0000
  C   C98       1.0  0.74937  0.38441  0.70452  1.0000
  C  Sn13      1.0  0.76724  0.36603  0.76510  1.0000
  C  Sn14      1.0  0.80906  0.38510  0.79727  1.0000
  C   C99       1.0  0.83194  0.42209  0.76806  1.0000
  C   C100      1.0  0.81375  0.44021  0.70736  1.0000
  H   H49       1.0  0.75843  0.43541  0.62874  1.0000
  O  Te13      1.0  0.74368  0.32909  0.79324  1.0000
  O  Te14      1.0  0.82769  0.36741  0.85792  1.0000
  H   H50       1.0  0.83168  0.46884  0.68510  1.0000
  Mg  Mg7       1.0  0.78286  0.31692  0.87644  1.0000
  C   C101      1.0  0.62227  0.42969  0.89097  1.0000
  C   C102      1.0  0.58495  0.41491  0.78618  1.0000
  C  Sn15      1.0  0.56294  0.37543  0.66112  1.0000
  C  Sn16      1.0  0.57865  0.35035  0.64093  1.0000
  C   C103      1.0  0.61600  0.36541  0.74649  1.0000
  C   C104      1.0  0.63779  0.40497  0.87118  1.0000
  H   H51       1.0  0.63912  0.46028  0.98752  1.0000
  O  Te15      1.0  0.52571  0.36115  0.55747  1.0000
  O  Te16      1.0  0.55727  0.31077  0.51699  1.0000
  H   H52       1.0  0.66667  0.41640  0.95238  1.0000
  Mg  Mg8       1.0  0.50789  0.30508  0.40670  1.0000
  C   C105      1.0  0.62798  0.19157  0.62638  1.0000
  C   C106      1.0  0.59809  0.17108  0.70826  1.0000
  C  Sn17      1.0  0.57951  0.18960  0.79312  1.0000
  C  Sn18      1.0  0.59112  0.22937  0.79580  1.0000
  C   C107      1.0  0.62103  0.24960  0.71339  1.0000
  C   C108      1.0  0.63943  0.23079  0.62890  1.0000
  H   H53       1.0  0.64220  0.17701  0.56092  1.0000
  O  Te17      1.0  0.54971  0.16870  0.87432  1.0000
  O  Te18      1.0  0.57303  0.24859  0.87961  1.0000
  H   H54       1.0  0.66256  0.24665  0.56542  1.0000
  Mg  Mg9       1.0  0.53392  0.20769  0.97163  1.0000
  C   C109      1.0  0.19431  0.55503  0.64455  1.0000
  C   C110      1.0  0.17377  0.56661  0.75397  1.0000
  C  Sn19      1.0  0.19136  0.60736  0.86100  1.0000
  C  Sn20      1.0  0.23024  0.63699  0.85811  1.0000
  C   C111      1.0  0.25053  0.62510  0.74808  1.0000
  C   C112      1.0  0.23265  0.58424  0.64157  1.0000
  H   H55       1.0  0.18047  0.52343  0.56206  1.0000
  O  Te19      1.0  0.17043  0.61840  0.96959  1.0000
  O  Te20      1.0  0.24852  0.67792  0.96368  1.0000
  H   H56       1.0  0.24855  0.57529  0.55677  1.0000
  Mg  Mg10      1.0  0.15316  0.60040  0.08948  1.0000
  C   C113      1.0  0.43589  0.63668  0.68841  1.0000
  C   C114      1.0  0.42857  0.60416  0.74616  1.0000
  C  Sn21      1.0  0.39304  0.58198  0.79323  1.0000
  C  Sn22      1.0  0.36434  0.59261  0.78208  1.0000
  C   C115      1.0  0.37193  0.62517  0.72402  1.0000
  C   C116      1.0  0.40759  0.64717  0.67730  1.0000
  H   H57       1.0  0.46347  0.65369  0.65217  1.0000
  O  Te21      1.0  0.38622  0.54959  0.85072  1.0000
  O  Te22      1.0  0.32857  0.57094  0.82823  1.0000
  H   H58       1.0  0.41324  0.67233  0.63248  1.0000
  Mg  Mg11      1.0  0.33297  0.52928  0.89895  1.0000
  C   C117      1.0  0.35635  0.79238  0.64728  1.0000
  C   C118      1.0  0.39393  0.82590  0.74644  1.0000
  C  Sn23      1.0  0.42035  0.82047  0.84289  1.0000
  C  Sn24      1.0  0.40885  0.78069  0.83971  1.0000
  C   C119      1.0  0.37119  0.74735  0.74000  1.0000
  C   C120      1.0  0.34498  0.75313  0.64402  1.0000
  H   H59       1.0  0.33608  0.79685  0.57294  1.0000
  O  Te23      1.0  0.45778  0.85430  0.94130  1.0000
  O  Te24      1.0  0.43467  0.77439  0.93483  1.0000
  H   H60       1.0  0.31590  0.72717  0.56717  1.0000
  Mg  Mg12      1.0  0.42770  0.75256  0.04908  1.0000
