data_image0
_chemical_formula_structural       H120C132S12N12O12SnCSn2CSnTe4Mg2SnCSn2CSnTe4Mg2SnCSn2CSnTe4Mg2SnCSn2CSnTe4Mg2SnCSn2CSnTe4Mg2SnCSn2CSnTe4Mg2SnCSn2CSnTe4Mg2SnCSn2CSnTe4Mg2SnCSn2CSnTe4Mg2SnCSn2CSnTe4Mg2SnCSn2CSnTe4Mg2SnCSn2CSnTe4Mg2
_chemical_formula_sum              "H120 C156 S12 N12 O12 Sn48 Te48 Mg24"
_cell_length_a       44.2386
_cell_length_b       44.3451
_cell_length_c       8.21551
_cell_angle_alpha    72.3352
_cell_angle_beta     113.92
_cell_angle_gamma    119.769

_symmetry_space_group_name_H-M    'P1'
_space_group_IT_number       1

loop_
  _space_group_symop_operation_xyz
  'x, y, z'

loop_
  _atom_site_type_symbol
  _atom_site_label
  _atom_site_symmetry_multiplicity
  _atom_site_fract_x
  _atom_site_fract_y
  _atom_site_fract_z
  _atom_site_occupancy
  H   H1        1.0  0.69512  0.39927  0.26619  1.0000
  H   H2        1.0  0.60504  0.29730  0.23664  1.0000
  H   H3        1.0  0.71021  0.31161  0.25789  1.0000
  H   H4        1.0  0.31146  0.60688  0.24733  1.0000
  H   H5        1.0  0.40091  0.70926  0.24155  1.0000
  H   H6        1.0  0.29808  0.69766  0.23011  1.0000
  H   H7        1.0  0.86277  0.40648  0.22757  1.0000
  H   H8        1.0  0.59090  0.45995  0.16012  1.0000
  H   H9        1.0  0.55848  0.13615  0.34152  1.0000
  H   H10       1.0  0.14422  0.59674  0.33391  1.0000
  H   H11       1.0  0.40911  0.54411  0.27957  1.0000
  H   H12       1.0  0.45888  0.86371  0.20648  1.0000
  H   H13       1.0  0.92356  0.41724  0.21201  1.0000
  H   H14       1.0  0.57998  0.51222  0.15181  1.0000
  H   H15       1.0  0.50469  0.07575  0.32641  1.0000
  H   H16       1.0  0.08280  0.58470  0.34494  1.0000
  H   H17       1.0  0.41935  0.49207  0.28491  1.0000
  H   H18       1.0  0.50858  0.92572  0.16639  1.0000
  H   H19       1.0  0.44787  0.04583  0.12983  1.0000
  H   H20       1.0  0.95541  0.41770  0.04448  1.0000
  H   H21       1.0  0.60583  0.55578  0.36055  1.0000
  H   H22       1.0  0.54923  0.96018  0.05208  1.0000
  H   H23       1.0  0.98927  0.57728  0.03540  1.0000
  H   H24       1.0  0.42351  0.42449  0.02862  1.0000
  H   H25       1.0  0.42026  0.02800  0.27420  1.0000
  H   H26       1.0  0.95877  0.39486  0.26731  1.0000
  H   H27       1.0  0.58360  0.57000  0.44125  1.0000
  H   H28       1.0  0.56897  0.96041  0.28966  1.0000
  H   H29       1.0  0.03722  0.59654  0.13331  1.0000
  H   H30       1.0  0.39853  0.44553  0.03415  1.0000
  H   H31       1.0  0.40926  0.99154  0.97885  1.0000
  H   H32       1.0  0.00326  0.40475  0.03602  1.0000
  H   H33       1.0  0.62659  0.61448  0.17142  1.0000
  H   H34       1.0  0.60728  0.00798  0.00768  1.0000
  H   H35       1.0  0.02324  0.64405  0.08429  1.0000
  H   H36       1.0  0.35943  0.38229  0.03759  1.0000
  H   H37       1.0  0.38626  0.01680  0.94552  1.0000
  H   H38       1.0  0.96388  0.36643  0.06191  1.0000
  H   H39       1.0  0.64426  0.61762  0.40292  1.0000
  H   H40       1.0  0.61215  0.96962  0.13061  1.0000
  H   H41       1.0  0.02666  0.62829  0.31114  1.0000
  H   H42       1.0  0.36923  0.39499  0.24224  1.0000
  H   H43       1.0  0.62160  0.66426  0.23081  1.0000
  H   H44       1.0  0.34747  0.95134  0.00338  1.0000
  H   H45       1.0  0.02215  0.36036  0.25928  1.0000
  H   H46       1.0  0.40772  0.35907  0.18086  1.0000
  H   H47       1.0  0.66549  0.02419  0.26159  1.0000
  H   H48       1.0  0.95554  0.61482  0.99095  1.0000
  H   H49       1.0  0.59499  0.63452  0.37461  1.0000
  H   H50       1.0  0.35311  0.97450  0.16352  1.0000
  H   H51       1.0  0.99676  0.35606  0.39233  1.0000
  H   H52       1.0  0.37564  0.33915  0.30212  1.0000
  H   H53       1.0  0.64168  0.99670  0.41896  1.0000
  H   H54       1.0  0.97058  0.63922  0.16624  1.0000
  H   H55       1.0  0.57734  0.63122  0.14214  1.0000
  H   H56       1.0  0.37879  0.95022  0.22119  1.0000
  H   H57       1.0  0.03556  0.39584  0.36919  1.0000
  H   H58       1.0  0.41939  0.37339  0.38561  1.0000
  H   H59       1.0  0.63475  0.03447  0.29659  1.0000
  H   H60       1.0  0.95556  0.59311  0.21091  1.0000
  H   H61       1.0  0.69520  0.39588  0.76973  1.0000
  H   H62       1.0  0.60195  0.29619  0.72747  1.0000
  H   H63       1.0  0.70644  0.30491  0.77400  1.0000
  H   H64       1.0  0.30857  0.60274  0.75332  1.0000
  H   H65       1.0  0.39815  0.70513  0.74155  1.0000
  H   H66       1.0  0.29532  0.69396  0.72704  1.0000
  H   H67       1.0  0.86091  0.40243  0.73231  1.0000
  H   H68       1.0  0.59469  0.46218  0.66202  1.0000
  H   H69       1.0  0.53915  0.13457  0.79317  1.0000
  H   H70       1.0  0.14140  0.59578  0.82898  1.0000
  H   H71       1.0  0.40592  0.53847  0.78459  1.0000
  H   H72       1.0  0.45354  0.86099  0.73205  1.0000
  H   H73       1.0  0.92176  0.41404  0.71197  1.0000
  H   H74       1.0  0.58272  0.51461  0.65861  1.0000
  H   H75       1.0  0.48674  0.07223  0.78748  1.0000
  H   H76       1.0  0.07922  0.58352  0.83393  1.0000
  H   H77       1.0  0.41789  0.48736  0.78568  1.0000
  H   H78       1.0  0.50359  0.92222  0.72051  1.0000
  H   H79       1.0  0.43107  0.03491  0.55283  1.0000
  H   H80       1.0  0.95420  0.41570  0.54012  1.0000
  H   H81       1.0  0.60598  0.55732  0.85465  1.0000
  H   H82       1.0  0.53763  0.95916  0.57225  1.0000
  H   H83       1.0  0.02349  0.58622  0.59932  1.0000
  H   H84       1.0  0.40679  0.44647  0.51881  1.0000
  H   H85       1.0  0.40570  0.02754  0.69376  1.0000
  H   H86       1.0  0.95716  0.39282  0.76292  1.0000
  H   H87       1.0  0.58465  0.57072  0.94552  1.0000
  H   H88       1.0  0.56494  0.95819  0.80376  1.0000
  H   H89       1.0  0.03855  0.61169  0.77239  1.0000
  H   H90       1.0  0.38956  0.43378  0.70398  1.0000
  H   H91       1.0  0.39016  0.97343  0.47624  1.0000
  H   H92       1.0  0.00324  0.40326  0.53943  1.0000
  H   H93       1.0  0.62456  0.61595  0.66440  1.0000
  H   H94       1.0  0.58930  0.00464  0.47633  1.0000
  H   H95       1.0  0.96071  0.58150  0.51150  1.0000
  H   H96       1.0  0.39981  0.38754  0.53822  1.0000
  H   H97       1.0  0.36621  0.99940  0.40640  1.0000
  H   H98       1.0  0.96331  0.36501  0.55866  1.0000
  H   H99       1.0  0.64392  0.61924  0.89592  1.0000
  H   H100      1.0  0.59951  0.96909  0.60245  1.0000
  H   H101      1.0  0.99380  0.62456  0.48064  1.0000
  H   H102      1.0  0.35775  0.38516  0.52369  1.0000
  H   H103      1.0  0.61968  0.66513  0.72877  1.0000
  H   H104      1.0  0.33101  0.93938  0.55022  1.0000
  H   H105      1.0  0.01996  0.35716  0.76617  1.0000
  H   H106      1.0  0.37157  0.36690  0.86151  1.0000
  H   H107      1.0  0.65266  0.02827  0.67001  1.0000
  H   H108      1.0  0.95229  0.62591  0.60483  1.0000
  H   H109      1.0  0.59514  0.63549  0.88090  1.0000
  H   H110      1.0  0.34348  0.97207  0.67702  1.0000
  H   H111      1.0  0.99423  0.35429  0.89319  1.0000
  H   H112      1.0  0.41342  0.36910  0.87142  1.0000
  H   H113      1.0  0.64008  0.00329  0.86562  1.0000
  H   H114      1.0  0.99545  0.63581  0.77282  1.0000
  H   H115      1.0  0.57541  0.63135  0.64906  1.0000
  H   H116      1.0  0.36827  0.94645  0.75172  1.0000
  H   H117      1.0  0.03394  0.39329  0.87336  1.0000
  H   H118      1.0  0.37106  0.33737  0.75447  1.0000
  H   H119      1.0  0.62671  0.03776  0.74736  1.0000
  H   H120      1.0  0.95893  0.59344  0.78542  1.0000
  C   C1        1.0  0.70686  0.35768  0.26508  1.0000
  C   C2        1.0  0.64713  0.34973  0.25074  1.0000
  C   C3        1.0  0.65558  0.29912  0.24779  1.0000
  C   C4        1.0  0.29994  0.64913  0.24152  1.0000
  C   C5        1.0  0.35866  0.65608  0.24232  1.0000
  C   C6        1.0  0.35095  0.70748  0.23431  1.0000
  C   C7        1.0  0.68406  0.37136  0.26204  1.0000
  C   C8        1.0  0.63355  0.31388  0.24430  1.0000
  C   C9        1.0  0.69239  0.32167  0.25920  1.0000
  C   C10       1.0  0.32235  0.63499  0.24384  1.0000
  C   C11       1.0  0.37268  0.69238  0.23949  1.0000
  C   C12       1.0  0.31465  0.68571  0.23320  1.0000
  C   C13       1.0  0.87355  0.43425  0.24083  1.0000
  C   C14       1.0  0.56417  0.44136  0.17991  1.0000
  C   C15       1.0  0.57029  0.12932  0.27096  1.0000
  C   C16       1.0  0.13378  0.57043  0.30036  1.0000
  C   C17       1.0  0.43669  0.56278  0.27099  1.0000
  C   C18       1.0  0.44279  0.87443  0.22373  1.0000
  C   C19       1.0  0.91112  0.45553  0.24663  1.0000
  C   C20       1.0  0.54323  0.45705  0.18808  1.0000
  C   C21       1.0  0.55330  0.09277  0.25228  1.0000
  C   C22       1.0  0.09661  0.54808  0.29796  1.0000
  C   C23       1.0  0.45736  0.54711  0.26061  1.0000
  C   C24       1.0  0.46008  0.91154  0.22895  1.0000
  C   C25       1.0  0.97387  0.50285  0.27616  1.0000
  C   C26       1.0  0.49718  0.46927  0.22311  1.0000
  C   C27       1.0  0.53666  0.03290  0.20810  1.0000
  C   C28       1.0  0.03424  0.50001  0.26768  1.0000
  C   C29       1.0  0.50291  0.53483  0.22308  1.0000
  C   C30       1.0  0.47544  0.97244  0.24751  1.0000
  C   C31       1.0  0.97055  0.47017  0.25268  1.0000
  C   C32       1.0  0.52880  0.50060  0.19669  1.0000
  C   C33       1.0  0.50943  0.03439  0.25290  1.0000
  C   C34       1.0  0.03736  0.53186  0.29531  1.0000
  C   C35       1.0  0.47105  0.50358  0.24626  1.0000
  C   C36       1.0  0.50333  0.97031  0.20844  1.0000
  C   C37       1.0  0.93386  0.44394  0.23470  1.0000
  C   C38       1.0  0.55433  0.49263  0.17571  1.0000
  C   C39       1.0  0.52020  0.06882  0.28190  1.0000
  C   C40       1.0  0.07362  0.55863  0.31635  1.0000
  C   C41       1.0  0.44548  0.51157  0.26623  1.0000
  C   C42       1.0  0.49320  0.93469  0.19894  1.0000
  C   C43       1.0  0.00623  0.53332  0.29551  1.0000
  C   C44       1.0  0.46836  0.47054  0.24671  1.0000
  C   C45       1.0  0.53432  0.00169  0.18558  1.0000
  C   C46       1.0  0.00184  0.46908  0.24988  1.0000
  C   C47       1.0  0.53146  0.53361  0.19730  1.0000
  C   C48       1.0  0.47777  0.00346  0.26941  1.0000
  C   C49       1.0  0.42978  0.02135  0.19150  1.0000
  C   C50       1.0  0.97362  0.40976  0.16822  1.0000
  C   C51       1.0  0.59293  0.57354  0.32848  1.0000
  C   C52       1.0  0.57022  0.97640  0.15895  1.0000
  C   C53       1.0  0.01123  0.58972  0.15207  1.0000
  C   C54       1.0  0.41044  0.42676  0.11044  1.0000
  C   C55       1.0  0.39792  0.99937  0.04685  1.0000
  C   C56       1.0  0.98781  0.38829  0.13125  1.0000
  C   C57       1.0  0.61887  0.61157  0.28872  1.0000
  C   C58       1.0  0.60791  0.99154  0.13814  1.0000
  C   C59       1.0  0.00976  0.62175  0.17442  1.0000
  C   C60       1.0  0.38162  0.39141  0.16178  1.0000
  C   C61       1.0  0.60239  0.63693  0.25731  1.0000
  C   C62       1.0  0.36768  0.96717  0.11280  1.0000
  C   C63       1.0  0.01182  0.37430  0.29777  1.0000
  C   C64       1.0  0.39684  0.36415  0.26324  1.0000
  C   C65       1.0  0.63920  0.01287  0.28746  1.0000
  C   C66       1.0  0.97072  0.61699  0.13401  1.0000
  C   C67       1.0  0.70496  0.35283  0.77113  1.0000
  C   C68       1.0  0.64588  0.34767  0.75027  1.0000
  C   C69       1.0  0.65210  0.29550  0.75272  1.0000
  C   C70       1.0  0.29718  0.64532  0.74262  1.0000
  C   C71       1.0  0.35595  0.65186  0.74626  1.0000
  C   C72       1.0  0.34813  0.70356  0.73219  1.0000
  C   C73       1.0  0.68308  0.36788  0.76501  1.0000
  C   C74       1.0  0.63092  0.31173  0.74253  1.0000
  C   C75       1.0  0.68937  0.31654  0.76844  1.0000
  C   C76       1.0  0.31960  0.63091  0.74790  1.0000
  C   C77       1.0  0.36994  0.68830  0.74018  1.0000
  C   C78       1.0  0.31189  0.68189  0.73169  1.0000
  C   C79       1.0  0.87163  0.43010  0.74693  1.0000
  C   C80       1.0  0.56767  0.44377  0.67890  1.0000
  C   C81       1.0  0.55480  0.12645  0.75439  1.0000
  C   C82       1.0  0.13100  0.56928  0.79798  1.0000
  C   C83       1.0  0.43341  0.55745  0.77563  1.0000
  C   C84       1.0  0.43562  0.87068  0.73982  1.0000
  C   C85       1.0  0.90889  0.45182  0.74886  1.0000
  C   C86       1.0  0.54637  0.45910  0.68617  1.0000
  C   C87       1.0  0.53887  0.08960  0.74603  1.0000
  C   C88       1.0  0.09383  0.54688  0.79478  1.0000
  C   C89       1.0  0.45465  0.54266  0.76268  1.0000
  C   C90       1.0  0.45147  0.90760  0.74633  1.0000
  C   C91       1.0  0.97093  0.49981  0.77353  1.0000
  C   C92       1.0  0.49924  0.46918  0.72097  1.0000
  C   C93       1.0  0.52610  0.02953  0.72612  1.0000
  C   C94       1.0  0.03181  0.49827  0.76468  1.0000
  C   C95       1.0  0.50147  0.53261  0.72332  1.0000
  C   C96       1.0  0.46408  0.96853  0.74942  1.0000
  C   C97       1.0  0.96818  0.46746  0.75003  1.0000
  C   C98       1.0  0.53052  0.50121  0.69941  1.0000
  C   C99       1.0  0.49657  0.03075  0.74965  1.0000
  C   C100      1.0  0.03432  0.53004  0.79018  1.0000
  C   C101      1.0  0.46994  0.50047  0.74400  1.0000
  C   C102      1.0  0.49435  0.96677  0.73123  1.0000
  C   C103      1.0  0.93174  0.44073  0.73398  1.0000
  C   C104      1.0  0.55690  0.49445  0.67851  1.0000
  C   C105      1.0  0.50476  0.06543  0.76252  1.0000
  C   C106      1.0  0.07040  0.55720  0.81016  1.0000
  C   C107      1.0  0.44377  0.50736  0.76612  1.0000
  C   C108      1.0  0.48584  0.93114  0.73213  1.0000
  C   C109      1.0  0.00285  0.53072  0.79134  1.0000
  C   C110      1.0  0.46910  0.46834  0.74148  1.0000
  C   C111      1.0  0.52562  0.99847  0.71464  1.0000
  C   C112      1.0  0.99976  0.46704  0.74688  1.0000
  C   C113      1.0  0.53138  0.53335  0.70087  1.0000
  C   C114      1.0  0.46480  0.99958  0.75913  1.0000
  C   C115      1.0  0.41390  0.01471  0.63477  1.0000
  C   C116      1.0  0.97232  0.40790  0.66504  1.0000
  C   C117      1.0  0.59282  0.57459  0.82822  1.0000
  C   C118      1.0  0.56170  0.97485  0.67347  1.0000
  C   C119      1.0  0.01480  0.59153  0.69117  1.0000
  C   C120      1.0  0.40468  0.42875  0.64468  1.0000
  C   C121      1.0  0.38060  0.98646  0.52596  1.0000
  C   C122      1.0  0.98701  0.38655  0.63122  1.0000
  C   C123      1.0  0.61792  0.61284  0.78551  1.0000
  C   C124      1.0  0.59547  0.99094  0.61259  1.0000
  C   C125      1.0  0.98416  0.60308  0.58409  1.0000
  C   C126      1.0  0.38590  0.39057  0.61250  1.0000
  C   C127      1.0  0.60122  0.63769  0.75971  1.0000
  C   C128      1.0  0.35436  0.95959  0.63198  1.0000
  C   C129      1.0  0.01003  0.37201  0.80068  1.0000
  C   C130      1.0  0.38544  0.36451  0.78459  1.0000
  C   C131      1.0  0.63068  0.01637  0.73166  1.0000
  C   C132      1.0  0.97210  0.61522  0.69310  1.0000
  S   S1        1.0  0.93300  0.49966  0.27727  1.0000
  S   S2        1.0  0.50048  0.43162  0.22389  1.0000
  S   S3        1.0  0.57339  0.07389  0.19357  1.0000
  S   S4        1.0  0.07506  0.50437  0.25974  1.0000
  S   S5        1.0  0.50053  0.57249  0.22991  1.0000
  S   S6        1.0  0.43897  0.93171  0.26894  1.0000
  S   S7        1.0  0.93007  0.49590  0.77856  1.0000
  S   S8        1.0  0.50326  0.43240  0.71595  1.0000
  S   S9        1.0  0.56271  0.07071  0.71850  1.0000
  S   S10       1.0  0.07298  0.50312  0.75896  1.0000
  S   S11       1.0  0.49771  0.56934  0.73230  1.0000
  S   S12       1.0  0.42716  0.92749  0.75972  1.0000
  N   N1        1.0  0.85348  0.44692  0.24924  1.0000
  N   N2        1.0  0.55265  0.40780  0.19439  1.0000
  N   N3        1.0  0.59748  0.15236  0.21133  1.0000
  N   N4        1.0  0.15284  0.56046  0.26108  1.0000
  N   N5        1.0  0.44903  0.59631  0.26407  1.0000
  N   N6        1.0  0.40991  0.85491  0.23375  1.0000
  N   N7        1.0  0.85172  0.44242  0.76000  1.0000
  N   N8        1.0  0.55549  0.41017  0.69166  1.0000
  N   N9        1.0  0.58532  0.14796  0.71922  1.0000
  N   N10       1.0  0.15000  0.55884  0.76154  1.0000
  N   N11       1.0  0.44551  0.59094  0.76952  1.0000
  N   N12       1.0  0.40198  0.85008  0.73567  1.0000
  O   O1        1.0  0.45106  0.00263  0.31940  1.0000
  O   O2        1.0  0.00518  0.44066  0.23871  1.0000
  O   O3        1.0  0.56112  0.56426  0.16853  1.0000
  O   O4        1.0  0.56319  0.00576  0.14339  1.0000
  O   O5        1.0  0.00735  0.56407  0.31253  1.0000
  O   O6        1.0  0.43816  0.44051  0.27549  1.0000
  O   O7        1.0  0.43604  0.99959  0.78676  1.0000
  O   O8        1.0  0.00361  0.43892  0.73528  1.0000
  O   O9        1.0  0.56006  0.56508  0.67267  1.0000
  O   O10       1.0  0.55666  0.00337  0.68990  1.0000
  O   O11       1.0  0.00253  0.55994  0.81585  1.0000
  O   O12       1.0  0.44135  0.43588  0.76861  1.0000
  C  Sn1       1.0  0.78380  0.37710  0.41574  1.0000
  C   C133      1.0  0.75299  0.38388  0.32373  1.0000
  C  Sn2       1.0  0.75355  0.41053  0.17915  1.0000
  C  Sn3       1.0  0.78556  0.43082  0.12532  1.0000
  C   C134      1.0  0.81634  0.42403  0.21728  1.0000
  C  Sn4       1.0  0.81581  0.39739  0.36191  1.0000
  O  Te1       1.0  0.78263  0.35032  0.55989  1.0000
  O  Te2       1.0  0.72241  0.41682  0.08928  1.0000
  O  Te3       1.0  0.84950  0.43250  0.98105  1.0000
  O  Te4       1.0  0.84692  0.39108  0.45174  1.0000
  Mg  Mg1       1.0  0.80020  0.43105  0.90104  1.0000
  Mg  Mg2       1.0  0.83196  0.35175  0.63993  1.0000
  C  Sn5       1.0  0.58121  0.35865  0.08336  1.0000
  C   C135      1.0  0.61821  0.36868  0.18178  1.0000
  C  Sn6       1.0  0.63477  0.39028  0.31557  1.0000
  C  Sn7       1.0  0.61391  0.40208  0.35185  1.0000
  C   C136      1.0  0.57693  0.39205  0.25349  1.0000
  C  Sn8       1.0  0.56035  0.37046  0.11963  1.0000
  O  Te5       1.0  0.62801  0.31193  0.95023  1.0000
  O  Te6       1.0  0.67181  0.39997  0.41214  1.0000
  O  Te7       1.0  0.62994  0.42371  0.48510  1.0000
  O  Te8       1.0  0.52333  0.36077  0.02313  1.0000
  Mg  Mg3       1.0  0.68124  0.42976  0.58027  1.0000
  Mg  Mg4       1.0  0.57667  0.30585  0.85504  1.0000
  C  Sn9       1.0  0.58693  0.21149  0.19067  1.0000
  C   C137      1.0  0.60289  0.19296  0.17061  1.0000
  C  Sn10      1.0  0.64061  0.20790  0.20069  1.0000
  C  Sn11      1.0  0.66284  0.24206  0.25201  1.0000
  C   C138      1.0  0.64688  0.26056  0.27207  1.0000
  C  Sn12      1.0  0.60917  0.24565  0.24198  1.0000
  O  Te9       1.0  0.54917  0.19604  0.15991  1.0000
  O  Te10      1.0  0.65593  0.18887  0.17974  1.0000
  O  Te11      1.0  0.70063  0.25750  0.28276  1.0000
  O  Te12      1.0  0.59384  0.26465  0.26295  1.0000
  Mg  Mg5       1.0  0.70871  0.22114  0.23696  1.0000
  Mg  Mg6       1.0  0.54108  0.23240  0.20586  1.0000
  C  Sn13      1.0  0.21876  0.56983  0.25995  1.0000
  C   C139      1.0  0.19687  0.57842  0.30431  1.0000
  C  Sn14      1.0  0.20630  0.61336  0.30777  1.0000
  C  Sn15      1.0  0.23826  0.64028  0.26590  1.0000
  C   C140      1.0  0.26013  0.63168  0.22155  1.0000
  C  Sn16      1.0  0.25072  0.59674  0.21808  1.0000
  O  Te13      1.0  0.20881  0.53472  0.25732  1.0000
  O  Te14      1.0  0.18399  0.62131  0.35257  1.0000
  O  Te15      1.0  0.24820  0.67541  0.26857  1.0000
  O  Te16      1.0  0.27301  0.58879  0.17328  1.0000
  Mg  Mg7       1.0  0.20902  0.67304  0.33765  1.0000
  Mg  Mg8       1.0  0.24800  0.53708  0.18807  1.0000
  C  Sn17      1.0  0.41096  0.65466  0.12854  1.0000
  C   C141      1.0  0.38148  0.63998  0.19577  1.0000
  C  Sn18      1.0  0.37612  0.61004  0.32251  1.0000
  C  Sn19      1.0  0.40076  0.59447  0.38341  1.0000
  C   C142      1.0  0.43023  0.60915  0.31622  1.0000
  C  Sn20      1.0  0.43560  0.63908  0.18944  1.0000
  O  Te17      1.0  0.41579  0.68459  0.00192  1.0000
  O  Te18      1.0  0.34644  0.59584  0.38772  1.0000
  O  Te19      1.0  0.39591  0.56451  0.51013  1.0000
  O  Te20      1.0  0.46527  0.65329  0.12427  1.0000
  Mg  Mg9       1.0  0.35143  0.55489  0.55889  1.0000
  Mg  Mg10      1.0  0.52312  0.66913  0.95317  1.0000
  C  Sn21      1.0  0.41978  0.79373  0.32172  1.0000
  C   C143      1.0  0.40351  0.81647  0.22048  1.0000
  C  Sn22      1.0  0.36588  0.80325  0.13195  1.0000
  C  Sn23      1.0  0.34406  0.76653  0.14497  1.0000
  C   C144      1.0  0.36033  0.74382  0.24618  1.0000
  C  Sn24      1.0  0.39795  0.75701  0.33473  1.0000
  O  Te21      1.0  0.45744  0.80753  0.40910  1.0000
  O  Te22      1.0  0.35024  0.82650  0.03149  1.0000
  O  Te23      1.0  0.30637  0.75275  0.05747  1.0000
  O  Te24      1.0  0.41359  0.73378  0.43517  1.0000
  Mg  Mg11      1.0  0.36055  0.76992  0.93694  1.0000
  Mg  Mg12      1.0  0.46607  0.76522  0.52985  1.0000
  C  Sn25      1.0  0.75781  0.41143  0.62271  1.0000
  C   C145      1.0  0.74416  0.37795  0.71628  1.0000
  C  Sn26      1.0  0.76795  0.36561  0.85775  1.0000
  C  Sn27      1.0  0.80617  0.38719  0.90681  1.0000
  C   C146      1.0  0.81979  0.42065  0.81329  1.0000
  C  Sn28      1.0  0.79603  0.43301  0.67177  1.0000
  O  Te25      1.0  0.73353  0.42322  0.48174  1.0000
  O  Te26      1.0  0.75366  0.33204  0.94926  1.0000
  O  Te27      1.0  0.76765  0.40048  0.04791  1.0000
  O  Te28      1.0  0.81029  0.46656  0.58032  1.0000
  Mg  Mg13      1.0  0.73500  0.35285  0.13183  1.0000
  Mg  Mg14      1.0  0.76619  0.47090  0.39779  1.0000
  C  Sn29      1.0  0.58120  0.35853  0.58357  1.0000
  C   C147      1.0  0.61815  0.36776  0.68088  1.0000
  C  Sn30      1.0  0.63568  0.38977  0.81360  1.0000
  C  Sn31      1.0  0.61587  0.40281  0.84991  1.0000
  C   C148      1.0  0.57894  0.39357  0.75266  1.0000
  C  Sn32      1.0  0.56138  0.37157  0.61988  1.0000
  O  Te29      1.0  0.56422  0.33649  0.45150  1.0000
  O  Te30      1.0  0.67264  0.39864  0.90907  1.0000
  O  Te31      1.0  0.63288  0.42486  0.98211  1.0000
  O  Te32      1.0  0.52444  0.36270  0.52446  1.0000
  Mg  Mg15      1.0  0.62085  0.45456  0.07601  1.0000
  Mg  Mg16      1.0  0.51341  0.33188  0.35757  1.0000
  C  Sn33      1.0  0.60171  0.22594  0.83797  1.0000
  C   C149      1.0  0.63391  0.25101  0.79856  1.0000
  C  Sn34      1.0  0.64852  0.24327  0.70282  1.0000
  C  Sn35      1.0  0.63057  0.20978  0.64517  1.0000
  C   C150      1.0  0.59839  0.18473  0.68455  1.0000
  C  Sn36      1.0  0.58375  0.19245  0.78032  1.0000
  O  Te33      1.0  0.58759  0.23425  0.93384  1.0000
  O  Te34      1.0  0.68075  0.26876  0.66507  1.0000
  O  Te35      1.0  0.64472  0.20148  0.54923  1.0000
  O  Te36      1.0  0.55154  0.16699  0.81804  1.0000
  Mg  Mg17      1.0  0.68928  0.24495  0.53052  1.0000
  Mg  Mg18      1.0  0.54298  0.19077  0.95249  1.0000
  C  Sn37      1.0  0.22810  0.58588  0.65386  1.0000
  C   C151      1.0  0.25175  0.61998  0.69582  1.0000
  C  Sn38      1.0  0.24425  0.63516  0.79231  1.0000
  C  Sn39      1.0  0.21245  0.61585  0.84815  1.0000
  C   C152      1.0  0.18882  0.58177  0.80623  1.0000
  C  Sn40      1.0  0.19630  0.56656  0.70970  1.0000
  O  Te37      1.0  0.23614  0.57122  0.55727  1.0000
  O  Te38      1.0  0.26830  0.66929  0.83261  1.0000
  O  Te39      1.0  0.20441  0.63053  0.94481  1.0000
  O  Te40      1.0  0.17227  0.53245  0.66943  1.0000
  Mg  Mg19      1.0  0.24552  0.67785  0.96722  1.0000
  Mg  Mg20      1.0  0.19503  0.52386  0.53492  1.0000
  C  Sn41      1.0  0.43456  0.64859  0.73836  1.0000
  C   C153      1.0  0.43119  0.61465  0.81250  1.0000
  C  Sn42      1.0  0.39886  0.58882  0.84804  1.0000
  C  Sn43      1.0  0.36928  0.59707  0.80854  1.0000
  C   C154      1.0  0.37265  0.63099  0.73442  1.0000
  C  Sn44      1.0  0.40497  0.65685  0.69886  1.0000
  O  Te41      1.0  0.46713  0.67400  0.70394  1.0000
  O  Te42      1.0  0.39614  0.55508  0.92225  1.0000
  O  Te43      1.0  0.33670  0.57163  0.84304  1.0000
  O  Te44      1.0  0.40770  0.69057  0.62467  1.0000
  Mg  Mg21      1.0  0.34619  0.52947  0.94479  1.0000
  Mg  Mg22      1.0  0.45763  0.71619  0.60199  1.0000
  C  Sn45      1.0  0.41489  0.79063  0.81969  1.0000
  C   C155      1.0  0.39750  0.81252  0.71998  1.0000
  C  Sn46      1.0  0.35993  0.79829  0.63042  1.0000
  C  Sn47      1.0  0.33929  0.76141  0.64081  1.0000
  C   C156      1.0  0.35667  0.73954  0.74050  1.0000
  C  Sn48      1.0  0.39425  0.75375  0.83008  1.0000
  O  Te45      1.0  0.45249  0.80543  0.90815  1.0000
  O  Te46      1.0  0.34316  0.82071  0.53152  1.0000
  O  Te47      1.0  0.30167  0.74662  0.55224  1.0000
  O  Te48      1.0  0.41102  0.73135  0.92895  1.0000
  Mg  Mg23      1.0  0.29126  0.78802  0.43462  1.0000
  Mg  Mg24      1.0  0.40011  0.78913  0.02598  1.0000
