data_image0
_chemical_formula_structural       H120C132S12N12O12C2Sn2C2HTe2HMgC2Sn2C2HTe2HMgC2Sn2C2HTe2HMgC2Sn2C2HTe2HMgC2Sn2C2HTe2HMgC2Sn2C2HTe2HMgC2Sn2C2HTe2HMgC2Sn2C2HTe2HMgC2Sn2C2HTe2HMgC2Sn2C2HTe2HMgC2Sn2C2HTe2HMgC2Sn2C2HTe2HMg
_chemical_formula_sum              "H144 C180 S12 N12 O12 Sn24 Te24 Mg12"
_cell_length_a       44.2386
_cell_length_b       44.3451
_cell_length_c       8.21551
_cell_angle_alpha    72.3352
_cell_angle_beta     113.92
_cell_angle_gamma    119.769

_symmetry_space_group_name_H-M    'P1'
_space_group_IT_number       1

loop_
  _space_group_symop_operation_xyz
  'x, y, z'

loop_
  _atom_site_type_symbol
  _atom_site_label
  _atom_site_symmetry_multiplicity
  _atom_site_fract_x
  _atom_site_fract_y
  _atom_site_fract_z
  _atom_site_occupancy
  H   H1        1.0  0.69512  0.39927  0.26619  1.0000
  H   H2        1.0  0.60504  0.29730  0.23664  1.0000
  H   H3        1.0  0.71021  0.31161  0.25789  1.0000
  H   H4        1.0  0.31146  0.60688  0.24733  1.0000
  H   H5        1.0  0.40091  0.70926  0.24155  1.0000
  H   H6        1.0  0.29808  0.69766  0.23011  1.0000
  H   H7        1.0  0.86277  0.40648  0.22757  1.0000
  H   H8        1.0  0.59090  0.45995  0.16012  1.0000
  H   H9        1.0  0.55848  0.13615  0.34152  1.0000
  H   H10       1.0  0.14422  0.59674  0.33391  1.0000
  H   H11       1.0  0.40911  0.54411  0.27957  1.0000
  H   H12       1.0  0.45888  0.86371  0.20648  1.0000
  H   H13       1.0  0.92356  0.41724  0.21201  1.0000
  H   H14       1.0  0.57998  0.51222  0.15181  1.0000
  H   H15       1.0  0.50469  0.07575  0.32641  1.0000
  H   H16       1.0  0.08280  0.58470  0.34494  1.0000
  H   H17       1.0  0.41935  0.49207  0.28491  1.0000
  H   H18       1.0  0.50858  0.92572  0.16639  1.0000
  H   H19       1.0  0.44787  0.04583  0.12983  1.0000
  H   H20       1.0  0.95541  0.41770  0.04448  1.0000
  H   H21       1.0  0.60583  0.55578  0.36055  1.0000
  H   H22       1.0  0.54923  0.96018  0.05208  1.0000
  H   H23       1.0  0.98927  0.57728  0.03540  1.0000
  H   H24       1.0  0.42351  0.42449  0.02862  1.0000
  H   H25       1.0  0.42026  0.02800  0.27420  1.0000
  H   H26       1.0  0.95877  0.39486  0.26731  1.0000
  H   H27       1.0  0.58360  0.57000  0.44125  1.0000
  H   H28       1.0  0.56897  0.96041  0.28966  1.0000
  H   H29       1.0  0.03722  0.59654  0.13331  1.0000
  H   H30       1.0  0.39853  0.44553  0.03415  1.0000
  H   H31       1.0  0.40926  0.99154  0.97885  1.0000
  H   H32       1.0  0.00326  0.40475  0.03602  1.0000
  H   H33       1.0  0.62659  0.61448  0.17142  1.0000
  H   H34       1.0  0.60728  0.00798  0.00768  1.0000
  H   H35       1.0  0.02324  0.64405  0.08429  1.0000
  H   H36       1.0  0.35943  0.38229  0.03759  1.0000
  H   H37       1.0  0.38626  0.01680  0.94552  1.0000
  H   H38       1.0  0.96388  0.36643  0.06191  1.0000
  H   H39       1.0  0.64426  0.61762  0.40292  1.0000
  H   H40       1.0  0.61215  0.96962  0.13061  1.0000
  H   H41       1.0  0.02666  0.62829  0.31114  1.0000
  H   H42       1.0  0.36923  0.39499  0.24224  1.0000
  H   H43       1.0  0.62160  0.66426  0.23081  1.0000
  H   H44       1.0  0.34747  0.95134  0.00338  1.0000
  H   H45       1.0  0.02215  0.36036  0.25928  1.0000
  H   H46       1.0  0.40772  0.35907  0.18086  1.0000
  H   H47       1.0  0.66549  0.02419  0.26159  1.0000
  H   H48       1.0  0.95554  0.61482  0.99095  1.0000
  H   H49       1.0  0.59499  0.63452  0.37461  1.0000
  H   H50       1.0  0.35311  0.97450  0.16352  1.0000
  H   H51       1.0  0.99676  0.35606  0.39233  1.0000
  H   H52       1.0  0.37564  0.33915  0.30212  1.0000
  H   H53       1.0  0.64168  0.99670  0.41896  1.0000
  H   H54       1.0  0.97058  0.63922  0.16624  1.0000
  H   H55       1.0  0.57734  0.63122  0.14214  1.0000
  H   H56       1.0  0.37879  0.95022  0.22119  1.0000
  H   H57       1.0  0.03556  0.39584  0.36919  1.0000
  H   H58       1.0  0.41939  0.37339  0.38561  1.0000
  H   H59       1.0  0.63475  0.03447  0.29659  1.0000
  H   H60       1.0  0.95556  0.59311  0.21091  1.0000
  H   H61       1.0  0.69520  0.39588  0.76973  1.0000
  H   H62       1.0  0.60195  0.29619  0.72747  1.0000
  H   H63       1.0  0.70644  0.30491  0.77400  1.0000
  H   H64       1.0  0.30857  0.60274  0.75332  1.0000
  H   H65       1.0  0.39815  0.70513  0.74155  1.0000
  H   H66       1.0  0.29532  0.69396  0.72704  1.0000
  H   H67       1.0  0.86091  0.40243  0.73231  1.0000
  H   H68       1.0  0.59469  0.46218  0.66202  1.0000
  H   H69       1.0  0.53915  0.13457  0.79317  1.0000
  H   H70       1.0  0.14140  0.59578  0.82898  1.0000
  H   H71       1.0  0.40592  0.53847  0.78459  1.0000
  H   H72       1.0  0.45354  0.86099  0.73205  1.0000
  H   H73       1.0  0.92176  0.41404  0.71197  1.0000
  H   H74       1.0  0.58272  0.51461  0.65861  1.0000
  H   H75       1.0  0.48674  0.07223  0.78748  1.0000
  H   H76       1.0  0.07922  0.58352  0.83393  1.0000
  H   H77       1.0  0.41789  0.48736  0.78568  1.0000
  H   H78       1.0  0.50359  0.92222  0.72051  1.0000
  H   H79       1.0  0.43107  0.03491  0.55283  1.0000
  H   H80       1.0  0.95420  0.41570  0.54012  1.0000
  H   H81       1.0  0.60598  0.55732  0.85465  1.0000
  H   H82       1.0  0.53763  0.95916  0.57225  1.0000
  H   H83       1.0  0.02349  0.58622  0.59932  1.0000
  H   H84       1.0  0.40679  0.44647  0.51881  1.0000
  H   H85       1.0  0.40570  0.02754  0.69376  1.0000
  H   H86       1.0  0.95716  0.39282  0.76292  1.0000
  H   H87       1.0  0.58465  0.57072  0.94552  1.0000
  H   H88       1.0  0.56494  0.95819  0.80376  1.0000
  H   H89       1.0  0.03855  0.61169  0.77239  1.0000
  H   H90       1.0  0.38956  0.43378  0.70398  1.0000
  H   H91       1.0  0.39016  0.97343  0.47624  1.0000
  H   H92       1.0  0.00324  0.40326  0.53943  1.0000
  H   H93       1.0  0.62456  0.61595  0.66440  1.0000
  H   H94       1.0  0.58930  0.00464  0.47633  1.0000
  H   H95       1.0  0.96071  0.58150  0.51150  1.0000
  H   H96       1.0  0.39981  0.38754  0.53822  1.0000
  H   H97       1.0  0.36621  0.99940  0.40640  1.0000
  H   H98       1.0  0.96331  0.36501  0.55866  1.0000
  H   H99       1.0  0.64392  0.61924  0.89592  1.0000
  H   H100      1.0  0.59951  0.96909  0.60245  1.0000
  H   H101      1.0  0.99380  0.62456  0.48064  1.0000
  H   H102      1.0  0.35775  0.38516  0.52369  1.0000
  H   H103      1.0  0.61968  0.66513  0.72877  1.0000
  H   H104      1.0  0.33101  0.93938  0.55022  1.0000
  H   H105      1.0  0.01996  0.35716  0.76617  1.0000
  H   H106      1.0  0.37157  0.36690  0.86151  1.0000
  H   H107      1.0  0.65266  0.02827  0.67001  1.0000
  H   H108      1.0  0.95229  0.62591  0.60483  1.0000
  H   H109      1.0  0.59514  0.63549  0.88090  1.0000
  H   H110      1.0  0.34348  0.97207  0.67702  1.0000
  H   H111      1.0  0.99423  0.35429  0.89319  1.0000
  H   H112      1.0  0.41342  0.36910  0.87142  1.0000
  H   H113      1.0  0.64008  0.00329  0.86562  1.0000
  H   H114      1.0  0.99545  0.63581  0.77282  1.0000
  H   H115      1.0  0.57541  0.63135  0.64906  1.0000
  H   H116      1.0  0.36827  0.94645  0.75172  1.0000
  H   H117      1.0  0.03394  0.39329  0.87336  1.0000
  H   H118      1.0  0.37106  0.33737  0.75447  1.0000
  H   H119      1.0  0.62671  0.03776  0.74736  1.0000
  H   H120      1.0  0.95893  0.59344  0.78542  1.0000
  C   C1        1.0  0.70686  0.35768  0.26508  1.0000
  C   C2        1.0  0.64713  0.34973  0.25074  1.0000
  C   C3        1.0  0.65558  0.29912  0.24779  1.0000
  C   C4        1.0  0.29994  0.64913  0.24152  1.0000
  C   C5        1.0  0.35866  0.65608  0.24232  1.0000
  C   C6        1.0  0.35095  0.70748  0.23431  1.0000
  C   C7        1.0  0.68406  0.37136  0.26204  1.0000
  C   C8        1.0  0.63355  0.31388  0.24430  1.0000
  C   C9        1.0  0.69239  0.32167  0.25920  1.0000
  C   C10       1.0  0.32235  0.63499  0.24384  1.0000
  C   C11       1.0  0.37268  0.69238  0.23949  1.0000
  C   C12       1.0  0.31465  0.68571  0.23320  1.0000
  C   C13       1.0  0.87355  0.43425  0.24083  1.0000
  C   C14       1.0  0.56417  0.44136  0.17991  1.0000
  C   C15       1.0  0.57029  0.12932  0.27096  1.0000
  C   C16       1.0  0.13378  0.57043  0.30036  1.0000
  C   C17       1.0  0.43669  0.56278  0.27099  1.0000
  C   C18       1.0  0.44279  0.87443  0.22373  1.0000
  C   C19       1.0  0.91112  0.45553  0.24663  1.0000
  C   C20       1.0  0.54323  0.45705  0.18808  1.0000
  C   C21       1.0  0.55330  0.09277  0.25228  1.0000
  C   C22       1.0  0.09661  0.54808  0.29796  1.0000
  C   C23       1.0  0.45736  0.54711  0.26061  1.0000
  C   C24       1.0  0.46008  0.91154  0.22895  1.0000
  C   C25       1.0  0.97387  0.50285  0.27616  1.0000
  C   C26       1.0  0.49718  0.46927  0.22311  1.0000
  C   C27       1.0  0.53666  0.03290  0.20810  1.0000
  C   C28       1.0  0.03424  0.50001  0.26768  1.0000
  C   C29       1.0  0.50291  0.53483  0.22308  1.0000
  C   C30       1.0  0.47544  0.97244  0.24751  1.0000
  C   C31       1.0  0.97055  0.47017  0.25268  1.0000
  C   C32       1.0  0.52880  0.50060  0.19669  1.0000
  C   C33       1.0  0.50943  0.03439  0.25290  1.0000
  C   C34       1.0  0.03736  0.53186  0.29531  1.0000
  C   C35       1.0  0.47105  0.50358  0.24626  1.0000
  C   C36       1.0  0.50333  0.97031  0.20844  1.0000
  C   C37       1.0  0.93386  0.44394  0.23470  1.0000
  C   C38       1.0  0.55433  0.49263  0.17571  1.0000
  C   C39       1.0  0.52020  0.06882  0.28190  1.0000
  C   C40       1.0  0.07362  0.55863  0.31635  1.0000
  C   C41       1.0  0.44548  0.51157  0.26623  1.0000
  C   C42       1.0  0.49320  0.93469  0.19894  1.0000
  C   C43       1.0  0.00623  0.53332  0.29551  1.0000
  C   C44       1.0  0.46836  0.47054  0.24671  1.0000
  C   C45       1.0  0.53432  0.00169  0.18558  1.0000
  C   C46       1.0  0.00184  0.46908  0.24988  1.0000
  C   C47       1.0  0.53146  0.53361  0.19730  1.0000
  C   C48       1.0  0.47777  0.00346  0.26941  1.0000
  C   C49       1.0  0.42978  0.02135  0.19150  1.0000
  C   C50       1.0  0.97362  0.40976  0.16822  1.0000
  C   C51       1.0  0.59293  0.57354  0.32848  1.0000
  C   C52       1.0  0.57022  0.97640  0.15895  1.0000
  C   C53       1.0  0.01123  0.58972  0.15207  1.0000
  C   C54       1.0  0.41044  0.42676  0.11044  1.0000
  C   C55       1.0  0.39792  0.99937  0.04685  1.0000
  C   C56       1.0  0.98781  0.38829  0.13125  1.0000
  C   C57       1.0  0.61887  0.61157  0.28872  1.0000
  C   C58       1.0  0.60791  0.99154  0.13814  1.0000
  C   C59       1.0  0.00976  0.62175  0.17442  1.0000
  C   C60       1.0  0.38162  0.39141  0.16178  1.0000
  C   C61       1.0  0.60239  0.63693  0.25731  1.0000
  C   C62       1.0  0.36768  0.96717  0.11280  1.0000
  C   C63       1.0  0.01182  0.37430  0.29777  1.0000
  C   C64       1.0  0.39684  0.36415  0.26324  1.0000
  C   C65       1.0  0.63920  0.01287  0.28746  1.0000
  C   C66       1.0  0.97072  0.61699  0.13401  1.0000
  C   C67       1.0  0.70496  0.35283  0.77113  1.0000
  C   C68       1.0  0.64588  0.34767  0.75027  1.0000
  C   C69       1.0  0.65210  0.29550  0.75272  1.0000
  C   C70       1.0  0.29718  0.64532  0.74262  1.0000
  C   C71       1.0  0.35595  0.65186  0.74626  1.0000
  C   C72       1.0  0.34813  0.70356  0.73219  1.0000
  C   C73       1.0  0.68308  0.36788  0.76501  1.0000
  C   C74       1.0  0.63092  0.31173  0.74253  1.0000
  C   C75       1.0  0.68937  0.31654  0.76844  1.0000
  C   C76       1.0  0.31960  0.63091  0.74790  1.0000
  C   C77       1.0  0.36994  0.68830  0.74018  1.0000
  C   C78       1.0  0.31189  0.68189  0.73169  1.0000
  C   C79       1.0  0.87163  0.43010  0.74693  1.0000
  C   C80       1.0  0.56767  0.44377  0.67890  1.0000
  C   C81       1.0  0.55480  0.12645  0.75439  1.0000
  C   C82       1.0  0.13100  0.56928  0.79798  1.0000
  C   C83       1.0  0.43341  0.55745  0.77563  1.0000
  C   C84       1.0  0.43562  0.87068  0.73982  1.0000
  C   C85       1.0  0.90889  0.45182  0.74886  1.0000
  C   C86       1.0  0.54637  0.45910  0.68617  1.0000
  C   C87       1.0  0.53887  0.08960  0.74603  1.0000
  C   C88       1.0  0.09383  0.54688  0.79478  1.0000
  C   C89       1.0  0.45465  0.54266  0.76268  1.0000
  C   C90       1.0  0.45147  0.90760  0.74633  1.0000
  C   C91       1.0  0.97093  0.49981  0.77353  1.0000
  C   C92       1.0  0.49924  0.46918  0.72097  1.0000
  C   C93       1.0  0.52610  0.02953  0.72612  1.0000
  C   C94       1.0  0.03181  0.49827  0.76468  1.0000
  C   C95       1.0  0.50147  0.53261  0.72332  1.0000
  C   C96       1.0  0.46408  0.96853  0.74942  1.0000
  C   C97       1.0  0.96818  0.46746  0.75003  1.0000
  C   C98       1.0  0.53052  0.50121  0.69941  1.0000
  C   C99       1.0  0.49657  0.03075  0.74965  1.0000
  C   C100      1.0  0.03432  0.53004  0.79018  1.0000
  C   C101      1.0  0.46994  0.50047  0.74400  1.0000
  C   C102      1.0  0.49435  0.96677  0.73123  1.0000
  C   C103      1.0  0.93174  0.44073  0.73398  1.0000
  C   C104      1.0  0.55690  0.49445  0.67851  1.0000
  C   C105      1.0  0.50476  0.06543  0.76252  1.0000
  C   C106      1.0  0.07040  0.55720  0.81016  1.0000
  C   C107      1.0  0.44377  0.50736  0.76612  1.0000
  C   C108      1.0  0.48584  0.93114  0.73213  1.0000
  C   C109      1.0  0.00285  0.53072  0.79134  1.0000
  C   C110      1.0  0.46910  0.46834  0.74148  1.0000
  C   C111      1.0  0.52562  0.99847  0.71464  1.0000
  C   C112      1.0  0.99976  0.46704  0.74688  1.0000
  C   C113      1.0  0.53138  0.53335  0.70087  1.0000
  C   C114      1.0  0.46480  0.99958  0.75913  1.0000
  C   C115      1.0  0.41390  0.01471  0.63477  1.0000
  C   C116      1.0  0.97232  0.40790  0.66504  1.0000
  C   C117      1.0  0.59282  0.57459  0.82822  1.0000
  C   C118      1.0  0.56170  0.97485  0.67347  1.0000
  C   C119      1.0  0.01480  0.59153  0.69117  1.0000
  C   C120      1.0  0.40468  0.42875  0.64468  1.0000
  C   C121      1.0  0.38060  0.98646  0.52596  1.0000
  C   C122      1.0  0.98701  0.38655  0.63122  1.0000
  C   C123      1.0  0.61792  0.61284  0.78551  1.0000
  C   C124      1.0  0.59547  0.99094  0.61259  1.0000
  C   C125      1.0  0.98416  0.60308  0.58409  1.0000
  C   C126      1.0  0.38590  0.39057  0.61250  1.0000
  C   C127      1.0  0.60122  0.63769  0.75971  1.0000
  C   C128      1.0  0.35436  0.95959  0.63198  1.0000
  C   C129      1.0  0.01003  0.37201  0.80068  1.0000
  C   C130      1.0  0.38544  0.36451  0.78459  1.0000
  C   C131      1.0  0.63068  0.01637  0.73166  1.0000
  C   C132      1.0  0.97210  0.61522  0.69310  1.0000
  S   S1        1.0  0.93300  0.49966  0.27727  1.0000
  S   S2        1.0  0.50048  0.43162  0.22389  1.0000
  S   S3        1.0  0.57339  0.07389  0.19357  1.0000
  S   S4        1.0  0.07506  0.50437  0.25974  1.0000
  S   S5        1.0  0.50053  0.57249  0.22991  1.0000
  S   S6        1.0  0.43897  0.93171  0.26894  1.0000
  S   S7        1.0  0.93007  0.49590  0.77856  1.0000
  S   S8        1.0  0.50326  0.43240  0.71595  1.0000
  S   S9        1.0  0.56271  0.07071  0.71850  1.0000
  S   S10       1.0  0.07298  0.50312  0.75896  1.0000
  S   S11       1.0  0.49771  0.56934  0.73230  1.0000
  S   S12       1.0  0.42716  0.92749  0.75972  1.0000
  N   N1        1.0  0.85348  0.44692  0.24924  1.0000
  N   N2        1.0  0.55265  0.40780  0.19439  1.0000
  N   N3        1.0  0.59748  0.15236  0.21133  1.0000
  N   N4        1.0  0.15284  0.56046  0.26108  1.0000
  N   N5        1.0  0.44903  0.59631  0.26407  1.0000
  N   N6        1.0  0.40991  0.85491  0.23375  1.0000
  N   N7        1.0  0.85172  0.44242  0.76000  1.0000
  N   N8        1.0  0.55549  0.41017  0.69166  1.0000
  N   N9        1.0  0.58532  0.14796  0.71922  1.0000
  N   N10       1.0  0.15000  0.55884  0.76154  1.0000
  N   N11       1.0  0.44551  0.59094  0.76952  1.0000
  N   N12       1.0  0.40198  0.85008  0.73567  1.0000
  O   O1        1.0  0.45106  0.00263  0.31940  1.0000
  O   O2        1.0  0.00518  0.44066  0.23871  1.0000
  O   O3        1.0  0.56112  0.56426  0.16853  1.0000
  O   O4        1.0  0.56319  0.00576  0.14339  1.0000
  O   O5        1.0  0.00735  0.56407  0.31253  1.0000
  O   O6        1.0  0.43816  0.44051  0.27549  1.0000
  O   O7        1.0  0.43604  0.99959  0.78676  1.0000
  O   O8        1.0  0.00361  0.43892  0.73528  1.0000
  O   O9        1.0  0.56006  0.56508  0.67267  1.0000
  O   O10       1.0  0.55666  0.00337  0.68990  1.0000
  O   O11       1.0  0.00253  0.55994  0.81585  1.0000
  O   O12       1.0  0.44135  0.43588  0.76861  1.0000
  C   C133      1.0  0.78034  0.43404  0.14207  1.0000
  C   C134      1.0  0.81202  0.42912  0.24406  1.0000
  C  Sn1       1.0  0.80971  0.39790  0.35777  1.0000
  C  Sn2       1.0  0.77502  0.37115  0.36926  1.0000
  C   C135      1.0  0.74350  0.37631  0.26658  1.0000
  C   C136      1.0  0.74612  0.40766  0.15327  1.0000
  H   H121      1.0  0.78236  0.45828  0.05432  1.0000
  O  Te1       1.0  0.84163  0.39343  0.45878  1.0000
  O  Te2       1.0  0.77194  0.33969  0.48178  1.0000
  H   H122      1.0  0.72159  0.41144  0.07423  1.0000
  Mg  Mg1       1.0  0.82331  0.34596  0.59275  1.0000
  C   C137      1.0  0.56402  0.35897  0.10639  1.0000
  C   C138      1.0  0.57155  0.38523  0.19650  1.0000
  C  Sn3       1.0  0.60689  0.40299  0.30732  1.0000
  C  Sn4       1.0  0.63517  0.39426  0.32801  1.0000
  C   C139      1.0  0.62737  0.36797  0.23719  1.0000
  C   C140      1.0  0.59191  0.35035  0.12667  1.0000
  H   H123      1.0  0.53659  0.34535  0.02080  1.0000
  O  Te3       1.0  0.61393  0.42915  0.39641  1.0000
  O  Te4       1.0  0.67074  0.41160  0.43789  1.0000
  H   H124      1.0  0.58610  0.33004  0.05683  1.0000
  Mg  Mg2       1.0  0.66677  0.44531  0.53128  1.0000
  C   C141      1.0  0.66168  0.23898  0.21597  1.0000
  C   C142      1.0  0.64519  0.25848  0.22088  1.0000
  C  Sn5       1.0  0.60986  0.24166  0.23540  1.0000
  C  Sn6       1.0  0.59077  0.20464  0.24521  1.0000
  C   C143      1.0  0.60752  0.18537  0.24032  1.0000
  C   C144      1.0  0.64287  0.20246  0.22571  1.0000
  H   H125      1.0  0.68904  0.25219  0.20477  1.0000
  O  Te5       1.0  0.59379  0.26154  0.24006  1.0000
  O  Te6       1.0  0.55545  0.18717  0.25985  1.0000
  H   H126      1.0  0.65564  0.18735  0.22203  1.0000
  Mg  Mg3       1.0  0.54514  0.22574  0.26098  1.0000
  C   C145      1.0  0.23517  0.58287  0.20725  1.0000
  C   C146      1.0  0.25735  0.61819  0.22988  1.0000
  C  Sn7       1.0  0.24558  0.63686  0.28115  1.0000
  C  Sn8       1.0  0.21095  0.61979  0.31025  1.0000
  C   C147      1.0  0.18897  0.58444  0.28738  1.0000
  C   C148      1.0  0.20101  0.56601  0.23599  1.0000
  H   H127      1.0  0.24449  0.56860  0.16758  1.0000
  O  Te7       1.0  0.26809  0.67214  0.30309  1.0000
  O  Te8       1.0  0.19852  0.63783  0.36163  1.0000
  H   H128      1.0  0.18383  0.53866  0.21859  1.0000
  Mg  Mg4       1.0  0.23907  0.68555  0.37436  1.0000
  C   C149      1.0  0.39010  0.59017  0.35576  1.0000
  C   C150      1.0  0.41759  0.60316  0.27654  1.0000
  C  Sn9       1.0  0.42894  0.63716  0.18562  1.0000
  C  Sn10      1.0  0.41242  0.65849  0.17407  1.0000
  C   C151      1.0  0.38496  0.64525  0.25389  1.0000
  C   C152      1.0  0.37380  0.61119  0.34450  1.0000
  H   H129      1.0  0.38148  0.56382  0.42595  1.0000
  O  Te9       1.0  0.45643  0.64973  0.10718  1.0000
  O  Te10      1.0  0.42325  0.69257  0.08407  1.0000
  H   H130      1.0  0.35253  0.60114  0.40592  1.0000
  Mg  Mg5       1.0  0.52460  0.67278  0.99900  1.0000
  C   C153      1.0  0.34469  0.77301  0.10834  1.0000
  C   C154      1.0  0.36134  0.75025  0.19899  1.0000
  C  Sn11      1.0  0.39634  0.76217  0.32324  1.0000
  C  Sn12      1.0  0.41495  0.79755  0.35711  1.0000
  C   C155      1.0  0.39805  0.82011  0.26582  1.0000
  C   C156      1.0  0.36302  0.80791  0.14172  1.0000
  H   H131      1.0  0.31758  0.76357  0.01240  1.0000
  O  Te11      1.0  0.41257  0.73908  0.41258  1.0000
  O  Te12      1.0  0.44995  0.81015  0.48066  1.0000
  H   H132      1.0  0.35013  0.82553  0.07164  1.0000
  Mg  Mg6       1.0  0.46064  0.76861  0.56866  1.0000
  C   C157      1.0  0.78086  0.36541  0.88321  1.0000
  C   C158      1.0  0.75043  0.37296  0.80770  1.0000
  C  Sn13      1.0  0.75298  0.40478  0.70006  1.0000
  C  Sn14      1.0  0.78665  0.42945  0.66761  1.0000
  C   C159      1.0  0.81692  0.42164  0.74365  1.0000
  C   C160      1.0  0.81407  0.38972  0.85121  1.0000
  H   H133      1.0  0.77865  0.34070  0.96634  1.0000
  O  Te13      1.0  0.72232  0.41191  0.62573  1.0000
  O  Te14      1.0  0.78995  0.46145  0.56049  1.0000
  H   H134      1.0  0.83763  0.38387  0.90955  1.0000
  Mg  Mg7       1.0  0.74045  0.45912  0.48909  1.0000
  C   C161      1.0  0.63704  0.40129  0.82950  1.0000
  C   C162      1.0  0.62679  0.37068  0.76556  1.0000
  C  Sn15      1.0  0.59091  0.35295  0.65948  1.0000
  C  Sn16      1.0  0.56487  0.36618  0.61681  1.0000
  C   C163      1.0  0.57540  0.39684  0.68133  1.0000
  C   C164      1.0  0.61138  0.41437  0.78742  1.0000
  H   H135      1.0  0.66488  0.41487  0.91150  1.0000
  O  Te15      1.0  0.58113  0.32239  0.59676  1.0000
  O  Te16      1.0  0.52883  0.34899  0.51100  1.0000
  H   H136      1.0  0.61931  0.43808  0.83680  1.0000
  Mg  Mg8       1.0  0.52870  0.30831  0.45728  1.0000
  C   C165      1.0  0.64052  0.21430  0.67877  1.0000
  C   C166      1.0  0.61015  0.18842  0.73185  1.0000
  C  Sn17      1.0  0.59014  0.19767  0.78680  1.0000
  C  Sn18      1.0  0.60080  0.23351  0.78844  1.0000
  C   C167      1.0  0.63121  0.25921  0.73496  1.0000
  C   C168      1.0  0.65104  0.24967  0.68028  1.0000
  H   H137      1.0  0.65586  0.20692  0.63636  1.0000
  O  Te17      1.0  0.55988  0.17147  0.83948  1.0000
  O  Te18      1.0  0.58129  0.24349  0.84268  1.0000
  H   H138      1.0  0.67454  0.26972  0.63907  1.0000
  Mg  Mg9       1.0  0.54204  0.19818  0.90243  1.0000
  C   C169      1.0  0.21425  0.62438  0.81315  1.0000
  C   C170      1.0  0.18914  0.59150  0.75755  1.0000
  C  Sn19      1.0  0.19999  0.57262  0.70171  1.0000
  C  Sn20      1.0  0.23668  0.58700  0.70172  1.0000
  C   C171      1.0  0.26160  0.61990  0.75771  1.0000
  C   C172      1.0  0.25045  0.63857  0.81327  1.0000
  H   H139      1.0  0.20563  0.63881  0.85624  1.0000
  O  Te19      1.0  0.17455  0.53981  0.64651  1.0000
  O  Te20      1.0  0.24826  0.56869  0.64663  1.0000
  H   H140      1.0  0.26990  0.66401  0.85642  1.0000
  Mg  Mg10      1.0  0.20346  0.52495  0.58329  1.0000
  C   C173      1.0  0.38627  0.58505  0.85806  1.0000
  C   C174      1.0  0.41407  0.59799  0.78099  1.0000
  C  Sn21      1.0  0.42612  0.63221  0.69320  1.0000
  C  Sn22      1.0  0.40999  0.65383  0.68262  1.0000
  C   C175      1.0  0.38222  0.64064  0.76027  1.0000
  C   C176      1.0  0.37036  0.60635  0.84776  1.0000
  H   H141      1.0  0.37710  0.55852  0.92584  1.0000
  O  Te21      1.0  0.45391  0.64472  0.61687  1.0000
  O  Te22      1.0  0.42153  0.68814  0.59573  1.0000
  H   H142      1.0  0.34885  0.59635  0.90752  1.0000
  Mg  Mg11      1.0  0.46026  0.69327  0.51267  1.0000
  C   C177      1.0  0.40533  0.76860  0.86208  1.0000
  C   C178      1.0  0.37101  0.74550  0.76592  1.0000
  C  Sn23      1.0  0.34555  0.75799  0.64307  1.0000
  C  Sn24      1.0  0.35472  0.79429  0.61623  1.0000
  C   C179      1.0  0.38914  0.81719  0.71299  1.0000
  C   C180      1.0  0.41440  0.80441  0.83564  1.0000
  H   H143      1.0  0.42489  0.75872  0.95690  1.0000
  O  Te23      1.0  0.31137  0.73456  0.54817  1.0000
  O  Te24      1.0  0.32980  0.80748  0.49423  1.0000
  H   H144      1.0  0.44099  0.82230  0.90998  1.0000
  Mg  Mg12      1.0  0.28669  0.76514  0.39685  1.0000
