data_image0
_chemical_formula_structural       H96C144S12N12O12SnCSn2CSnTe4Mg2SnCSn2CSnTe4Mg2SnCSn2CSnTe4Mg2SnCSn2CSnTe4Mg2SnCSn2CSnTe4Mg2SnCSn2CSnTe4Mg2
_chemical_formula_sum              "H96 C156 S12 N12 O12 Sn24 Te24 Mg12"
_cell_length_a       44.2393
_cell_length_b       44.6382
_cell_length_c       8.03716
_cell_angle_alpha    113.297
_cell_angle_beta     69.5486
_cell_angle_gamma    120.24

_symmetry_space_group_name_H-M    'P1'
_space_group_IT_number       1

loop_
  _space_group_symop_operation_xyz
  'x, y, z'

loop_
  _atom_site_type_symbol
  _atom_site_label
  _atom_site_symmetry_multiplicity
  _atom_site_fract_x
  _atom_site_fract_y
  _atom_site_fract_z
  _atom_site_occupancy
  H   H1        1.0  0.69333  0.39610  0.24796  1.0000
  H   H2        1.0  0.60174  0.29462  0.24180  1.0000
  H   H3        1.0  0.70441  0.30300  0.20879  1.0000
  H   H4        1.0  0.30802  0.60310  0.25728  1.0000
  H   H5        1.0  0.40073  0.70382  0.25913  1.0000
  H   H6        1.0  0.29810  0.69565  0.28545  1.0000
  H   H7        1.0  0.74665  0.41760  0.14693  1.0000
  H   H8        1.0  0.67735  0.24430  0.01619  1.0000
  H   H9        1.0  0.26734  0.58087  0.04999  1.0000
  H   H10       1.0  0.42751  0.67069  0.10297  1.0000
  H   H11       1.0  0.80982  0.45629  0.17400  1.0000
  H   H12       1.0  0.65080  0.18066  0.02484  1.0000
  H   H13       1.0  0.20263  0.54490  0.03813  1.0000
  H   H14       1.0  0.46571  0.64333  0.08523  1.0000
  H   H15       1.0  0.81096  0.37720  0.34698  1.0000
  H   H16       1.0  0.56290  0.19554  0.43828  1.0000
  H   H17       1.0  0.18004  0.62911  0.47786  1.0000
  H   H18       1.0  0.37585  0.56628  0.35513  1.0000
  H   H19       1.0  0.74840  0.33984  0.32931  1.0000
  H   H20       1.0  0.58933  0.25893  0.43058  1.0000
  H   H21       1.0  0.24424  0.66452  0.49333  1.0000
  H   H22       1.0  0.33815  0.59446  0.38135  1.0000
  H   H23       1.0  0.86483  0.40654  0.28624  1.0000
  H   H24       1.0  0.59659  0.46472  0.32522  1.0000
  H   H25       1.0  0.53843  0.13669  0.24884  1.0000
  H   H26       1.0  0.14161  0.60624  0.25957  1.0000
  H   H27       1.0  0.40890  0.53511  0.14441  1.0000
  H   H28       1.0  0.46726  0.86453  0.25465  1.0000
  H   H29       1.0  0.92696  0.42026  0.28677  1.0000
  H   H30       1.0  0.58326  0.51639  0.34156  1.0000
  H   H31       1.0  0.48745  0.07411  0.25844  1.0000
  H   H32       1.0  0.07569  0.59430  0.26627  1.0000
  H   H33       1.0  0.42063  0.48393  0.12985  1.0000
  H   H34       1.0  0.51754  0.92916  0.26496  1.0000
  H   H35       1.0  0.45429  0.02312  0.06188  1.0000
  H   H36       1.0  0.97767  0.41107  0.05256  1.0000
  H   H37       1.0  0.58011  0.57722  0.07775  1.0000
  H   H38       1.0  0.59095  0.00664  0.99394  1.0000
  H   H39       1.0  0.98797  0.56570  0.07437  1.0000
  H   H40       1.0  0.41557  0.42838  0.99585  1.0000
  H   H41       1.0  0.42764  0.03855  0.27318  1.0000
  H   H42       1.0  0.96022  0.39706  0.26211  1.0000
  H   H43       1.0  0.60052  0.55573  0.12293  1.0000
  H   H44       1.0  0.56962  0.96209  0.02155  1.0000
  H   H45       1.0  0.03450  0.58671  0.08097  1.0000
  H   H46       1.0  0.39833  0.43865  0.24175  1.0000
  H   H47       1.0  0.40746  0.99636  0.11073  1.0000
  H   H48       1.0  0.00091  0.39534  0.11847  1.0000
  H   H49       1.0  0.60902  0.60185  0.24430  1.0000
  H   H50       1.0  0.61013  0.99428  0.10671  1.0000
  H   H51       1.0  0.00740  0.61078  0.21713  1.0000
  H   H52       1.0  0.39525  0.39436  0.11530  1.0000
  H   H53       1.0  0.69022  0.39533  0.73625  1.0000
  H   H54       1.0  0.59707  0.29554  0.74641  1.0000
  H   H55       1.0  0.69755  0.30278  0.73825  1.0000
  H   H56       1.0  0.30490  0.60317  0.75449  1.0000
  H   H57       1.0  0.39663  0.70445  0.75951  1.0000
  H   H58       1.0  0.29364  0.69449  0.77641  1.0000
  H   H59       1.0  0.74200  0.42288  0.72717  1.0000
  H   H60       1.0  0.26564  0.57872  0.55226  1.0000
  H   H61       1.0  0.80625  0.45716  0.73164  1.0000
  H   H62       1.0  0.20136  0.53913  0.54498  1.0000
  H   H63       1.0  0.80912  0.36453  0.75977  1.0000
  H   H64       1.0  0.17478  0.62385  0.95360  1.0000
  H   H65       1.0  0.74586  0.33052  0.75694  1.0000
  H   H66       1.0  0.23880  0.66274  0.96851  1.0000
  H   H67       1.0  0.85610  0.40333  0.85305  1.0000
  H   H68       1.0  0.59169  0.46449  0.82127  1.0000
  H   H69       1.0  0.53614  0.13503  0.70426  1.0000
  H   H70       1.0  0.13778  0.59443  0.71111  1.0000
  H   H71       1.0  0.40246  0.53414  0.64985  1.0000
  H   H72       1.0  0.46015  0.86792  0.79687  1.0000
  H   H73       1.0  0.92204  0.41522  0.84200  1.0000
  H   H74       1.0  0.57813  0.51553  0.83848  1.0000
  H   H75       1.0  0.48594  0.07146  0.68764  1.0000
  H   H76       1.0  0.07489  0.58067  0.69322  1.0000
  H   H77       1.0  0.41366  0.48225  0.64547  1.0000
  H   H78       1.0  0.50935  0.93174  0.80577  1.0000
  H   H79       1.0  0.43615  0.03207  0.61280  1.0000
  H   H80       1.0  0.97856  0.40155  0.56341  1.0000
  H   H81       1.0  0.59626  0.55205  0.65454  1.0000
  H   H82       1.0  0.58414  0.99976  0.51118  1.0000
  H   H83       1.0  0.04233  0.58925  0.59514  1.0000
  H   H84       1.0  0.42383  0.42756  0.45461  1.0000
  H   H85       1.0  0.43234  0.04225  0.85822  1.0000
  H   H86       1.0  0.00201  0.39075  0.65825  1.0000
  H   H87       1.0  0.60627  0.59881  0.76209  1.0000
  H   H88       1.0  0.56183  0.95867  0.57856  1.0000
  H   H89       1.0  0.03099  0.60121  0.84376  1.0000
  H   H90       1.0  0.39036  0.42880  0.66210  1.0000
  H   H91       1.0  0.39477  0.00945  0.74960  1.0000
  H   H92       1.0  0.02603  0.42547  0.54031  1.0000
  H   H93       1.0  0.58235  0.57468  0.57401  1.0000
  H   H94       1.0  0.60229  0.99328  0.65663  1.0000
  H   H95       1.0  0.00791  0.60441  0.71171  1.0000
  H   H96       1.0  0.39864  0.38951  0.54788  1.0000
  C   C1        1.0  0.70386  0.35254  0.22889  1.0000
  C   C2        1.0  0.64511  0.34734  0.24359  1.0000
  C   C3        1.0  0.65139  0.29458  0.22365  1.0000
  C   C4        1.0  0.29903  0.64728  0.27332  1.0000
  C   C5        1.0  0.35721  0.65170  0.25911  1.0000
  C   C6        1.0  0.35175  0.70475  0.27213  1.0000
  C   C7        1.0  0.68182  0.36772  0.24064  1.0000
  C   C8        1.0  0.63023  0.31078  0.23657  1.0000
  C   C9        1.0  0.68815  0.31562  0.21759  1.0000
  C   C10       1.0  0.32038  0.63151  0.26301  1.0000
  C   C11       1.0  0.37224  0.68814  0.26359  1.0000
  C   C12       1.0  0.31488  0.68385  0.27984  1.0000
  C   C13       1.0  0.74216  0.37525  0.23508  1.0000
  C   C14       1.0  0.63514  0.25632  0.22195  1.0000
  C   C15       1.0  0.26058  0.62565  0.26999  1.0000
  C   C16       1.0  0.37976  0.63485  0.24468  1.0000
  C   C17       1.0  0.76029  0.40876  0.19418  1.0000
  C   C18       1.0  0.65233  0.23373  0.10942  1.0000
  C   C19       1.0  0.24819  0.59138  0.14462  1.0000
  C   C20       1.0  0.41618  0.64831  0.16236  1.0000
  C   C21       1.0  0.79592  0.43058  0.20719  1.0000
  C   C22       1.0  0.63761  0.19811  0.11308  1.0000
  C   C23       1.0  0.21221  0.57116  0.13689  1.0000
  C   C24       1.0  0.43771  0.63286  0.14975  1.0000
  C   C25       1.0  0.81547  0.41973  0.25832  1.0000
  C   C26       1.0  0.60463  0.18342  0.22744  1.0000
  C   C27       1.0  0.18725  0.58498  0.25284  1.0000
  C   C28       1.0  0.42336  0.60234  0.21373  1.0000
  C   C29       1.0  0.79754  0.38608  0.29853  1.0000
  C   C30       1.0  0.58732  0.20588  0.34100  1.0000
  C   C31       1.0  0.19933  0.61898  0.38110  1.0000
  C   C32       1.0  0.38685  0.58834  0.29371  1.0000
  C   C33       1.0  0.76179  0.36465  0.28777  1.0000
  C   C34       1.0  0.60238  0.24157  0.33732  1.0000
  C   C35       1.0  0.23539  0.63882  0.38957  1.0000
  C   C36       1.0  0.36571  0.60453  0.30968  1.0000
  C   C37       1.0  0.87276  0.43394  0.28250  1.0000
  C   C38       1.0  0.56956  0.44490  0.30104  1.0000
  C   C39       1.0  0.55757  0.12752  0.24578  1.0000
  C   C40       1.0  0.13127  0.57763  0.25156  1.0000
  C   C41       1.0  0.43507  0.55481  0.18139  1.0000
  C   C42       1.0  0.44764  0.87309  0.25793  1.0000
  C   C43       1.0  0.90965  0.45758  0.28721  1.0000
  C   C44       1.0  0.54812  0.45917  0.28695  1.0000
  C   C45       1.0  0.54270  0.09107  0.25476  1.0000
  C   C46       1.0  0.09378  0.55606  0.25284  1.0000
  C   C47       1.0  0.45609  0.54015  0.19654  1.0000
  C   C48       1.0  0.46190  0.90986  0.25619  1.0000
  C   C49       1.0  0.97038  0.50783  0.27941  1.0000
  C   C50       1.0  0.50119  0.46711  0.23167  1.0000
  C   C51       1.0  0.53313  0.03151  0.25661  1.0000
  C   C52       1.0  0.03332  0.50619  0.25990  1.0000
  C   C53       1.0  0.50217  0.53058  0.24776  1.0000
  C   C54       1.0  0.47049  0.96913  0.25565  1.0000
  C   C55       1.0  0.96992  0.47495  0.27442  1.0000
  C   C56       1.0  0.53153  0.50040  0.27586  1.0000
  C   C57       1.0  0.50064  0.03169  0.25589  1.0000
  C   C58       1.0  0.03364  0.53887  0.26741  1.0000
  C   C59       1.0  0.47140  0.49707  0.20074  1.0000
  C   C60       1.0  0.50274  0.96944  0.25958  1.0000
  C   C61       1.0  0.93454  0.44723  0.28375  1.0000
  C   C62       1.0  0.55800  0.49495  0.30570  1.0000
  C   C63       1.0  0.50734  0.06663  0.25757  1.0000
  C   C64       1.0  0.06887  0.56704  0.26236  1.0000
  C   C65       1.0  0.44582  0.50405  0.17075  1.0000
  C   C66       1.0  0.49697  0.93506  0.25941  1.0000
  C   C67       1.0  0.00131  0.53975  0.28308  1.0000
  C   C68       1.0  0.47136  0.46487  0.19439  1.0000
  C   C69       1.0  0.53448  0.00134  0.25978  1.0000
  C   C70       1.0  0.00219  0.47453  0.26504  1.0000
  C   C71       1.0  0.53169  0.53255  0.28357  1.0000
  C   C72       1.0  0.46886  0.99949  0.25454  1.0000
  C   C73       1.0  0.43136  0.01487  0.17180  1.0000
  C   C74       1.0  0.98448  0.41023  0.16907  1.0000
  C   C75       1.0  0.58904  0.57548  0.18402  1.0000
  C   C76       1.0  0.58527  0.99069  0.08488  1.0000
  C   C77       1.0  0.00798  0.58431  0.16249  1.0000
  C   C78       1.0  0.41163  0.42313  0.12622  1.0000
  C   C79       1.0  0.69939  0.35224  0.73856  1.0000
  C   C80       1.0  0.64134  0.34757  0.74290  1.0000
  C   C81       1.0  0.64603  0.29486  0.73572  1.0000
  C   C82       1.0  0.29521  0.64655  0.76607  1.0000
  C   C83       1.0  0.35355  0.65216  0.75876  1.0000
  C   C84       1.0  0.34742  0.70451  0.76736  1.0000
  C   C85       1.0  0.67816  0.36748  0.73970  1.0000
  C   C86       1.0  0.62560  0.31121  0.74150  1.0000
  C   C87       1.0  0.68257  0.31568  0.73521  1.0000
  C   C88       1.0  0.31691  0.63150  0.75949  1.0000
  C   C89       1.0  0.36823  0.68847  0.76199  1.0000
  C   C90       1.0  0.31063  0.68309  0.77251  1.0000
  C   C91       1.0  0.73794  0.37362  0.74346  1.0000
  C   C92       1.0  0.25699  0.62373  0.76010  1.0000
  C   C93       1.0  0.75613  0.40984  0.73787  1.0000
  C   C94       1.0  0.24572  0.58849  0.64238  1.0000
  C   C95       1.0  0.79240  0.42947  0.74003  1.0000
  C   C96       1.0  0.20988  0.56629  0.63675  1.0000
  C   C97       1.0  0.81244  0.41404  0.75051  1.0000
  C   C98       1.0  0.18385  0.57907  0.74557  1.0000
  C   C99       1.0  0.79461  0.37768  0.75382  1.0000
  C   C100      1.0  0.19488  0.61431  0.86365  1.0000
  C   C101      1.0  0.75844  0.35825  0.75084  1.0000
  C   C102      1.0  0.23083  0.63609  0.87142  1.0000
  C   C103      1.0  0.86737  0.42719  0.80310  1.0000
  C   C104      1.0  0.56488  0.44435  0.79507  1.0000
  C   C105      1.0  0.55401  0.12647  0.72136  1.0000
  C   C106      1.0  0.12745  0.56748  0.72850  1.0000
  C   C107      1.0  0.42913  0.55346  0.68129  1.0000
  C   C108      1.0  0.44103  0.87458  0.77765  1.0000
  C   C109      1.0  0.90497  0.44896  0.79556  1.0000
  C   C110      1.0  0.54296  0.45843  0.78396  1.0000
  C   C111      1.0  0.53852  0.08999  0.73065  1.0000
  C   C112      1.0  0.08981  0.54581  0.73739  1.0000
  C   C113      1.0  0.45007  0.53858  0.69490  1.0000
  C   C114      1.0  0.45527  0.91071  0.76657  1.0000
  C   C115      1.0  0.96619  0.49707  0.75812  1.0000
  C   C116      1.0  0.49553  0.46648  0.73502  1.0000
  C   C117      1.0  0.52720  0.03146  0.75369  1.0000
  C   C118      1.0  0.02821  0.49794  0.77033  1.0000
  C   C119      1.0  0.49690  0.52965  0.74354  1.0000
  C   C120      1.0  0.46531  0.96830  0.73544  1.0000
  C   C121      1.0  0.96487  0.46704  0.78909  1.0000
  C   C122      1.0  0.52615  0.49981  0.77591  1.0000
  C   C123      1.0  0.49592  0.03059  0.72852  1.0000
  C   C124      1.0  0.02992  0.52864  0.73996  1.0000
  C   C125      1.0  0.46565  0.49623  0.70453  1.0000
  C   C126      1.0  0.49648  0.96966  0.76007  1.0000
  C   C127      1.0  0.92928  0.44008  0.81339  1.0000
  C   C128      1.0  0.55270  0.49425  0.80433  1.0000
  C   C129      1.0  0.50395  0.06492  0.71457  1.0000
  C   C130      1.0  0.06598  0.55529  0.72038  1.0000
  C   C131      1.0  0.43951  0.50269  0.67721  1.0000
  C   C132      1.0  0.48986  0.93640  0.77879  1.0000
  C   C133      1.0  0.99782  0.52771  0.73388  1.0000
  C   C134      1.0  0.46524  0.46429  0.70436  1.0000
  C   C135      1.0  0.52800  0.00183  0.76690  1.0000
  C   C136      1.0  0.99678  0.46743  0.79082  1.0000
  C   C137      1.0  0.52646  0.53190  0.78122  1.0000
  C   C138      1.0  0.46436  0.99797  0.72016  1.0000
  C   C139      1.0  0.42381  0.02102  0.73274  1.0000
  C   C140      1.0  0.00116  0.41248  0.63097  1.0000
  C   C141      1.0  0.58665  0.57285  0.69581  1.0000
  C   C142      1.0  0.57777  0.98794  0.62270  1.0000
  C   C143      1.0  0.02065  0.58914  0.71549  1.0000
  C   C144      1.0  0.41101  0.41902  0.58210  1.0000
  S   S1        1.0  0.92806  0.50265  0.28772  1.0000
  S   S2        1.0  0.50582  0.43054  0.23128  1.0000
  S   S3        1.0  0.56974  0.07303  0.25399  1.0000
  S   S4        1.0  0.07537  0.51086  0.24915  1.0000
  S   S5        1.0  0.49793  0.56796  0.25710  1.0000
  S   S6        1.0  0.43439  0.92720  0.25428  1.0000
  S   S7        1.0  0.92446  0.49094  0.75217  1.0000
  S   S8        1.0  0.50049  0.42984  0.73101  1.0000
  S   S9        1.0  0.56368  0.07334  0.76229  1.0000
  S   S10       1.0  0.06978  0.50343  0.77624  1.0000
  S   S11       1.0  0.49269  0.56653  0.74576  1.0000
  S   S12       1.0  0.42907  0.92634  0.73513  1.0000
  N   N1        1.0  0.85113  0.44395  0.26778  1.0000
  N   N2        1.0  0.55790  0.41072  0.27816  1.0000
  N   N3        1.0  0.59153  0.14768  0.22857  1.0000
  N   N4        1.0  0.15144  0.56341  0.24021  1.0000
  N   N5        1.0  0.44637  0.58907  0.20900  1.0000
  N   N6        1.0  0.41398  0.85190  0.26220  1.0000
  N   N7        1.0  0.84868  0.43596  0.75276  1.0000
  N   N8        1.0  0.55385  0.41016  0.76878  1.0000
  N   N9        1.0  0.58726  0.14763  0.72883  1.0000
  N   N10       1.0  0.14804  0.55573  0.73830  1.0000
  N   N11       1.0  0.44121  0.58775  0.70569  1.0000
  N   N12       1.0  0.40829  0.85195  0.76305  1.0000
  O   O1        1.0  0.43539  0.99520  0.26175  1.0000
  O   O2        1.0  0.00593  0.44598  0.26771  1.0000
  O   O3        1.0  0.55972  0.56578  0.33480  1.0000
  O   O4        1.0  0.56628  0.00292  0.26547  1.0000
  O   O5        1.0  0.99984  0.57218  0.32125  1.0000
  O   O6        1.0  0.44483  0.43043  0.15945  1.0000
  O   O7        1.0  0.43170  0.99161  0.70237  1.0000
  O   O8        1.0  0.99696  0.43776  0.80860  1.0000
  O   O9        1.0  0.55414  0.56532  0.83279  1.0000
  O   O10       1.0  0.55896  0.00448  0.79007  1.0000
  O   O11       1.0  0.99293  0.55346  0.70843  1.0000
  O   O12       1.0  0.43682  0.43074  0.69053  1.0000
  C  Sn1       1.0  0.59593  0.23656  0.89057  1.0000
  C   C145      1.0  0.62810  0.25576  0.78776  1.0000
  C  Sn2       1.0  0.64617  0.23762  0.63808  1.0000
  C  Sn3       1.0  0.63177  0.19949  0.59006  1.0000
  C   C146      1.0  0.59961  0.18031  0.69281  1.0000
  C  Sn4       1.0  0.58152  0.19843  0.84256  1.0000
  O  Te1       1.0  0.61489  0.20229  0.03966  1.0000
  O  Te2       1.0  0.67831  0.25740  0.53740  1.0000
  O  Te3       1.0  0.64941  0.18081  0.44084  1.0000
  O  Te4       1.0  0.54941  0.17867  0.94317  1.0000
  Mg  Mg1       1.0  0.69234  0.21971  0.34598  1.0000
  Mg  Mg2       1.0  0.57191  0.16336  0.13456  1.0000
  C  Sn5       1.0  0.59157  0.34808  0.12926  1.0000
  C   C147      1.0  0.62209  0.36355  0.20350  1.0000
  C  Sn6       1.0  0.63041  0.39637  0.33988  1.0000
  C  Sn7       1.0  0.60776  0.41408  0.40347  1.0000
  C   C148      1.0  0.57726  0.39861  0.32926  1.0000
  C  Sn8       1.0  0.56892  0.36580  0.19285  1.0000
  O  Te5       1.0  0.54720  0.36822  0.99304  1.0000
  O  Te6       1.0  0.66107  0.41131  0.41196  1.0000
  O  Te7       1.0  0.61559  0.44693  0.53979  1.0000
  O  Te8       1.0  0.53828  0.35086  0.12080  1.0000
  Mg  Mg3       1.0  0.66034  0.45648  0.59528  1.0000
  Mg  Mg4       1.0  0.50240  0.35864  0.93755  1.0000
  C  Sn9       1.0  0.41654  0.64058  0.60946  1.0000
  C   C149      1.0  0.38055  0.63148  0.68952  1.0000
  C  Sn10      1.0  0.36317  0.60910  0.80732  1.0000
  C  Sn11      1.0  0.38216  0.59554  0.84600  1.0000
  C   C150      1.0  0.41813  0.60465  0.76599  1.0000
  C  Sn12      1.0  0.43553  0.62702  0.64814  1.0000
  O  Te9       1.0  0.43337  0.66299  0.49212  1.0000
  O  Te10      1.0  0.32718  0.60037  0.88567  1.0000
  O  Te11      1.0  0.36529  0.57311  0.96344  1.0000
  O  Te12      1.0  0.47150  0.63576  0.56984  1.0000
  Mg  Mg5       1.0  0.35255  0.51595  0.03673  1.0000
  Mg  Mg6       1.0  0.48273  0.66723  0.41884  1.0000
  C  Sn13      1.0  0.61886  0.41865  0.81122  1.0000
  C   C151      1.0  0.58787  0.40268  0.74028  1.0000
  C  Sn14      1.0  0.56939  0.36521  0.68565  1.0000
  C  Sn15      1.0  0.58214  0.34324  0.70238  1.0000
  C   C152      1.0  0.61310  0.35921  0.77332  1.0000
  C  Sn16      1.0  0.63161  0.39669  0.82795  1.0000
  O  Te13      1.0  0.63690  0.45616  0.86498  1.0000
  O  Te14      1.0  0.53848  0.34986  0.61508  1.0000
  O  Te15      1.0  0.56406  0.30570  0.64855  1.0000
  O  Te16      1.0  0.66250  0.41203  0.89852  1.0000
  Mg  Mg7       1.0  0.52322  0.29749  0.56067  1.0000
  Mg  Mg8       1.0  0.67776  0.46440  0.95305  1.0000
  C  Sn17      1.0  0.35700  0.76160  0.16782  1.0000
  C   C153      1.0  0.37021  0.74386  0.21378  1.0000
  C  Sn18      1.0  0.39819  0.76353  0.31095  1.0000
  C  Sn19      1.0  0.41327  0.80172  0.36340  1.0000
  C   C154      1.0  0.40006  0.81944  0.31747  1.0000
  C  Sn20      1.0  0.37208  0.79979  0.22026  1.0000
  O  Te17      1.0  0.32902  0.74140  0.07063  1.0000
  O  Te18      1.0  0.41095  0.74519  0.35528  1.0000
  O  Te19      1.0  0.44128  0.82192  0.46066  1.0000
  O  Te20      1.0  0.35931  0.81811  0.17597  1.0000
  Mg  Mg9       1.0  0.44945  0.78464  0.48913  1.0000
  Mg  Mg10      1.0  0.32081  0.77869  0.04222  1.0000
  C  Sn21      1.0  0.35090  0.78724  0.78128  1.0000
  C   C155      1.0  0.38442  0.81400  0.81756  1.0000
  C  Sn22      1.0  0.41054  0.80475  0.81357  1.0000
  C  Sn23      1.0  0.40302  0.76798  0.77233  1.0000
  C   C156      1.0  0.36952  0.74124  0.73605  1.0000
  C  Sn24      1.0  0.34338  0.75046  0.74004  1.0000
  O  Te21      1.0  0.32519  0.79710  0.78602  1.0000
  O  Te22      1.0  0.44385  0.83199  0.85037  1.0000
  O  Te23      1.0  0.42876  0.75813  0.76762  1.0000
  O  Te24      1.0  0.31010  0.72325  0.70324  1.0000
  Mg  Mg11      1.0  0.47011  0.80499  0.82727  1.0000
  Mg  Mg12      1.0  0.28382  0.75021  0.72621  1.0000
