data_image0
_chemical_formula_structural       H72C108S12N12O12SnCSn2CSnTe4Mg2SnCSn2CSnTe4Mg2SnCSn2CSnTe4Mg2SnCSn2CSnTe4Mg2SnCSn2CSnTe4Mg2SnCSn2CSnTe4Mg2SnCSn2CSnTe4Mg2SnCSn2CSnTe4Mg2SnCSn2CSnTe4Mg2SnCSn2CSnTe4Mg2SnCSn2CSnTe4Mg2SnCSn2CSnTe4Mg2
_chemical_formula_sum              "H72 C132 S12 N12 O12 Sn48 Te48 Mg24"
_cell_length_a       44.2393
_cell_length_b       44.6382
_cell_length_c       8.03716
_cell_angle_alpha    113.297
_cell_angle_beta     69.5486
_cell_angle_gamma    120.24

_symmetry_space_group_name_H-M    'P1'
_space_group_IT_number       1

loop_
  _space_group_symop_operation_xyz
  'x, y, z'

loop_
  _atom_site_type_symbol
  _atom_site_label
  _atom_site_symmetry_multiplicity
  _atom_site_fract_x
  _atom_site_fract_y
  _atom_site_fract_z
  _atom_site_occupancy
  H   H1        1.0  0.69333  0.39610  0.24796  1.0000
  H   H2        1.0  0.60174  0.29462  0.24180  1.0000
  H   H3        1.0  0.70441  0.30300  0.20879  1.0000
  H   H4        1.0  0.30802  0.60310  0.25728  1.0000
  H   H5        1.0  0.40073  0.70382  0.25913  1.0000
  H   H6        1.0  0.29810  0.69565  0.28545  1.0000
  H   H7        1.0  0.86483  0.40654  0.28624  1.0000
  H   H8        1.0  0.59659  0.46472  0.32522  1.0000
  H   H9        1.0  0.53843  0.13669  0.24884  1.0000
  H   H10       1.0  0.14161  0.60624  0.25957  1.0000
  H   H11       1.0  0.40890  0.53511  0.14441  1.0000
  H   H12       1.0  0.46726  0.86453  0.25465  1.0000
  H   H13       1.0  0.92696  0.42026  0.28677  1.0000
  H   H14       1.0  0.58326  0.51639  0.34156  1.0000
  H   H15       1.0  0.48745  0.07411  0.25844  1.0000
  H   H16       1.0  0.07569  0.59430  0.26627  1.0000
  H   H17       1.0  0.42063  0.48393  0.12985  1.0000
  H   H18       1.0  0.51754  0.92916  0.26496  1.0000
  H   H19       1.0  0.45429  0.02312  0.06188  1.0000
  H   H20       1.0  0.97767  0.41107  0.05256  1.0000
  H   H21       1.0  0.58011  0.57722  0.07775  1.0000
  H   H22       1.0  0.59095  0.00664  0.99394  1.0000
  H   H23       1.0  0.98797  0.56570  0.07437  1.0000
  H   H24       1.0  0.41557  0.42838  0.99585  1.0000
  H   H25       1.0  0.42764  0.03855  0.27318  1.0000
  H   H26       1.0  0.96022  0.39706  0.26211  1.0000
  H   H27       1.0  0.60052  0.55573  0.12293  1.0000
  H   H28       1.0  0.56962  0.96209  0.02155  1.0000
  H   H29       1.0  0.03450  0.58671  0.08097  1.0000
  H   H30       1.0  0.39833  0.43865  0.24175  1.0000
  H   H31       1.0  0.40746  0.99636  0.11073  1.0000
  H   H32       1.0  0.00091  0.39534  0.11847  1.0000
  H   H33       1.0  0.60902  0.60185  0.24430  1.0000
  H   H34       1.0  0.61013  0.99428  0.10671  1.0000
  H   H35       1.0  0.00740  0.61078  0.21713  1.0000
  H   H36       1.0  0.39525  0.39436  0.11530  1.0000
  H   H37       1.0  0.69022  0.39533  0.73625  1.0000
  H   H38       1.0  0.59707  0.29554  0.74641  1.0000
  H   H39       1.0  0.69755  0.30278  0.73825  1.0000
  H   H40       1.0  0.30490  0.60317  0.75449  1.0000
  H   H41       1.0  0.39663  0.70445  0.75951  1.0000
  H   H42       1.0  0.29364  0.69449  0.77641  1.0000
  H   H43       1.0  0.85610  0.40333  0.85305  1.0000
  H   H44       1.0  0.59169  0.46449  0.82127  1.0000
  H   H45       1.0  0.53614  0.13503  0.70426  1.0000
  H   H46       1.0  0.13778  0.59443  0.71111  1.0000
  H   H47       1.0  0.40246  0.53414  0.64985  1.0000
  H   H48       1.0  0.46015  0.86792  0.79687  1.0000
  H   H49       1.0  0.92204  0.41522  0.84200  1.0000
  H   H50       1.0  0.57813  0.51553  0.83848  1.0000
  H   H51       1.0  0.48594  0.07146  0.68764  1.0000
  H   H52       1.0  0.07489  0.58067  0.69322  1.0000
  H   H53       1.0  0.41366  0.48225  0.64547  1.0000
  H   H54       1.0  0.50935  0.93174  0.80577  1.0000
  H   H55       1.0  0.43615  0.03207  0.61280  1.0000
  H   H56       1.0  0.97856  0.40155  0.56341  1.0000
  H   H57       1.0  0.59626  0.55205  0.65454  1.0000
  H   H58       1.0  0.58414  0.99976  0.51118  1.0000
  H   H59       1.0  0.04233  0.58925  0.59514  1.0000
  H   H60       1.0  0.42383  0.42756  0.45461  1.0000
  H   H61       1.0  0.43234  0.04225  0.85822  1.0000
  H   H62       1.0  0.00201  0.39075  0.65825  1.0000
  H   H63       1.0  0.60627  0.59881  0.76209  1.0000
  H   H64       1.0  0.56183  0.95867  0.57856  1.0000
  H   H65       1.0  0.03099  0.60121  0.84376  1.0000
  H   H66       1.0  0.39036  0.42880  0.66210  1.0000
  H   H67       1.0  0.39477  0.00945  0.74960  1.0000
  H   H68       1.0  0.02603  0.42547  0.54031  1.0000
  H   H69       1.0  0.58235  0.57468  0.57401  1.0000
  H   H70       1.0  0.60229  0.99328  0.65663  1.0000
  H   H71       1.0  0.00791  0.60441  0.71171  1.0000
  H   H72       1.0  0.39864  0.38951  0.54788  1.0000
  C   C1        1.0  0.70386  0.35254  0.22889  1.0000
  C   C2        1.0  0.64511  0.34734  0.24359  1.0000
  C   C3        1.0  0.65139  0.29458  0.22365  1.0000
  C   C4        1.0  0.29903  0.64728  0.27332  1.0000
  C   C5        1.0  0.35721  0.65170  0.25911  1.0000
  C   C6        1.0  0.35175  0.70475  0.27213  1.0000
  C   C7        1.0  0.68182  0.36772  0.24064  1.0000
  C   C8        1.0  0.63023  0.31078  0.23657  1.0000
  C   C9        1.0  0.68815  0.31562  0.21759  1.0000
  C   C10       1.0  0.32038  0.63151  0.26301  1.0000
  C   C11       1.0  0.37224  0.68814  0.26359  1.0000
  C   C12       1.0  0.31488  0.68385  0.27984  1.0000
  C   C13       1.0  0.87276  0.43394  0.28250  1.0000
  C   C14       1.0  0.56956  0.44490  0.30104  1.0000
  C   C15       1.0  0.55757  0.12752  0.24578  1.0000
  C   C16       1.0  0.13127  0.57763  0.25156  1.0000
  C   C17       1.0  0.43507  0.55481  0.18139  1.0000
  C   C18       1.0  0.44764  0.87309  0.25793  1.0000
  C   C19       1.0  0.90965  0.45758  0.28721  1.0000
  C   C20       1.0  0.54812  0.45917  0.28695  1.0000
  C   C21       1.0  0.54270  0.09107  0.25476  1.0000
  C   C22       1.0  0.09378  0.55606  0.25284  1.0000
  C   C23       1.0  0.45609  0.54015  0.19654  1.0000
  C   C24       1.0  0.46190  0.90986  0.25619  1.0000
  C   C25       1.0  0.97038  0.50783  0.27941  1.0000
  C   C26       1.0  0.50119  0.46711  0.23167  1.0000
  C   C27       1.0  0.53313  0.03151  0.25661  1.0000
  C   C28       1.0  0.03332  0.50619  0.25990  1.0000
  C   C29       1.0  0.50217  0.53058  0.24776  1.0000
  C   C30       1.0  0.47049  0.96913  0.25565  1.0000
  C   C31       1.0  0.96992  0.47495  0.27442  1.0000
  C   C32       1.0  0.53153  0.50040  0.27586  1.0000
  C   C33       1.0  0.50064  0.03169  0.25589  1.0000
  C   C34       1.0  0.03364  0.53887  0.26741  1.0000
  C   C35       1.0  0.47140  0.49707  0.20074  1.0000
  C   C36       1.0  0.50274  0.96944  0.25958  1.0000
  C   C37       1.0  0.93454  0.44723  0.28375  1.0000
  C   C38       1.0  0.55800  0.49495  0.30570  1.0000
  C   C39       1.0  0.50734  0.06663  0.25757  1.0000
  C   C40       1.0  0.06887  0.56704  0.26236  1.0000
  C   C41       1.0  0.44582  0.50405  0.17075  1.0000
  C   C42       1.0  0.49697  0.93506  0.25941  1.0000
  C   C43       1.0  0.00131  0.53975  0.28308  1.0000
  C   C44       1.0  0.47136  0.46487  0.19439  1.0000
  C   C45       1.0  0.53448  0.00134  0.25978  1.0000
  C   C46       1.0  0.00219  0.47453  0.26504  1.0000
  C   C47       1.0  0.53169  0.53255  0.28357  1.0000
  C   C48       1.0  0.46886  0.99949  0.25454  1.0000
  C   C49       1.0  0.43136  0.01487  0.17180  1.0000
  C   C50       1.0  0.98448  0.41023  0.16907  1.0000
  C   C51       1.0  0.58904  0.57548  0.18402  1.0000
  C   C52       1.0  0.58527  0.99069  0.08488  1.0000
  C   C53       1.0  0.00798  0.58431  0.16249  1.0000
  C   C54       1.0  0.41163  0.42313  0.12622  1.0000
  C   C55       1.0  0.69939  0.35224  0.73856  1.0000
  C   C56       1.0  0.64134  0.34757  0.74290  1.0000
  C   C57       1.0  0.64603  0.29486  0.73572  1.0000
  C   C58       1.0  0.29521  0.64655  0.76607  1.0000
  C   C59       1.0  0.35355  0.65216  0.75876  1.0000
  C   C60       1.0  0.34742  0.70451  0.76736  1.0000
  C   C61       1.0  0.67816  0.36748  0.73970  1.0000
  C   C62       1.0  0.62560  0.31121  0.74150  1.0000
  C   C63       1.0  0.68257  0.31568  0.73521  1.0000
  C   C64       1.0  0.31691  0.63150  0.75949  1.0000
  C   C65       1.0  0.36823  0.68847  0.76199  1.0000
  C   C66       1.0  0.31063  0.68309  0.77251  1.0000
  C   C67       1.0  0.86737  0.42719  0.80310  1.0000
  C   C68       1.0  0.56488  0.44435  0.79507  1.0000
  C   C69       1.0  0.55401  0.12647  0.72136  1.0000
  C   C70       1.0  0.12745  0.56748  0.72850  1.0000
  C   C71       1.0  0.42913  0.55346  0.68129  1.0000
  C   C72       1.0  0.44103  0.87458  0.77765  1.0000
  C   C73       1.0  0.90497  0.44896  0.79556  1.0000
  C   C74       1.0  0.54296  0.45843  0.78396  1.0000
  C   C75       1.0  0.53852  0.08999  0.73065  1.0000
  C   C76       1.0  0.08981  0.54581  0.73739  1.0000
  C   C77       1.0  0.45007  0.53858  0.69490  1.0000
  C   C78       1.0  0.45527  0.91071  0.76657  1.0000
  C   C79       1.0  0.96619  0.49707  0.75812  1.0000
  C   C80       1.0  0.49553  0.46648  0.73502  1.0000
  C   C81       1.0  0.52720  0.03146  0.75369  1.0000
  C   C82       1.0  0.02821  0.49794  0.77033  1.0000
  C   C83       1.0  0.49690  0.52965  0.74354  1.0000
  C   C84       1.0  0.46531  0.96830  0.73544  1.0000
  C   C85       1.0  0.96487  0.46704  0.78909  1.0000
  C   C86       1.0  0.52615  0.49981  0.77591  1.0000
  C   C87       1.0  0.49592  0.03059  0.72852  1.0000
  C   C88       1.0  0.02992  0.52864  0.73996  1.0000
  C   C89       1.0  0.46565  0.49623  0.70453  1.0000
  C   C90       1.0  0.49648  0.96966  0.76007  1.0000
  C   C91       1.0  0.92928  0.44008  0.81339  1.0000
  C   C92       1.0  0.55270  0.49425  0.80433  1.0000
  C   C93       1.0  0.50395  0.06492  0.71457  1.0000
  C   C94       1.0  0.06598  0.55529  0.72038  1.0000
  C   C95       1.0  0.43951  0.50269  0.67721  1.0000
  C   C96       1.0  0.48986  0.93640  0.77879  1.0000
  C   C97       1.0  0.99782  0.52771  0.73388  1.0000
  C   C98       1.0  0.46524  0.46429  0.70436  1.0000
  C   C99       1.0  0.52800  0.00183  0.76690  1.0000
  C   C100      1.0  0.99678  0.46743  0.79082  1.0000
  C   C101      1.0  0.52646  0.53190  0.78122  1.0000
  C   C102      1.0  0.46436  0.99797  0.72016  1.0000
  C   C103      1.0  0.42381  0.02102  0.73274  1.0000
  C   C104      1.0  0.00116  0.41248  0.63097  1.0000
  C   C105      1.0  0.58665  0.57285  0.69581  1.0000
  C   C106      1.0  0.57777  0.98794  0.62270  1.0000
  C   C107      1.0  0.02065  0.58914  0.71549  1.0000
  C   C108      1.0  0.41101  0.41902  0.58210  1.0000
  S   S1        1.0  0.92806  0.50265  0.28772  1.0000
  S   S2        1.0  0.50582  0.43054  0.23128  1.0000
  S   S3        1.0  0.56974  0.07303  0.25399  1.0000
  S   S4        1.0  0.07537  0.51086  0.24915  1.0000
  S   S5        1.0  0.49793  0.56796  0.25710  1.0000
  S   S6        1.0  0.43439  0.92720  0.25428  1.0000
  S   S7        1.0  0.92446  0.49094  0.75217  1.0000
  S   S8        1.0  0.50049  0.42984  0.73101  1.0000
  S   S9        1.0  0.56368  0.07334  0.76229  1.0000
  S   S10       1.0  0.06978  0.50343  0.77624  1.0000
  S   S11       1.0  0.49269  0.56653  0.74576  1.0000
  S   S12       1.0  0.42907  0.92634  0.73513  1.0000
  N   N1        1.0  0.85113  0.44395  0.26778  1.0000
  N   N2        1.0  0.55790  0.41072  0.27816  1.0000
  N   N3        1.0  0.59153  0.14768  0.22857  1.0000
  N   N4        1.0  0.15144  0.56341  0.24021  1.0000
  N   N5        1.0  0.44637  0.58907  0.20900  1.0000
  N   N6        1.0  0.41398  0.85190  0.26220  1.0000
  N   N7        1.0  0.84868  0.43596  0.75276  1.0000
  N   N8        1.0  0.55385  0.41016  0.76878  1.0000
  N   N9        1.0  0.58726  0.14763  0.72883  1.0000
  N   N10       1.0  0.14804  0.55573  0.73830  1.0000
  N   N11       1.0  0.44121  0.58775  0.70569  1.0000
  N   N12       1.0  0.40829  0.85195  0.76305  1.0000
  O   O1        1.0  0.43539  0.99520  0.26175  1.0000
  O   O2        1.0  0.00593  0.44598  0.26771  1.0000
  O   O3        1.0  0.55972  0.56578  0.33480  1.0000
  O   O4        1.0  0.56628  0.00292  0.26547  1.0000
  O   O5        1.0  0.99984  0.57218  0.32125  1.0000
  O   O6        1.0  0.44483  0.43043  0.15945  1.0000
  O   O7        1.0  0.43170  0.99161  0.70237  1.0000
  O   O8        1.0  0.99696  0.43776  0.80860  1.0000
  O   O9        1.0  0.55414  0.56532  0.83279  1.0000
  O   O10       1.0  0.55896  0.00448  0.79007  1.0000
  O   O11       1.0  0.99293  0.55346  0.70843  1.0000
  O   O12       1.0  0.43682  0.43074  0.69053  1.0000
  C  Sn1       1.0  0.78529  0.43262  0.25303  1.0000
  C   C109      1.0  0.80808  0.42603  0.30392  1.0000
  C  Sn2       1.0  0.79898  0.39134  0.30650  1.0000
  C  Sn3       1.0  0.76643  0.36264  0.25707  1.0000
  C   C110      1.0  0.74366  0.36925  0.20618  1.0000
  C  Sn4       1.0  0.75274  0.40393  0.20359  1.0000
  O  Te1       1.0  0.79494  0.46751  0.25142  1.0000
  O  Te2       1.0  0.82219  0.38541  0.35793  1.0000
  O  Te3       1.0  0.75680  0.32774  0.25873  1.0000
  O  Te4       1.0  0.72956  0.40987  0.15218  1.0000
  Mg  Mg1       1.0  0.79726  0.33317  0.33861  1.0000
  Mg  Mg2       1.0  0.75446  0.46208  0.17135  1.0000
  C  Sn5       1.0  0.62251  0.40401  0.40683  1.0000
  C   C111      1.0  0.61794  0.36846  0.31716  1.0000
  C  Sn6       1.0  0.59532  0.34671  0.18930  1.0000
  C  Sn7       1.0  0.57688  0.36080  0.15015  1.0000
  C   C112      1.0  0.58146  0.39633  0.23977  1.0000
  C  Sn8       1.0  0.60408  0.41810  0.36769  1.0000
  O  Te5       1.0  0.64526  0.42526  0.53415  1.0000
  O  Te6       1.0  0.59117  0.31124  0.10145  1.0000
  O  Te7       1.0  0.55412  0.33951  0.02273  1.0000
  O  Te8       1.0  0.60823  0.45354  0.45548  1.0000
  Mg  Mg3       1.0  0.52067  0.34585  0.93876  1.0000
  Mg  Mg4       1.0  0.64216  0.47192  0.61812  1.0000
  C  Sn9       1.0  0.58309  0.21065  0.30947  1.0000
  C   C113      1.0  0.59687  0.18508  0.20969  1.0000
  C  Sn10      1.0  0.63254  0.19573  0.12084  1.0000
  C  Sn11      1.0  0.65491  0.23271  0.13203  1.0000
  C   C114      1.0  0.64113  0.25826  0.23178  1.0000
  C  Sn12      1.0  0.60546  0.24763  0.32066  1.0000
  O  Te9       1.0  0.54735  0.19940  0.39722  1.0000
  O  Te10      1.0  0.64571  0.16967  0.02185  1.0000
  O  Te11      1.0  0.69067  0.24395  0.04417  1.0000
  O  Te12      1.0  0.59229  0.27367  0.41962  1.0000
  Mg  Mg5       1.0  0.65965  0.25130  0.92611  1.0000
  Mg  Mg6       1.0  0.54180  0.24503  0.51549  1.0000
  C  Sn13      1.0  0.21918  0.56876  0.16532  1.0000
  C   C115      1.0  0.19108  0.57821  0.27144  1.0000
  C  Sn14      1.0  0.19788  0.61390  0.37210  1.0000
  C  Sn15      1.0  0.23350  0.64072  0.36650  1.0000
  C   C116      1.0  0.26158  0.63127  0.26041  1.0000
  C  Sn16      1.0  0.25480  0.59558  0.15972  1.0000
  O  Te13      1.0  0.21176  0.53291  0.06578  1.0000
  O  Te14      1.0  0.16935  0.62269  0.47724  1.0000
  O  Te15      1.0  0.24090  0.67659  0.46616  1.0000
  O  Te16      1.0  0.28331  0.58679  0.05461  1.0000
  Mg  Mg7       1.0  0.19304  0.67522  0.58888  1.0000
  Mg  Mg8       1.0  0.22308  0.58723  0.94284  1.0000
  C  Sn17      1.0  0.42034  0.63999  0.10449  1.0000
  C   C117      1.0  0.38428  0.63041  0.18409  1.0000
  C  Sn18      1.0  0.36731  0.60829  0.30308  1.0000
  C  Sn19      1.0  0.38678  0.59550  0.34345  1.0000
  C   C118      1.0  0.42282  0.60508  0.26389  1.0000
  C  Sn20      1.0  0.43982  0.62719  0.14485  1.0000
  O  Te17      1.0  0.40020  0.71508  0.98593  1.0000
  O  Te18      1.0  0.33123  0.59908  0.38095  1.0000
  O  Te19      1.0  0.37032  0.57334  0.46211  1.0000
  O  Te20      1.0  0.47587  0.63641  0.06704  1.0000
  Mg  Mg9       1.0  0.32071  0.56825  0.53413  1.0000
  Mg  Mg10      1.0  0.44985  0.72021  0.91393  1.0000
  C  Sn21      1.0  0.35617  0.78706  0.27476  1.0000
  C   C119      1.0  0.38923  0.81402  0.31690  1.0000
  C  Sn22      1.0  0.41488  0.80505  0.32183  1.0000
  C  Sn23      1.0  0.40733  0.76836  0.28373  1.0000
  C   C120      1.0  0.37429  0.74142  0.24159  1.0000
  C  Sn24      1.0  0.34863  0.75037  0.23666  1.0000
  O  Te21      1.0  0.33093  0.79666  0.27060  1.0000
  O  Te22      1.0  0.44773  0.83247  0.36436  1.0000
  O  Te23      1.0  0.43261  0.75878  0.28793  1.0000
  O  Te24      1.0  0.31579  0.72297  0.19413  1.0000
  Mg  Mg11      1.0  0.47345  0.80583  0.35280  1.0000
  Mg  Mg12      1.0  0.29006  0.74958  0.20556  1.0000
  C  Sn25      1.0  0.76408  0.36368  0.80766  1.0000
  C   C121      1.0  0.74070  0.37471  0.79451  1.0000
  C  Sn26      1.0  0.75388  0.40568  0.73848  1.0000
  C  Sn27      1.0  0.79120  0.42605  0.69457  1.0000
  C   C122      1.0  0.81455  0.41501  0.70770  1.0000
  C  Sn28      1.0  0.80140  0.38405  0.76375  1.0000
  O  Te25      1.0  0.75031  0.33262  0.86395  1.0000
  O  Te26      1.0  0.72999  0.41617  0.72644  1.0000
  O  Te27      1.0  0.80495  0.45712  0.63825  1.0000
  O  Te28      1.0  0.82527  0.37355  0.77577  1.0000
  Mg  Mg13      1.0  0.76168  0.46045  0.64310  1.0000
  Mg  Mg14      1.0  0.79360  0.32927  0.85900  1.0000
  C  Sn29      1.0  0.56406  0.35151  0.72253  1.0000
  C   C123      1.0  0.56903  0.38730  0.80641  1.0000
  C  Sn30      1.0  0.60180  0.41390  0.85391  1.0000
  C  Sn31      1.0  0.63021  0.40453  0.81669  1.0000
  C   C124      1.0  0.62524  0.36876  0.73283  1.0000
  C  Sn32      1.0  0.59247  0.34215  0.68531  1.0000
  O  Te29      1.0  0.53108  0.32537  0.67623  1.0000
  O  Te30      1.0  0.60612  0.44949  0.93771  1.0000
  O  Te31      1.0  0.66321  0.43070  0.86308  1.0000
  O  Te32      1.0  0.58815  0.30657  0.60153  1.0000
  Mg  Mg15      1.0  0.65605  0.47546  0.97484  1.0000
  Mg  Mg16      1.0  0.53824  0.28058  0.56426  1.0000
  C  Sn33      1.0  0.57780  0.20961  0.80521  1.0000
  C   C125      1.0  0.59289  0.18501  0.71014  1.0000
  C  Sn34      1.0  0.62916  0.19694  0.63232  1.0000
  C  Sn35      1.0  0.65082  0.23424  0.64997  1.0000
  C   C126      1.0  0.63573  0.25882  0.74501  1.0000
  C  Sn36      1.0  0.59945  0.24691  0.82286  1.0000
  O  Te33      1.0  0.54148  0.19707  0.88192  1.0000
  O  Te34      1.0  0.64364  0.17184  0.53786  1.0000
  O  Te35      1.0  0.68717  0.24676  0.57316  1.0000
  O  Te36      1.0  0.58498  0.27199  0.91730  1.0000
  Mg  Mg17      1.0  0.69451  0.20212  0.45753  1.0000
  Mg  Mg18      1.0  0.53411  0.24175  0.99776  1.0000
  C  Sn37      1.0  0.21743  0.56523  0.66796  1.0000
  C   C127      1.0  0.18835  0.57338  0.76854  1.0000
  C  Sn38      1.0  0.19350  0.60909  0.85797  1.0000
  C  Sn39      1.0  0.22843  0.63723  0.84654  1.0000
  C   C128      1.0  0.25748  0.62907  0.74598  1.0000
  C  Sn40      1.0  0.25236  0.59337  0.65653  1.0000
  O  Te37      1.0  0.21166  0.52934  0.57965  1.0000
  O  Te38      1.0  0.16401  0.61657  0.95775  1.0000
  O  Te39      1.0  0.23418  0.67314  0.93496  1.0000
  O  Te40      1.0  0.28182  0.58588  0.55677  1.0000
  Mg  Mg19      1.0  0.22209  0.61675  0.05403  1.0000
  Mg  Mg20      1.0  0.26035  0.53276  0.46036  1.0000
  C  Sn41      1.0  0.43368  0.64471  0.69949  1.0000
  C   C129      1.0  0.42343  0.61468  0.75747  1.0000
  C  Sn42      1.0  0.38740  0.59188  0.79913  1.0000
  C  Sn43      1.0  0.36107  0.59922  0.78237  1.0000
  C   C130      1.0  0.37132  0.62922  0.72439  1.0000
  C  Sn44      1.0  0.40735  0.65205  0.68273  1.0000
  O  Te41      1.0  0.46985  0.66714  0.65857  1.0000
  O  Te42      1.0  0.37780  0.56203  0.85689  1.0000
  O  Te43      1.0  0.32487  0.57675  0.82335  1.0000
  O  Te44      1.0  0.41695  0.68187  0.62497  1.0000
  Mg  Mg21      1.0  0.32510  0.53944  0.89657  1.0000
  Mg  Mg22      1.0  0.46964  0.70447  0.58517  1.0000
  C  Sn45      1.0  0.39947  0.77721  0.86158  1.0000
  C   C131      1.0  0.36625  0.75028  0.82164  1.0000
  C  Sn46      1.0  0.34761  0.75517  0.73294  1.0000
  C  Sn47      1.0  0.36249  0.78766  0.68301  1.0000
  C   C132      1.0  0.39569  0.81457  0.72291  1.0000
  C  Sn48      1.0  0.41435  0.80970  0.81164  1.0000
  O  Te45      1.0  0.41763  0.77174  0.95033  1.0000
  O  Te46      1.0  0.31444  0.72786  0.69452  1.0000
  O  Te47      1.0  0.34430  0.79311  0.59419  1.0000
  O  Te48      1.0  0.44751  0.83699  0.85003  1.0000
  Mg  Mg23      1.0  0.29997  0.74798  0.57141  1.0000
  Mg  Mg24      1.0  0.46200  0.81689  0.97304  1.0000
