data_image0
_chemical_formula_structural       H60C108S12N12SnCSn2CSnTe4Mg2SnCSn2CSnTe4Mg2SnCSn2CSnTe4Mg2SnCSn2CSnTe4Mg2SnCSn2CSnTe4Mg2SnCSn2CSnTe4Mg2
_chemical_formula_sum              "H60 C120 S12 N12 Sn24 Te24 Mg12"
_cell_length_a       40.1322
_cell_length_b       40.2416
_cell_length_c       7.98222
_cell_angle_alpha    104.661
_cell_angle_beta     94.5702
_cell_angle_gamma    120.048

_symmetry_space_group_name_H-M    'P1'
_space_group_IT_number       1

loop_
  _space_group_symop_operation_xyz
  'x, y, z'

loop_
  _atom_site_type_symbol
  _atom_site_label
  _atom_site_symmetry_multiplicity
  _atom_site_fract_x
  _atom_site_fract_y
  _atom_site_fract_z
  _atom_site_occupancy
  H   H1        1.0  0.70041  0.40500  0.24825  1.0000
  H   H2        1.0  0.59600  0.29475  0.23391  1.0000
  H   H3        1.0  0.70433  0.29842  0.21091  1.0000
  H   H4        1.0  0.30236  0.59570  0.23368  1.0000
  H   H5        1.0  0.40602  0.70598  0.23323  1.0000
  H   H6        1.0  0.29636  0.69963  0.25007  1.0000
  H   H7        1.0  0.57224  0.31906  0.04025  1.0000
  H   H8        1.0  0.24060  0.56371  0.07336  1.0000
  H   H9        1.0  0.43042  0.67196  0.15813  1.0000
  H   H10       1.0  0.53046  0.34869  0.06057  1.0000
  H   H11       1.0  0.17106  0.52323  0.09718  1.0000
  H   H12       1.0  0.46809  0.63905  0.17324  1.0000
  H   H13       1.0  0.62539  0.45727  0.47081  1.0000
  H   H14       1.0  0.18424  0.63225  0.44184  1.0000
  H   H15       1.0  0.37273  0.54601  0.31676  1.0000
  H   H16       1.0  0.66649  0.42724  0.45609  1.0000
  H   H17       1.0  0.25394  0.67262  0.42224  1.0000
  H   H18       1.0  0.33653  0.57918  0.31196  1.0000
  H   H19       1.0  0.89216  0.41437  0.35725  1.0000
  H   H20       1.0  0.59306  0.47514  0.24770  1.0000
  H   H21       1.0  0.52509  0.12135  0.32089  1.0000
  H   H22       1.0  0.11907  0.59290  0.25094  1.0000
  H   H23       1.0  0.41115  0.52849  0.35312  1.0000
  H   H24       1.0  0.47733  0.88211  0.22196  1.0000
  H   H25       1.0  0.42655  0.47205  0.36441  1.0000
  H   H26       1.0  0.53076  0.95190  0.18232  1.0000
  H   H27       1.0  0.04553  0.57474  0.22230  1.0000
  H   H28       1.0  0.57641  0.53003  0.23196  1.0000
  H   H29       1.0  0.47207  0.05197  0.35541  1.0000
  H   H30       1.0  0.96505  0.43168  0.38190  1.0000
  H   H31       1.0  0.69630  0.40437  0.74708  1.0000
  H   H32       1.0  0.59217  0.29382  0.73567  1.0000
  H   H33       1.0  0.70076  0.29830  0.70847  1.0000
  H   H34       1.0  0.29959  0.59574  0.73953  1.0000
  H   H35       1.0  0.40160  0.70587  0.72624  1.0000
  H   H36       1.0  0.29198  0.69866  0.75032  1.0000
  H   H37       1.0  0.56691  0.31847  0.55261  1.0000
  H   H38       1.0  0.66327  0.23493  0.57953  1.0000
  H   H39       1.0  0.23759  0.56346  0.57140  1.0000
  H   H40       1.0  0.52706  0.35015  0.57277  1.0000
  H   H41       1.0  0.63146  0.16436  0.58273  1.0000
  H   H42       1.0  0.16803  0.52179  0.59358  1.0000
  H   H43       1.0  0.62581  0.45997  0.96443  1.0000
  H   H44       1.0  0.54866  0.17925  0.85159  1.0000
  H   H45       1.0  0.18048  0.62911  0.95150  1.0000
  H   H46       1.0  0.66476  0.42758  0.95026  1.0000
  H   H47       1.0  0.58107  0.24954  0.85502  1.0000
  H   H48       1.0  0.25004  0.67056  0.93322  1.0000
  H   H49       1.0  0.88668  0.41116  0.84087  1.0000
  H   H50       1.0  0.59397  0.47813  0.74595  1.0000
  H   H51       1.0  0.52432  0.11986  0.82060  1.0000
  H   H52       1.0  0.11553  0.59008  0.75660  1.0000
  H   H53       1.0  0.41318  0.53326  0.85855  1.0000
  H   H54       1.0  0.47608  0.88059  0.72233  1.0000
  H   H55       1.0  0.42901  0.47783  0.87186  1.0000
  H   H56       1.0  0.53077  0.95092  0.68352  1.0000
  H   H57       1.0  0.04308  0.57313  0.73138  1.0000
  H   H58       1.0  0.57755  0.53413  0.72556  1.0000
  H   H59       1.0  0.47243  0.05127  0.85611  1.0000
  H   H60       1.0  0.95949  0.42806  0.87254  1.0000
  C   C1        1.0  0.70766  0.35437  0.22879  1.0000
  C   C2        1.0  0.64568  0.35174  0.23995  1.0000
  C   C3        1.0  0.64788  0.29128  0.22324  1.0000
  C   C4        1.0  0.29456  0.64471  0.24022  1.0000
  C   C5        1.0  0.35735  0.64829  0.23399  1.0000
  C   C6        1.0  0.35333  0.70746  0.24055  1.0000
  C   C7        1.0  0.68601  0.37327  0.24049  1.0000
  C   C8        1.0  0.62714  0.31101  0.23175  1.0000
  C   C9        1.0  0.68800  0.31340  0.21969  1.0000
  C   C10       1.0  0.31696  0.62687  0.23419  1.0000
  C   C11       1.0  0.37497  0.68869  0.23598  1.0000
  C   C12       1.0  0.31318  0.68514  0.24351  1.0000
  C   C13       1.0  0.62233  0.37088  0.24699  1.0000
  C   C14       1.0  0.25260  0.62122  0.24683  1.0000
  C   C15       1.0  0.38027  0.62874  0.23588  1.0000
  C   C16       1.0  0.58367  0.34913  0.13664  1.0000
  C   C17       1.0  0.22854  0.57876  0.15647  1.0000
  C   C18       1.0  0.41792  0.64505  0.19812  1.0000
  C   C19       1.0  0.56024  0.36548  0.14676  1.0000
  C   C20       1.0  0.18953  0.55594  0.16811  1.0000
  C   C21       1.0  0.43923  0.62657  0.20459  1.0000
  C   C22       1.0  0.57529  0.40505  0.26514  1.0000
  C   C23       1.0  0.17263  0.57503  0.26719  1.0000
  C   C24       1.0  0.42387  0.59069  0.24805  1.0000
  C   C25       1.0  0.61414  0.42729  0.37410  1.0000
  C   C26       1.0  0.19639  0.61753  0.35730  1.0000
  C   C27       1.0  0.38578  0.57360  0.28177  1.0000
  C   C28       1.0  0.63716  0.41030  0.36546  1.0000
  C   C29       1.0  0.23565  0.64006  0.34693  1.0000
  C   C30       1.0  0.36494  0.59245  0.27695  1.0000
  C   C31       1.0  0.89915  0.43952  0.30628  1.0000
  C   C32       1.0  0.56348  0.45622  0.26925  1.0000
  C   C33       1.0  0.54210  0.10801  0.27194  1.0000
  C   C34       1.0  0.11010  0.56398  0.27329  1.0000
  C   C35       1.0  0.43818  0.54413  0.30676  1.0000
  C   C36       1.0  0.45838  0.89433  0.24814  1.0000
  C   C37       1.0  0.93994  0.46442  0.30483  1.0000
  C   C38       1.0  0.53952  0.47340  0.28465  1.0000
  C   C39       1.0  0.52721  0.06756  0.27382  1.0000
  C   C40       1.0  0.07017  0.54093  0.29048  1.0000
  C   C41       1.0  0.46304  0.52814  0.30696  1.0000
  C   C42       1.0  0.47494  0.93589  0.25807  1.0000
  C   C43       1.0  0.45415  0.49203  0.33458  1.0000
  C   C44       1.0  0.51076  0.96141  0.22198  1.0000
  C   C45       1.0  0.04056  0.54886  0.26037  1.0000
  C   C46       1.0  0.54891  0.51013  0.26298  1.0000
  C   C47       1.0  0.49190  0.04232  0.31461  1.0000
  C   C48       1.0  0.96991  0.45734  0.34227  1.0000
  C   C49       1.0  0.48515  0.48529  0.31716  1.0000
  C   C50       1.0  0.51673  0.99986  0.23990  1.0000
  C   C51       1.0  0.00412  0.51837  0.27747  1.0000
  C   C52       1.0  0.51787  0.51680  0.28035  1.0000
  C   C53       1.0  0.48579  0.00377  0.29472  1.0000
  C   C54       1.0  0.00628  0.48769  0.32376  1.0000
  C   C55       1.0  0.70366  0.35391  0.72628  1.0000
  C   C56       1.0  0.64165  0.35108  0.74052  1.0000
  C   C57       1.0  0.64427  0.29082  0.72338  1.0000
  C   C58       1.0  0.29096  0.64416  0.74251  1.0000
  C   C59       1.0  0.35385  0.64815  0.73262  1.0000
  C   C60       1.0  0.34901  0.70682  0.73809  1.0000
  C   C61       1.0  0.68191  0.37266  0.73937  1.0000
  C   C62       1.0  0.62327  0.31032  0.73257  1.0000
  C   C63       1.0  0.68422  0.31305  0.71806  1.0000
  C   C64       1.0  0.31369  0.62663  0.73651  1.0000
  C   C65       1.0  0.37081  0.68826  0.73189  1.0000
  C   C66       1.0  0.30904  0.68443  0.74365  1.0000
  C   C67       1.0  0.61878  0.37076  0.74936  1.0000
  C   C68       1.0  0.62509  0.24828  0.71991  1.0000
  C   C69       1.0  0.24906  0.62022  0.75001  1.0000
  C   C70       1.0  0.57962  0.34930  0.64468  1.0000
  C   C71       1.0  0.63897  0.22344  0.64443  1.0000
  C   C72       1.0  0.22526  0.57788  0.65629  1.0000
  C   C73       1.0  0.55727  0.36689  0.65471  1.0000
  C   C74       1.0  0.62088  0.18352  0.64330  1.0000
  C   C75       1.0  0.18633  0.55439  0.66752  1.0000
  C   C76       1.0  0.57394  0.40743  0.76670  1.0000
  C   C77       1.0  0.58785  0.16629  0.71607  1.0000
  C   C78       1.0  0.16916  0.57270  0.76979  1.0000
  C   C79       1.0  0.61322  0.42926  0.87128  1.0000
  C   C80       1.0  0.57335  0.19083  0.78902  1.0000
  C   C81       1.0  0.19270  0.61504  0.86383  1.0000
  C   C82       1.0  0.63506  0.41097  0.86323  1.0000
  C   C83       1.0  0.59179  0.23080  0.79098  1.0000
  C   C84       1.0  0.23192  0.63823  0.85394  1.0000
  C   C85       1.0  0.89457  0.43751  0.79778  1.0000
  C   C86       1.0  0.56425  0.45995  0.76776  1.0000
  C   C87       1.0  0.54197  0.10726  0.77253  1.0000
  C   C88       1.0  0.10655  0.56100  0.77732  1.0000
  C   C89       1.0  0.43969  0.54878  0.80868  1.0000
  C   C90       1.0  0.45760  0.89342  0.74764  1.0000
  C   C91       1.0  0.93563  0.46226  0.80044  1.0000
  C   C92       1.0  0.54098  0.47794  0.78250  1.0000
  C   C93       1.0  0.52751  0.06687  0.77424  1.0000
  C   C94       1.0  0.06653  0.53789  0.79351  1.0000
  C   C95       1.0  0.46482  0.53310  0.80754  1.0000
  C   C96       1.0  0.47486  0.93512  0.75828  1.0000
  C   C97       1.0  0.45619  0.49727  0.83742  1.0000
  C   C98       1.0  0.51086  0.96057  0.72295  1.0000
  C   C99       1.0  0.03748  0.54670  0.76610  1.0000
  C   C100      1.0  0.55024  0.51444  0.75831  1.0000
  C   C101      1.0  0.49223  0.04163  0.81511  1.0000
  C   C102      1.0  0.96507  0.45438  0.83695  1.0000
  C   C103      1.0  0.48691  0.49023  0.81681  1.0000
  C   C104      1.0  0.51703  0.99912  0.74071  1.0000
  C   C105      1.0  0.00069  0.51635  0.78098  1.0000
  C   C106      1.0  0.51930  0.52129  0.77627  1.0000
  C   C107      1.0  0.48611  0.00311  0.79535  1.0000
  C   C108      1.0  0.00194  0.48481  0.82277  1.0000
  S   S1        1.0  0.49266  0.44695  0.32713  1.0000
  S   S2        1.0  0.55336  0.04410  0.21309  1.0000
  S   S3        1.0  0.95652  0.50895  0.25255  1.0000
  S   S4        1.0  0.50975  0.55430  0.26290  1.0000
  S   S5        1.0  0.44865  0.95921  0.31706  1.0000
  S   S6        1.0  0.05342  0.49616  0.34068  1.0000
  S   S7        1.0  0.49450  0.45209  0.82885  1.0000
  S   S8        1.0  0.55363  0.04340  0.71344  1.0000
  S   S9        1.0  0.95337  0.50766  0.75468  1.0000
  S   S10       1.0  0.51109  0.55876  0.75846  1.0000
  S   S11       1.0  0.44869  0.95859  0.81637  1.0000
  S   S12       1.0  0.04881  0.49245  0.83900  1.0000
  N   N1        1.0  0.87324  0.44718  0.25112  1.0000
  N   N2        1.0  0.55035  0.41990  0.27387  1.0000
  N   N3        1.0  0.57342  0.12664  0.21314  1.0000
  N   N4        1.0  0.13347  0.55060  0.27699  1.0000
  N   N5        1.0  0.44798  0.57502  0.25329  1.0000
  N   N6        1.0  0.42257  0.87235  0.26447  1.0000
  N   N7        1.0  0.86922  0.44628  0.74725  1.0000
  N   N8        1.0  0.55010  0.42358  0.77413  1.0000
  N   N9        1.0  0.57334  0.12659  0.71533  1.0000
  N   N10       1.0  0.13006  0.54776  0.77949  1.0000
  N   N11       1.0  0.44831  0.57903  0.75203  1.0000
  N   N12       1.0  0.42149  0.87197  0.76178  1.0000
  C  Sn1       1.0  0.43191  0.80959  0.30541  1.0000
  C   C109      1.0  0.41473  0.82669  0.22800  1.0000
  C  Sn2       1.0  0.37350  0.80596  0.16845  1.0000
  C  Sn3       1.0  0.34893  0.76735  0.18677  1.0000
  C   C110      1.0  0.36610  0.75027  0.26416  1.0000
  C  Sn4       1.0  0.40733  0.77098  0.32372  1.0000
  O  Te1       1.0  0.47320  0.83085  0.36400  1.0000
  O  Te2       1.0  0.35702  0.82367  0.09144  1.0000
  O  Te3       1.0  0.30761  0.74609  0.12809  1.0000
  O  Te4       1.0  0.42382  0.75329  0.40071  1.0000
  Mg  Mg1       1.0  0.29921  0.78284  0.03216  1.0000
  Mg  Mg2       1.0  0.48162  0.79410  0.46012  1.0000
  C  Sn5       1.0  0.56977  0.19679  0.24380  1.0000
  C   C111      1.0  0.57928  0.16777  0.17830  1.0000
  C  Sn6       1.0  0.61635  0.17966  0.14206  1.0000
  C  Sn7       1.0  0.64451  0.22144  0.17201  1.0000
  C   C112      1.0  0.63499  0.25044  0.23750  1.0000
  C  Sn8       1.0  0.59792  0.23857  0.27375  1.0000
  O  Te5       1.0  0.53253  0.18422  0.27910  1.0000
  O  Te6       1.0  0.62518  0.15008  0.07659  1.0000
  O  Te7       1.0  0.68176  0.23400  0.13664  1.0000
  O  Te8       1.0  0.58909  0.26813  0.33921  1.0000
  Mg  Mg3       1.0  0.67987  0.18232  0.04897  1.0000
  Mg  Mg4       1.0  0.53442  0.23593  0.36696  1.0000
  C  Sn9       1.0  0.80118  0.43899  0.23602  1.0000
  C   C113      1.0  0.82971  0.43094  0.28829  1.0000
  C  Sn10      1.0  0.81814  0.39262  0.29830  1.0000
  C  Sn11      1.0  0.77721  0.36168  0.25504  1.0000
  C   C114      1.0  0.74871  0.36973  0.20277  1.0000
  C  Sn12      1.0  0.76024  0.40805  0.19276  1.0000
  O  Te9       1.0  0.81342  0.47752  0.22694  1.0000
  O  Te10      1.0  0.84720  0.38531  0.35096  1.0000
  O  Te11      1.0  0.76498  0.32313  0.26417  1.0000
  O  Te12      1.0  0.73121  0.41537  0.14010  1.0000
  Mg  Mg5       1.0  0.81572  0.32794  0.34285  1.0000
  Mg  Mg6       1.0  0.76266  0.47271  0.14809  1.0000
  C  Sn13      1.0  0.37136  0.59456  0.83404  1.0000
  C   C115      1.0  0.38070  0.62904  0.78859  1.0000
  C  Sn14      1.0  0.41079  0.64471  0.70024  1.0000
  C  Sn15      1.0  0.43197  0.62549  0.65630  1.0000
  C   C116      1.0  0.42262  0.59103  0.70171  1.0000
  C  Sn16      1.0  0.39253  0.57535  0.79010  1.0000
  O  Te13      1.0  0.34116  0.57942  0.92233  1.0000
  O  Te14      1.0  0.41960  0.67922  0.65624  1.0000
  O  Te15      1.0  0.46218  0.64066  0.56794  1.0000
  O  Te16      1.0  0.38371  0.54085  0.83406  1.0000
  Mg  Mg7       1.0  0.46324  0.68837  0.53623  1.0000
  Mg  Mg8       1.0  0.34008  0.53167  0.95399  1.0000
  C  Sn17      1.0  0.35507  0.79637  0.70340  1.0000
  C   C117      1.0  0.39417  0.82863  0.78857  1.0000
  C  Sn18      1.0  0.42288  0.82092  0.84182  1.0000
  C  Sn19      1.0  0.41230  0.78012  0.80915  1.0000
  C   C118      1.0  0.37322  0.74789  0.72400  1.0000
  C  Sn20      1.0  0.34449  0.75557  0.67074  1.0000
  O  Te17      1.0  0.32685  0.80479  0.65132  1.0000
  O  Te18      1.0  0.46178  0.85367  0.92680  1.0000
  O  Te19      1.0  0.44056  0.77172  0.86132  1.0000
  O  Te20      1.0  0.30562  0.72285  0.58578  1.0000
  Mg  Mg9       1.0  0.48962  0.82662  0.97249  1.0000
  Mg  Mg10      1.0  0.27776  0.74986  0.53995  1.0000
  C  Sn21      1.0  0.76988  0.41152  0.62442  1.0000
  C   C119      1.0  0.74806  0.37685  0.67183  1.0000
  C  Sn22      1.0  0.76742  0.36545  0.77589  1.0000
  C  Sn23      1.0  0.80947  0.38920  0.83387  1.0000
  C   C120      1.0  0.83126  0.42385  0.78650  1.0000
  C  Sn24      1.0  0.81193  0.43528  0.68241  1.0000
  O  Te21      1.0  0.74991  0.42235  0.52031  1.0000
  O  Te22      1.0  0.74497  0.33065  0.82154  1.0000
  O  Te23      1.0  0.82943  0.37834  0.93806  1.0000
  O  Te24      1.0  0.83436  0.47005  0.63679  1.0000
  Mg  Mg11      1.0  0.78580  0.32838  0.96568  1.0000
  Mg  Mg12      1.0  0.79356  0.47237  0.49274  1.0000
