data_image0
_chemical_formula_structural       H48C96S12N12C2Sn2C2HTe2HMgC2Sn2C2HTe2HMgC2Sn2C2HTe2HMgC2Sn2C2HTe2HMgC2Sn2C2HTe2HMgC2Sn2C2HTe2HMgC2Sn2C2HTe2HMgC2Sn2C2HTe2HMgC2Sn2C2HTe2HMgC2Sn2C2HTe2HMgC2Sn2C2HTe2HMgC2Sn2C2HTe2HMg
_chemical_formula_sum              "H72 C144 S12 N12 Sn24 Te24 Mg12"
_cell_length_a       44.4443
_cell_length_b       44.5238
_cell_length_c       8.01484
_cell_angle_alpha    71.3502
_cell_angle_beta     86.4369
_cell_angle_gamma    120.122

_symmetry_space_group_name_H-M    'P1'
_space_group_IT_number       1

loop_
  _space_group_symop_operation_xyz
  'x, y, z'

loop_
  _atom_site_type_symbol
  _atom_site_label
  _atom_site_symmetry_multiplicity
  _atom_site_fract_x
  _atom_site_fract_y
  _atom_site_fract_z
  _atom_site_occupancy
  H   H1        1.0  0.69743  0.39768  0.23596  1.0000
  H   H2        1.0  0.60322  0.29866  0.23232  1.0000
  H   H3        1.0  0.70245  0.30454  0.22903  1.0000
  H   H4        1.0  0.30676  0.60231  0.25121  1.0000
  H   H5        1.0  0.39913  0.70201  0.25292  1.0000
  H   H6        1.0  0.29900  0.69458  0.25615  1.0000
  H   H7        1.0  0.86377  0.40003  0.22405  1.0000
  H   H8        1.0  0.59817  0.46057  0.30739  1.0000
  H   H9        1.0  0.53162  0.13542  0.27125  1.0000
  H   H10       1.0  0.13166  0.59132  0.32758  1.0000
  H   H11       1.0  0.40145  0.54033  0.19883  1.0000
  H   H12       1.0  0.46639  0.86602  0.23605  1.0000
  H   H13       1.0  0.92919  0.41505  0.20682  1.0000
  H   H14       1.0  0.58364  0.51008  0.31248  1.0000
  H   H15       1.0  0.47975  0.06961  0.27289  1.0000
  H   H16       1.0  0.06808  0.57716  0.33342  1.0000
  H   H17       1.0  0.41680  0.49076  0.17875  1.0000
  H   H18       1.0  0.51434  0.92850  0.25829  1.0000
  H   H19       1.0  0.99581  0.54697  0.33100  1.0000
  H   H20       1.0  0.44809  0.44931  0.18245  1.0000
  H   H21       1.0  0.55377  0.99958  0.27315  1.0000
  H   H22       1.0  0.00222  0.44630  0.20026  1.0000
  H   H23       1.0  0.55303  0.55209  0.30099  1.0000
  H   H24       1.0  0.43941  0.99760  0.26111  1.0000
  H   H25       1.0  0.69701  0.39888  0.72968  1.0000
  H   H26       1.0  0.60334  0.29825  0.73514  1.0000
  H   H27       1.0  0.70373  0.30634  0.73000  1.0000
  H   H28       1.0  0.30560  0.60140  0.75453  1.0000
  H   H29       1.0  0.39846  0.70141  0.75239  1.0000
  H   H30       1.0  0.29871  0.69463  0.74979  1.0000
  H   H31       1.0  0.86301  0.40334  0.73147  1.0000
  H   H32       1.0  0.59901  0.46176  0.79781  1.0000
  H   H33       1.0  0.53562  0.13585  0.76056  1.0000
  H   H34       1.0  0.13395  0.59718  0.79695  1.0000
  H   H35       1.0  0.39909  0.53807  0.70317  1.0000
  H   H36       1.0  0.46617  0.86500  0.73672  1.0000
  H   H37       1.0  0.92765  0.41694  0.72325  1.0000
  H   H38       1.0  0.58406  0.51162  0.79902  1.0000
  H   H39       1.0  0.48449  0.07115  0.76335  1.0000
  H   H40       1.0  0.06940  0.58198  0.81877  1.0000
  H   H41       1.0  0.41470  0.48771  0.68570  1.0000
  H   H42       1.0  0.51479  0.92662  0.76200  1.0000
  H   H43       1.0  0.99649  0.55138  0.82427  1.0000
  H   H44       1.0  0.44660  0.44686  0.69191  1.0000
  H   H45       1.0  0.55566  0.99789  0.77867  1.0000
  H   H46       1.0  0.00017  0.44687  0.72257  1.0000
  H   H47       1.0  0.55257  0.55305  0.78614  1.0000
  H   H48       1.0  0.44326  0.99951  0.75428  1.0000
  C   C1        1.0  0.70423  0.35368  0.23034  1.0000
  C   C2        1.0  0.64755  0.35079  0.23136  1.0000
  C   C3        1.0  0.65070  0.29732  0.23039  1.0000
  C   C4        1.0  0.29773  0.64574  0.25279  1.0000
  C   C5        1.0  0.35492  0.65018  0.25420  1.0000
  C   C6        1.0  0.35086  0.70287  0.25493  1.0000
  C   C7        1.0  0.68413  0.36991  0.23108  1.0000
  C   C8        1.0  0.63142  0.31435  0.23190  1.0000
  C   C9        1.0  0.68720  0.31745  0.22905  1.0000
  C   C10       1.0  0.31852  0.63012  0.25458  1.0000
  C   C11       1.0  0.37082  0.68647  0.25406  1.0000
  C   C12       1.0  0.31447  0.68198  0.25493  1.0000
  C   C13       1.0  0.87171  0.42548  0.25007  1.0000
  C   C14       1.0  0.57339  0.44532  0.26751  1.0000
  C   C15       1.0  0.55011  0.12583  0.27085  1.0000
  C   C16       1.0  0.12577  0.56791  0.28749  1.0000
  C   C17       1.0  0.42845  0.55697  0.21736  1.0000
  C   C18       1.0  0.44639  0.87362  0.24009  1.0000
  C   C19       1.0  0.90832  0.44698  0.25951  1.0000
  C   C20       1.0  0.55071  0.45965  0.26125  1.0000
  C   C21       1.0  0.53513  0.08842  0.27596  1.0000
  C   C22       1.0  0.08935  0.54577  0.27823  1.0000
  C   C23       1.0  0.45056  0.54189  0.22298  1.0000
  C   C24       1.0  0.45917  0.90954  0.24946  1.0000
  C   C25       1.0  0.96719  0.49569  0.28239  1.0000
  C   C26       1.0  0.50103  0.47035  0.23094  1.0000
  C   C27       1.0  0.52754  0.02939  0.27342  1.0000
  C   C28       1.0  0.03086  0.49753  0.24938  1.0000
  C   C29       1.0  0.50025  0.53131  0.25050  1.0000
  C   C30       1.0  0.46574  0.96786  0.25927  1.0000
  C   C31       1.0  0.96847  0.46652  0.24809  1.0000
  C   C32       1.0  0.53107  0.49948  0.26453  1.0000
  C   C33       1.0  0.49514  0.02926  0.27031  1.0000
  C   C34       1.0  0.02939  0.52644  0.28563  1.0000
  C   C35       1.0  0.46997  0.50191  0.21951  1.0000
  C   C36       1.0  0.49814  0.96803  0.26334  1.0000
  C   C37       1.0  0.93434  0.43919  0.23589  1.0000
  C   C38       1.0  0.55871  0.49218  0.28342  1.0000
  C   C39       1.0  0.50045  0.06338  0.27340  1.0000
  C   C40       1.0  0.06314  0.55331  0.30225  1.0000
  C   C41       1.0  0.44209  0.50898  0.20418  1.0000
  C   C42       1.0  0.49337  0.93436  0.25760  1.0000
  C   C43       1.0  0.99711  0.52537  0.30155  1.0000
  C   C44       1.0  0.47065  0.47127  0.20908  1.0000
  C   C45       1.0  0.52918  0.99924  0.27059  1.0000
  C   C46       1.0  0.00089  0.46781  0.23048  1.0000
  C   C47       1.0  0.53049  0.53022  0.27389  1.0000
  C   C48       1.0  0.46399  0.99791  0.26369  1.0000
  C   C49       1.0  0.70450  0.35513  0.72874  1.0000
  C   C50       1.0  0.64728  0.35097  0.73117  1.0000
  C   C51       1.0  0.65151  0.29803  0.73111  1.0000
  C   C52       1.0  0.29717  0.64538  0.75187  1.0000
  C   C53       1.0  0.35424  0.64964  0.75318  1.0000
  C   C54       1.0  0.35043  0.70267  0.75182  1.0000
  C   C55       1.0  0.68394  0.37085  0.72820  1.0000
  C   C56       1.0  0.63160  0.31443  0.73328  1.0000
  C   C57       1.0  0.68801  0.31877  0.72948  1.0000
  C   C58       1.0  0.31773  0.62951  0.75481  1.0000
  C   C59       1.0  0.37021  0.68602  0.75225  1.0000
  C   C60       1.0  0.31409  0.68187  0.75115  1.0000
  C   C61       1.0  0.87137  0.42939  0.75230  1.0000
  C   C62       1.0  0.57361  0.44583  0.76404  1.0000
  C   C63       1.0  0.55437  0.12650  0.76518  1.0000
  C   C64       1.0  0.12628  0.57118  0.77715  1.0000
  C   C65       1.0  0.42644  0.55502  0.71726  1.0000
  C   C66       1.0  0.44659  0.87318  0.73938  1.0000
  C   C67       1.0  0.90779  0.45043  0.76502  1.0000
  C   C68       1.0  0.55077  0.45996  0.75848  1.0000
  C   C69       1.0  0.53952  0.08895  0.77192  1.0000
  C   C70       1.0  0.08934  0.54872  0.77572  1.0000
  C   C71       1.0  0.44861  0.54001  0.72126  1.0000
  C   C72       1.0  0.46010  0.90924  0.74902  1.0000
  C   C73       1.0  0.96690  0.49889  0.78705  1.0000
  C   C74       1.0  0.50029  0.46944  0.73218  1.0000
  C   C75       1.0  0.53057  0.02889  0.77483  1.0000
  C   C76       1.0  0.02985  0.49935  0.76060  1.0000
  C   C77       1.0  0.49904  0.53053  0.74470  1.0000
  C   C78       1.0  0.46823  0.96826  0.75829  1.0000
  C   C79       1.0  0.96745  0.46876  0.76010  1.0000
  C   C80       1.0  0.53068  0.49958  0.75858  1.0000
  C   C81       1.0  0.49870  0.02971  0.76867  1.0000
  C   C82       1.0  0.02927  0.52950  0.78751  1.0000
  C   C83       1.0  0.46849  0.50028  0.72009  1.0000
  C   C84       1.0  0.50008  0.96739  0.76509  1.0000
  C   C85       1.0  0.93324  0.44163  0.74806  1.0000
  C   C86       1.0  0.55878  0.49295  0.77527  1.0000
  C   C87       1.0  0.50478  0.06430  0.76842  1.0000
  C   C88       1.0  0.06362  0.55705  0.79602  1.0000
  C   C89       1.0  0.44019  0.50674  0.70663  1.0000
  C   C90       1.0  0.49442  0.93335  0.75934  1.0000
  C   C91       1.0  0.99726  0.52897  0.80127  1.0000
  C   C92       1.0  0.46943  0.46954  0.71329  1.0000
  C   C93       1.0  0.53142  0.99817  0.77391  1.0000
  C   C94       1.0  0.99945  0.46924  0.74667  1.0000
  C   C95       1.0  0.52983  0.53039  0.76436  1.0000
  C   C96       1.0  0.46730  0.99887  0.76059  1.0000
  S   S1        1.0  0.92455  0.48858  0.29525  1.0000
  S   S2        1.0  0.50846  0.43598  0.21962  1.0000
  S   S3        1.0  0.56285  0.07119  0.27623  1.0000
  S   S4        1.0  0.07372  0.50500  0.23549  1.0000
  S   S5        1.0  0.49336  0.56620  0.25786  1.0000
  S   S6        1.0  0.43100  0.92629  0.25063  1.0000
  S   S7        1.0  0.92464  0.49262  0.79549  1.0000
  S   S8        1.0  0.50790  0.43496  0.72542  1.0000
  S   S9        1.0  0.56640  0.07059  0.77677  1.0000
  S   S10       1.0  0.07239  0.50614  0.74865  1.0000
  S   S11       1.0  0.49181  0.56526  0.75011  1.0000
  S   S12       1.0  0.43294  0.92719  0.74828  1.0000
  N   N1        1.0  0.85016  0.43664  0.26366  1.0000
  N   N2        1.0  0.56449  0.41639  0.22744  1.0000
  N   N3        1.0  0.58405  0.14713  0.26036  1.0000
  N   N4        1.0  0.14933  0.56021  0.25145  1.0000
  N   N5        1.0  0.44056  0.58908  0.23027  1.0000
  N   N6        1.0  0.41361  0.85233  0.23352  1.0000
  N   N7        1.0  0.85021  0.44125  0.75840  1.0000
  N   N8        1.0  0.56410  0.41623  0.72906  1.0000
  N   N9        1.0  0.58803  0.14815  0.75837  1.0000
  N   N10       1.0  0.14846  0.56102  0.75512  1.0000
  N   N11       1.0  0.43893  0.58741  0.72781  1.0000
  N   N12       1.0  0.41380  0.85231  0.73137  1.0000
  C   C97       1.0  0.78345  0.36561  0.36290  1.0000
  C   C98       1.0  0.81043  0.40430  0.27096  1.0000
  C  Sn1       1.0  0.80255  0.42932  0.15990  1.0000
  C  Sn2       1.0  0.76697  0.41526  0.14084  1.0000
  C   C99       1.0  0.74017  0.37651  0.23349  1.0000
  C   C100      1.0  0.74835  0.35173  0.34422  1.0000
  H   H49       1.0  0.78978  0.34644  0.44866  1.0000
  O  Te1       1.0  0.82982  0.46788  0.06897  1.0000
  O  Te2       1.0  0.75835  0.43964  0.03077  1.0000
  H   H50       1.0  0.72746  0.32178  0.41548  1.0000
  Mg  Mg1       1.0  0.75112  0.40540  0.93457  1.0000
  C   C101      1.0  0.58349  0.35186  0.19988  1.0000
  C   C102      1.0  0.61866  0.36467  0.21453  1.0000
  C  Sn3       1.0  0.63846  0.39719  0.24883  1.0000
  C  Sn4       1.0  0.62269  0.41718  0.26882  1.0000
  C   C103      1.0  0.58748  0.40412  0.25407  1.0000
  C   C104      1.0  0.56790  0.37155  0.21966  1.0000
  H   H51       1.0  0.56833  0.32665  0.17336  1.0000
  O  Te3       1.0  0.67357  0.40961  0.26298  1.0000
  O  Te4       1.0  0.64187  0.44975  0.30323  1.0000
  H   H52       1.0  0.54067  0.36162  0.20845  1.0000
  Mg  Mg2       1.0  0.68885  0.45549  0.31091  1.0000
  C   C105      1.0  0.65292  0.24004  0.14625  1.0000
  C   C106      1.0  0.63784  0.25701  0.20630  1.0000
  C  Sn5       1.0  0.60157  0.23533  0.30583  1.0000
  C  Sn6       1.0  0.58008  0.19592  0.34580  1.0000
  C   C107      1.0  0.59544  0.17921  0.28522  1.0000
  C   C108      1.0  0.63175  0.20118  0.18568  1.0000
  H   H53       1.0  0.68103  0.25703  0.06933  1.0000
  O  Te5       1.0  0.58693  0.25273  0.36472  1.0000
  O  Te6       1.0  0.54377  0.17358  0.44508  1.0000
  H   H54       1.0  0.64343  0.18803  0.13931  1.0000
  Mg  Mg3       1.0  0.53612  0.21033  0.49556  1.0000
  C   C109      1.0  0.21737  0.57329  0.20230  1.0000
  C   C110      1.0  0.18987  0.57767  0.25725  1.0000
  C  Sn7       1.0  0.19789  0.60812  0.30322  1.0000
  C  Sn8       1.0  0.23413  0.63464  0.29381  1.0000
  C   C111      1.0  0.26145  0.63002  0.23855  1.0000
  C   C112      1.0  0.25313  0.59944  0.19291  1.0000
  H   H55       1.0  0.21094  0.54964  0.16689  1.0000
  O  Te7       1.0  0.17008  0.61206  0.35792  1.0000
  O  Te8       1.0  0.24289  0.66534  0.33892  1.0000
  H   H56       1.0  0.27443  0.59607  0.15025  1.0000
  Mg  Mg4       1.0  0.19557  0.65856  0.40570  1.0000
  C   C113      1.0  0.43134  0.64897  0.10565  1.0000
  C   C114      1.0  0.42366  0.61329  0.21781  1.0000
  C  Sn9       1.0  0.39008  0.58612  0.34633  1.0000
  C  Sn10      1.0  0.36375  0.59492  0.36252  1.0000
  C   C115      1.0  0.37169  0.63069  0.24958  1.0000
  C   C116      1.0  0.40538  0.65767  0.12147  1.0000
  H   H57       1.0  0.45741  0.66985  0.00645  1.0000
  O  Te9       1.0  0.38285  0.55061  0.45736  1.0000
  O  Te10      1.0  0.32996  0.56828  0.48978  1.0000
  H   H58       1.0  0.41132  0.68529  0.03456  1.0000
  Mg  Mg5       1.0  0.33289  0.52382  0.61024  1.0000
  C   C117      1.0  0.41398  0.78495  0.32495  1.0000
  C   C118      1.0  0.40669  0.81251  0.24293  1.0000
  C  Sn11      1.0  0.37784  0.80388  0.16409  1.0000
  C  Sn12      1.0  0.35593  0.76693  0.16769  1.0000
  C   C119      1.0  0.36343  0.73955  0.25019  1.0000
  C   C120      1.0  0.39237  0.74850  0.32863  1.0000
  H   H59       1.0  0.43636  0.79186  0.38573  1.0000
  O  Te11      1.0  0.37094  0.83176  0.08265  1.0000
  O  Te12      1.0  0.32692  0.75753  0.08997  1.0000
  H   H60       1.0  0.39800  0.72715  0.39223  1.0000
  Mg  Mg6       1.0  0.27469  0.72080  0.99500  1.0000
  C   C121      1.0  0.78379  0.36976  0.86685  1.0000
  C   C122      1.0  0.81049  0.40840  0.76986  1.0000
  C  Sn13      1.0  0.80233  0.43247  0.65255  1.0000
  C  Sn14      1.0  0.76676  0.41750  0.63228  1.0000
  C   C123      1.0  0.74024  0.37881  0.73001  1.0000
  C   C124      1.0  0.74870  0.35497  0.84699  1.0000
  H   H61       1.0  0.79033  0.35132  0.95744  1.0000
  O  Te13      1.0  0.82932  0.47100  0.55663  1.0000
  O  Te14      1.0  0.75787  0.44092  0.51601  1.0000
  H   H62       1.0  0.72802  0.32506  0.92215  1.0000
  Mg  Mg7       1.0  0.80398  0.49148  0.41460  1.0000
  C   C125      1.0  0.62883  0.41821  0.77023  1.0000
  C   C126      1.0  0.59630  0.40900  0.72522  1.0000
  C  Sn15      1.0  0.57664  0.37672  0.68900  1.0000
  C  Sn16      1.0  0.58985  0.35326  0.69817  1.0000
  C   C127      1.0  0.62241  0.36269  0.74345  1.0000
  C   C128      1.0  0.64187  0.39507  0.77937  1.0000
  H   H63       1.0  0.64388  0.44325  0.79813  1.0000
  O  Te15      1.0  0.54420  0.36794  0.64417  1.0000
  O  Te16      1.0  0.57074  0.32081  0.66268  1.0000
  H   H64       1.0  0.66705  0.40218  0.81434  1.0000
  Mg  Mg8       1.0  0.52791  0.32075  0.60732  1.0000
  C   C129      1.0  0.64654  0.22235  0.64174  1.0000
  C   C130      1.0  0.61196  0.19030  0.74114  1.0000
  C  Sn17      1.0  0.58709  0.19346  0.83700  1.0000
  C  Sn18      1.0  0.59710  0.22943  0.83298  1.0000
  C   C131      1.0  0.63175  0.26133  0.73302  1.0000
  C   C132      1.0  0.65643  0.25784  0.63764  1.0000
  H   H65       1.0  0.66563  0.21966  0.56785  1.0000
  O  Te17      1.0  0.55265  0.16114  0.93568  1.0000
  O  Te18      1.0  0.57277  0.23340  0.92750  1.0000
  H   H66       1.0  0.68320  0.28267  0.56059  1.0000
  Mg  Mg9       1.0  0.58268  0.26546  0.04241  1.0000
  C   C133      1.0  0.21683  0.57467  0.69239  1.0000
  C   C134      1.0  0.18920  0.57794  0.75785  1.0000
  C  Sn19      1.0  0.19711  0.60702  0.81495  1.0000
  C  Sn20      1.0  0.23339  0.63329  0.80614  1.0000
  C   C135      1.0  0.26085  0.62980  0.74031  1.0000
  C   C136      1.0  0.25263  0.60058  0.68358  1.0000
  H   H67       1.0  0.21048  0.55208  0.64840  1.0000
  O  Te19      1.0  0.16917  0.60986  0.88006  1.0000
  O  Te20      1.0  0.24206  0.66264  0.86225  1.0000
  H   H68       1.0  0.27403  0.59808  0.63279  1.0000
  Mg  Mg10      1.0  0.19456  0.65470  0.94071  1.0000
  C   C137      1.0  0.42051  0.65692  0.62426  1.0000
  C   C138      1.0  0.38407  0.63872  0.71244  1.0000
  C  Sn21      1.0  0.36370  0.60003  0.82735  1.0000
  C  Sn22      1.0  0.38020  0.57925  0.85425  1.0000
  C   C139      1.0  0.41668  0.59772  0.76551  1.0000
  C   C140      1.0  0.43680  0.63645  0.65077  1.0000
  H   H69       1.0  0.43609  0.68689  0.53557  1.0000
  O  Te21      1.0  0.32733  0.58229  0.91434  1.0000
  O  Te22      1.0  0.36048  0.54055  0.96841  1.0000
  H   H70       1.0  0.46502  0.65053  0.58261  1.0000
  Mg  Mg11      1.0  0.36540  0.61350  0.05668  1.0000
  C   C141      1.0  0.41357  0.78460  0.82292  1.0000
  C   C142      1.0  0.40638  0.81227  0.74159  1.0000
  C  Sn23      1.0  0.37760  0.80385  0.66237  1.0000
  C  Sn24      1.0  0.35565  0.76701  0.66487  1.0000
  C   C143      1.0  0.36305  0.73951  0.74668  1.0000
  C   C144      1.0  0.39193  0.74825  0.82551  1.0000
  H   H71       1.0  0.43590  0.79134  0.88401  1.0000
  O  Te23      1.0  0.37080  0.83184  0.58163  1.0000
  O  Te24      1.0  0.32671  0.75782  0.58674  1.0000
  H   H72       1.0  0.39748  0.72681  0.88857  1.0000
  Mg  Mg12      1.0  0.32826  0.80562  0.49305  1.0000
