data_image0
_chemical_formula_structural       H60C90N12SnCSn2CSnTe4Mg2SnCSn2CSnTe4Mg2SnCSn2CSnTe4Mg2SnCSn2CSnTe4Mg2SnCSn2CSnTe4Mg2SnCSn2CSnTe4Mg2SnCSn2CSnTe4Mg2SnCSn2CSnTe4Mg2SnCSn2CSnTe4Mg2
_chemical_formula_sum              "H60 C108 N12 Sn36 Te36 Mg18"
_cell_length_a       37.1577
_cell_length_b       37.4279
_cell_length_c       8.02529
_cell_angle_alpha    111.935
_cell_angle_beta     71.1233
_cell_angle_gamma    120.385

_symmetry_space_group_name_H-M    'P1'
_space_group_IT_number       1

loop_
  _space_group_symop_operation_xyz
  'x, y, z'

loop_
  _atom_site_type_symbol
  _atom_site_label
  _atom_site_symmetry_multiplicity
  _atom_site_fract_x
  _atom_site_fract_y
  _atom_site_fract_z
  _atom_site_occupancy
  H   H1        1.0  0.69649  0.40689  0.23701  1.0000
  H   H2        1.0  0.58537  0.28685  0.22183  1.0000
  H   H3        1.0  0.70380  0.29527  0.23273  1.0000
  H   H4        1.0  0.30199  0.58848  0.24109  1.0000
  H   H5        1.0  0.40894  0.71115  0.23585  1.0000
  H   H6        1.0  0.28440  0.69378  0.25054  1.0000
  H   H7        1.0  0.75832  0.43648  0.19362  1.0000
  H   H8        1.0  0.25114  0.55802  0.03293  1.0000
  H   H9        1.0  0.83494  0.47768  0.19743  1.0000
  H   H10       1.0  0.17392  0.51095  0.03609  1.0000
  H   H11       1.0  0.83604  0.37195  0.28698  1.0000
  H   H12       1.0  0.14667  0.61027  0.45611  1.0000
  H   H13       1.0  0.76032  0.33176  0.29042  1.0000
  H   H14       1.0  0.22350  0.65632  0.45851  1.0000
  H   H15       1.0  0.89375  0.41850  0.35640  1.0000
  H   H16       1.0  0.58404  0.48870  0.28582  1.0000
  H   H17       1.0  0.51117  0.09612  0.20016  1.0000
  H   H18       1.0  0.09940  0.57733  0.23305  1.0000
  H   H19       1.0  0.42223  0.51585  0.17568  1.0000
  H   H20       1.0  0.47986  0.89964  0.23118  1.0000
  H   H21       1.0  0.03243  0.56662  0.20938  1.0000
  H   H22       1.0  0.96212  0.42373  0.33575  1.0000
  H   H23       1.0  0.95409  0.52350  0.22751  1.0000
  H   H24       1.0  0.04071  0.46561  0.30556  1.0000
  H   H25       1.0  0.69613  0.41072  0.74026  1.0000
  H   H26       1.0  0.58909  0.28719  0.71570  1.0000
  H   H27       1.0  0.71120  0.30171  0.71155  1.0000
  H   H28       1.0  0.30286  0.59242  0.74835  1.0000
  H   H29       1.0  0.41353  0.71207  0.73222  1.0000
  H   H30       1.0  0.29078  0.70136  0.76266  1.0000
  H   H31       1.0  0.76039  0.43979  0.65948  1.0000
  H   H32       1.0  0.57003  0.31262  0.56651  1.0000
  H   H33       1.0  0.68215  0.23350  0.51428  1.0000
  H   H34       1.0  0.32366  0.75410  0.65646  1.0000
  H   H35       1.0  0.83633  0.48424  0.67522  1.0000
  H   H36       1.0  0.52388  0.34429  0.58115  1.0000
  H   H37       1.0  0.65395  0.15804  0.52365  1.0000
  H   H38       1.0  0.35708  0.83094  0.66298  1.0000
  H   H39       1.0  0.83918  0.38561  0.81571  1.0000
  H   H40       1.0  0.60150  0.46290  0.91725  1.0000
  H   H41       1.0  0.54667  0.16827  0.91486  1.0000
  H   H42       1.0  0.46573  0.85000  0.83069  1.0000
  H   H43       1.0  0.76389  0.34293  0.81270  1.0000
  H   H44       1.0  0.64634  0.43128  0.90830  1.0000
  H   H45       1.0  0.57520  0.24366  0.90874  1.0000
  H   H46       1.0  0.43205  0.77546  0.83557  1.0000
  H   H47       1.0  0.89883  0.42665  0.83031  1.0000
  H   H48       1.0  0.58061  0.48464  0.77507  1.0000
  H   H49       1.0  0.52182  0.09927  0.69945  1.0000
  H   H50       1.0  0.10352  0.58880  0.74602  1.0000
  H   H51       1.0  0.42083  0.51578  0.67600  1.0000
  H   H52       1.0  0.49120  0.90685  0.77508  1.0000
  H   H53       1.0  0.42805  0.45540  0.65330  1.0000
  H   H54       1.0  0.03656  0.57798  0.70950  1.0000
  H   H55       1.0  0.57154  0.54501  0.81872  1.0000
  H   H56       1.0  0.96551  0.43352  0.82085  1.0000
  H   H57       1.0  0.46854  0.42073  0.67450  1.0000
  H   H58       1.0  0.95826  0.53490  0.72273  1.0000
  H   H59       1.0  0.53070  0.57969  0.80122  1.0000
  H   H60       1.0  0.04392  0.47559  0.79796  1.0000
  C   C1        1.0  0.70657  0.35474  0.23549  1.0000
  C   C2        1.0  0.63840  0.34935  0.22793  1.0000
  C   C3        1.0  0.64276  0.28620  0.22525  1.0000
  C   C4        1.0  0.28848  0.63836  0.24639  1.0000
  C   C5        1.0  0.35900  0.64808  0.24185  1.0000
  C   C6        1.0  0.34916  0.70833  0.24204  1.0000
  C   C7        1.0  0.68186  0.37321  0.23426  1.0000
  C   C8        1.0  0.61915  0.30572  0.22408  1.0000
  C   C9        1.0  0.68621  0.31093  0.22968  1.0000
  C   C10       1.0  0.31538  0.62201  0.24279  1.0000
  C   C11       1.0  0.37519  0.69092  0.23964  1.0000
  C   C12       1.0  0.30557  0.68152  0.24847  1.0000
  C   C13       1.0  0.75238  0.38045  0.24278  1.0000
  C   C14       1.0  0.24281  0.61064  0.24513  1.0000
  C   C15       1.0  0.77467  0.42232  0.21935  1.0000
  C   C16       1.0  0.22820  0.56922  0.12761  1.0000
  C   C17       1.0  0.81796  0.44574  0.21976  1.0000
  C   C18       1.0  0.18518  0.54288  0.12780  1.0000
  C   C19       1.0  0.84133  0.42857  0.24450  1.0000
  C   C20       1.0  0.15517  0.55765  0.24319  1.0000
  C   C21       1.0  0.81933  0.38665  0.26792  1.0000
  C   C22       1.0  0.16960  0.59914  0.36091  1.0000
  C   C23       1.0  0.77608  0.36357  0.26804  1.0000
  C   C24       1.0  0.21272  0.62495  0.36222  1.0000
  C   C25       1.0  0.90748  0.44556  0.29589  1.0000
  C   C26       1.0  0.55102  0.46608  0.26847  1.0000
  C   C27       1.0  0.53194  0.08550  0.21948  1.0000
  C   C28       1.0  0.08712  0.54447  0.24357  1.0000
  C   C29       1.0  0.45395  0.53932  0.20870  1.0000
  C   C30       1.0  0.45665  0.90947  0.22957  1.0000
  C   C31       1.0  0.95310  0.47108  0.28331  1.0000
  C   C32       1.0  0.04149  0.51870  0.25616  1.0000
  C   C33       1.0  0.01684  0.53517  0.23616  1.0000
  C   C34       1.0  0.97771  0.45485  0.30599  1.0000
  C   C35       1.0  0.97333  0.51153  0.24676  1.0000
  C   C36       1.0  0.02137  0.47797  0.29008  1.0000
  C   C37       1.0  0.70983  0.35996  0.72630  1.0000
  C   C38       1.0  0.63972  0.35117  0.72638  1.0000
  C   C39       1.0  0.64839  0.28957  0.71229  1.0000
  C   C40       1.0  0.29212  0.64422  0.75606  1.0000
  C   C41       1.0  0.36162  0.65026  0.74252  1.0000
  C   C42       1.0  0.35495  0.71263  0.74680  1.0000
  C   C43       1.0  0.68312  0.37687  0.73192  1.0000
  C   C44       1.0  0.62273  0.30751  0.71758  1.0000
  C   C45       1.0  0.69172  0.31598  0.71464  1.0000
  C   C46       1.0  0.31771  0.62600  0.74857  1.0000
  C   C47       1.0  0.37952  0.69326  0.73984  1.0000
  C   C48       1.0  0.31092  0.68756  0.75735  1.0000
  C   C49       1.0  0.75544  0.38735  0.73457  1.0000
  C   C50       1.0  0.61243  0.36982  0.73220  1.0000
  C   C51       1.0  0.63048  0.24402  0.70947  1.0000
  C   C52       1.0  0.37508  0.75809  0.74381  1.0000
  C   C53       1.0  0.77701  0.42802  0.69894  1.0000
  C   C54       1.0  0.57678  0.34545  0.64514  1.0000
  C   C55       1.0  0.65250  0.21927  0.60257  1.0000
  C   C56       1.0  0.35438  0.77514  0.69892  1.0000
  C   C57       1.0  0.82004  0.45312  0.70512  1.0000
  C   C58       1.0  0.55083  0.36291  0.65238  1.0000
  C   C59       1.0  0.63682  0.17702  0.60635  1.0000
  C   C60       1.0  0.37308  0.81821  0.70073  1.0000
  C   C61       1.0  0.84391  0.43865  0.74488  1.0000
  C   C62       1.0  0.55997  0.40598  0.74493  1.0000
  C   C63       1.0  0.59772  0.15754  0.71413  1.0000
  C   C64       1.0  0.41392  0.84620  0.74383  1.0000
  C   C65       1.0  0.82242  0.39797  0.78090  1.0000
  C   C66       1.0  0.59515  0.43034  0.83574  1.0000
  C   C67       1.0  0.57557  0.18213  0.82218  1.0000
  C   C68       1.0  0.43484  0.82934  0.78928  1.0000
  C   C69       1.0  0.77941  0.37335  0.77722  1.0000
  C   C70       1.0  0.62062  0.41250  0.82981  1.0000
  C   C71       1.0  0.59182  0.22459  0.81921  1.0000
  C   C72       1.0  0.41573  0.78657  0.79043  1.0000
  C   C73       1.0  0.91119  0.45572  0.78518  1.0000
  C   C74       1.0  0.54764  0.46196  0.75731  1.0000
  C   C75       1.0  0.54361  0.08940  0.71532  1.0000
  C   C76       1.0  0.09085  0.55525  0.74884  1.0000
  C   C77       1.0  0.45260  0.53845  0.71005  1.0000
  C   C78       1.0  0.46924  0.91538  0.75174  1.0000
  C   C79       1.0  0.95675  0.48171  0.77426  1.0000
  C   C80       1.0  0.52237  0.48068  0.74925  1.0000
  C   C81       1.0  0.04528  0.52950  0.75367  1.0000
  C   C82       1.0  0.47696  0.51971  0.72588  1.0000
  C   C83       1.0  0.45934  0.47477  0.69190  1.0000
  C   C84       1.0  0.02082  0.54623  0.73349  1.0000
  C   C85       1.0  0.53997  0.52563  0.78312  1.0000
  C   C86       1.0  0.98126  0.46501  0.79436  1.0000
  C   C87       1.0  0.48153  0.45537  0.70353  1.0000
  C   C88       1.0  0.97730  0.52260  0.74134  1.0000
  C   C89       1.0  0.51762  0.54505  0.77335  1.0000
  C   C90       1.0  0.02484  0.48821  0.78216  1.0000
  N   N1        1.0  0.88495  0.45443  0.23795  1.0000
  N   N2        1.0  0.53632  0.42548  0.24974  1.0000
  N   N3        1.0  0.57141  0.11089  0.22974  1.0000
  N   N4        1.0  0.11218  0.52985  0.24177  1.0000
  N   N5        1.0  0.46759  0.57982  0.22862  1.0000
  N   N6        1.0  0.41694  0.88328  0.22948  1.0000
  N   N7        1.0  0.88740  0.46580  0.74190  1.0000
  N   N8        1.0  0.53316  0.42145  0.73960  1.0000
  N   N9        1.0  0.58335  0.11516  0.71638  1.0000
  N   N10       1.0  0.11517  0.53970  0.74619  1.0000
  N   N11       1.0  0.46707  0.57912  0.73169  1.0000
  N   N12       1.0  0.43031  0.88851  0.73451  1.0000
  C  Sn1       1.0  0.61272  0.41627  0.38063  1.0000
  C   C91       1.0  0.60765  0.37454  0.28802  1.0000
  C  Sn2       1.0  0.58135  0.34965  0.15637  1.0000
  C  Sn3       1.0  0.55967  0.36684  0.11635  1.0000
  C   C92       1.0  0.56475  0.40855  0.20890  1.0000
  C  Sn4       1.0  0.59104  0.43346  0.34061  1.0000
  O  Te1       1.0  0.63918  0.44057  0.51171  1.0000
  O  Te2       1.0  0.57677  0.30801  0.06563  1.0000
  O  Te3       1.0  0.49414  0.40298  0.98514  1.0000
  O  Te4       1.0  0.59563  0.47507  0.43129  1.0000
  Mg  Mg1       1.0  0.49815  0.34798  0.89824  1.0000
  Mg  Mg2       1.0  0.63520  0.49563  0.59863  1.0000
  C  Sn5       1.0  0.63709  0.20187  0.07281  1.0000
  C   C93       1.0  0.62058  0.23159  0.16930  1.0000
  C  Sn6       1.0  0.58804  0.22396  0.31881  1.0000
  C  Sn7       1.0  0.57168  0.18583  0.37311  1.0000
  C   C94       1.0  0.58819  0.15613  0.27668  1.0000
  C  Sn8       1.0  0.62073  0.16374  0.12712  1.0000
  O  Te5       1.0  0.63056  0.27065  0.92377  1.0000
  O  Te6       1.0  0.57204  0.25414  0.41310  1.0000
  O  Te7       1.0  0.53912  0.17755  0.52229  1.0000
  O  Te8       1.0  0.63673  0.13358  0.03288  1.0000
  Mg  Mg3       1.0  0.52779  0.22838  0.60715  1.0000
  Mg  Mg4       1.0  0.64194  0.21981  0.83887  1.0000
  C  Sn9       1.0  0.45703  0.64480  0.70643  1.0000
  C   C95       1.0  0.44522  0.60981  0.77091  1.0000
  C  Sn10      1.0  0.40259  0.58136  0.80590  1.0000
  C  Sn11      1.0  0.37110  0.58800  0.77570  1.0000
  C   C96       1.0  0.38292  0.62296  0.71123  1.0000
  C  Sn12      1.0  0.42555  0.65144  0.67623  1.0000
  O  Te9       1.0  0.49984  0.67283  0.67238  1.0000
  O  Te10      1.0  0.39155  0.54662  0.87036  1.0000
  O  Te11      1.0  0.32827  0.55993  0.80982  1.0000
  O  Te12      1.0  0.43659  0.68615  0.61178  1.0000
  Mg  Mg5       1.0  0.32906  0.51730  0.89644  1.0000
  Mg  Mg6       1.0  0.49907  0.71547  0.58556  1.0000
  C  Sn13      1.0  0.45603  0.64512  0.20893  1.0000
  C   C97       1.0  0.44483  0.60978  0.26959  1.0000
  C  Sn14      1.0  0.40238  0.58082  0.30378  1.0000
  C  Sn15      1.0  0.37044  0.58730  0.27666  1.0000
  C   C98       1.0  0.38165  0.62261  0.21601  1.0000
  C  Sn16      1.0  0.42410  0.65160  0.18182  1.0000
  O  Te13      1.0  0.49867  0.67367  0.17561  1.0000
  O  Te14      1.0  0.39196  0.54573  0.36440  1.0000
  O  Te15      1.0  0.32778  0.55872  0.31005  1.0000
  O  Te16      1.0  0.43452  0.68666  0.12120  1.0000
  Mg  Mg7       1.0  0.32946  0.51577  0.39095  1.0000
  Mg  Mg8       1.0  0.49701  0.71664  0.09451  1.0000
  C  Sn17      1.0  0.53218  0.54563  0.22577  1.0000
  C   C99       1.0  0.49117  0.52464  0.18657  1.0000
  C  Sn18      1.0  0.46487  0.48245  0.19891  1.0000
  C  Sn19      1.0  0.47986  0.46080  0.25164  1.0000
  C   C100      1.0  0.52085  0.48179  0.29084  1.0000
  C  Sn20      1.0  0.54718  0.52398  0.27850  1.0000
  O  Te17      1.0  0.55793  0.58781  0.21255  1.0000
  O  Te18      1.0  0.42399  0.46212  0.15898  1.0000
  O  Te19      1.0  0.45407  0.41858  0.26484  1.0000
  O  Te20      1.0  0.58802  0.54430  0.31843  1.0000
  Mg  Mg9       1.0  0.40087  0.40455  0.19671  1.0000
  Mg  Mg10      1.0  0.61117  0.60188  0.28084  1.0000
  C  Sn21      1.0  0.40773  0.79605  0.34202  1.0000
  C   C101      1.0  0.36936  0.76240  0.29256  1.0000
  C  Sn22      1.0  0.34757  0.76667  0.19376  1.0000
  C  Sn23      1.0  0.36450  0.80539  0.14323  1.0000
  C   C102      1.0  0.40285  0.83901  0.19265  1.0000
  C  Sn24      1.0  0.42466  0.83477  0.29148  1.0000
  O  Te21      1.0  0.42898  0.79107  0.44078  1.0000
  O  Te22      1.0  0.30925  0.73259  0.14594  1.0000
  O  Te23      1.0  0.34321  0.81035  0.04439  1.0000
  O  Te24      1.0  0.46296  0.86882  0.33927  1.0000
  Mg  Mg11      1.0  0.29213  0.75480  0.01110  1.0000
  Mg  Mg12      1.0  0.48012  0.84664  0.47402  1.0000
  C  Sn25      1.0  0.51879  0.99388  0.31388  1.0000
  C   C103      1.0  0.47834  0.96237  0.28049  1.0000
  C  Sn26      1.0  0.45487  0.96914  0.20008  1.0000
  C  Sn27      1.0  0.47220  0.00822  0.15191  1.0000
  C   C104      1.0  0.00314  0.03970  0.18527  1.0000
  C  Sn28      1.0  0.02663  0.03296  0.26571  1.0000
  O  Te25      1.0  0.54169  0.98642  0.39439  1.0000
  O  Te26      1.0  0.41450  0.93717  0.16811  1.0000
  O  Te27      1.0  0.93977  0.01566  0.07134  1.0000
  O  Te28      1.0  0.06698  0.06490  0.29765  1.0000
  Mg  Mg13      1.0  0.39565  0.96238  0.05520  1.0000
  Mg  Mg14      1.0  0.08587  0.03972  0.41046  1.0000
  C  Sn29      1.0  0.98166  0.01148  0.74872  1.0000
  C   C105      1.0  0.02262  0.04301  0.77370  1.0000
  C  Sn30      1.0  0.05360  0.03174  0.76850  1.0000
  C  Sn31      1.0  0.04344  0.98805  0.73756  1.0000
  C   C106      1.0  0.00250  0.95654  0.71256  1.0000
  C  Sn32      1.0  0.97150  0.96778  0.71778  1.0000
  O  Te29      1.0  0.95119  0.02347  0.75445  1.0000
  O  Te30      1.0  0.58483  0.06384  0.79391  1.0000
  O  Te31      1.0  0.07394  0.97607  0.73184  1.0000
  O  Te32      1.0  0.93080  0.93571  0.69235  1.0000
  Mg  Mg15      1.0  0.12492  0.03145  0.77406  1.0000
  Mg  Mg16      1.0  0.90019  0.96806  0.71208  1.0000
  C  Sn33      1.0  0.22276  0.57423  0.59060  1.0000
  C   C107      1.0  0.24285  0.61475  0.70449  1.0000
  C  Sn34      1.0  0.21990  0.63040  0.86425  1.0000
  C  Sn35      1.0  0.17594  0.60502  0.91125  1.0000
  C   C108      1.0  0.15587  0.56452  0.79743  1.0000
  C  Sn36      1.0  0.17880  0.54885  0.63760  1.0000
  O  Te33      1.0  0.24633  0.55923  0.43155  1.0000
  O  Te34      1.0  0.24068  0.67101  0.97591  1.0000
  O  Te35      1.0  0.19144  0.55957  0.07045  1.0000
  O  Te36      1.0  0.15805  0.50826  0.52600  1.0000
  Mg  Mg17      1.0  0.23398  0.61689  0.17831  1.0000
  Mg  Mg18      1.0  0.20378  0.50186  0.32363  1.0000
