data_image0
_chemical_formula_structural       H60C90N12C2Sn2C2HTe2HMgC2Sn2C2HTe2HMgC2Sn2C2HTe2HMgC2Sn2C2HTe2HMgC2Sn2C2HTe2HMgC2Sn2C2HTe2HMgC2Sn2C2HTe2HMgC2Sn2C2HTe2HMgC2Sn2C2HTe2HMg
_chemical_formula_sum              "H78 C126 N12 Sn18 Te18 Mg9"
_cell_length_a       37.1577
_cell_length_b       37.4279
_cell_length_c       8.02529
_cell_angle_alpha    111.935
_cell_angle_beta     71.1233
_cell_angle_gamma    120.385

_symmetry_space_group_name_H-M    'P1'
_space_group_IT_number       1

loop_
  _space_group_symop_operation_xyz
  'x, y, z'

loop_
  _atom_site_type_symbol
  _atom_site_label
  _atom_site_symmetry_multiplicity
  _atom_site_fract_x
  _atom_site_fract_y
  _atom_site_fract_z
  _atom_site_occupancy
  H   H1        1.0  0.69649  0.40689  0.23701  1.0000
  H   H2        1.0  0.58537  0.28685  0.22183  1.0000
  H   H3        1.0  0.70380  0.29527  0.23273  1.0000
  H   H4        1.0  0.30199  0.58848  0.24109  1.0000
  H   H5        1.0  0.40894  0.71115  0.23585  1.0000
  H   H6        1.0  0.28440  0.69378  0.25054  1.0000
  H   H7        1.0  0.75832  0.43648  0.19362  1.0000
  H   H8        1.0  0.67430  0.22867  0.03496  1.0000
  H   H9        1.0  0.25114  0.55802  0.03293  1.0000
  H   H10       1.0  0.83494  0.47768  0.19743  1.0000
  H   H11       1.0  0.64366  0.15292  0.04584  1.0000
  H   H12       1.0  0.17392  0.51095  0.03609  1.0000
  H   H13       1.0  0.83604  0.37195  0.28698  1.0000
  H   H14       1.0  0.53583  0.16548  0.42250  1.0000
  H   H15       1.0  0.14667  0.61027  0.45611  1.0000
  H   H16       1.0  0.76032  0.33176  0.29042  1.0000
  H   H17       1.0  0.56695  0.24126  0.41725  1.0000
  H   H18       1.0  0.22350  0.65632  0.45851  1.0000
  H   H19       1.0  0.89375  0.41850  0.35640  1.0000
  H   H20       1.0  0.58404  0.48870  0.28582  1.0000
  H   H21       1.0  0.51117  0.09612  0.20016  1.0000
  H   H22       1.0  0.09940  0.57733  0.23305  1.0000
  H   H23       1.0  0.42223  0.51585  0.17568  1.0000
  H   H24       1.0  0.47986  0.89964  0.23118  1.0000
  H   H25       1.0  0.03243  0.56662  0.20938  1.0000
  H   H26       1.0  0.96212  0.42373  0.33575  1.0000
  H   H27       1.0  0.95409  0.52350  0.22751  1.0000
  H   H28       1.0  0.04071  0.46561  0.30556  1.0000
  H   H29       1.0  0.69613  0.41072  0.74026  1.0000
  H   H30       1.0  0.58909  0.28719  0.71570  1.0000
  H   H31       1.0  0.71120  0.30171  0.71155  1.0000
  H   H32       1.0  0.30286  0.59242  0.74835  1.0000
  H   H33       1.0  0.41353  0.71207  0.73222  1.0000
  H   H34       1.0  0.29078  0.70136  0.76266  1.0000
  H   H35       1.0  0.76039  0.43979  0.65948  1.0000
  H   H36       1.0  0.57003  0.31262  0.56651  1.0000
  H   H37       1.0  0.68215  0.23350  0.51428  1.0000
  H   H38       1.0  0.32366  0.75410  0.65646  1.0000
  H   H39       1.0  0.83633  0.48424  0.67522  1.0000
  H   H40       1.0  0.52388  0.34429  0.58115  1.0000
  H   H41       1.0  0.65395  0.15804  0.52365  1.0000
  H   H42       1.0  0.35708  0.83094  0.66298  1.0000
  H   H43       1.0  0.83918  0.38561  0.81571  1.0000
  H   H44       1.0  0.60150  0.46290  0.91725  1.0000
  H   H45       1.0  0.54667  0.16827  0.91486  1.0000
  H   H46       1.0  0.46573  0.85000  0.83069  1.0000
  H   H47       1.0  0.76389  0.34293  0.81270  1.0000
  H   H48       1.0  0.64634  0.43128  0.90830  1.0000
  H   H49       1.0  0.57520  0.24366  0.90874  1.0000
  H   H50       1.0  0.43205  0.77546  0.83557  1.0000
  H   H51       1.0  0.89883  0.42665  0.83031  1.0000
  H   H52       1.0  0.58061  0.48464  0.77507  1.0000
  H   H53       1.0  0.52182  0.09927  0.69945  1.0000
  H   H54       1.0  0.10352  0.58880  0.74602  1.0000
  H   H55       1.0  0.42083  0.51578  0.67600  1.0000
  H   H56       1.0  0.49120  0.90685  0.77508  1.0000
  H   H57       1.0  0.42805  0.45540  0.65330  1.0000
  H   H58       1.0  0.57154  0.54501  0.81872  1.0000
  H   H59       1.0  0.46854  0.42073  0.67450  1.0000
  H   H60       1.0  0.53070  0.57969  0.80122  1.0000
  C   C1        1.0  0.70657  0.35474  0.23549  1.0000
  C   C2        1.0  0.63840  0.34935  0.22793  1.0000
  C   C3        1.0  0.64276  0.28620  0.22525  1.0000
  C   C4        1.0  0.28848  0.63836  0.24639  1.0000
  C   C5        1.0  0.35900  0.64808  0.24185  1.0000
  C   C6        1.0  0.34916  0.70833  0.24204  1.0000
  C   C7        1.0  0.68186  0.37321  0.23426  1.0000
  C   C8        1.0  0.61915  0.30572  0.22408  1.0000
  C   C9        1.0  0.68621  0.31093  0.22968  1.0000
  C   C10       1.0  0.31538  0.62201  0.24279  1.0000
  C   C11       1.0  0.37519  0.69092  0.23964  1.0000
  C   C12       1.0  0.30557  0.68152  0.24847  1.0000
  C   C13       1.0  0.75238  0.38045  0.24278  1.0000
  C   C14       1.0  0.62296  0.24064  0.22540  1.0000
  C   C15       1.0  0.24281  0.61064  0.24513  1.0000
  C   C16       1.0  0.77467  0.42232  0.21935  1.0000
  C   C17       1.0  0.64426  0.21503  0.12225  1.0000
  C   C18       1.0  0.22820  0.56922  0.12761  1.0000
  C   C19       1.0  0.81796  0.44574  0.21976  1.0000
  C   C20       1.0  0.62722  0.17266  0.12661  1.0000
  C   C21       1.0  0.18518  0.54288  0.12780  1.0000
  C   C22       1.0  0.84133  0.42857  0.24450  1.0000
  C   C23       1.0  0.58726  0.15373  0.23024  1.0000
  C   C24       1.0  0.15517  0.55765  0.24319  1.0000
  C   C25       1.0  0.81933  0.38665  0.26792  1.0000
  C   C26       1.0  0.56570  0.17909  0.33415  1.0000
  C   C27       1.0  0.16960  0.59914  0.36091  1.0000
  C   C28       1.0  0.77608  0.36357  0.26804  1.0000
  C   C29       1.0  0.58343  0.22180  0.33139  1.0000
  C   C30       1.0  0.21272  0.62495  0.36222  1.0000
  C   C31       1.0  0.90748  0.44556  0.29589  1.0000
  C   C32       1.0  0.55102  0.46608  0.26847  1.0000
  C   C33       1.0  0.53194  0.08550  0.21948  1.0000
  C   C34       1.0  0.08712  0.54447  0.24357  1.0000
  C   C35       1.0  0.45395  0.53932  0.20870  1.0000
  C   C36       1.0  0.45665  0.90947  0.22957  1.0000
  C   C37       1.0  0.95310  0.47108  0.28331  1.0000
  C   C38       1.0  0.04149  0.51870  0.25616  1.0000
  C   C39       1.0  0.01684  0.53517  0.23616  1.0000
  C   C40       1.0  0.97771  0.45485  0.30599  1.0000
  C   C41       1.0  0.97333  0.51153  0.24676  1.0000
  C   C42       1.0  0.02137  0.47797  0.29008  1.0000
  C   C43       1.0  0.70983  0.35996  0.72630  1.0000
  C   C44       1.0  0.63972  0.35117  0.72638  1.0000
  C   C45       1.0  0.64839  0.28957  0.71229  1.0000
  C   C46       1.0  0.29212  0.64422  0.75606  1.0000
  C   C47       1.0  0.36162  0.65026  0.74252  1.0000
  C   C48       1.0  0.35495  0.71263  0.74680  1.0000
  C   C49       1.0  0.68312  0.37687  0.73192  1.0000
  C   C50       1.0  0.62273  0.30751  0.71758  1.0000
  C   C51       1.0  0.69172  0.31598  0.71464  1.0000
  C   C52       1.0  0.31771  0.62600  0.74857  1.0000
  C   C53       1.0  0.37952  0.69326  0.73984  1.0000
  C   C54       1.0  0.31092  0.68756  0.75735  1.0000
  C   C55       1.0  0.75544  0.38735  0.73457  1.0000
  C   C56       1.0  0.61243  0.36982  0.73220  1.0000
  C   C57       1.0  0.63048  0.24402  0.70947  1.0000
  C   C58       1.0  0.37508  0.75809  0.74381  1.0000
  C   C59       1.0  0.77701  0.42802  0.69894  1.0000
  C   C60       1.0  0.57678  0.34545  0.64514  1.0000
  C   C61       1.0  0.65250  0.21927  0.60257  1.0000
  C   C62       1.0  0.35438  0.77514  0.69892  1.0000
  C   C63       1.0  0.82004  0.45312  0.70512  1.0000
  C   C64       1.0  0.55083  0.36291  0.65238  1.0000
  C   C65       1.0  0.63682  0.17702  0.60635  1.0000
  C   C66       1.0  0.37308  0.81821  0.70073  1.0000
  C   C67       1.0  0.84391  0.43865  0.74488  1.0000
  C   C68       1.0  0.55997  0.40598  0.74493  1.0000
  C   C69       1.0  0.59772  0.15754  0.71413  1.0000
  C   C70       1.0  0.41392  0.84620  0.74383  1.0000
  C   C71       1.0  0.82242  0.39797  0.78090  1.0000
  C   C72       1.0  0.59515  0.43034  0.83574  1.0000
  C   C73       1.0  0.57557  0.18213  0.82218  1.0000
  C   C74       1.0  0.43484  0.82934  0.78928  1.0000
  C   C75       1.0  0.77941  0.37335  0.77722  1.0000
  C   C76       1.0  0.62062  0.41250  0.82981  1.0000
  C   C77       1.0  0.59182  0.22459  0.81921  1.0000
  C   C78       1.0  0.41573  0.78657  0.79043  1.0000
  C   C79       1.0  0.91119  0.45572  0.78518  1.0000
  C   C80       1.0  0.54764  0.46196  0.75731  1.0000
  C   C81       1.0  0.54361  0.08940  0.71532  1.0000
  C   C82       1.0  0.09085  0.55525  0.74884  1.0000
  C   C83       1.0  0.45260  0.53845  0.71005  1.0000
  C   C84       1.0  0.46924  0.91538  0.75174  1.0000
  C   C85       1.0  0.52237  0.48068  0.74925  1.0000
  C   C86       1.0  0.47696  0.51971  0.72588  1.0000
  C   C87       1.0  0.45934  0.47477  0.69190  1.0000
  C   C88       1.0  0.53997  0.52563  0.78312  1.0000
  C   C89       1.0  0.48153  0.45537  0.70353  1.0000
  C   C90       1.0  0.51762  0.54505  0.77335  1.0000
  N   N1        1.0  0.88495  0.45443  0.23795  1.0000
  N   N2        1.0  0.53632  0.42548  0.24974  1.0000
  N   N3        1.0  0.57141  0.11089  0.22974  1.0000
  N   N4        1.0  0.11218  0.52985  0.24177  1.0000
  N   N5        1.0  0.46759  0.57982  0.22862  1.0000
  N   N6        1.0  0.41694  0.88328  0.22948  1.0000
  N   N7        1.0  0.88740  0.46580  0.74190  1.0000
  N   N8        1.0  0.53316  0.42145  0.73960  1.0000
  N   N9        1.0  0.58335  0.11516  0.71638  1.0000
  N   N10       1.0  0.11517  0.53970  0.74619  1.0000
  N   N11       1.0  0.46707  0.57912  0.73169  1.0000
  N   N12       1.0  0.43031  0.88851  0.73451  1.0000
  C   C91       1.0  0.46305  0.98410  0.69986  1.0000
  C   C92       1.0  0.48128  0.96195  0.72367  1.0000
  C  Sn1       1.0  0.52260  0.98352  0.75982  1.0000
  C  Sn2       1.0  0.54601  0.02809  0.77235  1.0000
  C   C93       1.0  0.01798  0.04997  0.74844  1.0000
  C   C94       1.0  0.48611  0.02806  0.71226  1.0000
  H   H61       1.0  0.43104  0.96716  0.67196  1.0000
  O  Te1       1.0  0.54034  0.96090  0.78318  1.0000
  O  Te2       1.0  0.07786  0.05044  0.80842  1.0000
  H   H62       1.0  0.96250  0.04523  0.69395  1.0000
  Mg  Mg1       1.0  0.59773  0.00552  0.82983  1.0000
  C   C95       1.0  0.60746  0.43304  0.35179  1.0000
  C   C96       1.0  0.57332  0.41674  0.26398  1.0000
  C  Sn3       1.0  0.55729  0.37432  0.15935  1.0000
  C  Sn4       1.0  0.57585  0.34778  0.14263  1.0000
  C   C97       1.0  0.60998  0.36438  0.23112  1.0000
  C   C98       1.0  0.62578  0.40688  0.33543  1.0000
  H   H63       1.0  0.61967  0.46592  0.43258  1.0000
  O  Te3       1.0  0.52317  0.35855  0.07247  1.0000
  O  Te4       1.0  0.56045  0.30526  0.03897  1.0000
  H   H64       1.0  0.65220  0.41948  0.40350  1.0000
  Mg  Mg2       1.0  0.47437  0.35897  0.94642  1.0000
  C   C99       1.0  0.44147  0.64953  0.16106  1.0000
  C   C100      1.0  0.39763  0.63446  0.21334  1.0000
  C  Sn5       1.0  0.37408  0.59932  0.28896  1.0000
  C  Sn6       1.0  0.39490  0.57897  0.31255  1.0000
  C   C101      1.0  0.43878  0.59431  0.25993  1.0000
  C   C102      1.0  0.46203  0.62949  0.18435  1.0000
  H   H65       1.0  0.45947  0.67676  0.10268  1.0000
  O  Te5       1.0  0.33030  0.58467  0.34039  1.0000
  O  Te6       1.0  0.37214  0.54380  0.38784  1.0000
  H   H66       1.0  0.49598  0.64117  0.14400  1.0000
  Mg  Mg3       1.0  0.31306  0.53566  0.43673  1.0000
  C   C103      1.0  0.38604  0.57752  0.81760  1.0000
  C   C104      1.0  0.42823  0.58724  0.73673  1.0000
  C  Sn7       1.0  0.45212  0.62143  0.65534  1.0000
  C  Sn8       1.0  0.43332  0.64629  0.65515  1.0000
  C   C105      1.0  0.39109  0.63633  0.73652  1.0000
  C   C106      1.0  0.36748  0.60205  0.81753  1.0000
  H   H67       1.0  0.36777  0.55101  0.88037  1.0000
  O  Te7       1.0  0.49423  0.63068  0.57510  1.0000
  O  Te8       1.0  0.45648  0.68065  0.57483  1.0000
  H   H68       1.0  0.33482  0.59455  0.88023  1.0000
  Mg  Mg4       1.0  0.51277  0.68067  0.48285  1.0000
  C   C107      1.0  0.04553  0.01542  0.26736  1.0000
  C   C108      1.0  0.52002  0.03709  0.22498  1.0000
  C  Sn9       1.0  0.47869  0.01627  0.18966  1.0000
  C  Sn10      1.0  0.96248  0.97295  0.19706  1.0000
  C   C109      1.0  0.97879  0.95156  0.23972  1.0000
  C   C110      1.0  0.02020  0.97270  0.27476  1.0000
  H   H69       1.0  0.56807  0.03178  0.29458  1.0000
  O  Te9       1.0  0.46319  0.03838  0.14746  1.0000
  O  Te10      1.0  0.92106  0.95137  0.16243  1.0000
  H   H70       1.0  0.03258  0.95593  0.30769  1.0000
  Mg  Mg5       1.0  0.91423  0.99518  0.11084  1.0000
  C   C111      1.0  0.52938  0.54941  0.28737  1.0000
  C   C112      1.0  0.49025  0.52885  0.23017  1.0000
  C  Sn11      1.0  0.46755  0.48427  0.19332  1.0000
  C  Sn12      1.0  0.48441  0.45991  0.21428  1.0000
  C   C113      1.0  0.52357  0.48078  0.27170  1.0000
  C   C114      1.0  0.54602  0.52540  0.30815  1.0000
  H   H71       1.0  0.54675  0.58394  0.31567  1.0000
  O  Te11      1.0  0.42851  0.46425  0.13623  1.0000
  O  Te12      1.0  0.46238  0.41531  0.17844  1.0000
  H   H72       1.0  0.57631  0.54131  0.35255  1.0000
  Mg  Mg6       1.0  0.41043  0.40272  0.10400  1.0000
  C   C115      1.0  0.98673  0.53321  0.74040  1.0000
  C   C116      1.0  0.96153  0.49093  0.75349  1.0000
  C  Sn13      1.0  0.97921  0.46814  0.77615  1.0000
  C  Sn14      1.0  0.02292  0.48813  0.78589  1.0000
  C   C117      1.0  0.04785  0.53045  0.77278  1.0000
  C   C118      1.0  0.02984  0.55295  0.75006  1.0000
  H   H73       1.0  0.97279  0.55063  0.72292  1.0000
  O  Te13      1.0  0.95359  0.42592  0.78893  1.0000
  O  Te14      1.0  0.04140  0.46610  0.80857  1.0000
  H   H74       1.0  0.04935  0.58569  0.74005  1.0000
  Mg  Mg7       1.0  0.99340  0.40917  0.81903  1.0000
  C   C119      1.0  0.18175  0.61662  0.90104  1.0000
  C   C120      1.0  0.16120  0.57784  0.77872  1.0000
  C  Sn15      1.0  0.18430  0.55707  0.64464  1.0000
  C  Sn16      1.0  0.22880  0.57553  0.63318  1.0000
  C   C121      1.0  0.24906  0.61433  0.75628  1.0000
  C   C122      1.0  0.22564  0.63485  0.88987  1.0000
  H   H75       1.0  0.20269  0.57201  0.00447  1.0000
  O  Te15      1.0  0.16327  0.51834  0.52348  1.0000
  O  Te16      1.0  0.25266  0.55544  0.50055  1.0000
  H   H76       1.0  0.24155  0.66487  0.98464  1.0000
  Mg  Mg8       1.0  0.20959  0.50317  0.36645  1.0000
  C   C123      1.0  0.41661  0.79432  0.28890  1.0000
  C   C124      1.0  0.37659  0.76117  0.25833  1.0000
  C  Sn17      1.0  0.34876  0.76791  0.20464  1.0000
  C  Sn18      1.0  0.36132  0.80862  0.18118  1.0000
  C   C125      1.0  0.40143  0.84157  0.21198  1.0000
  C   C126      1.0  0.42902  0.83448  0.26573  1.0000
  H   H77       1.0  0.43797  0.78884  0.33040  1.0000
  O  Te17      1.0  0.30889  0.73444  0.17474  1.0000
  O  Te18      1.0  0.33413  0.81622  0.12754  1.0000
  H   H78       1.0  0.46002  0.86015  0.28927  1.0000
  Mg  Mg9       1.0  0.28306  0.76051  0.10328  1.0000
