data_image0
_chemical_formula_structural       H96C120S12N12O12SnCSn2CSnTe4Mg2SnCSn2CSnTe4Mg2SnCSn2CSnTe4Mg2SnCSn2CSnTe4Mg2SnCSn2CSnTe4Mg2SnCSn2CSnTe4Mg2SnCSn2CSnTe4Mg2SnCSn2CSnTe4Mg2SnCSn2CSnTe4Mg2SnCSn2CSnTe4Mg2SnCSn2CSnTe4Mg2SnCSn2CSnTe4Mg2
_chemical_formula_sum              "H96 C144 S12 N12 O12 Sn48 Te48 Mg24"
_cell_length_a       44.5865
_cell_length_b       44.1824
_cell_length_c       8.03722
_cell_angle_alpha    87.7643
_cell_angle_beta     66.0697
_cell_angle_gamma    119.914

_symmetry_space_group_name_H-M    'P1'
_space_group_IT_number       1

loop_
  _space_group_symop_operation_xyz
  'x, y, z'

loop_
  _atom_site_type_symbol
  _atom_site_label
  _atom_site_symmetry_multiplicity
  _atom_site_fract_x
  _atom_site_fract_y
  _atom_site_fract_z
  _atom_site_occupancy
  H   H1        1.0  0.70804  0.40019  0.27342  1.0000
  H   H2        1.0  0.61822  0.30198  0.24193  1.0000
  H   H3        1.0  0.71328  0.30587  0.27656  1.0000
  H   H4        1.0  0.31571  0.60517  0.23278  1.0000
  H   H5        1.0  0.41104  0.70395  0.22112  1.0000
  H   H6        1.0  0.30859  0.69832  0.26783  1.0000
  H   H7        1.0  0.88193  0.40203  0.19309  1.0000
  H   H8        1.0  0.61123  0.46819  0.26021  1.0000
  H   H9        1.0  0.55419  0.14616  0.16242  1.0000
  H   H10       1.0  0.14034  0.60356  0.31764  1.0000
  H   H11       1.0  0.40588  0.53432  0.24641  1.0000
  H   H12       1.0  0.46777  0.86131  0.36472  1.0000
  H   H13       1.0  0.94654  0.41621  0.19504  1.0000
  H   H14       1.0  0.59403  0.51649  0.26904  1.0000
  H   H15       1.0  0.50158  0.08007  0.17869  1.0000
  H   H16       1.0  0.07295  0.58639  0.33064  1.0000
  H   H17       1.0  0.41814  0.48279  0.25657  1.0000
  H   H18       1.0  0.51888  0.92821  0.35410  1.0000
  H   H19       1.0  0.46757  0.04522  0.05064  1.0000
  H   H20       1.0  0.00474  0.42727  0.02450  1.0000
  H   H21       1.0  0.58213  0.58913  0.99592  1.0000
  H   H22       1.0  0.58902  0.00114  0.02218  1.0000
  H   H23       1.0  0.00617  0.57749  0.05735  1.0000
  H   H24       1.0  0.42797  0.44601  0.10482  1.0000
  H   H25       1.0  0.43960  0.03756  0.30042  1.0000
  H   H26       1.0  0.97871  0.39462  0.25284  1.0000
  H   H27       1.0  0.61338  0.57538  0.99740  1.0000
  H   H28       1.0  0.58990  0.97330  0.18313  1.0000
  H   H29       1.0  0.05139  0.59844  0.06711  1.0000
  H   H30       1.0  0.39376  0.42590  0.35583  1.0000
  H   H31       1.0  0.37778  0.98687  0.30971  1.0000
  H   H32       1.0  0.04115  0.39659  0.17184  1.0000
  H   H33       1.0  0.63922  0.62269  0.16058  1.0000
  H   H34       1.0  0.64653  0.03047  0.18636  1.0000
  H   H35       1.0  0.02900  0.62946  0.29580  1.0000
  H   H36       1.0  0.38411  0.36532  0.33339  1.0000
  H   H37       1.0  0.40538  0.99298  0.06380  1.0000
  H   H38       1.0  0.06550  0.42838  0.94426  1.0000
  H   H39       1.0  0.60810  0.63625  0.15523  1.0000
  H   H40       1.0  0.64634  0.05757  0.01832  1.0000
  H   H41       1.0  0.98304  0.60731  0.29579  1.0000
  H   H42       1.0  0.41868  0.38560  0.08350  1.0000
  H   H43       1.0  0.39923  0.02816  0.13661  1.0000
  H   H44       1.0  0.02471  0.38257  0.00352  1.0000
  H   H45       1.0  0.64782  0.64358  0.93776  1.0000
  H   H46       1.0  0.65936  0.02594  0.95271  1.0000
  H   H47       1.0  0.02792  0.64061  0.08417  1.0000
  H   H48       1.0  0.37267  0.38134  0.17595  1.0000
  H   H49       1.0  0.68208  0.39222  0.76658  1.0000
  H   H50       1.0  0.59042  0.29271  0.75270  1.0000
  H   H51       1.0  0.68718  0.29800  0.77575  1.0000
  H   H52       1.0  0.29180  0.59577  0.73775  1.0000
  H   H53       1.0  0.38401  0.69586  0.73438  1.0000
  H   H54       1.0  0.28110  0.68710  0.76714  1.0000
  H   H55       1.0  0.85421  0.39519  0.70323  1.0000
  H   H56       1.0  0.58379  0.45971  0.81428  1.0000
  H   H57       1.0  0.53278  0.13712  0.66132  1.0000
  H   H58       1.0  0.11586  0.58715  0.81216  1.0000
  H   H59       1.0  0.38985  0.53541  0.73595  1.0000
  H   H60       1.0  0.44299  0.85154  0.85973  1.0000
  H   H61       1.0  0.91564  0.40598  0.70822  1.0000
  H   H62       1.0  0.56993  0.51043  0.81197  1.0000
  H   H63       1.0  0.48322  0.07305  0.65389  1.0000
  H   H64       1.0  0.05253  0.57371  0.82009  1.0000
  H   H65       1.0  0.40229  0.48462  0.73388  1.0000
  H   H66       1.0  0.49355  0.91774  0.86122  1.0000
  H   H67       1.0  0.44581  0.03935  0.54985  1.0000
  H   H68       1.0  0.97400  0.41192  0.54334  1.0000
  H   H69       1.0  0.58653  0.57005  0.51951  1.0000
  H   H70       1.0  0.56321  0.97833  0.59412  1.0000
  H   H71       1.0  0.00983  0.58253  0.54573  1.0000
  H   H72       1.0  0.40236  0.44222  0.62166  1.0000
  H   H73       1.0  0.42035  0.02935  0.80329  1.0000
  H   H74       1.0  0.94103  0.38159  0.78261  1.0000
  H   H75       1.0  0.60194  0.57354  0.69512  1.0000
  H   H76       1.0  0.57214  0.96840  0.78028  1.0000
  H   H77       1.0  0.03459  0.59631  0.68313  1.0000
  H   H78       1.0  0.37715  0.42676  0.87658  1.0000
  H   H79       1.0  0.38134  0.98769  0.57407  1.0000
  H   H80       1.0  0.99323  0.37118  0.76003  1.0000
  H   H81       1.0  0.59918  0.62937  0.72522  1.0000
  H   H82       1.0  0.62072  0.03726  0.70479  1.0000
  H   H83       1.0  0.98453  0.60891  0.89666  1.0000
  H   H84       1.0  0.36453  0.36462  0.86952  1.0000
  H   H85       1.0  0.37692  0.02269  0.65901  1.0000
  H   H86       1.0  0.02523  0.40109  0.52084  1.0000
  H   H87       1.0  0.58660  0.62632  0.54050  1.0000
  H   H88       1.0  0.61318  0.04508  0.51065  1.0000
  H   H89       1.0  0.96139  0.59650  0.75283  1.0000
  H   H90       1.0  0.39154  0.38069  0.61524  1.0000
  H   H91       1.0  0.35654  0.98072  0.82392  1.0000
  H   H92       1.0  0.98024  0.35862  0.57970  1.0000
  H   H93       1.0  0.63413  0.63670  0.48971  1.0000
  H   H94       1.0  0.63610  0.02150  0.50695  1.0000
  H   H95       1.0  0.01076  0.63610  0.65476  1.0000
  H   H96       1.0  0.34537  0.37617  0.74117  1.0000
  C   C1        1.0  0.71500  0.35551  0.27507  1.0000
  C   C2        1.0  0.65979  0.35316  0.26214  1.0000
  C   C3        1.0  0.66322  0.29939  0.26282  1.0000
  C   C4        1.0  0.30757  0.64963  0.24786  1.0000
  C   C5        1.0  0.36560  0.65283  0.22467  1.0000
  C   C6        1.0  0.36171  0.70604  0.24852  1.0000
  C   C7        1.0  0.69520  0.37199  0.27090  1.0000
  C   C8        1.0  0.64461  0.31690  0.25656  1.0000
  C   C9        1.0  0.69816  0.31889  0.27447  1.0000
  C   C10       1.0  0.32833  0.63335  0.23544  1.0000
  C   C11       1.0  0.38220  0.68920  0.22862  1.0000
  C   C12       1.0  0.32469  0.68576  0.25575  1.0000
  C   C13       1.0  0.88889  0.42863  0.21611  1.0000
  C   C14       1.0  0.58400  0.44803  0.25762  1.0000
  C   C15       1.0  0.56992  0.13503  0.18549  1.0000
  C   C16       1.0  0.13303  0.57622  0.30694  1.0000
  C   C17       1.0  0.43381  0.55293  0.24689  1.0000
  C   C18       1.0  0.45289  0.87186  0.32717  1.0000
  C   C19       1.0  0.92459  0.45061  0.22715  1.0000
  C   C20       1.0  0.55988  0.46072  0.25895  1.0000
  C   C21       1.0  0.55363  0.09696  0.20227  1.0000
  C   C22       1.0  0.09707  0.55326  0.29950  1.0000
  C   C23       1.0  0.45492  0.53751  0.25965  1.0000
  C   C24       1.0  0.46714  0.90933  0.31832  1.0000
  C   C25       1.0  0.97964  0.50013  0.26092  1.0000
  C   C26       1.0  0.50683  0.46676  0.26706  1.0000
  C   C27       1.0  0.54011  0.03485  0.25639  1.0000
  C   C28       1.0  0.04308  0.50328  0.26039  1.0000
  C   C29       1.0  0.50461  0.52816  0.26912  1.0000
  C   C30       1.0  0.47794  0.97040  0.27395  1.0000
  C   C31       1.0  0.98341  0.46973  0.23502  1.0000
  C   C32       1.0  0.53813  0.49936  0.26880  1.0000
  C   C33       1.0  0.50947  0.03516  0.23620  1.0000
  C   C34       1.0  0.03881  0.53303  0.28665  1.0000
  C   C35       1.0  0.47265  0.49547  0.26656  1.0000
  C   C36       1.0  0.50791  0.97041  0.29865  1.0000
  C   C37       1.0  0.95097  0.44190  0.21633  1.0000
  C   C38       1.0  0.56797  0.49513  0.26507  1.0000
  C   C39       1.0  0.51896  0.07173  0.20259  1.0000
  C   C40       1.0  0.07031  0.56130  0.30784  1.0000
  C   C41       1.0  0.44463  0.50226  0.26263  1.0000
  C   C42       1.0  0.50046  0.93482  0.32809  1.0000
  C   C43       1.0  0.00642  0.53115  0.28618  1.0000
  C   C44       1.0  0.47422  0.46411  0.26616  1.0000
  C   C45       1.0  0.53995  0.00363  0.28547  1.0000
  C   C46       1.0  0.01639  0.47204  0.23316  1.0000
  C   C47       1.0  0.53676  0.53048  0.26981  1.0000
  C   C48       1.0  0.47773  0.00173  0.24531  1.0000
  C   C49       1.0  0.44162  0.02457  0.18606  1.0000
  C   C50       1.0  0.00818  0.41725  0.13806  1.0000
  C   C51       1.0  0.59722  0.58738  0.07162  1.0000
  C   C52       1.0  0.59656  0.00066  0.13615  1.0000
  C   C53       1.0  0.01979  0.58830  0.14729  1.0000
  C   C54       1.0  0.41549  0.42446  0.23269  1.0000
  C   C55       1.0  0.40378  0.00712  0.17315  1.0000
  C   C56       1.0  0.03658  0.40547  0.06007  1.0000
  C   C57       1.0  0.62466  0.62460  0.08245  1.0000
  C   C58       1.0  0.63974  0.03045  0.06954  1.0000
  C   C59       1.0  0.01464  0.61814  0.20980  1.0000
  C   C60       1.0  0.39664  0.38683  0.20523  1.0000
  C   C61       1.0  0.68964  0.34807  0.76490  1.0000
  C   C62       1.0  0.63319  0.34477  0.76144  1.0000
  C   C63       1.0  0.63649  0.29089  0.76690  1.0000
  C   C64       1.0  0.28207  0.63910  0.74957  1.0000
  C   C65       1.0  0.34070  0.64451  0.73116  1.0000
  C   C66       1.0  0.33466  0.69657  0.75162  1.0000
  C   C67       1.0  0.66929  0.36408  0.76375  1.0000
  C   C68       1.0  0.61750  0.30814  0.76136  1.0000
  C   C69       1.0  0.67237  0.31115  0.77022  1.0000
  C   C70       1.0  0.30388  0.62403  0.73825  1.0000
  C   C71       1.0  0.35571  0.68057  0.73677  1.0000
  C   C72       1.0  0.29791  0.67534  0.75679  1.0000
  C   C73       1.0  0.86233  0.42255  0.71704  1.0000
  C   C74       1.0  0.55964  0.44245  0.78405  1.0000
  C   C75       1.0  0.54723  0.12558  0.69555  1.0000
  C   C76       1.0  0.10886  0.56009  0.79724  1.0000
  C   C77       1.0  0.41706  0.55353  0.74349  1.0000
  C   C78       1.0  0.42800  0.86234  0.82561  1.0000
  C   C79       1.0  0.89807  0.44366  0.72885  1.0000
  C   C80       1.0  0.53785  0.45714  0.77448  1.0000
  C   C81       1.0  0.53206  0.08797  0.70273  1.0000
  C   C82       1.0  0.07286  0.53788  0.78984  1.0000
  C   C83       1.0  0.43783  0.53787  0.75579  1.0000
  C   C84       1.0  0.44303  0.90003  0.81600  1.0000
  C   C85       1.0  0.95531  0.49126  0.75719  1.0000
  C   C86       1.0  0.48917  0.46668  0.75191  1.0000
  C   C87       1.0  0.51791  0.02559  0.75291  1.0000
  C   C88       1.0  0.01663  0.48998  0.75517  1.0000
  C   C89       1.0  0.48627  0.52725  0.76834  1.0000
  C   C90       1.0  0.45657  0.96217  0.75778  1.0000
  C   C91       1.0  0.95598  0.45916  0.73857  1.0000
  C   C92       1.0  0.51889  0.49779  0.77177  1.0000
  C   C93       1.0  0.48926  0.02712  0.71786  1.0000
  C   C94       1.0  0.01495  0.52114  0.77948  1.0000
  C   C95       1.0  0.45518  0.49557  0.75537  1.0000
  C   C96       1.0  0.48522  0.96120  0.79138  1.0000
  C   C97       1.0  0.92236  0.43253  0.72390  1.0000
  C   C98       1.0  0.54592  0.49124  0.78787  1.0000
  C   C99       1.0  0.49924  0.06387  0.68586  1.0000
  C   C100      1.0  0.04740  0.54780  0.80009  1.0000
  C   C101      1.0  0.42790  0.50307  0.74864  1.0000
  C   C102      1.0  0.47621  0.92504  0.82846  1.0000
  C   C103      1.0  0.98323  0.52139  0.78263  1.0000
  C   C104      1.0  0.45716  0.46453  0.74726  1.0000
  C   C105      1.0  0.51648  0.99375  0.78915  1.0000
  C   C106      1.0  0.98744  0.45882  0.74067  1.0000
  C   C107      1.0  0.51751  0.52893  0.77667  1.0000
  C   C108      1.0  0.45744  0.99403  0.72507  1.0000
  C   C109      1.0  0.42069  0.01768  0.68472  1.0000
  C   C110      1.0  0.97239  0.40061  0.67277  1.0000
  C   C111      1.0  0.58564  0.57979  0.64394  1.0000
  C   C112      1.0  0.57238  0.98906  0.69807  1.0000
  C   C113      1.0  0.00591  0.58482  0.68756  1.0000
  C   C114      1.0  0.39475  0.42308  0.74644  1.0000
  C   C115      1.0  0.38151  0.00117  0.68582  1.0000
  C   C116      1.0  0.99408  0.38174  0.63119  1.0000
  C   C117      1.0  0.60242  0.62047  0.59707  1.0000
  C   C118      1.0  0.61296  0.02538  0.59938  1.0000
  C   C119      1.0  0.98968  0.60790  0.75203  1.0000
  C   C120      1.0  0.37270  0.38374  0.74318  1.0000
  S   S1        1.0  0.93767  0.49328  0.26194  1.0000
  S   S2        1.0  0.51505  0.43197  0.25954  1.0000
  S   S3        1.0  0.57755  0.07790  0.23802  1.0000
  S   S4        1.0  0.08495  0.51073  0.26364  1.0000
  S   S5        1.0  0.49899  0.56447  0.26626  1.0000
  S   S6        1.0  0.44282  0.92754  0.27844  1.0000
  S   S7        1.0  0.91485  0.48742  0.75367  1.0000
  S   S8        1.0  0.49642  0.43129  0.74473  1.0000
  S   S9        1.0  0.55369  0.06766  0.75263  1.0000
  S   S10       1.0  0.05817  0.49506  0.75368  1.0000
  S   S11       1.0  0.48083  0.56366  0.77213  1.0000
  S   S12       1.0  0.42037  0.91935  0.76693  1.0000
  N   N1        1.0  0.86683  0.44045  0.23076  1.0000
  N   N2        1.0  0.57390  0.41517  0.25203  1.0000
  N   N3        1.0  0.60184  0.15458  0.19853  1.0000
  N   N4        1.0  0.15568  0.56506  0.29166  1.0000
  N   N5        1.0  0.44803  0.58727  0.23025  1.0000
  N   N6        1.0  0.42456  0.85288  0.28794  1.0000
  N   N7        1.0  0.84144  0.43521  0.72073  1.0000
  N   N8        1.0  0.55054  0.41084  0.75808  1.0000
  N   N9        1.0  0.57649  0.14436  0.72861  1.0000
  N   N10       1.0  0.13179  0.54923  0.78118  1.0000
  N   N11       1.0  0.43028  0.58741  0.73627  1.0000
  N   N12       1.0  0.39917  0.84374  0.78852  1.0000
  O   O1        1.0  0.44568  0.99535  0.22988  1.0000
  O   O2        1.0  0.02519  0.44624  0.21637  1.0000
  O   O3        1.0  0.56730  0.56297  0.26604  1.0000
  O   O4        1.0  0.57122  0.00617  0.29775  1.0000
  O   O5        1.0  0.00019  0.55871  0.31838  1.0000
  O   O6        1.0  0.44702  0.43031  0.26793  1.0000
  O   O7        1.0  0.42582  0.98839  0.70716  1.0000
  O   O8        1.0  0.99205  0.43022  0.74150  1.0000
  O   O9        1.0  0.54445  0.56028  0.79603  1.0000
  O   O10       1.0  0.54319  0.99428  0.83616  1.0000
  O   O11       1.0  0.97676  0.54833  0.82471  1.0000
  O   O12       1.0  0.43078  0.43118  0.74037  1.0000
  C  Sn1       1.0  0.80461  0.43491  0.20872  1.0000
  C   C121      1.0  0.82176  0.42243  0.27885  1.0000
  C  Sn2       1.0  0.80647  0.38511  0.33003  1.0000
  C  Sn3       1.0  0.77335  0.35973  0.31060  1.0000
  C   C122      1.0  0.75622  0.37221  0.24047  1.0000
  C  Sn4       1.0  0.77149  0.40953  0.18929  1.0000
  O  Te1       1.0  0.82039  0.47235  0.15843  1.0000
  O  Te2       1.0  0.82412  0.37329  0.39987  1.0000
  O  Te3       1.0  0.75758  0.32227  0.36097  1.0000
  O  Te4       1.0  0.75386  0.42136  0.11946  1.0000
  Mg  Mg1       1.0  0.79192  0.31956  0.44915  1.0000
  Mg  Mg2       1.0  0.78605  0.47508  0.07004  1.0000
  C  Sn5       1.0  0.60948  0.36077  0.15494  1.0000
  C   C123      1.0  0.64040  0.37335  0.19708  1.0000
  C  Sn6       1.0  0.64813  0.39989  0.29170  1.0000
  C  Sn7       1.0  0.62445  0.41414  0.34545  1.0000
  C   C124      1.0  0.59355  0.40155  0.30335  1.0000
  C  Sn8       1.0  0.58580  0.37502  0.20869  1.0000
  O  Te5       1.0  0.60228  0.33422  0.06024  1.0000
  O  Te6       1.0  0.67921  0.41205  0.33222  1.0000
  O  Te7       1.0  0.63168  0.44070  0.44021  1.0000
  O  Te8       1.0  0.55474  0.36285  0.16820  1.0000
  Mg  Mg3       1.0  0.67735  0.44854  0.46377  1.0000
  Mg  Mg4       1.0  0.55656  0.32635  0.03676  1.0000
  C  Sn9       1.0  0.59277  0.21297  0.25412  1.0000
  C   C125      1.0  0.61299  0.19674  0.17352  1.0000
  C  Sn10      1.0  0.65168  0.21219  0.14032  1.0000
  C  Sn11      1.0  0.67056  0.24453  0.18879  1.0000
  C   C126      1.0  0.65035  0.26074  0.26937  1.0000
  C  Sn12      1.0  0.61166  0.24531  0.30259  1.0000
  O  Te9       1.0  0.55411  0.19705  0.28606  1.0000
  O  Te10      1.0  0.67129  0.19548  0.05953  1.0000
  O  Te11      1.0  0.70926  0.26045  0.15677  1.0000
  O  Te12      1.0  0.59205  0.26200  0.38336  1.0000
  Mg  Mg5       1.0  0.72366  0.22751  0.04367  1.0000
  Mg  Mg6       1.0  0.53967  0.22998  0.39938  1.0000
  C  Sn13      1.0  0.21544  0.63093  0.30246  1.0000
  C   C127      1.0  0.19906  0.59962  0.24683  1.0000
  C  Sn14      1.0  0.21620  0.57972  0.20857  1.0000
  C  Sn15      1.0  0.25040  0.59136  0.22639  1.0000
  C   C128      1.0  0.26675  0.62265  0.28202  1.0000
  C  Sn16      1.0  0.24964  0.64257  0.32028  1.0000
  O  Te13      1.0  0.19781  0.65040  0.34001  1.0000
  O  Te14      1.0  0.19930  0.54851  0.15311  1.0000
  O  Te15      1.0  0.26802  0.57186  0.18879  1.0000
  O  Te16      1.0  0.26652  0.67376  0.37574  1.0000
  Mg  Mg7       1.0  0.23408  0.53115  0.11776  1.0000
  Mg  Mg8       1.0  0.23175  0.69113  0.41122  1.0000
  C  Sn17      1.0  0.43188  0.64675  0.04623  1.0000
  C   C129      1.0  0.39184  0.63322  0.16140  1.0000
  C  Sn18      1.0  0.36823  0.60407  0.32954  1.0000
  C  Sn19      1.0  0.38499  0.58811  0.38378  1.0000
  C   C130      1.0  0.42501  0.60164  0.26867  1.0000
  C  Sn20      1.0  0.44864  0.63079  0.10047  1.0000
  O  Te17      1.0  0.35293  0.61749  0.87875  1.0000
  O  Te18      1.0  0.32827  0.59101  0.44231  1.0000
  O  Te19      1.0  0.36191  0.55892  0.55141  1.0000
  O  Te20      1.0  0.38658  0.58543  0.98775  1.0000
  Mg  Mg9       1.0  0.30901  0.55078  0.65747  1.0000
  Mg  Mg10      1.0  0.40588  0.62567  0.77263  1.0000
  C  Sn21      1.0  0.40855  0.76544  0.35845  1.0000
  C   C131      1.0  0.37698  0.74434  0.32409  1.0000
  C  Sn22      1.0  0.36369  0.76092  0.24814  1.0000
  C  Sn23      1.0  0.38236  0.79939  0.20554  1.0000
  C   C132      1.0  0.41391  0.82047  0.23987  1.0000
  C  Sn24      1.0  0.42721  0.80391  0.31585  1.0000
  O  Te21      1.0  0.42134  0.74828  0.43444  1.0000
  O  Te22      1.0  0.33207  0.73925  0.21509  1.0000
  O  Te23      1.0  0.36954  0.81653  0.12950  1.0000
  O  Te24      1.0  0.45882  0.82555  0.34887  1.0000
  Mg  Mg11      1.0  0.32538  0.77532  0.10973  1.0000
  Mg  Mg12      1.0  0.46555  0.78952  0.45412  1.0000
  C  Sn25      1.0  0.76749  0.41312  0.60545  1.0000
  C   C133      1.0  0.73846  0.37558  0.69447  1.0000
  C  Sn26      1.0  0.74032  0.35557  0.82443  1.0000
  C  Sn27      1.0  0.77185  0.37345  0.86640  1.0000
  C   C134      1.0  0.80085  0.41096  0.77744  1.0000
  C  Sn28      1.0  0.79902  0.43100  0.64743  1.0000
  O  Te25      1.0  0.76504  0.43258  0.47601  1.0000
  O  Te26      1.0  0.71096  0.31806  0.91157  1.0000
  O  Te27      1.0  0.77428  0.35395  0.99596  1.0000
  O  Te28      1.0  0.82836  0.46848  0.56034  1.0000
  Mg  Mg13      1.0  0.82919  0.36180  0.07792  1.0000
  Mg  Mg14      1.0  0.81213  0.48319  0.39405  1.0000
  C  Sn29      1.0  0.57824  0.35022  0.68517  1.0000
  C   C135      1.0  0.61229  0.36383  0.70240  1.0000
  C  Sn30      1.0  0.62587  0.39406  0.76911  1.0000
  C  Sn31      1.0  0.60496  0.41104  0.81978  1.0000
  C   C136      1.0  0.57092  0.39743  0.80258  1.0000
  C  Sn32      1.0  0.55732  0.36720  0.73584  1.0000
  O  Te29      1.0  0.56520  0.31996  0.61816  1.0000
  O  Te30      1.0  0.66000  0.40718  0.78505  1.0000
  O  Te31      1.0  0.61802  0.44133  0.88682  1.0000
  O  Te32      1.0  0.52321  0.35408  0.71993  1.0000
  Mg  Mg15      1.0  0.66601  0.44910  0.88355  1.0000
  Mg  Mg16      1.0  0.51716  0.31216  0.62154  1.0000
  C  Sn33      1.0  0.56561  0.20179  0.77898  1.0000
  C   C137      1.0  0.58633  0.18578  0.70350  1.0000
  C  Sn34      1.0  0.62527  0.20237  0.66889  1.0000
  C  Sn35      1.0  0.64387  0.23566  0.71071  1.0000
  C   C138      1.0  0.62315  0.25165  0.78617  1.0000
  C  Sn36      1.0  0.58422  0.23508  0.82080  1.0000
  O  Te33      1.0  0.52671  0.18472  0.81244  1.0000
  O  Te34      1.0  0.64538  0.18585  0.59330  1.0000
  O  Te35      1.0  0.68280  0.25272  0.67718  1.0000
  O  Te36      1.0  0.56410  0.25158  0.89637  1.0000
  Mg  Mg17      1.0  0.69790  0.21960  0.57286  1.0000
  Mg  Mg18      1.0  0.51158  0.21784  0.91696  1.0000
  C  Sn37      1.0  0.18830  0.61533  0.80701  1.0000
  C   C139      1.0  0.17425  0.58491  0.74200  1.0000
  C  Sn38      1.0  0.19354  0.56694  0.69750  1.0000
  C  Sn39      1.0  0.22757  0.57963  0.71852  1.0000
  C   C140      1.0  0.24160  0.61003  0.78353  1.0000
  C  Sn40      1.0  0.22233  0.62802  0.82804  1.0000
  O  Te37      1.0  0.16855  0.63287  0.85067  1.0000
  O  Te38      1.0  0.17895  0.53658  0.63269  1.0000
  O  Te39      1.0  0.24732  0.56206  0.67480  1.0000
  O  Te40      1.0  0.23690  0.65836  0.89283  1.0000
  Mg  Mg19      1.0  0.21609  0.52188  0.59170  1.0000
  Mg  Mg20      1.0  0.19977  0.67307  0.93396  1.0000
  C  Sn41      1.0  0.42560  0.64526  0.65013  1.0000
  C   C141      1.0  0.41127  0.61066  0.75607  1.0000
  C  Sn42      1.0  0.37105  0.58237  0.83956  1.0000
  C  Sn43      1.0  0.34460  0.58878  0.81659  1.0000
  C   C142      1.0  0.35892  0.62336  0.71068  1.0000
  C  Sn44      1.0  0.39914  0.65167  0.62716  1.0000
  O  Te41      1.0  0.46592  0.67314  0.56792  1.0000
  O  Te42      1.0  0.35743  0.54802  0.94488  1.0000
  O  Te43      1.0  0.30424  0.56086  0.89891  1.0000
  O  Te44      1.0  0.41277  0.68600  0.52187  1.0000
  Mg  Mg21      1.0  0.40192  0.57721  0.02924  1.0000
  Mg  Mg22      1.0  0.47026  0.71525  0.43736  1.0000
  C  Sn45      1.0  0.40547  0.78298  0.75994  1.0000
  C   C143      1.0  0.39528  0.80723  0.73228  1.0000
  C  Sn46      1.0  0.35918  0.79433  0.73694  1.0000
  C  Sn47      1.0  0.33270  0.75638  0.77006  1.0000
  C   C144      1.0  0.34288  0.73215  0.79773  1.0000
  C  Sn48      1.0  0.37898  0.74503  0.79306  1.0000
  O  Te45      1.0  0.44171  0.79648  0.75470  1.0000
  O  Te46      1.0  0.34966  0.81911  0.70883  1.0000
  O  Te47      1.0  0.29643  0.74289  0.77528  1.0000
  O  Te48      1.0  0.38850  0.72027  0.82118  1.0000
  Mg  Mg23      1.0  0.29681  0.78744  0.72905  1.0000
  Mg  Mg24      1.0  0.44133  0.75190  0.80109  1.0000
