data_image0
_chemical_formula_structural       H72C132S12N12C2Sn2C2HTe2HMgC2Sn2C2HTe2HMgC2Sn2C2HTe2HMgC2Sn2C2HTe2HMgC2Sn2C2HTe2HMgC2Sn2C2HTe2HMg
_chemical_formula_sum              "H84 C156 S12 N12 Sn12 Te12 Mg6"
_cell_length_a       44.4443
_cell_length_b       44.5238
_cell_length_c       8.01484
_cell_angle_alpha    71.3502
_cell_angle_beta     86.4369
_cell_angle_gamma    120.122

_symmetry_space_group_name_H-M    'P1'
_space_group_IT_number       1

loop_
  _space_group_symop_operation_xyz
  'x, y, z'

loop_
  _atom_site_type_symbol
  _atom_site_label
  _atom_site_symmetry_multiplicity
  _atom_site_fract_x
  _atom_site_fract_y
  _atom_site_fract_z
  _atom_site_occupancy
  H   H1        1.0  0.69743  0.39768  0.23596  1.0000
  H   H2        1.0  0.60322  0.29866  0.23232  1.0000
  H   H3        1.0  0.70245  0.30454  0.22903  1.0000
  H   H4        1.0  0.30676  0.60231  0.25121  1.0000
  H   H5        1.0  0.39913  0.70201  0.25292  1.0000
  H   H6        1.0  0.29900  0.69458  0.25615  1.0000
  H   H7        1.0  0.75442  0.42936  0.06190  1.0000
  H   H8        1.0  0.68021  0.26825  0.07756  1.0000
  H   H9        1.0  0.42255  0.68526  0.04193  1.0000
  H   H10       1.0  0.33174  0.75322  0.11789  1.0000
  H   H11       1.0  0.81737  0.46496  0.08709  1.0000
  H   H12       1.0  0.65018  0.20206  0.09962  1.0000
  H   H13       1.0  0.45961  0.65809  0.03607  1.0000
  H   H14       1.0  0.35971  0.81769  0.11278  1.0000
  H   H15       1.0  0.80298  0.35965  0.42893  1.0000
  H   H16       1.0  0.55092  0.17346  0.41633  1.0000
  H   H17       1.0  0.37244  0.55070  0.44326  1.0000
  H   H18       1.0  0.43716  0.80496  0.36774  1.0000
  H   H19       1.0  0.73987  0.32435  0.40970  1.0000
  H   H20       1.0  0.58100  0.23846  0.40266  1.0000
  H   H21       1.0  0.33592  0.57817  0.45617  1.0000
  H   H22       1.0  0.40879  0.74054  0.37900  1.0000
  H   H23       1.0  0.86377  0.40003  0.22405  1.0000
  H   H24       1.0  0.59817  0.46057  0.30739  1.0000
  H   H25       1.0  0.53162  0.13542  0.27125  1.0000
  H   H26       1.0  0.13166  0.59132  0.32758  1.0000
  H   H27       1.0  0.40145  0.54033  0.19883  1.0000
  H   H28       1.0  0.46639  0.86602  0.23605  1.0000
  H   H29       1.0  0.92919  0.41505  0.20682  1.0000
  H   H30       1.0  0.58364  0.51008  0.31248  1.0000
  H   H31       1.0  0.47975  0.06961  0.27289  1.0000
  H   H32       1.0  0.06808  0.57716  0.33342  1.0000
  H   H33       1.0  0.41680  0.49076  0.17875  1.0000
  H   H34       1.0  0.51434  0.92850  0.25829  1.0000
  H   H35       1.0  0.99581  0.54697  0.33100  1.0000
  H   H36       1.0  0.44809  0.44931  0.18245  1.0000
  H   H37       1.0  0.55377  0.99958  0.27315  1.0000
  H   H38       1.0  0.00222  0.44630  0.20026  1.0000
  H   H39       1.0  0.55303  0.55209  0.30099  1.0000
  H   H40       1.0  0.43941  0.99760  0.26111  1.0000
  H   H41       1.0  0.69701  0.39888  0.72968  1.0000
  H   H42       1.0  0.60334  0.29825  0.73514  1.0000
  H   H43       1.0  0.70373  0.30634  0.73000  1.0000
  H   H44       1.0  0.30560  0.60140  0.75453  1.0000
  H   H45       1.0  0.39846  0.70141  0.75239  1.0000
  H   H46       1.0  0.29871  0.69463  0.74979  1.0000
  H   H47       1.0  0.58002  0.32710  0.67292  1.0000
  H   H48       1.0  0.68259  0.27026  0.57880  1.0000
  H   H49       1.0  0.54577  0.35652  0.67555  1.0000
  H   H50       1.0  0.65399  0.20431  0.59754  1.0000
  H   H51       1.0  0.63305  0.44447  0.78461  1.0000
  H   H52       1.0  0.55337  0.17327  0.91293  1.0000
  H   H53       1.0  0.66625  0.41496  0.79022  1.0000
  H   H54       1.0  0.58218  0.23821  0.90098  1.0000
  H   H55       1.0  0.86301  0.40334  0.73147  1.0000
  H   H56       1.0  0.59901  0.46176  0.79781  1.0000
  H   H57       1.0  0.53562  0.13585  0.76056  1.0000
  H   H58       1.0  0.13395  0.59718  0.79695  1.0000
  H   H59       1.0  0.39909  0.53807  0.70317  1.0000
  H   H60       1.0  0.46617  0.86500  0.73672  1.0000
  H   H61       1.0  0.92765  0.41694  0.72325  1.0000
  H   H62       1.0  0.58406  0.51162  0.79902  1.0000
  H   H63       1.0  0.48449  0.07115  0.76335  1.0000
  H   H64       1.0  0.06940  0.58198  0.81877  1.0000
  H   H65       1.0  0.41470  0.48771  0.68570  1.0000
  H   H66       1.0  0.51479  0.92662  0.76200  1.0000
  H   H67       1.0  0.99649  0.55138  0.82427  1.0000
  H   H68       1.0  0.44660  0.44686  0.69191  1.0000
  H   H69       1.0  0.55566  0.99789  0.77867  1.0000
  H   H70       1.0  0.00017  0.44687  0.72257  1.0000
  H   H71       1.0  0.55257  0.55305  0.78614  1.0000
  H   H72       1.0  0.44326  0.99951  0.75428  1.0000
  C   C1        1.0  0.70423  0.35368  0.23034  1.0000
  C   C2        1.0  0.64755  0.35079  0.23136  1.0000
  C   C3        1.0  0.65070  0.29732  0.23039  1.0000
  C   C4        1.0  0.29773  0.64574  0.25279  1.0000
  C   C5        1.0  0.35492  0.65018  0.25420  1.0000
  C   C6        1.0  0.35086  0.70287  0.25493  1.0000
  C   C7        1.0  0.68413  0.36991  0.23108  1.0000
  C   C8        1.0  0.63142  0.31435  0.23190  1.0000
  C   C9        1.0  0.68720  0.31745  0.22905  1.0000
  C   C10       1.0  0.31852  0.63012  0.25458  1.0000
  C   C11       1.0  0.37082  0.68647  0.25406  1.0000
  C   C12       1.0  0.31447  0.68198  0.25493  1.0000
  C   C13       1.0  0.74230  0.37425  0.23558  1.0000
  C   C14       1.0  0.63273  0.25865  0.23541  1.0000
  C   C15       1.0  0.37646  0.63363  0.24901  1.0000
  C   C16       1.0  0.36787  0.74150  0.25008  1.0000
  C   C17       1.0  0.76481  0.41412  0.14508  1.0000
  C   C18       1.0  0.65198  0.24744  0.15378  1.0000
  C   C19       1.0  0.41168  0.65590  0.13214  1.0000
  C   C20       1.0  0.35434  0.76400  0.17664  1.0000
  C   C21       1.0  0.80003  0.43415  0.15716  1.0000
  C   C22       1.0  0.63543  0.21058  0.16491  1.0000
  C   C23       1.0  0.43247  0.64093  0.12723  1.0000
  C   C24       1.0  0.37014  0.80040  0.17107  1.0000
  C   C25       1.0  0.81461  0.41479  0.25594  1.0000
  C   C26       1.0  0.59852  0.18344  0.25573  1.0000
  C   C27       1.0  0.41828  0.60253  0.23636  1.0000
  C   C28       1.0  0.40080  0.81644  0.23519  1.0000
  C   C29       1.0  0.79250  0.37482  0.34562  1.0000
  C   C30       1.0  0.57905  0.19440  0.33840  1.0000
  C   C31       1.0  0.38304  0.58002  0.35359  1.0000
  C   C32       1.0  0.41478  0.79426  0.30735  1.0000
  C   C33       1.0  0.75695  0.35510  0.33541  1.0000
  C   C34       1.0  0.59598  0.23117  0.32943  1.0000
  C   C35       1.0  0.36266  0.59550  0.36042  1.0000
  C   C36       1.0  0.39850  0.75764  0.31469  1.0000
  C   C37       1.0  0.87171  0.42548  0.25007  1.0000
  C   C38       1.0  0.57339  0.44532  0.26751  1.0000
  C   C39       1.0  0.55011  0.12583  0.27085  1.0000
  C   C40       1.0  0.12577  0.56791  0.28749  1.0000
  C   C41       1.0  0.42845  0.55697  0.21736  1.0000
  C   C42       1.0  0.44639  0.87362  0.24009  1.0000
  C   C43       1.0  0.90832  0.44698  0.25951  1.0000
  C   C44       1.0  0.55071  0.45965  0.26125  1.0000
  C   C45       1.0  0.53513  0.08842  0.27596  1.0000
  C   C46       1.0  0.08935  0.54577  0.27823  1.0000
  C   C47       1.0  0.45056  0.54189  0.22298  1.0000
  C   C48       1.0  0.45917  0.90954  0.24946  1.0000
  C   C49       1.0  0.96719  0.49569  0.28239  1.0000
  C   C50       1.0  0.50103  0.47035  0.23094  1.0000
  C   C51       1.0  0.52754  0.02939  0.27342  1.0000
  C   C52       1.0  0.03086  0.49753  0.24938  1.0000
  C   C53       1.0  0.50025  0.53131  0.25050  1.0000
  C   C54       1.0  0.46574  0.96786  0.25927  1.0000
  C   C55       1.0  0.96847  0.46652  0.24809  1.0000
  C   C56       1.0  0.53107  0.49948  0.26453  1.0000
  C   C57       1.0  0.49514  0.02926  0.27031  1.0000
  C   C58       1.0  0.02939  0.52644  0.28563  1.0000
  C   C59       1.0  0.46997  0.50191  0.21951  1.0000
  C   C60       1.0  0.49814  0.96803  0.26334  1.0000
  C   C61       1.0  0.93434  0.43919  0.23589  1.0000
  C   C62       1.0  0.55871  0.49218  0.28342  1.0000
  C   C63       1.0  0.50045  0.06338  0.27340  1.0000
  C   C64       1.0  0.06314  0.55331  0.30225  1.0000
  C   C65       1.0  0.44209  0.50898  0.20418  1.0000
  C   C66       1.0  0.49337  0.93436  0.25760  1.0000
  C   C67       1.0  0.99711  0.52537  0.30155  1.0000
  C   C68       1.0  0.47065  0.47127  0.20908  1.0000
  C   C69       1.0  0.52918  0.99924  0.27059  1.0000
  C   C70       1.0  0.00089  0.46781  0.23048  1.0000
  C   C71       1.0  0.53049  0.53022  0.27389  1.0000
  C   C72       1.0  0.46399  0.99791  0.26369  1.0000
  C   C73       1.0  0.70450  0.35513  0.72874  1.0000
  C   C74       1.0  0.64728  0.35097  0.73117  1.0000
  C   C75       1.0  0.65151  0.29803  0.73111  1.0000
  C   C76       1.0  0.29717  0.64538  0.75187  1.0000
  C   C77       1.0  0.35424  0.64964  0.75318  1.0000
  C   C78       1.0  0.35043  0.70267  0.75182  1.0000
  C   C79       1.0  0.68394  0.37085  0.72820  1.0000
  C   C80       1.0  0.63160  0.31443  0.73328  1.0000
  C   C81       1.0  0.68801  0.31877  0.72948  1.0000
  C   C82       1.0  0.31773  0.62951  0.75481  1.0000
  C   C83       1.0  0.37021  0.68602  0.75225  1.0000
  C   C84       1.0  0.31409  0.68187  0.75115  1.0000
  C   C85       1.0  0.62620  0.36819  0.73260  1.0000
  C   C86       1.0  0.63434  0.25945  0.73500  1.0000
  C   C87       1.0  0.59166  0.35227  0.70220  1.0000
  C   C88       1.0  0.65433  0.24896  0.65313  1.0000
  C   C89       1.0  0.57218  0.36882  0.70188  1.0000
  C   C90       1.0  0.63859  0.21225  0.66285  1.0000
  C   C91       1.0  0.58624  0.40235  0.73100  1.0000
  C   C92       1.0  0.60171  0.18446  0.75293  1.0000
  C   C93       1.0  0.62100  0.41877  0.75949  1.0000
  C   C94       1.0  0.58146  0.19473  0.83537  1.0000
  C   C95       1.0  0.64014  0.40189  0.76133  1.0000
  C   C96       1.0  0.59763  0.23139  0.82747  1.0000
  C   C97       1.0  0.87137  0.42939  0.75230  1.0000
  C   C98       1.0  0.57361  0.44583  0.76404  1.0000
  C   C99       1.0  0.55437  0.12650  0.76518  1.0000
  C   C100      1.0  0.12628  0.57118  0.77715  1.0000
  C   C101      1.0  0.42644  0.55502  0.71726  1.0000
  C   C102      1.0  0.44659  0.87318  0.73938  1.0000
  C   C103      1.0  0.90779  0.45043  0.76502  1.0000
  C   C104      1.0  0.55077  0.45996  0.75848  1.0000
  C   C105      1.0  0.53952  0.08895  0.77192  1.0000
  C   C106      1.0  0.08934  0.54872  0.77572  1.0000
  C   C107      1.0  0.44861  0.54001  0.72126  1.0000
  C   C108      1.0  0.46010  0.90924  0.74902  1.0000
  C   C109      1.0  0.96690  0.49889  0.78705  1.0000
  C   C110      1.0  0.50029  0.46944  0.73218  1.0000
  C   C111      1.0  0.53057  0.02889  0.77483  1.0000
  C   C112      1.0  0.02985  0.49935  0.76060  1.0000
  C   C113      1.0  0.49904  0.53053  0.74470  1.0000
  C   C114      1.0  0.46823  0.96826  0.75829  1.0000
  C   C115      1.0  0.96745  0.46876  0.76010  1.0000
  C   C116      1.0  0.53068  0.49958  0.75858  1.0000
  C   C117      1.0  0.49870  0.02971  0.76867  1.0000
  C   C118      1.0  0.02927  0.52950  0.78751  1.0000
  C   C119      1.0  0.46849  0.50028  0.72009  1.0000
  C   C120      1.0  0.50008  0.96739  0.76509  1.0000
  C   C121      1.0  0.93324  0.44163  0.74806  1.0000
  C   C122      1.0  0.55878  0.49295  0.77527  1.0000
  C   C123      1.0  0.50478  0.06430  0.76842  1.0000
  C   C124      1.0  0.06362  0.55705  0.79602  1.0000
  C   C125      1.0  0.44019  0.50674  0.70663  1.0000
  C   C126      1.0  0.49442  0.93335  0.75934  1.0000
  C   C127      1.0  0.99726  0.52897  0.80127  1.0000
  C   C128      1.0  0.46943  0.46954  0.71329  1.0000
  C   C129      1.0  0.53142  0.99817  0.77391  1.0000
  C   C130      1.0  0.99945  0.46924  0.74667  1.0000
  C   C131      1.0  0.52983  0.53039  0.76436  1.0000
  C   C132      1.0  0.46730  0.99887  0.76059  1.0000
  S   S1        1.0  0.92455  0.48858  0.29525  1.0000
  S   S2        1.0  0.50846  0.43598  0.21962  1.0000
  S   S3        1.0  0.56285  0.07119  0.27623  1.0000
  S   S4        1.0  0.07372  0.50500  0.23549  1.0000
  S   S5        1.0  0.49336  0.56620  0.25786  1.0000
  S   S6        1.0  0.43100  0.92629  0.25063  1.0000
  S   S7        1.0  0.92464  0.49262  0.79549  1.0000
  S   S8        1.0  0.50790  0.43496  0.72542  1.0000
  S   S9        1.0  0.56640  0.07059  0.77677  1.0000
  S   S10       1.0  0.07239  0.50614  0.74865  1.0000
  S   S11       1.0  0.49181  0.56526  0.75011  1.0000
  S   S12       1.0  0.43294  0.92719  0.74828  1.0000
  N   N1        1.0  0.85016  0.43664  0.26366  1.0000
  N   N2        1.0  0.56449  0.41639  0.22744  1.0000
  N   N3        1.0  0.58405  0.14713  0.26036  1.0000
  N   N4        1.0  0.14933  0.56021  0.25145  1.0000
  N   N5        1.0  0.44056  0.58908  0.23027  1.0000
  N   N6        1.0  0.41361  0.85233  0.23352  1.0000
  N   N7        1.0  0.85021  0.44125  0.75840  1.0000
  N   N8        1.0  0.56410  0.41623  0.72906  1.0000
  N   N9        1.0  0.58803  0.14815  0.75837  1.0000
  N   N10       1.0  0.14846  0.56102  0.75512  1.0000
  N   N11       1.0  0.43893  0.58741  0.72781  1.0000
  N   N12       1.0  0.41380  0.85231  0.73137  1.0000
  C   C133      1.0  0.20750  0.62310  0.30213  1.0000
  C   C134      1.0  0.18873  0.59283  0.25063  1.0000
  C  Sn1       1.0  0.20569  0.57635  0.20275  1.0000
  C  Sn2       1.0  0.24211  0.59050  0.20670  1.0000
  C   C135      1.0  0.26064  0.62078  0.25854  1.0000
  C   C136      1.0  0.24341  0.63706  0.30613  1.0000
  H   H73       1.0  0.19417  0.63568  0.33905  1.0000
  O  Te1       1.0  0.18655  0.54614  0.15156  1.0000
  O  Te2       1.0  0.25970  0.57456  0.15957  1.0000
  H   H74       1.0  0.25794  0.66048  0.34611  1.0000
  Mg  Mg1       1.0  0.22225  0.53388  0.09915  1.0000
  C   C137      1.0  0.57381  0.36203  0.18897  1.0000
  C   C138      1.0  0.58149  0.39250  0.23418  1.0000
  C  Sn3       1.0  0.61420  0.41301  0.27323  1.0000
  C  Sn4       1.0  0.63963  0.40277  0.26674  1.0000
  C   C139      1.0  0.63169  0.37226  0.22124  1.0000
  C   C140      1.0  0.59888  0.35192  0.18246  1.0000
  H   H75       1.0  0.54843  0.34630  0.15887  1.0000
  O  Te3       1.0  0.62144  0.44337  0.31822  1.0000
  O  Te4       1.0  0.67253  0.42280  0.30509  1.0000
  H   H76       1.0  0.59294  0.32835  0.14734  1.0000
  Mg  Mg2       1.0  0.67001  0.46197  0.35949  1.0000
  C   C141      1.0  0.21683  0.57467  0.69239  1.0000
  C   C142      1.0  0.18920  0.57794  0.75785  1.0000
  C  Sn5       1.0  0.19711  0.60702  0.81495  1.0000
  C  Sn6       1.0  0.23339  0.63329  0.80614  1.0000
  C   C143      1.0  0.26085  0.62980  0.74031  1.0000
  C   C144      1.0  0.25263  0.60058  0.68358  1.0000
  H   H77       1.0  0.21048  0.55208  0.64840  1.0000
  O  Te5       1.0  0.16917  0.60986  0.88006  1.0000
  O  Te6       1.0  0.24206  0.66264  0.86225  1.0000
  H   H78       1.0  0.27403  0.59808  0.63279  1.0000
  Mg  Mg3       1.0  0.19456  0.65470  0.94071  1.0000
  C   C145      1.0  0.36356  0.79312  0.65276  1.0000
  C   C146      1.0  0.39115  0.81179  0.72830  1.0000
  C  Sn7       1.0  0.40882  0.79497  0.81067  1.0000
  C  Sn8       1.0  0.39863  0.75879  0.81728  1.0000
  C   C147      1.0  0.37100  0.74035  0.74120  1.0000
  C   C148      1.0  0.35349  0.75743  0.65916  1.0000
  H   H79       1.0  0.35002  0.80634  0.58918  1.0000
  O  Te7       1.0  0.43633  0.81402  0.88553  1.0000
  O  Te8       1.0  0.41585  0.74134  0.89872  1.0000
  H   H80       1.0  0.33214  0.74298  0.60058  1.0000
  Mg  Mg4       1.0  0.45173  0.77858  0.98180  1.0000
  C   C149      1.0  0.43101  0.64820  0.61352  1.0000
  C   C150      1.0  0.42242  0.61184  0.72045  1.0000
  C  Sn9       1.0  0.38815  0.58433  0.84231  1.0000
  C  Sn10      1.0  0.36204  0.59346  0.85706  1.0000
  C   C151      1.0  0.37090  0.62992  0.74939  1.0000
  C   C152      1.0  0.40528  0.65724  0.62793  1.0000
  H   H81       1.0  0.45761  0.66934  0.51947  1.0000
  O  Te9       1.0  0.38002  0.54814  0.94817  1.0000
  O  Te10      1.0  0.32758  0.56650  0.97770  1.0000
  H   H82       1.0  0.41191  0.68538  0.54507  1.0000
  Mg  Mg5       1.0  0.38304  0.60556  0.09285  1.0000
  C   C153      1.0  0.77292  0.42591  0.62691  1.0000
  C   C154      1.0  0.74826  0.38654  0.69953  1.0000
  C  Sn11      1.0  0.75666  0.36238  0.81387  1.0000
  C  Sn12      1.0  0.79040  0.37801  0.85608  1.0000
  C   C155      1.0  0.81487  0.41744  0.78285  1.0000
  C   C156      1.0  0.80619  0.44135  0.66854  1.0000
  H   H83       1.0  0.76620  0.44442  0.53855  1.0000
  O  Te11      1.0  0.73172  0.32310  0.88520  1.0000
  O  Te12      1.0  0.79949  0.35452  0.97004  1.0000
  H   H84       1.0  0.82528  0.47184  0.61243  1.0000
  Mg  Mg6       1.0  0.81018  0.38727  0.03383  1.0000
