data_image0
_chemical_formula_structural       H144C168S12N12O12C2Sn2C2HTe2HMgC2Sn2C2HTe2HMgC2Sn2C2HTe2HMgC2Sn2C2HTe2HMgC2Sn2C2HTe2HMgC2Sn2C2HTe2HMg
_chemical_formula_sum              "H156 C192 S12 N12 O12 Sn12 Te12 Mg6"
_cell_length_a       44.2386
_cell_length_b       44.3451
_cell_length_c       8.21551
_cell_angle_alpha    72.3352
_cell_angle_beta     113.92
_cell_angle_gamma    119.769

_symmetry_space_group_name_H-M    'P1'
_space_group_IT_number       1

loop_
  _space_group_symop_operation_xyz
  'x, y, z'

loop_
  _atom_site_type_symbol
  _atom_site_label
  _atom_site_symmetry_multiplicity
  _atom_site_fract_x
  _atom_site_fract_y
  _atom_site_fract_z
  _atom_site_occupancy
  H   H1        1.0  0.69512  0.39927  0.26619  1.0000
  H   H2        1.0  0.60504  0.29730  0.23664  1.0000
  H   H3        1.0  0.71021  0.31161  0.25789  1.0000
  H   H4        1.0  0.31146  0.60688  0.24733  1.0000
  H   H5        1.0  0.40091  0.70926  0.24155  1.0000
  H   H6        1.0  0.29808  0.69766  0.23011  1.0000
  H   H7        1.0  0.68707  0.26349  0.19812  1.0000
  H   H8        1.0  0.25572  0.58137  0.16383  1.0000
  H   H9        1.0  0.41674  0.68587  0.11225  1.0000
  H   H10       1.0  0.31941  0.75155  0.03000  1.0000
  H   H11       1.0  0.66114  0.20014  0.18765  1.0000
  H   H12       1.0  0.19251  0.54438  0.17824  1.0000
  H   H13       1.0  0.45635  0.65906  0.13446  1.0000
  H   H14       1.0  0.34520  0.81563  0.03610  1.0000
  H   H15       1.0  0.56250  0.18576  0.24724  1.0000
  H   H16       1.0  0.19508  0.62923  0.34228  1.0000
  H   H17       1.0  0.39233  0.56432  0.41037  1.0000
  H   H18       1.0  0.44295  0.81310  0.44365  1.0000
  H   H19       1.0  0.58845  0.24769  0.26748  1.0000
  H   H20       1.0  0.25773  0.66499  0.33739  1.0000
  H   H21       1.0  0.35451  0.59130  0.39814  1.0000
  H   H22       1.0  0.41682  0.74899  0.44156  1.0000
  H   H23       1.0  0.86277  0.40648  0.22757  1.0000
  H   H24       1.0  0.59090  0.45995  0.16012  1.0000
  H   H25       1.0  0.55848  0.13615  0.34152  1.0000
  H   H26       1.0  0.14422  0.59674  0.33391  1.0000
  H   H27       1.0  0.40911  0.54411  0.27957  1.0000
  H   H28       1.0  0.45888  0.86371  0.20648  1.0000
  H   H29       1.0  0.92356  0.41724  0.21201  1.0000
  H   H30       1.0  0.57998  0.51222  0.15181  1.0000
  H   H31       1.0  0.50469  0.07575  0.32641  1.0000
  H   H32       1.0  0.08280  0.58470  0.34494  1.0000
  H   H33       1.0  0.41935  0.49207  0.28491  1.0000
  H   H34       1.0  0.50858  0.92572  0.16639  1.0000
  H   H35       1.0  0.44787  0.04583  0.12983  1.0000
  H   H36       1.0  0.95541  0.41770  0.04448  1.0000
  H   H37       1.0  0.60583  0.55578  0.36055  1.0000
  H   H38       1.0  0.54923  0.96018  0.05208  1.0000
  H   H39       1.0  0.98927  0.57728  0.03540  1.0000
  H   H40       1.0  0.42351  0.42449  0.02862  1.0000
  H   H41       1.0  0.42026  0.02800  0.27420  1.0000
  H   H42       1.0  0.95877  0.39486  0.26731  1.0000
  H   H43       1.0  0.58360  0.57000  0.44125  1.0000
  H   H44       1.0  0.56897  0.96041  0.28966  1.0000
  H   H45       1.0  0.03722  0.59654  0.13331  1.0000
  H   H46       1.0  0.39853  0.44553  0.03415  1.0000
  H   H47       1.0  0.40926  0.99154  0.97885  1.0000
  H   H48       1.0  0.00326  0.40475  0.03602  1.0000
  H   H49       1.0  0.62659  0.61448  0.17142  1.0000
  H   H50       1.0  0.60728  0.00798  0.00768  1.0000
  H   H51       1.0  0.02324  0.64405  0.08429  1.0000
  H   H52       1.0  0.35943  0.38229  0.03759  1.0000
  H   H53       1.0  0.38626  0.01680  0.94552  1.0000
  H   H54       1.0  0.96388  0.36643  0.06191  1.0000
  H   H55       1.0  0.64426  0.61762  0.40292  1.0000
  H   H56       1.0  0.61215  0.96962  0.13061  1.0000
  H   H57       1.0  0.02666  0.62829  0.31114  1.0000
  H   H58       1.0  0.36923  0.39499  0.24224  1.0000
  H   H59       1.0  0.62160  0.66426  0.23081  1.0000
  H   H60       1.0  0.34747  0.95134  0.00338  1.0000
  H   H61       1.0  0.02215  0.36036  0.25928  1.0000
  H   H62       1.0  0.40772  0.35907  0.18086  1.0000
  H   H63       1.0  0.66549  0.02419  0.26159  1.0000
  H   H64       1.0  0.95554  0.61482  0.99095  1.0000
  H   H65       1.0  0.59499  0.63452  0.37461  1.0000
  H   H66       1.0  0.35311  0.97450  0.16352  1.0000
  H   H67       1.0  0.99676  0.35606  0.39233  1.0000
  H   H68       1.0  0.37564  0.33915  0.30212  1.0000
  H   H69       1.0  0.64168  0.99670  0.41896  1.0000
  H   H70       1.0  0.97058  0.63922  0.16624  1.0000
  H   H71       1.0  0.57734  0.63122  0.14214  1.0000
  H   H72       1.0  0.37879  0.95022  0.22119  1.0000
  H   H73       1.0  0.03556  0.39584  0.36919  1.0000
  H   H74       1.0  0.41939  0.37339  0.38561  1.0000
  H   H75       1.0  0.63475  0.03447  0.29659  1.0000
  H   H76       1.0  0.95556  0.59311  0.21091  1.0000
  H   H77       1.0  0.69520  0.39588  0.76973  1.0000
  H   H78       1.0  0.60195  0.29619  0.72747  1.0000
  H   H79       1.0  0.70644  0.30491  0.77400  1.0000
  H   H80       1.0  0.30857  0.60274  0.75332  1.0000
  H   H81       1.0  0.39815  0.70513  0.74155  1.0000
  H   H82       1.0  0.29532  0.69396  0.72704  1.0000
  H   H83       1.0  0.73135  0.41777  0.59316  1.0000
  H   H84       1.0  0.57355  0.32834  0.56581  1.0000
  H   H85       1.0  0.79574  0.45675  0.59520  1.0000
  H   H86       1.0  0.53477  0.35589  0.54433  1.0000
  H   H87       1.0  0.82874  0.37731  0.94812  1.0000
  H   H88       1.0  0.62742  0.43145  0.87985  1.0000
  H   H89       1.0  0.76500  0.33922  0.95508  1.0000
  H   H90       1.0  0.66593  0.40354  0.90595  1.0000
  H   H91       1.0  0.86091  0.40243  0.73231  1.0000
  H   H92       1.0  0.59469  0.46218  0.66202  1.0000
  H   H93       1.0  0.53915  0.13457  0.79317  1.0000
  H   H94       1.0  0.14140  0.59578  0.82898  1.0000
  H   H95       1.0  0.40592  0.53847  0.78459  1.0000
  H   H96       1.0  0.45354  0.86099  0.73205  1.0000
  H   H97       1.0  0.92176  0.41404  0.71197  1.0000
  H   H98       1.0  0.58272  0.51461  0.65861  1.0000
  H   H99       1.0  0.48674  0.07223  0.78748  1.0000
  H   H100      1.0  0.07922  0.58352  0.83393  1.0000
  H   H101      1.0  0.41789  0.48736  0.78568  1.0000
  H   H102      1.0  0.50359  0.92222  0.72051  1.0000
  H   H103      1.0  0.43107  0.03491  0.55283  1.0000
  H   H104      1.0  0.95420  0.41570  0.54012  1.0000
  H   H105      1.0  0.60598  0.55732  0.85465  1.0000
  H   H106      1.0  0.53763  0.95916  0.57225  1.0000
  H   H107      1.0  0.02349  0.58622  0.59932  1.0000
  H   H108      1.0  0.40679  0.44647  0.51881  1.0000
  H   H109      1.0  0.40570  0.02754  0.69376  1.0000
  H   H110      1.0  0.95716  0.39282  0.76292  1.0000
  H   H111      1.0  0.58465  0.57072  0.94552  1.0000
  H   H112      1.0  0.56494  0.95819  0.80376  1.0000
  H   H113      1.0  0.03855  0.61169  0.77239  1.0000
  H   H114      1.0  0.38956  0.43378  0.70398  1.0000
  H   H115      1.0  0.39016  0.97343  0.47624  1.0000
  H   H116      1.0  0.00324  0.40326  0.53943  1.0000
  H   H117      1.0  0.62456  0.61595  0.66440  1.0000
  H   H118      1.0  0.58930  0.00464  0.47633  1.0000
  H   H119      1.0  0.96071  0.58150  0.51150  1.0000
  H   H120      1.0  0.39981  0.38754  0.53822  1.0000
  H   H121      1.0  0.36621  0.99940  0.40640  1.0000
  H   H122      1.0  0.96331  0.36501  0.55866  1.0000
  H   H123      1.0  0.64392  0.61924  0.89592  1.0000
  H   H124      1.0  0.59951  0.96909  0.60245  1.0000
  H   H125      1.0  0.99380  0.62456  0.48064  1.0000
  H   H126      1.0  0.35775  0.38516  0.52369  1.0000
  H   H127      1.0  0.61968  0.66513  0.72877  1.0000
  H   H128      1.0  0.33101  0.93938  0.55022  1.0000
  H   H129      1.0  0.01996  0.35716  0.76617  1.0000
  H   H130      1.0  0.37157  0.36690  0.86151  1.0000
  H   H131      1.0  0.65266  0.02827  0.67001  1.0000
  H   H132      1.0  0.95229  0.62591  0.60483  1.0000
  H   H133      1.0  0.59514  0.63549  0.88090  1.0000
  H   H134      1.0  0.34348  0.97207  0.67702  1.0000
  H   H135      1.0  0.99423  0.35429  0.89319  1.0000
  H   H136      1.0  0.41342  0.36910  0.87142  1.0000
  H   H137      1.0  0.64008  0.00329  0.86562  1.0000
  H   H138      1.0  0.99545  0.63581  0.77282  1.0000
  H   H139      1.0  0.57541  0.63135  0.64906  1.0000
  H   H140      1.0  0.36827  0.94645  0.75172  1.0000
  H   H141      1.0  0.03394  0.39329  0.87336  1.0000
  H   H142      1.0  0.37106  0.33737  0.75447  1.0000
  H   H143      1.0  0.62671  0.03776  0.74736  1.0000
  H   H144      1.0  0.95893  0.59344  0.78542  1.0000
  C   C1        1.0  0.70686  0.35768  0.26508  1.0000
  C   C2        1.0  0.64713  0.34973  0.25074  1.0000
  C   C3        1.0  0.65558  0.29912  0.24779  1.0000
  C   C4        1.0  0.29994  0.64913  0.24152  1.0000
  C   C5        1.0  0.35866  0.65608  0.24232  1.0000
  C   C6        1.0  0.35095  0.70748  0.23431  1.0000
  C   C7        1.0  0.68406  0.37136  0.26204  1.0000
  C   C8        1.0  0.63355  0.31388  0.24430  1.0000
  C   C9        1.0  0.69239  0.32167  0.25920  1.0000
  C   C10       1.0  0.32235  0.63499  0.24384  1.0000
  C   C11       1.0  0.37268  0.69238  0.23949  1.0000
  C   C12       1.0  0.31465  0.68571  0.23320  1.0000
  C   C13       1.0  0.64037  0.26125  0.23754  1.0000
  C   C14       1.0  0.26217  0.62641  0.24947  1.0000
  C   C15       1.0  0.38179  0.64033  0.24883  1.0000
  C   C16       1.0  0.36633  0.74563  0.23488  1.0000
  C   C17       1.0  0.66019  0.24663  0.21526  1.0000
  C   C18       1.0  0.24305  0.59176  0.20822  1.0000
  C   C19       1.0  0.41154  0.65936  0.17978  1.0000
  C   C20       1.0  0.34626  0.76491  0.12277  1.0000
  C   C21       1.0  0.64578  0.21094  0.20817  1.0000
  C   C22       1.0  0.20730  0.57089  0.21359  1.0000
  C   C23       1.0  0.43379  0.64459  0.19096  1.0000
  C   C24       1.0  0.36053  0.80071  0.12519  1.0000
  C   C25       1.0  0.61063  0.18787  0.22365  1.0000
  C   C26       1.0  0.18870  0.58371  0.25909  1.0000
  C   C27       1.0  0.42655  0.60964  0.26767  1.0000
  C   C28       1.0  0.39602  0.81873  0.23689  1.0000
  C   C29       1.0  0.59021  0.20242  0.24061  1.0000
  C   C30       1.0  0.20776  0.61842  0.30067  1.0000
  C   C31       1.0  0.39721  0.59062  0.34027  1.0000
  C   C32       1.0  0.41616  0.79960  0.35079  1.0000
  C   C33       1.0  0.60491  0.23796  0.24914  1.0000
  C   C34       1.0  0.24352  0.63894  0.29700  1.0000
  C   C35       1.0  0.37561  0.60580  0.33202  1.0000
  C   C36       1.0  0.40139  0.76364  0.34955  1.0000
  C   C37       1.0  0.87355  0.43425  0.24083  1.0000
  C   C38       1.0  0.56417  0.44136  0.17991  1.0000
  C   C39       1.0  0.57029  0.12932  0.27096  1.0000
  C   C40       1.0  0.13378  0.57043  0.30036  1.0000
  C   C41       1.0  0.43669  0.56278  0.27099  1.0000
  C   C42       1.0  0.44279  0.87443  0.22373  1.0000
  C   C43       1.0  0.91112  0.45553  0.24663  1.0000
  C   C44       1.0  0.54323  0.45705  0.18808  1.0000
  C   C45       1.0  0.55330  0.09277  0.25228  1.0000
  C   C46       1.0  0.09661  0.54808  0.29796  1.0000
  C   C47       1.0  0.45736  0.54711  0.26061  1.0000
  C   C48       1.0  0.46008  0.91154  0.22895  1.0000
  C   C49       1.0  0.97387  0.50285  0.27616  1.0000
  C   C50       1.0  0.49718  0.46927  0.22311  1.0000
  C   C51       1.0  0.53666  0.03290  0.20810  1.0000
  C   C52       1.0  0.03424  0.50001  0.26768  1.0000
  C   C53       1.0  0.50291  0.53483  0.22308  1.0000
  C   C54       1.0  0.47544  0.97244  0.24751  1.0000
  C   C55       1.0  0.97055  0.47017  0.25268  1.0000
  C   C56       1.0  0.52880  0.50060  0.19669  1.0000
  C   C57       1.0  0.50943  0.03439  0.25290  1.0000
  C   C58       1.0  0.03736  0.53186  0.29531  1.0000
  C   C59       1.0  0.47105  0.50358  0.24626  1.0000
  C   C60       1.0  0.50333  0.97031  0.20844  1.0000
  C   C61       1.0  0.93386  0.44394  0.23470  1.0000
  C   C62       1.0  0.55433  0.49263  0.17571  1.0000
  C   C63       1.0  0.52020  0.06882  0.28190  1.0000
  C   C64       1.0  0.07362  0.55863  0.31635  1.0000
  C   C65       1.0  0.44548  0.51157  0.26623  1.0000
  C   C66       1.0  0.49320  0.93469  0.19894  1.0000
  C   C67       1.0  0.00623  0.53332  0.29551  1.0000
  C   C68       1.0  0.46836  0.47054  0.24671  1.0000
  C   C69       1.0  0.53432  0.00169  0.18558  1.0000
  C   C70       1.0  0.00184  0.46908  0.24988  1.0000
  C   C71       1.0  0.53146  0.53361  0.19730  1.0000
  C   C72       1.0  0.47777  0.00346  0.26941  1.0000
  C   C73       1.0  0.42978  0.02135  0.19150  1.0000
  C   C74       1.0  0.97362  0.40976  0.16822  1.0000
  C   C75       1.0  0.59293  0.57354  0.32848  1.0000
  C   C76       1.0  0.57022  0.97640  0.15895  1.0000
  C   C77       1.0  0.01123  0.58972  0.15207  1.0000
  C   C78       1.0  0.41044  0.42676  0.11044  1.0000
  C   C79       1.0  0.39792  0.99937  0.04685  1.0000
  C   C80       1.0  0.98781  0.38829  0.13125  1.0000
  C   C81       1.0  0.61887  0.61157  0.28872  1.0000
  C   C82       1.0  0.60791  0.99154  0.13814  1.0000
  C   C83       1.0  0.00976  0.62175  0.17442  1.0000
  C   C84       1.0  0.38162  0.39141  0.16178  1.0000
  C   C85       1.0  0.60239  0.63693  0.25731  1.0000
  C   C86       1.0  0.36768  0.96717  0.11280  1.0000
  C   C87       1.0  0.01182  0.37430  0.29777  1.0000
  C   C88       1.0  0.39684  0.36415  0.26324  1.0000
  C   C89       1.0  0.63920  0.01287  0.28746  1.0000
  C   C90       1.0  0.97072  0.61699  0.13401  1.0000
  C   C91       1.0  0.70496  0.35283  0.77113  1.0000
  C   C92       1.0  0.64588  0.34767  0.75027  1.0000
  C   C93       1.0  0.65210  0.29550  0.75272  1.0000
  C   C94       1.0  0.29718  0.64532  0.74262  1.0000
  C   C95       1.0  0.35595  0.65186  0.74626  1.0000
  C   C96       1.0  0.34813  0.70356  0.73219  1.0000
  C   C97       1.0  0.68308  0.36788  0.76501  1.0000
  C   C98       1.0  0.63092  0.31173  0.74253  1.0000
  C   C99       1.0  0.68937  0.31654  0.76844  1.0000
  C   C100      1.0  0.31960  0.63091  0.74790  1.0000
  C   C101      1.0  0.36994  0.68830  0.74018  1.0000
  C   C102      1.0  0.31189  0.68189  0.73169  1.0000
  C   C103      1.0  0.74330  0.37542  0.77291  1.0000
  C   C104      1.0  0.62279  0.36396  0.73736  1.0000
  C   C105      1.0  0.75275  0.40904  0.67349  1.0000
  C   C106      1.0  0.58533  0.35052  0.63782  1.0000
  C   C107      1.0  0.78854  0.43089  0.67295  1.0000
  C   C108      1.0  0.56352  0.36596  0.62366  1.0000
  C   C109      1.0  0.81633  0.41945  0.76767  1.0000
  C   C110      1.0  0.57864  0.39614  0.70502  1.0000
  C   C111      1.0  0.80722  0.38594  0.86847  1.0000
  C   C112      1.0  0.61605  0.40966  0.80574  1.0000
  C   C113      1.0  0.77138  0.36453  0.87176  1.0000
  C   C114      1.0  0.63753  0.39370  0.82142  1.0000
  C   C115      1.0  0.87163  0.43010  0.74693  1.0000
  C   C116      1.0  0.56767  0.44377  0.67890  1.0000
  C   C117      1.0  0.55480  0.12645  0.75439  1.0000
  C   C118      1.0  0.13100  0.56928  0.79798  1.0000
  C   C119      1.0  0.43341  0.55745  0.77563  1.0000
  C   C120      1.0  0.43562  0.87068  0.73982  1.0000
  C   C121      1.0  0.90889  0.45182  0.74886  1.0000
  C   C122      1.0  0.54637  0.45910  0.68617  1.0000
  C   C123      1.0  0.53887  0.08960  0.74603  1.0000
  C   C124      1.0  0.09383  0.54688  0.79478  1.0000
  C   C125      1.0  0.45465  0.54266  0.76268  1.0000
  C   C126      1.0  0.45147  0.90760  0.74633  1.0000
  C   C127      1.0  0.97093  0.49981  0.77353  1.0000
  C   C128      1.0  0.49924  0.46918  0.72097  1.0000
  C   C129      1.0  0.52610  0.02953  0.72612  1.0000
  C   C130      1.0  0.03181  0.49827  0.76468  1.0000
  C   C131      1.0  0.50147  0.53261  0.72332  1.0000
  C   C132      1.0  0.46408  0.96853  0.74942  1.0000
  C   C133      1.0  0.96818  0.46746  0.75003  1.0000
  C   C134      1.0  0.53052  0.50121  0.69941  1.0000
  C   C135      1.0  0.49657  0.03075  0.74965  1.0000
  C   C136      1.0  0.03432  0.53004  0.79018  1.0000
  C   C137      1.0  0.46994  0.50047  0.74400  1.0000
  C   C138      1.0  0.49435  0.96677  0.73123  1.0000
  C   C139      1.0  0.93174  0.44073  0.73398  1.0000
  C   C140      1.0  0.55690  0.49445  0.67851  1.0000
  C   C141      1.0  0.50476  0.06543  0.76252  1.0000
  C   C142      1.0  0.07040  0.55720  0.81016  1.0000
  C   C143      1.0  0.44377  0.50736  0.76612  1.0000
  C   C144      1.0  0.48584  0.93114  0.73213  1.0000
  C   C145      1.0  0.00285  0.53072  0.79134  1.0000
  C   C146      1.0  0.46910  0.46834  0.74148  1.0000
  C   C147      1.0  0.52562  0.99847  0.71464  1.0000
  C   C148      1.0  0.99976  0.46704  0.74688  1.0000
  C   C149      1.0  0.53138  0.53335  0.70087  1.0000
  C   C150      1.0  0.46480  0.99958  0.75913  1.0000
  C   C151      1.0  0.41390  0.01471  0.63477  1.0000
  C   C152      1.0  0.97232  0.40790  0.66504  1.0000
  C   C153      1.0  0.59282  0.57459  0.82822  1.0000
  C   C154      1.0  0.56170  0.97485  0.67347  1.0000
  C   C155      1.0  0.01480  0.59153  0.69117  1.0000
  C   C156      1.0  0.40468  0.42875  0.64468  1.0000
  C   C157      1.0  0.38060  0.98646  0.52596  1.0000
  C   C158      1.0  0.98701  0.38655  0.63122  1.0000
  C   C159      1.0  0.61792  0.61284  0.78551  1.0000
  C   C160      1.0  0.59547  0.99094  0.61259  1.0000
  C   C161      1.0  0.98416  0.60308  0.58409  1.0000
  C   C162      1.0  0.38590  0.39057  0.61250  1.0000
  C   C163      1.0  0.60122  0.63769  0.75971  1.0000
  C   C164      1.0  0.35436  0.95959  0.63198  1.0000
  C   C165      1.0  0.01003  0.37201  0.80068  1.0000
  C   C166      1.0  0.38544  0.36451  0.78459  1.0000
  C   C167      1.0  0.63068  0.01637  0.73166  1.0000
  C   C168      1.0  0.97210  0.61522  0.69310  1.0000
  S   S1        1.0  0.93300  0.49966  0.27727  1.0000
  S   S2        1.0  0.50048  0.43162  0.22389  1.0000
  S   S3        1.0  0.57339  0.07389  0.19357  1.0000
  S   S4        1.0  0.07506  0.50437  0.25974  1.0000
  S   S5        1.0  0.50053  0.57249  0.22991  1.0000
  S   S6        1.0  0.43897  0.93171  0.26894  1.0000
  S   S7        1.0  0.93007  0.49590  0.77856  1.0000
  S   S8        1.0  0.50326  0.43240  0.71595  1.0000
  S   S9        1.0  0.56271  0.07071  0.71850  1.0000
  S   S10       1.0  0.07298  0.50312  0.75896  1.0000
  S   S11       1.0  0.49771  0.56934  0.73230  1.0000
  S   S12       1.0  0.42716  0.92749  0.75972  1.0000
  N   N1        1.0  0.85348  0.44692  0.24924  1.0000
  N   N2        1.0  0.55265  0.40780  0.19439  1.0000
  N   N3        1.0  0.59748  0.15236  0.21133  1.0000
  N   N4        1.0  0.15284  0.56046  0.26108  1.0000
  N   N5        1.0  0.44903  0.59631  0.26407  1.0000
  N   N6        1.0  0.40991  0.85491  0.23375  1.0000
  N   N7        1.0  0.85172  0.44242  0.76000  1.0000
  N   N8        1.0  0.55549  0.41017  0.69166  1.0000
  N   N9        1.0  0.58532  0.14796  0.71922  1.0000
  N   N10       1.0  0.15000  0.55884  0.76154  1.0000
  N   N11       1.0  0.44551  0.59094  0.76952  1.0000
  N   N12       1.0  0.40198  0.85008  0.73567  1.0000
  O   O1        1.0  0.45106  0.00263  0.31940  1.0000
  O   O2        1.0  0.00518  0.44066  0.23871  1.0000
  O   O3        1.0  0.56112  0.56426  0.16853  1.0000
  O   O4        1.0  0.56319  0.00576  0.14339  1.0000
  O   O5        1.0  0.00735  0.56407  0.31253  1.0000
  O   O6        1.0  0.43816  0.44051  0.27549  1.0000
  O   O7        1.0  0.43604  0.99959  0.78676  1.0000
  O   O8        1.0  0.00361  0.43892  0.73528  1.0000
  O   O9        1.0  0.56006  0.56508  0.67267  1.0000
  O   O10       1.0  0.55666  0.00337  0.68990  1.0000
  O   O11       1.0  0.00253  0.55994  0.81585  1.0000
  O   O12       1.0  0.44135  0.43588  0.76861  1.0000
  C   C169      1.0  0.23166  0.57968  0.70685  1.0000
  C   C170      1.0  0.25444  0.61490  0.73007  1.0000
  C  Sn1       1.0  0.24329  0.63407  0.78180  1.0000
  C  Sn2       1.0  0.20868  0.61760  0.81076  1.0000
  C   C171      1.0  0.18611  0.58235  0.78730  1.0000
  C   C172      1.0  0.19753  0.56342  0.73546  1.0000
  H   H145      1.0  0.24050  0.56502  0.66684  1.0000
  O  Te1       1.0  0.26638  0.66924  0.80433  1.0000
  O  Te2       1.0  0.19687  0.63615  0.86259  1.0000
  H   H146      1.0  0.17990  0.53615  0.71761  1.0000
  Mg  Mg1       1.0  0.23808  0.68349  0.87605  1.0000
  C   C173      1.0  0.42837  0.64703  0.67999  1.0000
  C   C174      1.0  0.42790  0.61457  0.76941  1.0000
  C  Sn3       1.0  0.40077  0.59110  0.85036  1.0000
  C  Sn4       1.0  0.37366  0.60037  0.84135  1.0000
  C   C175      1.0  0.37436  0.63290  0.75146  1.0000
  C   C176      1.0  0.40163  0.65619  0.67098  1.0000
  H   H147      1.0  0.44946  0.66504  0.61763  1.0000
  O  Te3       1.0  0.40071  0.55878  0.93922  1.0000
  O  Te4       1.0  0.34623  0.57741  0.92102  1.0000
  H   H148      1.0  0.40197  0.68131  0.60165  1.0000
  Mg  Mg2       1.0  0.29491  0.56151  0.02681  1.0000
  C   C177      1.0  0.33992  0.76805  0.60391  1.0000
  C   C178      1.0  0.35750  0.74606  0.69508  1.0000
  C  Sn5       1.0  0.39226  0.75863  0.82071  1.0000
  C  Sn6       1.0  0.40969  0.79386  0.85545  1.0000
  C   C179      1.0  0.39186  0.81564  0.76363  1.0000
  C   C180      1.0  0.35708  0.80280  0.63815  1.0000
  H   H149      1.0  0.31300  0.75811  0.50689  1.0000
  O  Te5       1.0  0.40944  0.73632  0.91054  1.0000
  O  Te6       1.0  0.44442  0.80709  0.98038  1.0000
  H   H150      1.0  0.34347  0.81981  0.56767  1.0000
  Mg  Mg3       1.0  0.39391  0.79161  0.06858  1.0000
  C   C181      1.0  0.65077  0.23354  0.69274  1.0000
  C   C182      1.0  0.63847  0.25440  0.72223  1.0000
  C  Sn7       1.0  0.60628  0.23900  0.76830  1.0000
  C  Sn8       1.0  0.58610  0.20203  0.78511  1.0000
  C   C183      1.0  0.59865  0.18139  0.75545  1.0000
  C   C184      1.0  0.63089  0.19707  0.70935  1.0000
  H   H151      1.0  0.67573  0.24567  0.65716  1.0000
  O  Te7       1.0  0.59437  0.26022  0.79724  1.0000
  O  Te8       1.0  0.55384  0.18595  0.83107  1.0000
  H   H152      1.0  0.64042  0.18092  0.68664  1.0000
  Mg  Mg4       1.0  0.54878  0.22604  0.85705  1.0000
  C   C185      1.0  0.57601  0.34994  0.12302  1.0000
  C   C186      1.0  0.61378  0.36170  0.20502  1.0000
  C  Sn9       1.0  0.63343  0.39009  0.30315  1.0000
  C  Sn10      1.0  0.61484  0.40697  0.31929  1.0000
  C   C187      1.0  0.57704  0.39498  0.23686  1.0000
  C   C188      1.0  0.55765  0.36655  0.13893  1.0000
  H   H153      1.0  0.56100  0.32793  0.04733  1.0000
  O  Te9       1.0  0.67116  0.40152  0.38417  1.0000
  O  Te10      1.0  0.63380  0.43539  0.41663  1.0000
  H   H154      1.0  0.52840  0.35744  0.07555  1.0000
  Mg  Mg5       1.0  0.68499  0.44132  0.50264  1.0000
  C   C189      1.0  0.76133  0.42308  0.15210  1.0000
  C   C190      1.0  0.74648  0.38855  0.23267  1.0000
  C  Sn11      1.0  0.76918  0.37194  0.34033  1.0000
  C  Sn12      1.0  0.80745  0.39031  0.36763  1.0000
  C   C191      1.0  0.82204  0.42486  0.28654  1.0000
  C   C192      1.0  0.79907  0.44122  0.17902  1.0000
  H   H155      1.0  0.74357  0.43575  0.06898  1.0000
  O  Te11      1.0  0.75389  0.33743  0.41976  1.0000
  O  Te12      1.0  0.83076  0.37434  0.47465  1.0000
  H   H156      1.0  0.81058  0.46796  0.11675  1.0000
  Mg  Mg6       1.0  0.79693  0.32694  0.55408  1.0000
