data_image0
_chemical_formula_structural       H36C72S12N12SnCSn2CSnTe4Mg2SnCSn2CSnTe4Mg2SnCSn2CSnTe4Mg2SnCSn2CSnTe4Mg2SnCSn2CSnTe4Mg2SnCSn2CSnTe4Mg2SnCSn2CSnTe4Mg2SnCSn2CSnTe4Mg2SnCSn2CSnTe4Mg2SnCSn2CSnTe4Mg2SnCSn2CSnTe4Mg2SnCSn2CSnTe4Mg2
_chemical_formula_sum              "H36 C96 S12 N12 Sn48 Te48 Mg24"
_cell_length_a       40.1322
_cell_length_b       40.2416
_cell_length_c       7.98222
_cell_angle_alpha    104.661
_cell_angle_beta     94.5702
_cell_angle_gamma    120.048

_symmetry_space_group_name_H-M    'P1'
_space_group_IT_number       1

loop_
  _space_group_symop_operation_xyz
  'x, y, z'

loop_
  _atom_site_type_symbol
  _atom_site_label
  _atom_site_symmetry_multiplicity
  _atom_site_fract_x
  _atom_site_fract_y
  _atom_site_fract_z
  _atom_site_occupancy
  H   H1        1.0  0.70041  0.40500  0.24825  1.0000
  H   H2        1.0  0.59600  0.29475  0.23391  1.0000
  H   H3        1.0  0.70433  0.29842  0.21091  1.0000
  H   H4        1.0  0.30236  0.59570  0.23368  1.0000
  H   H5        1.0  0.40602  0.70598  0.23323  1.0000
  H   H6        1.0  0.29636  0.69963  0.25007  1.0000
  H   H7        1.0  0.89216  0.41437  0.35725  1.0000
  H   H8        1.0  0.59306  0.47514  0.24770  1.0000
  H   H9        1.0  0.52509  0.12135  0.32089  1.0000
  H   H10       1.0  0.11907  0.59290  0.25094  1.0000
  H   H11       1.0  0.41115  0.52849  0.35312  1.0000
  H   H12       1.0  0.47733  0.88211  0.22196  1.0000
  H   H13       1.0  0.42655  0.47205  0.36441  1.0000
  H   H14       1.0  0.53076  0.95190  0.18232  1.0000
  H   H15       1.0  0.04553  0.57474  0.22230  1.0000
  H   H16       1.0  0.57641  0.53003  0.23196  1.0000
  H   H17       1.0  0.47207  0.05197  0.35541  1.0000
  H   H18       1.0  0.96505  0.43168  0.38190  1.0000
  H   H19       1.0  0.69630  0.40437  0.74708  1.0000
  H   H20       1.0  0.59217  0.29382  0.73567  1.0000
  H   H21       1.0  0.70076  0.29830  0.70847  1.0000
  H   H22       1.0  0.29959  0.59574  0.73953  1.0000
  H   H23       1.0  0.40160  0.70587  0.72624  1.0000
  H   H24       1.0  0.29198  0.69866  0.75032  1.0000
  H   H25       1.0  0.88668  0.41116  0.84087  1.0000
  H   H26       1.0  0.59397  0.47813  0.74595  1.0000
  H   H27       1.0  0.52432  0.11986  0.82060  1.0000
  H   H28       1.0  0.11553  0.59008  0.75660  1.0000
  H   H29       1.0  0.41318  0.53326  0.85855  1.0000
  H   H30       1.0  0.47608  0.88059  0.72233  1.0000
  H   H31       1.0  0.42901  0.47783  0.87186  1.0000
  H   H32       1.0  0.53077  0.95092  0.68352  1.0000
  H   H33       1.0  0.04308  0.57313  0.73138  1.0000
  H   H34       1.0  0.57755  0.53413  0.72556  1.0000
  H   H35       1.0  0.47243  0.05127  0.85611  1.0000
  H   H36       1.0  0.95949  0.42806  0.87254  1.0000
  C   C1        1.0  0.70766  0.35437  0.22879  1.0000
  C   C2        1.0  0.64568  0.35174  0.23995  1.0000
  C   C3        1.0  0.64788  0.29128  0.22324  1.0000
  C   C4        1.0  0.29456  0.64471  0.24022  1.0000
  C   C5        1.0  0.35735  0.64829  0.23399  1.0000
  C   C6        1.0  0.35333  0.70746  0.24055  1.0000
  C   C7        1.0  0.68601  0.37327  0.24049  1.0000
  C   C8        1.0  0.62714  0.31101  0.23175  1.0000
  C   C9        1.0  0.68800  0.31340  0.21969  1.0000
  C   C10       1.0  0.31696  0.62687  0.23419  1.0000
  C   C11       1.0  0.37497  0.68869  0.23598  1.0000
  C   C12       1.0  0.31318  0.68514  0.24351  1.0000
  C   C13       1.0  0.89915  0.43952  0.30628  1.0000
  C   C14       1.0  0.56348  0.45622  0.26925  1.0000
  C   C15       1.0  0.54210  0.10801  0.27194  1.0000
  C   C16       1.0  0.11010  0.56398  0.27329  1.0000
  C   C17       1.0  0.43818  0.54413  0.30676  1.0000
  C   C18       1.0  0.45838  0.89433  0.24814  1.0000
  C   C19       1.0  0.93994  0.46442  0.30483  1.0000
  C   C20       1.0  0.53952  0.47340  0.28465  1.0000
  C   C21       1.0  0.52721  0.06756  0.27382  1.0000
  C   C22       1.0  0.07017  0.54093  0.29048  1.0000
  C   C23       1.0  0.46304  0.52814  0.30696  1.0000
  C   C24       1.0  0.47494  0.93589  0.25807  1.0000
  C   C25       1.0  0.45415  0.49203  0.33458  1.0000
  C   C26       1.0  0.51076  0.96141  0.22198  1.0000
  C   C27       1.0  0.04056  0.54886  0.26037  1.0000
  C   C28       1.0  0.54891  0.51013  0.26298  1.0000
  C   C29       1.0  0.49190  0.04232  0.31461  1.0000
  C   C30       1.0  0.96991  0.45734  0.34227  1.0000
  C   C31       1.0  0.48515  0.48529  0.31716  1.0000
  C   C32       1.0  0.51673  0.99986  0.23990  1.0000
  C   C33       1.0  0.00412  0.51837  0.27747  1.0000
  C   C34       1.0  0.51787  0.51680  0.28035  1.0000
  C   C35       1.0  0.48579  0.00377  0.29472  1.0000
  C   C36       1.0  0.00628  0.48769  0.32376  1.0000
  C   C37       1.0  0.70366  0.35391  0.72628  1.0000
  C   C38       1.0  0.64165  0.35108  0.74052  1.0000
  C   C39       1.0  0.64427  0.29082  0.72338  1.0000
  C   C40       1.0  0.29096  0.64416  0.74251  1.0000
  C   C41       1.0  0.35385  0.64815  0.73262  1.0000
  C   C42       1.0  0.34901  0.70682  0.73809  1.0000
  C   C43       1.0  0.68191  0.37266  0.73937  1.0000
  C   C44       1.0  0.62327  0.31032  0.73257  1.0000
  C   C45       1.0  0.68422  0.31305  0.71806  1.0000
  C   C46       1.0  0.31369  0.62663  0.73651  1.0000
  C   C47       1.0  0.37081  0.68826  0.73189  1.0000
  C   C48       1.0  0.30904  0.68443  0.74365  1.0000
  C   C49       1.0  0.89457  0.43751  0.79778  1.0000
  C   C50       1.0  0.56425  0.45995  0.76776  1.0000
  C   C51       1.0  0.54197  0.10726  0.77253  1.0000
  C   C52       1.0  0.10655  0.56100  0.77732  1.0000
  C   C53       1.0  0.43969  0.54878  0.80868  1.0000
  C   C54       1.0  0.45760  0.89342  0.74764  1.0000
  C   C55       1.0  0.93563  0.46226  0.80044  1.0000
  C   C56       1.0  0.54098  0.47794  0.78250  1.0000
  C   C57       1.0  0.52751  0.06687  0.77424  1.0000
  C   C58       1.0  0.06653  0.53789  0.79351  1.0000
  C   C59       1.0  0.46482  0.53310  0.80754  1.0000
  C   C60       1.0  0.47486  0.93512  0.75828  1.0000
  C   C61       1.0  0.45619  0.49727  0.83742  1.0000
  C   C62       1.0  0.51086  0.96057  0.72295  1.0000
  C   C63       1.0  0.03748  0.54670  0.76610  1.0000
  C   C64       1.0  0.55024  0.51444  0.75831  1.0000
  C   C65       1.0  0.49223  0.04163  0.81511  1.0000
  C   C66       1.0  0.96507  0.45438  0.83695  1.0000
  C   C67       1.0  0.48691  0.49023  0.81681  1.0000
  C   C68       1.0  0.51703  0.99912  0.74071  1.0000
  C   C69       1.0  0.00069  0.51635  0.78098  1.0000
  C   C70       1.0  0.51930  0.52129  0.77627  1.0000
  C   C71       1.0  0.48611  0.00311  0.79535  1.0000
  C   C72       1.0  0.00194  0.48481  0.82277  1.0000
  S   S1        1.0  0.49266  0.44695  0.32713  1.0000
  S   S2        1.0  0.55336  0.04410  0.21309  1.0000
  S   S3        1.0  0.95652  0.50895  0.25255  1.0000
  S   S4        1.0  0.50975  0.55430  0.26290  1.0000
  S   S5        1.0  0.44865  0.95921  0.31706  1.0000
  S   S6        1.0  0.05342  0.49616  0.34068  1.0000
  S   S7        1.0  0.49450  0.45209  0.82885  1.0000
  S   S8        1.0  0.55363  0.04340  0.71344  1.0000
  S   S9        1.0  0.95337  0.50766  0.75468  1.0000
  S   S10       1.0  0.51109  0.55876  0.75846  1.0000
  S   S11       1.0  0.44869  0.95859  0.81637  1.0000
  S   S12       1.0  0.04881  0.49245  0.83900  1.0000
  N   N1        1.0  0.87324  0.44718  0.25112  1.0000
  N   N2        1.0  0.55035  0.41990  0.27387  1.0000
  N   N3        1.0  0.57342  0.12664  0.21314  1.0000
  N   N4        1.0  0.13347  0.55060  0.27699  1.0000
  N   N5        1.0  0.44798  0.57502  0.25329  1.0000
  N   N6        1.0  0.42257  0.87235  0.26447  1.0000
  N   N7        1.0  0.86922  0.44628  0.74725  1.0000
  N   N8        1.0  0.55010  0.42358  0.77413  1.0000
  N   N9        1.0  0.57334  0.12659  0.71533  1.0000
  N   N10       1.0  0.13006  0.54776  0.77949  1.0000
  N   N11       1.0  0.44831  0.57903  0.75203  1.0000
  N   N12       1.0  0.42149  0.87197  0.76178  1.0000
  C  Sn1       1.0  0.77401  0.41244  0.12947  1.0000
  C   C73       1.0  0.75218  0.37741  0.17449  1.0000
  C  Sn2       1.0  0.77152  0.36579  0.27733  1.0000
  C  Sn3       1.0  0.81355  0.38968  0.33652  1.0000
  C   C74       1.0  0.83535  0.42468  0.29152  1.0000
  C  Sn4       1.0  0.81604  0.43633  0.18865  1.0000
  O  Te1       1.0  0.75405  0.42348  0.02654  1.0000
  O  Te2       1.0  0.74906  0.33064  0.32060  1.0000
  O  Te3       1.0  0.83349  0.37860  0.43952  1.0000
  O  Te4       1.0  0.83847  0.47146  0.14542  1.0000
  Mg  Mg1       1.0  0.78986  0.32818  0.46390  1.0000
  Mg  Mg2       1.0  0.79771  0.47396  0.00222  1.0000
  C  Sn5       1.0  0.62573  0.43111  0.34440  1.0000
  C   C75       1.0  0.58697  0.41348  0.24666  1.0000
  C  Sn6       1.0  0.56323  0.37153  0.15362  1.0000
  C  Sn7       1.0  0.57854  0.34666  0.15845  1.0000
  C   C76       1.0  0.61727  0.36428  0.25616  1.0000
  C  Sn8       1.0  0.64104  0.40624  0.34923  1.0000
  O  Te5       1.0  0.64894  0.47311  0.43642  1.0000
  O  Te6       1.0  0.52458  0.35461  0.05678  1.0000
  O  Te7       1.0  0.55529  0.30462  0.06632  1.0000
  O  Te8       1.0  0.67966  0.42315  0.44604  1.0000
  Mg  Mg3       1.0  0.55929  0.37342  0.95343  1.0000
  Mg  Mg4       1.0  0.69976  0.48190  0.54951  1.0000
  C  Sn9       1.0  0.56977  0.19679  0.24380  1.0000
  C   C77       1.0  0.57928  0.16777  0.17830  1.0000
  C  Sn10      1.0  0.61635  0.17966  0.14206  1.0000
  C  Sn11      1.0  0.64451  0.22144  0.17201  1.0000
  C   C78       1.0  0.63499  0.25044  0.23750  1.0000
  C  Sn12      1.0  0.59792  0.23857  0.27375  1.0000
  O  Te9       1.0  0.53253  0.18422  0.27910  1.0000
  O  Te10      1.0  0.62518  0.15008  0.07659  1.0000
  O  Te11      1.0  0.68176  0.23400  0.13664  1.0000
  O  Te12      1.0  0.58909  0.26813  0.33921  1.0000
  Mg  Mg5       1.0  0.67987  0.18232  0.04897  1.0000
  Mg  Mg6       1.0  0.53442  0.23593  0.36696  1.0000
  C  Sn13      1.0  0.20134  0.62684  0.31987  1.0000
  C   C79       1.0  0.17397  0.58480  0.24150  1.0000
  C  Sn14      1.0  0.18671  0.55879  0.17211  1.0000
  C  Sn15      1.0  0.22765  0.57512  0.18134  1.0000
  C   C80       1.0  0.25498  0.61713  0.25970  1.0000
  C  Sn16      1.0  0.24228  0.64317  0.32910  1.0000
  O  Te13      1.0  0.18794  0.65227  0.38838  1.0000
  O  Te14      1.0  0.15880  0.51687  0.09435  1.0000
  O  Te15      1.0  0.24103  0.54965  0.11274  1.0000
  O  Te16      1.0  0.27016  0.68506  0.40685  1.0000
  Mg  Mg7       1.0  0.19161  0.49468  0.01982  1.0000
  Mg  Mg8       1.0  0.23738  0.70728  0.48150  1.0000
  C  Sn17      1.0  0.44201  0.63951  0.25161  1.0000
  C   C81       1.0  0.43102  0.60401  0.29103  1.0000
  C  Sn18      1.0  0.39152  0.57702  0.28832  1.0000
  C  Sn19      1.0  0.36239  0.58569  0.24520  1.0000
  C   C82       1.0  0.37338  0.62117  0.20578  1.0000
  C  Sn20      1.0  0.41288  0.64817  0.20849  1.0000
  O  Te17      1.0  0.48167  0.66605  0.25512  1.0000
  O  Te18      1.0  0.38125  0.54173  0.32827  1.0000
  O  Te19      1.0  0.32270  0.55911  0.24173  1.0000
  O  Te20      1.0  0.42315  0.68344  0.16855  1.0000
  Mg  Mg9       1.0  0.32336  0.51500  0.30578  1.0000
  Mg  Mg10      1.0  0.48103  0.71019  0.19090  1.0000
  C  Sn21      1.0  0.35739  0.79584  0.20485  1.0000
  C   C83       1.0  0.39612  0.82879  0.29146  1.0000
  C  Sn22      1.0  0.42555  0.82212  0.34596  1.0000
  C  Sn23      1.0  0.41609  0.78167  0.31310  1.0000
  C   C84       1.0  0.37738  0.74874  0.22652  1.0000
  C  Sn24      1.0  0.34792  0.75538  0.17199  1.0000
  O  Te21      1.0  0.32844  0.80322  0.15153  1.0000
  O  Te22      1.0  0.46406  0.85555  0.43237  1.0000
  O  Te23      1.0  0.44508  0.77431  0.36651  1.0000
  O  Te24      1.0  0.30944  0.72198  0.08561  1.0000
  Mg  Mg11      1.0  0.49321  0.82984  0.47940  1.0000
  Mg  Mg12      1.0  0.28027  0.74766  0.03843  1.0000
  C  Sn25      1.0  0.78240  0.37417  0.83854  1.0000
  C   C85       1.0  0.75376  0.38167  0.78139  1.0000
  C  Sn26      1.0  0.76171  0.40779  0.68263  1.0000
  C  Sn27      1.0  0.79905  0.42679  0.64000  1.0000
  C   C86       1.0  0.82766  0.41928  0.69711  1.0000
  C  Sn28      1.0  0.81974  0.39317  0.79590  1.0000
  O  Te25      1.0  0.77380  0.34795  0.93710  1.0000
  O  Te26      1.0  0.73262  0.41482  0.62703  1.0000
  O  Te27      1.0  0.80763  0.45302  0.54135  1.0000
  O  Te28      1.0  0.84880  0.38613  0.85146  1.0000
  Mg  Mg13      1.0  0.75839  0.45297  0.49579  1.0000
  Mg  Mg14      1.0  0.82306  0.34798  0.98262  1.0000
  C  Sn29      1.0  0.62841  0.41308  0.91331  1.0000
  C   C87       1.0  0.61712  0.37411  0.80477  1.0000
  C  Sn30      1.0  0.58424  0.35175  0.65823  1.0000
  C  Sn31      1.0  0.56220  0.36869  0.61928  1.0000
  C   C88       1.0  0.57350  0.40764  0.72776  1.0000
  C  Sn32      1.0  0.60637  0.43003  0.87436  1.0000
  O  Te29      1.0  0.60659  0.35732  0.05911  1.0000
  O  Te30      1.0  0.57351  0.31284  0.55169  1.0000
  O  Te31      1.0  0.52920  0.34685  0.47334  1.0000
  O  Te32      1.0  0.61711  0.46891  0.98083  1.0000
  Mg  Mg15      1.0  0.52633  0.29508  0.36790  1.0000
  Mg  Mg16      1.0  0.60950  0.40915  0.16459  1.0000
  C  Sn33      1.0  0.63412  0.19573  0.68441  1.0000
  C   C89       1.0  0.60148  0.17444  0.75120  1.0000
  C  Sn34      1.0  0.57683  0.18891  0.79071  1.0000
  C  Sn35      1.0  0.58495  0.22541  0.76277  1.0000
  C   C90       1.0  0.61757  0.24668  0.69598  1.0000
  C  Sn36      1.0  0.64225  0.23223  0.65646  1.0000
  O  Te33      1.0  0.65837  0.18070  0.64583  1.0000
  O  Te34      1.0  0.54438  0.16710  0.85742  1.0000
  O  Te35      1.0  0.56067  0.24043  0.80141  1.0000
  O  Te36      1.0  0.67467  0.25402  0.58977  1.0000
  Mg  Mg17      1.0  0.52004  0.19988  0.88964  1.0000
  Mg  Mg18      1.0  0.69902  0.22125  0.55741  1.0000
  C  Sn37      1.0  0.21287  0.57265  0.60870  1.0000
  C   C91       1.0  0.24048  0.61435  0.69635  1.0000
  C  Sn38      1.0  0.23398  0.63602  0.84251  1.0000
  C  Sn39      1.0  0.19916  0.61559  0.90240  1.0000
  C   C92       1.0  0.17158  0.57392  0.81480  1.0000
  C  Sn40      1.0  0.17805  0.55222  0.66859  1.0000
  O  Te37      1.0  0.21998  0.55159  0.46288  1.0000
  O  Te38      1.0  0.26200  0.67770  0.92794  1.0000
  O  Te39      1.0  0.13728  0.55913  0.04835  1.0000
  O  Te40      1.0  0.15005  0.51057  0.58321  1.0000
  Mg  Mg19      1.0  0.18422  0.61555  0.12070  1.0000
  Mg  Mg20      1.0  0.17302  0.49512  0.39051  1.0000
  C  Sn41      1.0  0.43990  0.64199  0.74873  1.0000
  C   C93       1.0  0.43006  0.60685  0.78925  1.0000
  C  Sn42      1.0  0.39089  0.57919  0.78821  1.0000
  C  Sn43      1.0  0.36092  0.58680  0.74568  1.0000
  C   C94       1.0  0.37077  0.62192  0.70517  1.0000
  C  Sn44      1.0  0.40994  0.64960  0.70620  1.0000
  O  Te41      1.0  0.47926  0.66922  0.75057  1.0000
  O  Te42      1.0  0.38177  0.54428  0.82923  1.0000
  O  Te43      1.0  0.32154  0.55953  0.74388  1.0000
  O  Te44      1.0  0.41906  0.68449  0.66519  1.0000
  Mg  Mg21      1.0  0.32388  0.51630  0.80890  1.0000
  Mg  Mg22      1.0  0.47694  0.71248  0.68538  1.0000
  C  Sn45      1.0  0.35204  0.76814  0.60891  1.0000
  C   C95       1.0  0.36836  0.75042  0.68697  1.0000
  C  Sn46      1.0  0.40353  0.77489  0.82191  1.0000
  C  Sn47      1.0  0.42279  0.81796  0.88014  1.0000
  C   C96       1.0  0.40647  0.83566  0.80213  1.0000
  C  Sn48      1.0  0.37130  0.81122  0.66714  1.0000
  O  Te45      1.0  0.31685  0.74309  0.47422  1.0000
  O  Te46      1.0  0.41928  0.75647  0.89789  1.0000
  O  Te47      1.0  0.40321  0.76545  0.01494  1.0000
  O  Te48      1.0  0.35554  0.82961  0.59121  1.0000
  Mg  Mg23      1.0  0.41303  0.72599  0.07717  1.0000
  Mg  Mg24      1.0  0.30700  0.78256  0.41199  1.0000
