data_image0
_chemical_formula_structural       H24C36N12SnCSn2CSnTe4Mg2SnCSn2CSnTe4Mg2SnCSn2CSnTe4Mg2SnCSn2CSnTe4Mg2SnCSn2CSnTe4Mg2SnCSn2CSnTe4Mg2SnCSn2CSnTe4Mg2SnCSn2CSnTe4Mg2SnCSn2CSnTe4Mg2SnCSn2CSnTe4Mg2SnCSn2CSnTe4Mg2SnCSn2CSnTe4Mg2SnCSn2CSnTe4Mg2SnCSn2CSnTe4Mg2SnCSn2CSnTe4Mg2SnCSn2CSnTe4Mg2SnCSn2CSnTe4Mg2SnCSn2CSnTe4Mg2
_chemical_formula_sum              "H24 C72 N12 Sn72 Te72 Mg36"
_cell_length_a       37.1577
_cell_length_b       37.4279
_cell_length_c       8.02529
_cell_angle_alpha    111.935
_cell_angle_beta     71.1233
_cell_angle_gamma    120.385

_symmetry_space_group_name_H-M    'P1'
_space_group_IT_number       1

loop_
  _space_group_symop_operation_xyz
  'x, y, z'

loop_
  _atom_site_type_symbol
  _atom_site_label
  _atom_site_symmetry_multiplicity
  _atom_site_fract_x
  _atom_site_fract_y
  _atom_site_fract_z
  _atom_site_occupancy
  H   H1        1.0  0.69649  0.40689  0.23701  1.0000
  H   H2        1.0  0.58537  0.28685  0.22183  1.0000
  H   H3        1.0  0.70380  0.29527  0.23273  1.0000
  H   H4        1.0  0.30199  0.58848  0.24109  1.0000
  H   H5        1.0  0.40894  0.71115  0.23585  1.0000
  H   H6        1.0  0.28440  0.69378  0.25054  1.0000
  H   H7        1.0  0.89375  0.41850  0.35640  1.0000
  H   H8        1.0  0.58404  0.48870  0.28582  1.0000
  H   H9        1.0  0.51117  0.09612  0.20016  1.0000
  H   H10       1.0  0.09940  0.57733  0.23305  1.0000
  H   H11       1.0  0.42223  0.51585  0.17568  1.0000
  H   H12       1.0  0.47986  0.89964  0.23118  1.0000
  H   H13       1.0  0.69613  0.41072  0.74026  1.0000
  H   H14       1.0  0.58909  0.28719  0.71570  1.0000
  H   H15       1.0  0.71120  0.30171  0.71155  1.0000
  H   H16       1.0  0.30286  0.59242  0.74835  1.0000
  H   H17       1.0  0.41353  0.71207  0.73222  1.0000
  H   H18       1.0  0.29078  0.70136  0.76266  1.0000
  H   H19       1.0  0.89883  0.42665  0.83031  1.0000
  H   H20       1.0  0.58061  0.48464  0.77507  1.0000
  H   H21       1.0  0.52182  0.09927  0.69945  1.0000
  H   H22       1.0  0.10352  0.58880  0.74602  1.0000
  H   H23       1.0  0.42083  0.51578  0.67600  1.0000
  H   H24       1.0  0.49120  0.90685  0.77508  1.0000
  C   C1        1.0  0.70657  0.35474  0.23549  1.0000
  C   C2        1.0  0.63840  0.34935  0.22793  1.0000
  C   C3        1.0  0.64276  0.28620  0.22525  1.0000
  C   C4        1.0  0.28848  0.63836  0.24639  1.0000
  C   C5        1.0  0.35900  0.64808  0.24185  1.0000
  C   C6        1.0  0.34916  0.70833  0.24204  1.0000
  C   C7        1.0  0.68186  0.37321  0.23426  1.0000
  C   C8        1.0  0.61915  0.30572  0.22408  1.0000
  C   C9        1.0  0.68621  0.31093  0.22968  1.0000
  C   C10       1.0  0.31538  0.62201  0.24279  1.0000
  C   C11       1.0  0.37519  0.69092  0.23964  1.0000
  C   C12       1.0  0.30557  0.68152  0.24847  1.0000
  C   C13       1.0  0.90748  0.44556  0.29589  1.0000
  C   C14       1.0  0.55102  0.46608  0.26847  1.0000
  C   C15       1.0  0.53194  0.08550  0.21948  1.0000
  C   C16       1.0  0.08712  0.54447  0.24357  1.0000
  C   C17       1.0  0.45395  0.53932  0.20870  1.0000
  C   C18       1.0  0.45665  0.90947  0.22957  1.0000
  C   C19       1.0  0.70983  0.35996  0.72630  1.0000
  C   C20       1.0  0.63972  0.35117  0.72638  1.0000
  C   C21       1.0  0.64839  0.28957  0.71229  1.0000
  C   C22       1.0  0.29212  0.64422  0.75606  1.0000
  C   C23       1.0  0.36162  0.65026  0.74252  1.0000
  C   C24       1.0  0.35495  0.71263  0.74680  1.0000
  C   C25       1.0  0.68312  0.37687  0.73192  1.0000
  C   C26       1.0  0.62273  0.30751  0.71758  1.0000
  C   C27       1.0  0.69172  0.31598  0.71464  1.0000
  C   C28       1.0  0.31771  0.62600  0.74857  1.0000
  C   C29       1.0  0.37952  0.69326  0.73984  1.0000
  C   C30       1.0  0.31092  0.68756  0.75735  1.0000
  C   C31       1.0  0.91119  0.45572  0.78518  1.0000
  C   C32       1.0  0.54764  0.46196  0.75731  1.0000
  C   C33       1.0  0.54361  0.08940  0.71532  1.0000
  C   C34       1.0  0.09085  0.55525  0.74884  1.0000
  C   C35       1.0  0.45260  0.53845  0.71005  1.0000
  C   C36       1.0  0.46924  0.91538  0.75174  1.0000
  N   N1        1.0  0.88495  0.45443  0.23795  1.0000
  N   N2        1.0  0.53632  0.42548  0.24974  1.0000
  N   N3        1.0  0.57141  0.11089  0.22974  1.0000
  N   N4        1.0  0.11218  0.52985  0.24177  1.0000
  N   N5        1.0  0.46759  0.57982  0.22862  1.0000
  N   N6        1.0  0.41694  0.88328  0.22948  1.0000
  N   N7        1.0  0.88740  0.46580  0.74190  1.0000
  N   N8        1.0  0.53316  0.42145  0.73960  1.0000
  N   N9        1.0  0.58335  0.11516  0.71638  1.0000
  N   N10       1.0  0.11517  0.53970  0.74619  1.0000
  N   N11       1.0  0.46707  0.57912  0.73169  1.0000
  N   N12       1.0  0.43031  0.88851  0.73451  1.0000
  C  Sn1       1.0  0.78618  0.42477  0.16323  1.0000
  C   C37       1.0  0.75930  0.38376  0.18957  1.0000
  C  Sn2       1.0  0.77241  0.36479  0.26384  1.0000
  C  Sn3       1.0  0.81323  0.38728  0.31293  1.0000
  C   C38       1.0  0.84008  0.42826  0.28662  1.0000
  C  Sn4       1.0  0.82700  0.44726  0.21232  1.0000
  O  Te1       1.0  0.77241  0.44312  0.08877  1.0000
  O  Te2       1.0  0.74498  0.32375  0.28883  1.0000
  O  Te3       1.0  0.82698  0.36889  0.38744  1.0000
  O  Te4       1.0  0.85439  0.48828  0.18737  1.0000
  Mg  Mg1       1.0  0.77817  0.31231  0.39519  1.0000
  Mg  Mg2       1.0  0.82124  0.49975  0.08111  1.0000
  C  Sn5       1.0  0.54817  0.35506  0.19445  1.0000
  C   C39       1.0  0.55410  0.39724  0.28160  1.0000
  C  Sn6       1.0  0.59292  0.42865  0.33454  1.0000
  C  Sn7       1.0  0.62653  0.41769  0.29955  1.0000
  C   C40       1.0  0.62059  0.37553  0.21242  1.0000
  C  Sn8       1.0  0.58177  0.34409  0.15946  1.0000
  O  Te5       1.0  0.50909  0.32417  0.14271  1.0000
  O  Te6       1.0  0.59810  0.47061  0.42152  1.0000
  O  Te7       1.0  0.66562  0.44862  0.35137  1.0000
  O  Te8       1.0  0.57659  0.30216  0.07250  1.0000
  Mg  Mg3       1.0  0.65722  0.50134  0.46583  1.0000
  Mg  Mg4       1.0  0.51749  0.27141  0.02805  1.0000
  C  Sn9       1.0  0.63937  0.18524  0.15847  1.0000
  C   C41       1.0  0.60076  0.16194  0.25638  1.0000
  C  Sn10      1.0  0.56985  0.17697  0.33063  1.0000
  C  Sn11      1.0  0.57768  0.21610  0.30643  1.0000
  C   C42       1.0  0.61627  0.23937  0.20855  1.0000
  C  Sn12      1.0  0.64720  0.22436  0.13427  1.0000
  O  Te9       1.0  0.66982  0.16960  0.08543  1.0000
  O  Te10      1.0  0.53150  0.15312  0.42804  1.0000
  O  Te11      1.0  0.54719  0.23172  0.37958  1.0000
  O  Te12      1.0  0.68553  0.24819  0.03689  1.0000
  Mg  Mg5       1.0  0.49993  0.18772  0.50137  1.0000
  Mg  Mg6       1.0  0.67805  0.27409  0.96342  1.0000
  C  Sn13      1.0  0.21994  0.56616  0.08003  1.0000
  C   C43       1.0  0.23958  0.60740  0.18991  1.0000
  C  Sn14      1.0  0.21635  0.62339  0.34735  1.0000
  C  Sn15      1.0  0.17258  0.59760  0.39606  1.0000
  C   C44       1.0  0.15297  0.55638  0.28623  1.0000
  C  Sn16      1.0  0.17618  0.54037  0.12874  1.0000
  O  Te13      1.0  0.20472  0.61132  0.92325  1.0000
  O  Te14      1.0  0.23667  0.66473  0.45501  1.0000
  O  Te15      1.0  0.14875  0.61296  0.55298  1.0000
  O  Te16      1.0  0.15588  0.49905  0.02113  1.0000
  Mg  Mg7       1.0  0.19069  0.67129  0.65554  1.0000
  Mg  Mg8       1.0  0.16277  0.55293  0.82063  1.0000
  C  Sn17      1.0  0.45603  0.64512  0.20893  1.0000
  C   C45       1.0  0.44483  0.60978  0.26959  1.0000
  C  Sn18      1.0  0.40238  0.58082  0.30378  1.0000
  C  Sn19      1.0  0.37044  0.58730  0.27666  1.0000
  C   C46       1.0  0.38165  0.62261  0.21601  1.0000
  C  Sn20      1.0  0.42410  0.65160  0.18182  1.0000
  O  Te17      1.0  0.49867  0.67367  0.17561  1.0000
  O  Te18      1.0  0.39196  0.54573  0.36440  1.0000
  O  Te19      1.0  0.32778  0.55872  0.31005  1.0000
  O  Te20      1.0  0.43452  0.68666  0.12120  1.0000
  Mg  Mg9       1.0  0.32946  0.51577  0.39095  1.0000
  Mg  Mg10      1.0  0.49701  0.71664  0.09451  1.0000
  C  Sn21      1.0  0.34997  0.80422  0.23882  1.0000
  C   C47       1.0  0.38895  0.83759  0.28263  1.0000
  C  Sn22      1.0  0.42049  0.82873  0.29133  1.0000
  C  Sn23      1.0  0.41291  0.78562  0.25537  1.0000
  C   C48       1.0  0.37395  0.75228  0.21156  1.0000
  C  Sn24      1.0  0.34239  0.76111  0.20286  1.0000
  O  Te21      1.0  0.31890  0.81382  0.23090  1.0000
  O  Te22      1.0  0.45920  0.86263  0.33547  1.0000
  O  Te23      1.0  0.44402  0.77603  0.26333  1.0000
  O  Te24      1.0  0.30370  0.72724  0.15872  1.0000
  Mg  Mg11      1.0  0.49159  0.83324  0.32914  1.0000
  Mg  Mg12      1.0  0.27130  0.75659  0.16492  1.0000
  C  Sn25      1.0  0.45947  0.47126  0.25204  1.0000
  C   C49       1.0  0.47185  0.51444  0.27174  1.0000
  C  Sn26      1.0  0.51437  0.54407  0.27044  1.0000
  C  Sn27      1.0  0.54516  0.53024  0.24889  1.0000
  C   C50       1.0  0.53279  0.48708  0.22916  1.0000
  C  Sn28      1.0  0.49027  0.45743  0.23048  1.0000
  O  Te25      1.0  0.41679  0.44220  0.25373  1.0000
  O  Te26      1.0  0.52597  0.58707  0.29044  1.0000
  O  Te27      1.0  0.58787  0.55934  0.24721  1.0000
  O  Te28      1.0  0.47866  0.41445  0.21047  1.0000
  Mg  Mg13      1.0  0.58803  0.61448  0.27923  1.0000
  Mg  Mg14      1.0  0.41662  0.38701  0.22157  1.0000
  C  Sn29      1.0  0.96913  0.00754  0.24887  1.0000
  C   C51       1.0  0.50092  0.03844  0.27162  1.0000
  C  Sn30      1.0  0.53180  0.02622  0.25817  1.0000
  C  Sn31      1.0  0.03069  0.98219  0.22110  1.0000
  C   C52       1.0  0.98943  0.95132  0.19834  1.0000
  C  Sn32      1.0  0.95852  0.96352  0.21180  1.0000
  O  Te29      1.0  0.42928  0.02049  0.26288  1.0000
  O  Te30      1.0  0.57286  0.05769  0.28150  1.0000
  O  Te31      1.0  0.06109  0.96926  0.20710  1.0000
  O  Te32      1.0  0.91749  0.93207  0.18846  1.0000
  Mg  Mg15      1.0  0.60314  0.02407  0.24954  1.0000
  Mg  Mg16      1.0  0.88719  0.96565  0.22030  1.0000
  C  Sn33      1.0  0.00579  0.53789  0.29006  1.0000
  C   C53       1.0  0.03488  0.52672  0.30666  1.0000
  C  Sn34      1.0  0.02345  0.48422  0.29515  1.0000
  C  Sn35      1.0  0.98208  0.45221  0.26633  1.0000
  C   C54       1.0  0.95302  0.46338  0.24971  1.0000
  C  Sn36      1.0  0.96442  0.50588  0.26124  1.0000
  O  Te33      1.0  0.01790  0.58058  0.30200  1.0000
  O  Te34      1.0  0.05308  0.47384  0.31222  1.0000
  O  Te35      1.0  0.96999  0.40950  0.25439  1.0000
  O  Te36      1.0  0.93482  0.51627  0.24415  1.0000
  Mg  Mg17      1.0  0.02156  0.41125  0.28616  1.0000
  Mg  Mg18      1.0  0.96631  0.57884  0.27010  1.0000
  C  Sn37      1.0  0.78894  0.43015  0.64414  1.0000
  C   C55       1.0  0.76273  0.38989  0.67916  1.0000
  C  Sn38      1.0  0.77575  0.37410  0.76986  1.0000
  C  Sn39      1.0  0.81580  0.39910  0.82686  1.0000
  C   C56       1.0  0.84199  0.43933  0.79187  1.0000
  C  Sn40      1.0  0.82900  0.45514  0.70114  1.0000
  O  Te37      1.0  0.77528  0.44529  0.55328  1.0000
  O  Te38      1.0  0.74900  0.33375  0.80327  1.0000
  O  Te39      1.0  0.82946  0.38392  0.91779  1.0000
  O  Te40      1.0  0.85572  0.49547  0.66776  1.0000
  Mg  Mg19      1.0  0.78173  0.32706  0.93181  1.0000
  Mg  Mg20      1.0  0.82301  0.50220  0.53932  1.0000
  C  Sn41      1.0  0.57694  0.35059  0.59415  1.0000
  C   C57       1.0  0.61212  0.36962  0.67911  1.0000
  C  Sn42      1.0  0.61964  0.40718  0.81992  1.0000
  C  Sn43      1.0  0.59138  0.42610  0.87711  1.0000
  C   C58       1.0  0.55622  0.40707  0.79220  1.0000
  C  Sn44      1.0  0.54869  0.36951  0.65134  1.0000
  O  Te41      1.0  0.57005  0.31305  0.45367  1.0000
  O  Te42      1.0  0.65503  0.42562  0.90274  1.0000
  O  Te43      1.0  0.63737  0.40319  0.01771  1.0000
  O  Te44      1.0  0.51332  0.35107  0.56857  1.0000
  Mg  Mg21      1.0  0.68993  0.41623  0.08822  1.0000
  Mg  Mg22      1.0  0.51743  0.29997  0.38315  1.0000
  C  Sn45      1.0  0.64520  0.20600  0.55380  1.0000
  C   C59       1.0  0.62805  0.23506  0.65435  1.0000
  C  Sn46      1.0  0.59652  0.22698  0.80679  1.0000
  C  Sn47      1.0  0.58184  0.18906  0.85991  1.0000
  C   C60       1.0  0.59899  0.16002  0.75941  1.0000
  C  Sn48      1.0  0.63052  0.16808  0.60693  1.0000
  O  Te45      1.0  0.67669  0.21474  0.40189  1.0000
  O  Te46      1.0  0.57985  0.25650  0.90512  1.0000
  O  Te47      1.0  0.58938  0.11985  0.01196  1.0000
  O  Te48      1.0  0.64719  0.13859  0.50865  1.0000
  Mg  Mg23      1.0  0.57656  0.16984  0.10196  1.0000
  Mg  Mg24      1.0  0.68955  0.16474  0.31185  1.0000
  C  Sn49      1.0  0.19709  0.54890  0.66261  1.0000
  C   C61       1.0  0.16374  0.55858  0.77258  1.0000
  C  Sn50      1.0  0.17143  0.60072  0.87059  1.0000
  C  Sn51      1.0  0.21333  0.63390  0.85836  1.0000
  C   C62       1.0  0.24664  0.62422  0.74842  1.0000
  C  Sn52      1.0  0.23898  0.58208  0.65038  1.0000
  O  Te49      1.0  0.18867  0.50654  0.56582  1.0000
  O  Te50      1.0  0.13758  0.60961  0.97967  1.0000
  O  Te51      1.0  0.22173  0.67629  0.95527  1.0000
  O  Te52      1.0  0.27281  0.57319  0.54133  1.0000
  Mg  Mg25      1.0  0.20416  0.61183  0.08534  1.0000
  Mg  Mg26      1.0  0.24532  0.51050  0.43553  1.0000
  C  Sn53      1.0  0.45703  0.64480  0.70643  1.0000
  C   C63       1.0  0.44522  0.60981  0.77091  1.0000
  C  Sn54      1.0  0.40259  0.58136  0.80590  1.0000
  C  Sn55      1.0  0.37110  0.58800  0.77570  1.0000
  C   C64       1.0  0.38292  0.62296  0.71123  1.0000
  C  Sn56      1.0  0.42555  0.65144  0.67623  1.0000
  O  Te53      1.0  0.49984  0.67283  0.67238  1.0000
  O  Te54      1.0  0.39155  0.54662  0.87036  1.0000
  O  Te55      1.0  0.32827  0.55993  0.80982  1.0000
  O  Te56      1.0  0.43659  0.68615  0.61178  1.0000
  Mg  Mg27      1.0  0.32906  0.51730  0.89644  1.0000
  Mg  Mg28      1.0  0.49907  0.71547  0.58556  1.0000
  C  Sn57      1.0  0.43855  0.81762  0.74124  1.0000
  C   C65       1.0  0.42274  0.83944  0.69868  1.0000
  C  Sn58      1.0  0.37971  0.82154  0.69238  1.0000
  C  Sn59      1.0  0.35189  0.78100  0.72952  1.0000
  C   C66       1.0  0.36771  0.75920  0.77208  1.0000
  C  Sn60      1.0  0.41074  0.77707  0.77837  1.0000
  O  Te57      1.0  0.48168  0.83611  0.74676  1.0000
  O  Te58      1.0  0.36464  0.84396  0.64945  1.0000
  O  Te59      1.0  0.30873  0.76251  0.72396  1.0000
  O  Te60      1.0  0.42580  0.75468  0.82130  1.0000
  Mg  Mg29      1.0  0.30333  0.80548  0.65904  1.0000
  Mg  Mg30      1.0  0.48709  0.79314  0.81185  1.0000
  C  Sn61      1.0  0.52987  0.54308  0.72530  1.0000
  C   C67       1.0  0.48888  0.52304  0.68690  1.0000
  C  Sn62      1.0  0.46219  0.48056  0.69419  1.0000
  C  Sn63      1.0  0.47676  0.45764  0.74094  1.0000
  C   C68       1.0  0.51773  0.47768  0.77934  1.0000
  C  Sn64      1.0  0.54445  0.52016  0.77205  1.0000
  O  Te61      1.0  0.55601  0.58557  0.71719  1.0000
  O  Te62      1.0  0.42134  0.46121  0.65518  1.0000
  O  Te63      1.0  0.45058  0.41512  0.74902  1.0000
  O  Te64      1.0  0.58527  0.53951  0.81106  1.0000
  Mg  Mg31      1.0  0.39758  0.40274  0.68449  1.0000
  Mg  Mg32      1.0  0.60904  0.59799  0.78188  1.0000
  C  Sn65      1.0  0.53121  0.00033  0.82932  1.0000
  C   C69       1.0  0.49103  0.96821  0.79509  1.0000
  C  Sn66      1.0  0.46784  0.97357  0.70740  1.0000
  C  Sn67      1.0  0.48518  0.01183  0.65267  1.0000
  C   C70       1.0  0.01585  0.04392  0.68687  1.0000
  C  Sn68      1.0  0.54856  0.03858  0.77459  1.0000
  O  Te65      1.0  0.55384  0.99428  0.91716  1.0000
  O  Te66      1.0  0.42772  0.94102  0.67472  1.0000
  O  Te67      1.0  0.46252  0.01786  0.56476  1.0000
  O  Te68      1.0  0.07916  0.07111  0.80724  1.0000
  Mg  Mg33      1.0  0.40919  0.96426  0.55060  1.0000
  Mg  Mg34      1.0  0.60722  0.04789  0.93125  1.0000
  C  Sn69      1.0  0.00964  0.54874  0.78725  1.0000
  C   C71       1.0  0.03850  0.53713  0.80294  1.0000
  C  Sn70      1.0  0.02696  0.49438  0.78733  1.0000
  C  Sn71      1.0  0.98574  0.46255  0.75525  1.0000
  C   C72       1.0  0.95692  0.47416  0.73954  1.0000
  C  Sn72      1.0  0.96842  0.51691  0.75517  1.0000
  O  Te69      1.0  0.02186  0.59167  0.80331  1.0000
  O  Te70      1.0  0.05635  0.48356  0.80358  1.0000
  O  Te71      1.0  0.97355  0.41959  0.73920  1.0000
  O  Te72      1.0  0.93907  0.52773  0.73890  1.0000
  Mg  Mg35      1.0  0.02478  0.42077  0.77141  1.0000
  Mg  Mg36      1.0  0.97061  0.59051  0.77096  1.0000
